MODEL        1
REMARK 921   NORMALIZED FREE ENERGY PREDICTED BY IDOCK:   -7.74 KCAL/MOL
REMARK 922        TOTAL FREE ENERGY PREDICTED BY IDOCK:   -9.30 KCAL/MOL
REMARK 923 INTER-LIGAND FREE ENERGY PREDICTED BY IDOCK:   -8.65 KCAL/MOL
REMARK 924 INTRA-LIGAND FREE ENERGY PREDICTED BY IDOCK:   -0.66 KCAL/MOL
REMARK 927      BINDING AFFINITY PREDICTED BY RF-SCORE:    0.00 PKD
ROOT
HETATM    1  C   UNL     1      -7.802  12.660  68.550  1.00  0.00    -0.104 C  
HETATM    2  O   UNL     1      -8.723  12.640  67.477  1.00  0.00    -0.164 OA 
HETATM    3  C   UNL     1     -10.109  12.251  67.688  1.00  0.00    -0.200 C  
HETATM    4  C   UNL     1     -10.795  13.299  68.631  1.00  0.00    -0.285 A  
HETATM    5  C   UNL     1     -10.688  12.291  66.243  1.00  0.00    -0.293 A  
HETATM    6  C   UNL     1     -10.262  10.772  68.250  1.00  0.00    -0.167 C  
HETATM    7  C   UNL     1      -9.747   9.673  67.327  1.00  0.00    -0.166 C  
HETATM    8  C   UNL     1      -9.872  11.884  65.158  1.00  0.00    -0.243 A  
HETATM    9  C   UNL     1     -10.360  14.637  68.676  1.00  0.00    -0.246 A  
HETATM   10  C   UNL     1     -12.529  12.470  64.653  1.00  0.00    -0.539 A  
HETATM   11  O   UNL     1     -10.402   9.143  66.441  1.00  0.00    -0.258 OA 
HETATM   12  C   UNL     1     -10.855  15.536  69.633  1.00  0.00    -0.285 A  
HETATM   13  C   UNL     1     -10.380  11.729  63.868  1.00  0.00    -0.428 A  
HETATM   14  C   UNL     1     -12.024  12.610  65.954  1.00  0.00    -0.497 A  
HETATM   15  O   UNL     1      -8.480   9.254  67.601  1.00  0.00    -0.116 OA 
HETATM   16  C   UNL     1     -11.852  12.956  69.502  1.00  0.00    -0.383 A  
HETATM   17  C   UNL     1     -11.818  15.129  70.551  1.00  0.00    -0.361 A  
HETATM   18  C   UNL     1     -11.716  12.009  63.619  1.00  0.00    -0.587 A  
HETATM   19  C   UNL     1     -12.333  13.843  70.471  1.00  0.00    -0.439 A  
ENDROOT
BRANCH   6  20
HETATM   20  O   UNL     1      -9.532  10.591  69.484  1.00  0.00    -0.179 OA 
BRANCH  20  21
HETATM   21  C   UNL     1     -10.166   9.836  70.439  1.00  0.00    -0.281 A  
HETATM   22  C   UNL     1     -13.553   9.126  71.607  1.00  0.00    -0.451 C  
HETATM   23  N   UNL     1     -11.504   9.803  70.480  1.00  0.00    -0.281 NA 
HETATM   24  C   UNL     1     -11.295   8.452  72.441  1.00  0.00    -0.448 A  
HETATM   25  C   UNL     1     -12.057   9.117  71.501  1.00  0.00    -0.351 A  
HETATM   26  C   UNL     1      -9.924   8.516  72.286  1.00  0.00    -0.315 A  
HETATM   27  C   UNL     1      -9.008   7.844  73.263  1.00  0.00    -0.326 C  
HETATM   28  N   UNL     1      -9.342   9.204  71.281  1.00  0.00    -0.249 NA 
ENDBRANCH  20  21
ENDBRANCH   6  20
TORSDOF 2
ENDMDL
MODEL        2
REMARK 921   NORMALIZED FREE ENERGY PREDICTED BY IDOCK:   -7.14 KCAL/MOL
REMARK 922        TOTAL FREE ENERGY PREDICTED BY IDOCK:   -8.64 KCAL/MOL
REMARK 923 INTER-LIGAND FREE ENERGY PREDICTED BY IDOCK:   -8.06 KCAL/MOL
REMARK 924 INTRA-LIGAND FREE ENERGY PREDICTED BY IDOCK:   -0.58 KCAL/MOL
REMARK 927      BINDING AFFINITY PREDICTED BY RF-SCORE:    0.00 PKD
ROOT
HETATM    1  C   UNL     1     -13.033  13.728  66.044  1.00  0.00    -0.073 C  
HETATM    2  O   UNL     1     -11.877  14.532  66.171  1.00  0.00    -0.374 OA 
HETATM    3  C   UNL     1     -10.645  13.990  66.724  1.00  0.00    -0.277 C  
HETATM    4  C   UNL     1     -10.108  12.869  65.769  1.00  0.00    -0.294 A  
HETATM    5  C   UNL     1      -9.715  15.238  66.749  1.00  0.00    -0.249 A  
HETATM    6  C   UNL     1     -10.812  13.457  68.212  1.00  0.00    -0.256 C  
HETATM    7  C   UNL     1     -11.197  14.517  69.239  1.00  0.00    -0.281 C  
HETATM    8  C   UNL     1     -10.268  16.508  67.052  1.00  0.00    -0.288 A  
HETATM    9  C   UNL     1     -10.383  12.892  64.388  1.00  0.00    -0.393 A  
HETATM   10  C   UNL     1      -7.521  16.303  66.786  1.00  0.00    -0.266 A  
HETATM   11  O   UNL     1     -10.402  15.225  69.841  1.00  0.00    -0.269 OA 
HETATM   12  C   UNL     1     -10.049  11.811  63.557  1.00  0.00    -0.463 A  
HETATM   13  C   UNL     1      -9.468  17.632  67.263  1.00  0.00    -0.257 A  
HETATM   14  C   UNL     1      -8.322  15.169  66.591  1.00  0.00    -0.162 A  
HETATM   15  O   UNL     1     -12.531  14.587  69.504  1.00  0.00    -0.257 OA 
HETATM   16  C   UNL     1      -9.355  11.771  66.237  1.00  0.00    -0.235 A  
HETATM   17  C   UNL     1      -9.406  10.693  64.079  1.00  0.00    -0.303 A  
HETATM   18  C   UNL     1      -8.090  17.524  67.144  1.00  0.00    -0.229 A  
HETATM   19  C   UNL     1      -9.039  10.683  65.417  1.00  0.00    -0.214 A  
ENDROOT
BRANCH   6  20
HETATM   20  O   UNL     1     -11.849  12.456  68.308  1.00  0.00    -0.326 OA 
BRANCH  20  21
HETATM   21  C   UNL     1     -11.605  11.437  69.195  1.00  0.00    -0.314 A  
HETATM   22  C   UNL     1     -13.183   9.839  72.076  1.00  0.00    -0.557 C  
HETATM   23  N   UNL     1     -12.532  11.112  70.106  1.00  0.00    -0.269 NA 
HETATM   24  C   UNL     1     -10.959   9.536  70.975  1.00  0.00    -0.424 A  
HETATM   25  C   UNL     1     -12.187  10.168  71.003  1.00  0.00    -0.374 A  
HETATM   26  C   UNL     1     -10.090   9.916  69.971  1.00  0.00    -0.260 A  
HETATM   27  C   UNL     1      -8.725   9.305  69.864  1.00  0.00    -0.189 C  
HETATM   28  N   UNL     1     -10.403  10.867  69.066  1.00  0.00    -0.206 NA 
ENDBRANCH  20  21
ENDBRANCH   6  20
TORSDOF 2
ENDMDL
MODEL        3
REMARK 921   NORMALIZED FREE ENERGY PREDICTED BY IDOCK:   -7.13 KCAL/MOL
REMARK 922        TOTAL FREE ENERGY PREDICTED BY IDOCK:   -8.62 KCAL/MOL
REMARK 923 INTER-LIGAND FREE ENERGY PREDICTED BY IDOCK:   -8.02 KCAL/MOL
REMARK 924 INTRA-LIGAND FREE ENERGY PREDICTED BY IDOCK:   -0.61 KCAL/MOL
REMARK 927      BINDING AFFINITY PREDICTED BY RF-SCORE:    0.00 PKD
ROOT
HETATM    1  C   UNL     1     -13.036  13.653  66.057  1.00  0.00    -0.005 C  
HETATM    2  O   UNL     1     -11.929  14.527  66.152  1.00  0.00    -0.372 OA 
HETATM    3  C   UNL     1     -10.656  14.068  66.689  1.00  0.00    -0.274 C  
HETATM    4  C   UNL     1     -10.069  12.969  65.738  1.00  0.00    -0.294 A  
HETATM    5  C   UNL     1      -9.804  15.370  66.681  1.00  0.00    -0.269 A  
HETATM    6  C   UNL     1     -10.764  13.546  68.186  1.00  0.00    -0.252 C  
HETATM    7  C   UNL     1     -11.194  14.595  69.207  1.00  0.00    -0.282 C  
HETATM    8  C   UNL     1     -10.427  16.609  66.979  1.00  0.00    -0.283 A  
HETATM    9  C   UNL     1     -10.370  12.956  64.362  1.00  0.00    -0.393 A  
HETATM   10  C   UNL     1      -7.678  16.566  66.665  1.00  0.00    -0.318 A  
HETATM   11  O   UNL     1     -10.433  15.358  69.785  1.00  0.00    -0.260 OA 
HETATM   12  C   UNL     1      -9.986  11.886  63.539  1.00  0.00    -0.422 A  
HETATM   13  C   UNL     1      -9.692  17.781  67.160  1.00  0.00    -0.288 A  
HETATM   14  C   UNL     1      -8.412  15.383  66.498  1.00  0.00    -0.248 A  
HETATM   15  O   UNL     1     -12.525  14.588  69.496  1.00  0.00    -0.257 OA 
HETATM   16  C   UNL     1      -9.243  11.924  66.206  1.00  0.00    -0.218 A  
HETATM   17  C   UNL     1      -9.267  10.816  64.063  1.00  0.00    -0.252 A  
HETATM   18  C   UNL     1      -8.313  17.755  67.017  1.00  0.00    -0.242 A  
HETATM   19  C   UNL     1      -8.877  10.846  65.393  1.00  0.00    -0.192 A  
ENDROOT
BRANCH   6  20
HETATM   20  O   UNL     1     -11.737  12.486  68.314  1.00  0.00    -0.307 OA 
BRANCH  20  21
HETATM   21  C   UNL     1     -11.433  11.515  69.235  1.00  0.00    -0.305 A  
HETATM   22  C   UNL     1      -8.767   9.127  69.964  1.00  0.00    -0.186 C  
HETATM   23  N   UNL     1     -10.250  10.891  69.179  1.00  0.00    -0.214 NA 
HETATM   24  C   UNL     1     -11.010   9.530  70.990  1.00  0.00    -0.424 A  
HETATM   25  C   UNL     1     -10.058   9.886  70.056  1.00  0.00    -0.260 A  
HETATM   26  C   UNL     1     -12.182  10.261  70.990  1.00  0.00    -0.384 A  
HETATM   27  C   UNL     1     -13.287   9.942  71.952  1.00  0.00    -0.524 C  
HETATM   28  N   UNL     1     -12.406  11.265  70.117  1.00  0.00    -0.291 NA 
ENDBRANCH  20  21
ENDBRANCH   6  20
TORSDOF 2
ENDMDL
MODEL        4
REMARK 921   NORMALIZED FREE ENERGY PREDICTED BY IDOCK:   -7.01 KCAL/MOL
REMARK 922        TOTAL FREE ENERGY PREDICTED BY IDOCK:   -8.48 KCAL/MOL
REMARK 923 INTER-LIGAND FREE ENERGY PREDICTED BY IDOCK:   -7.81 KCAL/MOL
REMARK 924 INTRA-LIGAND FREE ENERGY PREDICTED BY IDOCK:   -0.67 KCAL/MOL
REMARK 927      BINDING AFFINITY PREDICTED BY RF-SCORE:    0.00 PKD
ROOT
HETATM    1  C   UNL     1     -10.958   7.048  68.249  1.00  0.00    -0.083 C  
HETATM    2  O   UNL     1     -10.132   7.135  69.393  1.00  0.00    -0.169 OA 
HETATM    3  C   UNL     1     -10.248   8.255  70.315  1.00  0.00    -0.196 C  
HETATM    4  C   UNL     1     -11.663   8.217  70.989  1.00  0.00    -0.293 A  
HETATM    5  C   UNL     1      -9.104   7.967  71.331  1.00  0.00    -0.175 A  
HETATM    6  C   UNL     1      -9.967   9.660  69.627  1.00  0.00    -0.221 C  
HETATM    7  C   UNL     1      -8.559   9.836  69.067  1.00  0.00    -0.146 C  
HETATM    8  C   UNL     1      -7.889   7.402  70.866  1.00  0.00    -0.096 A  
HETATM    9  C   UNL     1     -12.355   7.004  71.167  1.00  0.00    -0.423 A  
HETATM   10  C   UNL     1      -8.036   8.198  73.512  1.00  0.00    -0.247 A  
HETATM   11  O   UNL     1      -7.598  10.234  69.710  1.00  0.00    -0.151 OA 
HETATM   12  C   UNL     1     -13.685   6.979  71.614  1.00  0.00    -0.348 A  
HETATM   13  C   UNL     1      -6.767   7.282  71.687  1.00  0.00    -0.051 A  
HETATM   14  C   UNL     1      -9.159   8.335  72.684  1.00  0.00    -0.327 A  
HETATM   15  O   UNL     1      -8.444   9.574  67.736  1.00  0.00    -0.118 OA 
HETATM   16  C   UNL     1     -12.328   9.385  71.420  1.00  0.00    -0.439 A  
HETATM   17  C   UNL     1     -14.347   8.164  71.922  1.00  0.00    -0.566 A  
HETATM   18  C   UNL     1      -6.838   7.695  73.009  1.00  0.00    -0.077 A  
HETATM   19  C   UNL     1     -13.660   9.366  71.846  1.00  0.00    -0.482 A  
ENDROOT
BRANCH   6  20
HETATM   20  O   UNL     1     -10.843   9.888  68.501  1.00  0.00    -0.229 OA 
BRANCH  20  21
HETATM   21  C   UNL     1     -11.235  11.190  68.313  1.00  0.00    -0.279 A  
HETATM   22  C   UNL     1     -11.947  14.179  70.288  1.00  0.00    -0.404 C  
HETATM   23  N   UNL     1     -11.308  12.020  69.361  1.00  0.00    -0.264 NA 
HETATM   24  C   UNL     1     -12.160  13.666  67.851  1.00  0.00    -0.318 A  
HETATM   25  C   UNL     1     -11.790  13.255  69.117  1.00  0.00    -0.329 A  
HETATM   26  C   UNL     1     -12.009  12.746  66.832  1.00  0.00    -0.310 A  
HETATM   27  C   UNL     1     -12.399  13.086  65.425  1.00  0.00    -0.538 C  
HETATM   28  N   UNL     1     -11.540  11.499  67.049  1.00  0.00    -0.535 NA 
ENDBRANCH  20  21
ENDBRANCH   6  20
TORSDOF 2
ENDMDL
MODEL        5
REMARK 921   NORMALIZED FREE ENERGY PREDICTED BY IDOCK:   -6.97 KCAL/MOL
REMARK 922        TOTAL FREE ENERGY PREDICTED BY IDOCK:   -8.44 KCAL/MOL
REMARK 923 INTER-LIGAND FREE ENERGY PREDICTED BY IDOCK:   -8.10 KCAL/MOL
REMARK 924 INTRA-LIGAND FREE ENERGY PREDICTED BY IDOCK:   -0.34 KCAL/MOL
REMARK 927      BINDING AFFINITY PREDICTED BY RF-SCORE:    0.00 PKD
ROOT
HETATM    1  C   UNL     1     -11.740  14.162  65.840  1.00  0.00    -0.365 C  
HETATM    2  O   UNL     1     -10.383  14.430  66.133  1.00  0.00    -0.280 OA 
HETATM    3  C   UNL     1      -9.769  13.932  67.355  1.00  0.00    -0.234 C  
HETATM    4  C   UNL     1      -9.746  12.365  67.312  1.00  0.00    -0.201 A  
HETATM    5  C   UNL     1      -8.340  14.544  67.281  1.00  0.00    -0.232 A  
HETATM    6  C   UNL     1     -10.479  14.468  68.672  1.00  0.00    -0.247 C  
HETATM    7  C   UNL     1     -10.423  15.980  68.866  1.00  0.00    -0.245 C  
HETATM    8  C   UNL     1      -8.170  15.844  66.741  1.00  0.00    -0.307 A  
HETATM    9  C   UNL     1      -9.695  11.668  66.090  1.00  0.00    -0.253 A  
HETATM   10  C   UNL     1      -5.973  14.595  67.869  1.00  0.00    -0.151 A  
HETATM   11  O   UNL     1      -9.505  16.580  69.409  1.00  0.00    -0.195 OA 
HETATM   12  C   UNL     1      -9.842  10.274  66.035  1.00  0.00    -0.292 A  
HETATM   13  C   UNL     1      -6.949  16.518  66.806  1.00  0.00    -0.241 A  
HETATM   14  C   UNL     1      -7.203  13.922  67.820  1.00  0.00    -0.173 A  
HETATM   15  O   UNL     1     -11.531  16.646  68.438  1.00  0.00    -0.258 OA 
HETATM   16  C   UNL     1      -9.809  11.574  68.479  1.00  0.00    -0.198 A  
HETATM   17  C   UNL     1     -10.015   9.537  67.203  1.00  0.00    -0.261 A  
HETATM   18  C   UNL     1      -5.853  15.896  67.385  1.00  0.00    -0.108 A  
HETATM   19  C   UNL     1      -9.976  10.186  68.428  1.00  0.00    -0.173 A  
ENDROOT
BRANCH   6  20
HETATM   20  O   UNL     1     -11.887  14.146  68.690  1.00  0.00    -0.320 OA 
BRANCH  20  21
HETATM   21  C   UNL     1     -12.392  13.777  69.912  1.00  0.00    -0.275 A  
HETATM   22  C   UNL     1     -13.081  10.739  71.819  1.00  0.00    -0.573 C  
HETATM   23  N   UNL     1     -12.401  12.485  70.265  1.00  0.00    -0.241 NA 
HETATM   24  C   UNL     1     -13.542  13.156  72.255  1.00  0.00    -0.677 A  
HETATM   25  C   UNL     1     -12.996  12.187  71.437  1.00  0.00    -0.257 A  
HETATM   26  C   UNL     1     -13.445  14.463  71.818  1.00  0.00    -0.373 A  
HETATM   27  C   UNL     1     -14.022  15.588  72.623  1.00  0.00    -0.617 C  
HETATM   28  N   UNL     1     -12.866  14.790  70.644  1.00  0.00    -0.351 NA 
ENDBRANCH  20  21
ENDBRANCH   6  20
TORSDOF 2
ENDMDL
MODEL        6
REMARK 921   NORMALIZED FREE ENERGY PREDICTED BY IDOCK:   -6.93 KCAL/MOL
REMARK 922        TOTAL FREE ENERGY PREDICTED BY IDOCK:   -8.39 KCAL/MOL
REMARK 923 INTER-LIGAND FREE ENERGY PREDICTED BY IDOCK:   -8.03 KCAL/MOL
REMARK 924 INTRA-LIGAND FREE ENERGY PREDICTED BY IDOCK:   -0.36 KCAL/MOL
REMARK 927      BINDING AFFINITY PREDICTED BY RF-SCORE:    0.00 PKD
ROOT
HETATM    1  C   UNL     1     -11.631  14.167  65.735  1.00  0.00    -0.343 C  
HETATM    2  O   UNL     1     -10.282  14.425  66.069  1.00  0.00    -0.290 OA 
HETATM    3  C   UNL     1      -9.695  13.880  67.285  1.00  0.00    -0.245 C  
HETATM    4  C   UNL     1      -9.667  12.316  67.180  1.00  0.00    -0.203 A  
HETATM    5  C   UNL     1      -8.266  14.497  67.268  1.00  0.00    -0.230 A  
HETATM    6  C   UNL     1     -10.436  14.363  68.605  1.00  0.00    -0.247 C  
HETATM    7  C   UNL     1     -10.388  15.866  68.860  1.00  0.00    -0.228 C  
HETATM    8  C   UNL     1      -8.087  15.818  66.784  1.00  0.00    -0.297 A  
HETATM    9  C   UNL     1      -9.586  11.668  65.933  1.00  0.00    -0.250 A  
HETATM   10  C   UNL     1      -5.913  14.528  67.912  1.00  0.00    -0.150 A  
HETATM   11  O   UNL     1      -9.485  16.445  69.447  1.00  0.00    -0.222 OA 
HETATM   12  C   UNL     1      -9.728  10.277  65.820  1.00  0.00    -0.297 A  
HETATM   13  C   UNL     1      -6.870  16.490  66.904  1.00  0.00    -0.248 A  
HETATM   14  C   UNL     1      -7.140  13.856  67.808  1.00  0.00    -0.181 A  
HETATM   15  O   UNL     1     -11.489  16.546  68.433  1.00  0.00    -0.301 OA 
HETATM   16  C   UNL     1      -9.754  11.480  68.314  1.00  0.00    -0.198 A  
HETATM   17  C   UNL     1      -9.926   9.494  66.954  1.00  0.00    -0.278 A  
HETATM   18  C   UNL     1      -5.786  15.848  67.482  1.00  0.00    -0.139 A  
HETATM   19  C   UNL     1      -9.917  10.095  68.204  1.00  0.00    -0.170 A  
ENDROOT
BRANCH   6  20
HETATM   20  O   UNL     1     -11.843  14.037  68.578  1.00  0.00    -0.332 OA 
BRANCH  20  21
HETATM   21  C   UNL     1     -12.396  13.709  69.791  1.00  0.00    -0.228 A  
HETATM   22  C   UNL     1     -13.866  15.358  72.700  1.00  0.00    -0.625 C  
HETATM   23  N   UNL     1     -12.911  14.670  70.569  1.00  0.00    -0.344 NA 
HETATM   24  C   UNL     1     -13.310  12.972  72.203  1.00  0.00    -0.622 A  
HETATM   25  C   UNL     1     -13.351  14.287  71.784  1.00  0.00    -0.371 A  
HETATM   26  C   UNL     1     -12.796  12.053  71.310  1.00  0.00    -0.265 A  
HETATM   27  C   UNL     1     -12.690  10.603  71.675  1.00  0.00    -0.531 C  
HETATM   28  N   UNL     1     -12.338  12.408  70.091  1.00  0.00    -0.193 NA 
ENDBRANCH  20  21
ENDBRANCH   6  20
TORSDOF 2
ENDMDL
MODEL        7
REMARK 921   NORMALIZED FREE ENERGY PREDICTED BY IDOCK:   -6.92 KCAL/MOL
REMARK 922        TOTAL FREE ENERGY PREDICTED BY IDOCK:   -8.38 KCAL/MOL
REMARK 923 INTER-LIGAND FREE ENERGY PREDICTED BY IDOCK:   -7.76 KCAL/MOL
REMARK 924 INTRA-LIGAND FREE ENERGY PREDICTED BY IDOCK:   -0.62 KCAL/MOL
REMARK 927      BINDING AFFINITY PREDICTED BY RF-SCORE:    0.00 PKD
ROOT
HETATM    1  C   UNL     1     -10.907   6.964  68.198  1.00  0.00    -0.194 C  
HETATM    2  O   UNL     1     -10.107   7.076  69.358  1.00  0.00    -0.163 OA 
HETATM    3  C   UNL     1     -10.281   8.187  70.283  1.00  0.00    -0.200 C  
HETATM    4  C   UNL     1     -11.706   8.094  70.929  1.00  0.00    -0.259 A  
HETATM    5  C   UNL     1      -9.147   7.937  71.319  1.00  0.00    -0.161 A  
HETATM    6  C   UNL     1     -10.040   9.604  69.606  1.00  0.00    -0.224 C  
HETATM    7  C   UNL     1      -8.629   9.836  69.074  1.00  0.00    -0.146 C  
HETATM    8  C   UNL     1      -7.904   7.419  70.874  1.00  0.00    -0.096 A  
HETATM    9  C   UNL     1     -12.356   6.855  71.089  1.00  0.00    -0.419 A  
HETATM   10  C   UNL     1      -8.130   8.196  73.521  1.00  0.00    -0.261 A  
HETATM   11  O   UNL     1      -7.696  10.266  69.737  1.00  0.00    -0.155 OA 
HETATM   12  C   UNL     1     -13.693   6.779  71.510  1.00  0.00    -0.157 A  
HETATM   13  C   UNL     1      -6.794   7.337  71.716  1.00  0.00    -0.058 A  
HETATM   14  C   UNL     1      -9.242   8.296  72.672  1.00  0.00    -0.345 A  
HETATM   15  O   UNL     1      -8.480   9.584  67.744  1.00  0.00    -0.118 OA 
HETATM   16  C   UNL     1     -12.422   9.234  71.352  1.00  0.00    -0.418 A  
HETATM   17  C   UNL     1     -14.404   7.936  71.811  1.00  0.00    -0.589 A  
HETATM   18  C   UNL     1      -6.904   7.740  73.038  1.00  0.00    -0.085 A  
HETATM   19  C   UNL     1     -13.761   9.163  71.753  1.00  0.00    -0.465 A  
ENDROOT
BRANCH   6  20
HETATM   20  O   UNL     1     -10.903   9.805  68.464  1.00  0.00    -0.222 OA 
BRANCH  20  21
HETATM   21  C   UNL     1     -11.356  11.089  68.286  1.00  0.00    -0.299 A  
HETATM   22  C   UNL     1     -12.050  13.426  65.565  1.00  0.00    -0.467 C  
HETATM   23  N   UNL     1     -11.546  11.561  67.047  1.00  0.00    -0.535 NA 
HETATM   24  C   UNL     1     -12.094  13.658  68.054  1.00  0.00    -0.309 A  
HETATM   25  C   UNL     1     -11.900  12.857  66.945  1.00  0.00    -0.379 A  
HETATM   26  C   UNL     1     -11.910  13.064  69.287  1.00  0.00    -0.316 A  
HETATM   27  C   UNL     1     -12.077  13.852  70.552  1.00  0.00    -0.426 C  
HETATM   28  N   UNL     1     -11.543  11.772  69.419  1.00  0.00    -0.297 NA 
ENDBRANCH  20  21
ENDBRANCH   6  20
TORSDOF 2
ENDMDL
MODEL        8
REMARK 921   NORMALIZED FREE ENERGY PREDICTED BY IDOCK:   -6.75 KCAL/MOL
REMARK 922        TOTAL FREE ENERGY PREDICTED BY IDOCK:   -8.20 KCAL/MOL
REMARK 923 INTER-LIGAND FREE ENERGY PREDICTED BY IDOCK:   -7.53 KCAL/MOL
REMARK 924 INTRA-LIGAND FREE ENERGY PREDICTED BY IDOCK:   -0.66 KCAL/MOL
REMARK 927      BINDING AFFINITY PREDICTED BY RF-SCORE:    0.00 PKD
ROOT
HETATM    1  C   UNL     1      -7.539  15.224  69.815  1.00  0.00    -0.101 C  
HETATM    2  O   UNL     1      -8.136  16.432  69.386  1.00  0.00    -0.190 OA 
HETATM    3  C   UNL     1      -9.229  16.426  68.424  1.00  0.00    -0.217 C  
HETATM    4  C   UNL     1     -10.467  15.707  69.063  1.00  0.00    -0.229 A  
HETATM    5  C   UNL     1      -9.481  17.945  68.199  1.00  0.00    -0.288 A  
HETATM    6  C   UNL     1      -8.829  15.771  67.032  1.00  0.00    -0.216 C  
HETATM    7  C   UNL     1      -7.722  16.494  66.271  1.00  0.00    -0.180 C  
HETATM    8  C   UNL     1      -8.378  18.837  68.192  1.00  0.00    -0.334 A  
HETATM    9  C   UNL     1     -10.673  15.707  70.456  1.00  0.00    -0.295 A  
HETATM   10  C   UNL     1     -10.876  19.835  67.540  1.00  0.00    -0.406 A  
HETATM   11  O   UNL     1      -7.901  17.428  65.503  1.00  0.00    -0.326 OA 
HETATM   12  C   UNL     1     -11.681  14.930  71.047  1.00  0.00    -0.376 A  
HETATM   13  C   UNL     1      -8.513  20.176  67.824  1.00  0.00    -0.311 A  
HETATM   14  C   UNL     1     -10.740  18.484  67.893  1.00  0.00    -0.337 A  
HETATM   15  O   UNL     1      -6.478  15.973  66.457  1.00  0.00    -0.115 OA 
HETATM   16  C   UNL     1     -11.415  15.002  68.292  1.00  0.00    -0.349 A  
HETATM   17  C   UNL     1     -12.528  14.156  70.258  1.00  0.00    -0.416 A  
HETATM   18  C   UNL     1      -9.763  20.671  67.483  1.00  0.00    -0.509 A  
HETATM   19  C   UNL     1     -12.408  14.210  68.878  1.00  0.00    -0.115 A  
ENDROOT
BRANCH   6  20
HETATM   20  O   UNL     1      -8.343  14.420  67.197  1.00  0.00    -0.201 OA 
BRANCH  20  21
HETATM   21  C   UNL     1      -9.147  13.436  66.678  1.00  0.00    -0.169 A  
HETATM   22  C   UNL     1     -11.295  12.860  63.780  1.00  0.00    -0.490 C  
HETATM   23  N   UNL     1      -9.728  13.614  65.485  1.00  0.00    -0.132 NA 
HETATM   24  C   UNL     1     -10.817  11.515  65.832  1.00  0.00    -0.316 A  
HETATM   25  C   UNL     1     -10.577  12.648  65.080  1.00  0.00    -0.298 A  
HETATM   26  C   UNL     1     -10.137  11.410  67.029  1.00  0.00    -0.208 A  
HETATM   27  C   UNL     1     -10.341  10.227  67.928  1.00  0.00    -0.234 C  
HETATM   28  N   UNL     1      -9.290  12.366  67.465  1.00  0.00    -0.176 NA 
ENDBRANCH  20  21
ENDBRANCH   6  20
TORSDOF 2
ENDMDL
MODEL        9
REMARK 921   NORMALIZED FREE ENERGY PREDICTED BY IDOCK:   -6.73 KCAL/MOL
REMARK 922        TOTAL FREE ENERGY PREDICTED BY IDOCK:   -8.17 KCAL/MOL
REMARK 923 INTER-LIGAND FREE ENERGY PREDICTED BY IDOCK:   -7.54 KCAL/MOL
REMARK 924 INTRA-LIGAND FREE ENERGY PREDICTED BY IDOCK:   -0.63 KCAL/MOL
REMARK 927      BINDING AFFINITY PREDICTED BY RF-SCORE:    0.00 PKD
ROOT
HETATM    1  C   UNL     1      -9.023  16.315  65.834  1.00  0.00    -0.186 C  
HETATM    2  O   UNL     1      -8.206  17.261  66.494  1.00  0.00    -0.233 OA 
HETATM    3  C   UNL     1      -8.071  17.250  67.944  1.00  0.00    -0.210 C  
HETATM    4  C   UNL     1      -7.372  15.916  68.381  1.00  0.00    -0.125 A  
HETATM    5  C   UNL     1      -7.174  18.496  68.202  1.00  0.00    -0.268 A  
HETATM    6  C   UNL     1      -9.453  17.459  68.699  1.00  0.00    -0.280 C  
HETATM    7  C   UNL     1     -10.135  18.799  68.441  1.00  0.00    -0.393 C  
HETATM    8  C   UNL     1      -7.344  19.651  67.396  1.00  0.00    -0.271 A  
HETATM    9  C   UNL     1      -6.481  15.243  67.524  1.00  0.00    -0.158 A  
HETATM   10  C   UNL     1      -5.608  19.795  69.547  1.00  0.00    -0.260 A  
HETATM   11  O   UNL     1      -9.916  19.825  69.068  1.00  0.00    -0.434 OA 
HETATM   12  C   UNL     1      -5.984  13.969  67.839  1.00  0.00    -0.144 A  
HETATM   13  C   UNL     1      -6.701  20.855  67.686  1.00  0.00    -0.404 A  
HETATM   14  C   UNL     1      -6.266  18.589  69.268  1.00  0.00    -0.267 A  
HETATM   15  O   UNL     1     -11.090  18.767  67.470  1.00  0.00    -0.326 OA 
HETATM   16  C   UNL     1      -7.619  15.306  69.629  1.00  0.00    -0.176 A  
HETATM   17  C   UNL     1      -6.341  13.349  69.032  1.00  0.00    -0.097 A  
HETATM   18  C   UNL     1      -5.842  20.930  68.772  1.00  0.00    -0.358 A  
HETATM   19  C   UNL     1      -7.142  14.028  69.938  1.00  0.00     0.232 A  
ENDROOT
BRANCH   6  20
HETATM   20  O   UNL     1     -10.429  16.467  68.312  1.00  0.00    -0.273 OA 
BRANCH  20  21
HETATM   21  C   UNL     1     -11.026  15.791  69.348  1.00  0.00    -0.296 A  
HETATM   22  C   UNL     1     -12.003  16.355  72.822  1.00  0.00    -0.585 C  
HETATM   23  N   UNL     1     -11.279  16.427  70.499  1.00  0.00    -0.318 NA 
HETATM   24  C   UNL     1     -12.051  14.333  71.353  1.00  0.00    -0.354 A  
HETATM   25  C   UNL     1     -11.778  15.679  71.502  1.00  0.00    -0.433 A  
HETATM   26  C   UNL     1     -11.790  13.781  70.114  1.00  0.00    -0.290 A  
HETATM   27  C   UNL     1     -12.034  12.325  69.854  1.00  0.00    -0.377 C  
HETATM   28  N   UNL     1     -11.279  14.503  69.095  1.00  0.00    -0.257 NA 
ENDBRANCH  20  21
ENDBRANCH   6  20
TORSDOF 2
ENDMDL
MODEL       10
REMARK 921   NORMALIZED FREE ENERGY PREDICTED BY IDOCK:   -6.68 KCAL/MOL
REMARK 922        TOTAL FREE ENERGY PREDICTED BY IDOCK:   -8.11 KCAL/MOL
REMARK 923 INTER-LIGAND FREE ENERGY PREDICTED BY IDOCK:   -7.66 KCAL/MOL
REMARK 924 INTRA-LIGAND FREE ENERGY PREDICTED BY IDOCK:   -0.45 KCAL/MOL
REMARK 927      BINDING AFFINITY PREDICTED BY RF-SCORE:    0.00 PKD
ROOT
HETATM    1  C   UNL     1     -12.899  13.688  66.079  1.00  0.00    -0.184 C  
HETATM    2  O   UNL     1     -12.236  12.636  66.752  1.00  0.00    -0.506 OA 
HETATM    3  C   UNL     1     -10.928  12.842  67.356  1.00  0.00    -0.253 C  
HETATM    4  C   UNL     1     -11.062  13.883  68.520  1.00  0.00    -0.289 A  
HETATM    5  C   UNL     1     -10.576  11.418  67.878  1.00  0.00    -0.224 A  
HETATM    6  C   UNL     1      -9.819  13.281  66.306  1.00  0.00    -0.285 C  
HETATM    7  C   UNL     1      -9.521  12.258  65.214  1.00  0.00     0.074 C  
HETATM    8  C   UNL     1     -10.967  10.285  67.119  1.00  0.00    -0.233 A  
HETATM    9  C   UNL     1     -12.267  14.031  69.233  1.00  0.00    -0.319 A  
HETATM   10  C   UNL     1      -9.372   9.885  69.345  1.00  0.00    -0.226 A  
HETATM   11  O   UNL     1      -8.715  11.344  65.316  1.00  0.00    -0.036 OA 
HETATM   12  C   UNL     1     -12.447  15.070  70.159  1.00  0.00    -0.356 A  
HETATM   13  C   UNL     1     -10.535   8.997  67.436  1.00  0.00    -0.338 A  
HETATM   14  C   UNL     1      -9.792  11.183  69.018  1.00  0.00    -0.132 A  
HETATM   15  O   UNL     1     -10.189  12.470  64.046  1.00  0.00    -0.385 OA 
HETATM   16  C   UNL     1     -10.007  14.743  68.892  1.00  0.00    -0.233 A  
HETATM   17  C   UNL     1     -11.417  15.971  70.417  1.00  0.00    -0.392 A  
HETATM   18  C   UNL     1      -9.723   8.800  68.544  1.00  0.00    -0.173 A  
HETATM   19  C   UNL     1     -10.189  15.793  69.799  1.00  0.00    -0.291 A  
ENDROOT
BRANCH   6  20
HETATM   20  O   UNL     1     -10.200  14.479  65.595  1.00  0.00    -0.317 OA 
BRANCH  20  21
HETATM   21  C   UNL     1      -9.498  15.611  65.928  1.00  0.00    -0.341 A  
HETATM   22  C   UNL     1      -6.240  16.546  67.289  1.00  0.00    -0.209 C  
HETATM   23  N   UNL     1      -8.231  15.507  66.349  1.00  0.00    -0.139 NA 
HETATM   24  C   UNL     1      -8.274  17.872  66.698  1.00  0.00    -0.284 A  
HETATM   25  C   UNL     1      -7.635  16.649  66.748  1.00  0.00    -0.257 A  
HETATM   26  C   UNL     1      -9.567  17.875  66.211  1.00  0.00    -0.241 A  
HETATM   27  C   UNL     1     -10.355  19.148  66.134  1.00  0.00    -0.561 C  
HETATM   28  N   UNL     1     -10.193  16.747  65.816  1.00  0.00    -0.530 NA 
ENDBRANCH  20  21
ENDBRANCH   6  20
TORSDOF 2
ENDMDL
MODEL       11
REMARK 921   NORMALIZED FREE ENERGY PREDICTED BY IDOCK:   -6.67 KCAL/MOL
REMARK 922        TOTAL FREE ENERGY PREDICTED BY IDOCK:   -8.10 KCAL/MOL
REMARK 923 INTER-LIGAND FREE ENERGY PREDICTED BY IDOCK:   -7.66 KCAL/MOL
REMARK 924 INTRA-LIGAND FREE ENERGY PREDICTED BY IDOCK:   -0.44 KCAL/MOL
REMARK 927      BINDING AFFINITY PREDICTED BY RF-SCORE:    0.00 PKD
ROOT
HETATM    1  C   UNL     1      -7.798  13.012  68.389  1.00  0.00    -0.134 C  
HETATM    2  O   UNL     1      -8.758  12.955  67.353  1.00  0.00    -0.177 OA 
HETATM    3  C   UNL     1     -10.008  12.229  67.529  1.00  0.00    -0.199 C  
HETATM    4  C   UNL     1     -10.847  12.925  68.655  1.00  0.00    -0.288 A  
HETATM    5  C   UNL     1     -10.672  12.368  66.128  1.00  0.00    -0.292 A  
HETATM    6  C   UNL     1      -9.792  10.684  67.833  1.00  0.00    -0.161 C  
HETATM    7  C   UNL     1      -9.106   9.896  66.722  1.00  0.00    -0.143 C  
HETATM    8  C   UNL     1      -9.857  12.339  64.968  1.00  0.00    -0.158 A  
HETATM    9  C   UNL     1     -10.718  14.302  68.917  1.00  0.00    -0.268 A  
HETATM   10  C   UNL     1     -12.604  12.374  64.639  1.00  0.00    -0.459 A  
HETATM   11  O   UNL     1      -9.683   9.380  65.775  1.00  0.00    -0.267 OA 
HETATM   12  C   UNL     1     -11.337  14.898  70.027  1.00  0.00    -0.310 A  
HETATM   13  C   UNL     1     -10.400  12.282  63.684  1.00  0.00    -0.463 A  
HETATM   14  C   UNL     1     -12.061  12.414  65.932  1.00  0.00    -0.352 A  
HETATM   15  O   UNL     1      -7.764   9.740  66.887  1.00  0.00    -0.098 OA 
HETATM   16  C   UNL     1     -11.743  12.214  69.481  1.00  0.00    -0.402 A  
HETATM   17  C   UNL     1     -12.125  14.138  70.886  1.00  0.00    -0.416 A  
HETATM   18  C   UNL     1     -11.777  12.285  63.521  1.00  0.00    -0.584 A  
HETATM   19  C   UNL     1     -12.346  12.799  70.600  1.00  0.00    -0.381 A  
ENDROOT
BRANCH   6  20
HETATM   20  O   UNL     1      -8.963  10.479  68.998  1.00  0.00    -0.166 OA 
BRANCH  20  21
HETATM   21  C   UNL     1      -9.296   9.398  69.777  1.00  0.00    -0.203 A  
HETATM   22  C   UNL     1     -11.630   6.589  69.757  1.00  0.00    -0.392 C  
HETATM   23  N   UNL     1     -10.211   8.522  69.341  1.00  0.00    -0.206 NA 
HETATM   24  C   UNL     1      -9.982   7.413  71.446  1.00  0.00    -0.195 A  
HETATM   25  C   UNL     1     -10.557   7.540  70.197  1.00  0.00    -0.235 A  
HETATM   26  C   UNL     1      -9.020   8.346  71.783  1.00  0.00    -0.198 A  
HETATM   27  C   UNL     1      -8.349   8.308  73.123  1.00  0.00    -0.253 C  
HETATM   28  N   UNL     1      -8.663   9.347  70.952  1.00  0.00    -0.260 NA 
ENDBRANCH  20  21
ENDBRANCH   6  20
TORSDOF 2
ENDMDL
MODEL       12
REMARK 921   NORMALIZED FREE ENERGY PREDICTED BY IDOCK:   -6.65 KCAL/MOL
REMARK 922        TOTAL FREE ENERGY PREDICTED BY IDOCK:   -8.08 KCAL/MOL
REMARK 923 INTER-LIGAND FREE ENERGY PREDICTED BY IDOCK:   -7.41 KCAL/MOL
REMARK 924 INTRA-LIGAND FREE ENERGY PREDICTED BY IDOCK:   -0.67 KCAL/MOL
REMARK 927      BINDING AFFINITY PREDICTED BY RF-SCORE:    0.00 PKD
ROOT
HETATM    1  C   UNL     1     -12.036  14.837  66.797  1.00  0.00    -0.192 C  
HETATM    2  O   UNL     1     -12.261  14.960  68.187  1.00  0.00    -0.173 OA 
HETATM    3  C   UNL     1     -11.186  14.729  69.143  1.00  0.00    -0.271 C  
HETATM    4  C   UNL     1     -10.078  15.819  68.937  1.00  0.00    -0.222 A  
HETATM    5  C   UNL     1     -11.918  14.884  70.508  1.00  0.00    -0.365 A  
HETATM    6  C   UNL     1     -10.584  13.261  69.058  1.00  0.00    -0.065 C  
HETATM    7  C   UNL     1     -11.564  12.139  69.386  1.00  0.00    -0.317 C  
HETATM    8  C   UNL     1     -13.252  14.419  70.636  1.00  0.00    -0.203 A  
HETATM    9  C   UNL     1     -10.393  17.095  68.432  1.00  0.00    -0.362 A  
HETATM   10  C   UNL     1     -11.956  15.328  72.906  1.00  0.00    -0.519 A  
HETATM   11  O   UNL     1     -11.791  11.719  70.511  1.00  0.00    -0.330 OA 
HETATM   12  C   UNL     1      -9.390  18.014  68.089  1.00  0.00    -0.287 A  
HETATM   13  C   UNL     1     -13.902  14.367  71.870  1.00  0.00    -0.549 A  
HETATM   14  C   UNL     1     -11.296  15.366  71.669  1.00  0.00    -0.455 A  
HETATM   15  O   UNL     1     -12.149  11.566  68.298  1.00  0.00    -0.580 OA 
HETATM   16  C   UNL     1      -8.716  15.575  69.212  1.00  0.00    -0.260 A  
HETATM   17  C   UNL     1      -8.048  17.693  68.270  1.00  0.00    -0.278 A  
HETATM   18  C   UNL     1     -13.246  14.809  73.009  1.00  0.00    -0.592 A  
HETATM   19  C   UNL     1      -7.712  16.480  68.852  1.00  0.00    -0.236 A  
ENDROOT
BRANCH   6  20
HETATM   20  O   UNL     1     -10.103  12.956  67.730  1.00  0.00    -0.218 OA 
BRANCH  20  21
HETATM   21  C   UNL     1      -8.976  12.174  67.676  1.00  0.00    -0.178 A  
HETATM   22  C   UNL     1      -5.859  11.681  69.516  1.00  0.00    -0.080 C  
HETATM   23  N   UNL     1      -8.056  12.266  68.645  1.00  0.00    -0.081 NA 
HETATM   24  C   UNL     1      -6.744  10.713  67.387  1.00  0.00    -0.075 A  
HETATM   25  C   UNL     1      -6.933  11.539  68.478  1.00  0.00    -0.083 A  
HETATM   26  C   UNL     1      -7.771  10.660  66.465  1.00  0.00    -0.137 A  
HETATM   27  C   UNL     1      -7.657   9.810  65.236  1.00  0.00    -0.119 C  
HETATM   28  N   UNL     1      -8.901  11.386  66.600  1.00  0.00    -0.178 NA 
ENDBRANCH  20  21
ENDBRANCH   6  20
TORSDOF 2
ENDMDL
MODEL       13
REMARK 921   NORMALIZED FREE ENERGY PREDICTED BY IDOCK:   -6.64 KCAL/MOL
REMARK 922        TOTAL FREE ENERGY PREDICTED BY IDOCK:   -8.07 KCAL/MOL
REMARK 923 INTER-LIGAND FREE ENERGY PREDICTED BY IDOCK:   -7.53 KCAL/MOL
REMARK 924 INTRA-LIGAND FREE ENERGY PREDICTED BY IDOCK:   -0.54 KCAL/MOL
REMARK 927      BINDING AFFINITY PREDICTED BY RF-SCORE:    0.00 PKD
ROOT
HETATM    1  C   UNL     1     -11.736  14.933  66.734  1.00  0.00    -0.233 C  
HETATM    2  O   UNL     1     -12.009  15.091  68.112  1.00  0.00    -0.299 OA 
HETATM    3  C   UNL     1     -11.009  14.757  69.116  1.00  0.00    -0.267 C  
HETATM    4  C   UNL     1      -9.784  15.722  68.956  1.00  0.00    -0.242 A  
HETATM    5  C   UNL     1     -11.780  15.000  70.446  1.00  0.00    -0.336 A  
HETATM    6  C   UNL     1     -10.561  13.233  69.065  1.00  0.00    -0.065 C  
HETATM    7  C   UNL     1     -11.667  12.223  69.353  1.00  0.00    -0.330 C  
HETATM    8  C   UNL     1     -13.160  14.679  70.516  1.00  0.00    -0.252 A  
HETATM    9  C   UNL     1      -9.940  17.020  68.432  1.00  0.00    -0.289 A  
HETATM   10  C   UNL     1     -11.878  15.467  72.838  1.00  0.00    -0.565 A  
HETATM   11  O   UNL     1     -11.988  11.839  70.468  1.00  0.00    -0.356 OA 
HETATM   12  C   UNL     1      -8.831  17.826  68.131  1.00  0.00    -0.267 A  
HETATM   13  C   UNL     1     -13.866  14.706  71.719  1.00  0.00    -0.530 A  
HETATM   14  C   UNL     1     -11.163  15.424  71.633  1.00  0.00    -0.386 A  
HETATM   15  O   UNL     1     -12.261  11.705  68.242  1.00  0.00    -0.525 OA 
HETATM   16  C   UNL     1      -8.469  15.339  69.293  1.00  0.00    -0.238 A  
HETATM   17  C   UNL     1      -7.539  17.367  68.373  1.00  0.00    -0.255 A  
HETATM   18  C   UNL     1     -13.218  15.087  72.885  1.00  0.00    -0.585 A  
HETATM   19  C   UNL     1      -7.360  16.130  68.976  1.00  0.00    -0.203 A  
ENDROOT
BRANCH   6  20
HETATM   20  O   UNL     1     -10.056  12.867  67.762  1.00  0.00    -0.218 OA 
BRANCH  20  21
HETATM   21  C   UNL     1      -9.192  11.801  67.741  1.00  0.00    -0.181 A  
HETATM   22  C   UNL     1      -8.745   8.634  65.976  1.00  0.00    -0.196 C  
HETATM   23  N   UNL     1      -9.358  10.828  66.836  1.00  0.00    -0.159 NA 
HETATM   24  C   UNL     1      -7.541   9.692  67.894  1.00  0.00    -0.083 A  
HETATM   25  C   UNL     1      -8.532   9.768  66.935  1.00  0.00    -0.120 A  
HETATM   26  C   UNL     1      -7.428  10.766  68.755  1.00  0.00    -0.109 A  
HETATM   27  C   UNL     1      -6.397  10.773  69.844  1.00  0.00    -0.118 C  
HETATM   28  N   UNL     1      -8.249  11.835  68.687  1.00  0.00    -0.128 NA 
ENDBRANCH  20  21
ENDBRANCH   6  20
TORSDOF 2
ENDMDL
MODEL       14
REMARK 921   NORMALIZED FREE ENERGY PREDICTED BY IDOCK:   -6.59 KCAL/MOL
REMARK 922        TOTAL FREE ENERGY PREDICTED BY IDOCK:   -8.02 KCAL/MOL
REMARK 923 INTER-LIGAND FREE ENERGY PREDICTED BY IDOCK:   -7.61 KCAL/MOL
REMARK 924 INTRA-LIGAND FREE ENERGY PREDICTED BY IDOCK:   -0.41 KCAL/MOL
REMARK 927      BINDING AFFINITY PREDICTED BY RF-SCORE:    0.00 PKD
ROOT
HETATM    1  C   UNL     1     -11.967  13.163  69.703  1.00  0.00    -0.306 C  
HETATM    2  O   UNL     1     -11.858  12.753  68.355  1.00  0.00    -0.314 OA 
HETATM    3  C   UNL     1     -10.575  12.773  67.668  1.00  0.00    -0.219 C  
HETATM    4  C   UNL     1      -9.611  11.746  68.357  1.00  0.00    -0.191 A  
HETATM    5  C   UNL     1     -10.964  12.339  66.225  1.00  0.00    -0.327 A  
HETATM    6  C   UNL     1      -9.928  14.223  67.600  1.00  0.00    -0.225 C  
HETATM    7  C   UNL     1     -10.736  15.256  66.821  1.00  0.00    -0.313 C  
HETATM    8  C   UNL     1     -12.200  12.773  65.680  1.00  0.00    -0.503 A  
HETATM    9  C   UNL     1     -10.110  10.606  69.015  1.00  0.00    -0.226 A  
HETATM   10  C   UNL     1     -10.449  11.402  64.032  1.00  0.00    -0.435 A  
HETATM   11  O   UNL     1     -10.662  15.433  65.613  1.00  0.00    -0.330 OA 
HETATM   12  C   UNL     1      -9.272   9.774  69.774  1.00  0.00    -0.248 A  
HETATM   13  C   UNL     1     -12.529  12.568  64.340  1.00  0.00    -0.530 A  
HETATM   14  C   UNL     1     -10.108  11.621  65.375  1.00  0.00    -0.299 A  
HETATM   15  O   UNL     1     -11.533  16.047  67.592  1.00  0.00    -0.182 OA 
HETATM   16  C   UNL     1      -8.211  11.921  68.383  1.00  0.00    -0.160 A  
HETATM   17  C   UNL     1      -7.910  10.043  69.869  1.00  0.00    -0.185 A  
HETATM   18  C   UNL     1     -11.644  11.894  63.511  1.00  0.00    -0.537 A  
HETATM   19  C   UNL     1      -7.376  11.106  69.155  1.00  0.00    -0.115 A  
ENDROOT
BRANCH   6  20
HETATM   20  O   UNL     1      -9.765  14.798  68.916  1.00  0.00    -0.217 OA 
BRANCH  20  21
HETATM   21  C   UNL     1      -8.629  15.549  69.095  1.00  0.00    -0.246 A  
HETATM   22  C   UNL     1      -7.443  18.954  68.516  1.00  0.00    -0.339 C  
HETATM   23  N   UNL     1      -8.642  16.854  68.799  1.00  0.00    -0.257 NA 
HETATM   24  C   UNL     1      -6.313  16.882  69.337  1.00  0.00    -0.231 A  
HETATM   25  C   UNL     1      -7.468  17.507  68.910  1.00  0.00    -0.234 A  
HETATM   26  C   UNL     1      -6.416  15.541  69.655  1.00  0.00    -0.173 A  
HETATM   27  C   UNL     1      -5.217  14.765  70.111  1.00  0.00    -0.099 C  
HETATM   28  N   UNL     1      -7.575  14.859  69.543  1.00  0.00    -0.167 NA 
ENDBRANCH  20  21
ENDBRANCH   6  20
TORSDOF 2
ENDMDL
MODEL       15
REMARK 921   NORMALIZED FREE ENERGY PREDICTED BY IDOCK:   -6.56 KCAL/MOL
REMARK 922        TOTAL FREE ENERGY PREDICTED BY IDOCK:   -7.98 KCAL/MOL
REMARK 923 INTER-LIGAND FREE ENERGY PREDICTED BY IDOCK:   -7.63 KCAL/MOL
REMARK 924 INTRA-LIGAND FREE ENERGY PREDICTED BY IDOCK:   -0.35 KCAL/MOL
REMARK 927      BINDING AFFINITY PREDICTED BY RF-SCORE:    0.00 PKD
ROOT
HETATM    1  C   UNL     1     -11.894  13.220  69.746  1.00  0.00    -0.325 C  
HETATM    2  O   UNL     1     -11.826  12.798  68.399  1.00  0.00    -0.314 OA 
HETATM    3  C   UNL     1     -10.564  12.813  67.673  1.00  0.00    -0.219 C  
HETATM    4  C   UNL     1      -9.580  11.791  68.341  1.00  0.00    -0.191 A  
HETATM    5  C   UNL     1     -10.997  12.366  66.246  1.00  0.00    -0.323 A  
HETATM    6  C   UNL     1      -9.920  14.262  67.573  1.00  0.00    -0.235 C  
HETATM    7  C   UNL     1     -10.752  15.288  66.810  1.00  0.00    -0.313 C  
HETATM    8  C   UNL     1     -12.249  12.795  65.736  1.00  0.00    -0.469 A  
HETATM    9  C   UNL     1     -10.057  10.657  69.025  1.00  0.00    -0.226 A  
HETATM   10  C   UNL     1     -10.549  11.409  64.048  1.00  0.00    -0.444 A  
HETATM   11  O   UNL     1     -10.715  15.454  65.599  1.00  0.00    -0.330 OA 
HETATM   12  C   UNL     1      -9.196   9.832  69.765  1.00  0.00    -0.248 A  
HETATM   13  C   UNL     1     -12.619  12.578  64.408  1.00  0.00    -0.497 A  
HETATM   14  C   UNL     1     -10.167  11.641  65.377  1.00  0.00    -0.306 A  
HETATM   15  O   UNL     1     -11.525  16.086  67.598  1.00  0.00    -0.182 OA 
HETATM   16  C   UNL     1      -8.180  11.966  68.324  1.00  0.00    -0.157 A  
HETATM   17  C   UNL     1      -7.832  10.102  69.816  1.00  0.00    -0.175 A  
HETATM   18  C   UNL     1     -11.760  11.897  63.559  1.00  0.00    -0.550 A  
HETATM   19  C   UNL     1      -7.321  11.158  69.076  1.00  0.00    -0.120 A  
ENDROOT
BRANCH   6  20
HETATM   20  O   UNL     1      -9.717  14.848  68.878  1.00  0.00    -0.214 OA 
BRANCH  20  21
HETATM   21  C   UNL     1      -8.540  15.537  69.038  1.00  0.00    -0.234 A  
HETATM   22  C   UNL     1      -5.202  15.026  70.429  1.00  0.00    -0.119 C  
HETATM   23  N   UNL     1      -7.474  14.919  69.562  1.00  0.00    -0.181 NA 
HETATM   24  C   UNL     1      -6.343  17.021  69.448  1.00  0.00    -0.236 A  
HETATM   25  C   UNL     1      -6.383  15.681  69.778  1.00  0.00    -0.170 A  
HETATM   26  C   UNL     1      -7.482  17.553  68.876  1.00  0.00    -0.234 A  
HETATM   27  C   UNL     1      -7.548  19.003  68.499  1.00  0.00    -0.364 C  
HETATM   28  N   UNL     1      -8.593  16.818  68.660  1.00  0.00    -0.254 NA 
ENDBRANCH  20  21
ENDBRANCH   6  20
TORSDOF 2
ENDMDL
MODEL       16
REMARK 921   NORMALIZED FREE ENERGY PREDICTED BY IDOCK:   -6.53 KCAL/MOL
REMARK 922        TOTAL FREE ENERGY PREDICTED BY IDOCK:   -7.95 KCAL/MOL
REMARK 923 INTER-LIGAND FREE ENERGY PREDICTED BY IDOCK:   -7.71 KCAL/MOL
REMARK 924 INTRA-LIGAND FREE ENERGY PREDICTED BY IDOCK:   -0.23 KCAL/MOL
REMARK 927      BINDING AFFINITY PREDICTED BY RF-SCORE:    0.00 PKD
ROOT
HETATM    1  C   UNL     1     -11.511  13.530  65.654  1.00  0.00    -0.315 C  
HETATM    2  O   UNL     1     -10.253  14.094  65.967  1.00  0.00    -0.287 OA 
HETATM    3  C   UNL     1      -9.571  13.758  67.208  1.00  0.00    -0.237 C  
HETATM    4  C   UNL     1      -9.202  12.234  67.190  1.00  0.00    -0.196 A  
HETATM    5  C   UNL     1      -8.310  14.669  67.150  1.00  0.00    -0.236 A  
HETATM    6  C   UNL     1     -10.409  14.139  68.503  1.00  0.00    -0.249 C  
HETATM    7  C   UNL     1     -10.692  15.629  68.675  1.00  0.00    -0.256 C  
HETATM    8  C   UNL     1      -8.420  15.969  66.594  1.00  0.00    -0.323 A  
HETATM    9  C   UNL     1      -8.972  11.553  65.980  1.00  0.00    -0.181 A  
HETATM   10  C   UNL     1      -6.026  15.248  67.781  1.00  0.00    -0.157 A  
HETATM   11  O   UNL     1      -9.941  16.422  69.225  1.00  0.00    -0.260 OA 
HETATM   12  C   UNL     1      -8.807  10.159  65.944  1.00  0.00    -0.167 A  
HETATM   13  C   UNL     1      -7.379  16.896  66.670  1.00  0.00    -0.298 A  
HETATM   14  C   UNL     1      -7.076  14.320  67.720  1.00  0.00    -0.190 A  
HETATM   15  O   UNL     1     -11.910  16.028  68.216  1.00  0.00    -0.250 OA 
HETATM   16  C   UNL     1      -9.114  11.463  68.368  1.00  0.00    -0.179 A  
HETATM   17  C   UNL     1      -8.838   9.416  67.120  1.00  0.00    -0.138 A  
HETATM   18  C   UNL     1      -6.186  16.538  67.279  1.00  0.00    -0.209 A  
HETATM   19  C   UNL     1      -8.970  10.071  68.335  1.00  0.00    -0.121 A  
ENDROOT
BRANCH   6  20
HETATM   20  O   UNL     1     -11.711  13.514  68.500  1.00  0.00    -0.314 OA 
BRANCH  20  21
HETATM   21  C   UNL     1     -12.164  13.089  69.725  1.00  0.00    -0.177 A  
HETATM   22  C   UNL     1     -12.603   9.977  71.586  1.00  0.00    -0.524 C  
HETATM   23  N   UNL     1     -12.077  11.794  70.053  1.00  0.00    -0.323 NA 
HETATM   24  C   UNL     1     -13.220  12.349  72.077  1.00  0.00    -0.514 A  
HETATM   25  C   UNL     1     -12.626  11.434  71.230  1.00  0.00    -0.374 A  
HETATM   26  C   UNL     1     -13.223  13.667  71.663  1.00  0.00    -0.367 A  
HETATM   27  C   UNL     1     -13.860  14.734  72.501  1.00  0.00    -0.561 C  
HETATM   28  N   UNL     1     -12.692  14.054  70.485  1.00  0.00    -0.312 NA 
ENDBRANCH  20  21
ENDBRANCH   6  20
TORSDOF 2
ENDMDL
MODEL       17
REMARK 921   NORMALIZED FREE ENERGY PREDICTED BY IDOCK:   -6.50 KCAL/MOL
REMARK 922        TOTAL FREE ENERGY PREDICTED BY IDOCK:   -7.92 KCAL/MOL
REMARK 923 INTER-LIGAND FREE ENERGY PREDICTED BY IDOCK:   -7.40 KCAL/MOL
REMARK 924 INTRA-LIGAND FREE ENERGY PREDICTED BY IDOCK:   -0.52 KCAL/MOL
REMARK 927      BINDING AFFINITY PREDICTED BY RF-SCORE:    0.00 PKD
ROOT
HETATM    1  C   UNL     1     -12.210  14.427  69.483  1.00  0.00    -0.282 C  
HETATM    2  O   UNL     1     -12.242  13.907  68.169  1.00  0.00    -0.329 OA 
HETATM    3  C   UNL     1     -11.061  13.293  67.579  1.00  0.00    -0.270 C  
HETATM    4  C   UNL     1     -10.701  11.998  68.387  1.00  0.00    -0.255 A  
HETATM    5  C   UNL     1     -11.542  12.970  66.134  1.00  0.00    -0.412 A  
HETATM    6  C   UNL     1      -9.823  14.285  67.487  1.00  0.00    -0.231 C  
HETATM    7  C   UNL     1     -10.038  15.507  66.599  1.00  0.00    -0.267 C  
HETATM    8  C   UNL     1     -12.420  13.870  65.478  1.00  0.00    -0.541 A  
HETATM    9  C   UNL     1     -11.692  11.261  69.064  1.00  0.00    -0.410 A  
HETATM   10  C   UNL     1     -11.416  11.732  64.036  1.00  0.00    -0.444 A  
HETATM   11  O   UNL     1      -9.840  15.536  65.393  1.00  0.00    -0.322 OA 
HETATM   12  C   UNL     1     -11.358  10.203  69.923  1.00  0.00    -0.335 A  
HETATM   13  C   UNL     1     -12.749  13.732  64.129  1.00  0.00     0.018 A  
HETATM   14  C   UNL     1     -11.071  11.879  65.387  1.00  0.00    -0.360 A  
HETATM   15  O   UNL     1     -10.420  16.630  67.268  1.00  0.00    -0.315 OA 
HETATM   16  C   UNL     1      -9.378  11.524  68.509  1.00  0.00    -0.171 A  
HETATM   17  C   UNL     1     -10.028   9.836  70.105  1.00  0.00    -0.315 A  
HETATM   18  C   UNL     1     -12.233  12.668  63.404  1.00  0.00    -0.610 A  
HETATM   19  C   UNL     1      -9.039  10.484  69.380  1.00  0.00    -0.123 A  
ENDROOT
BRANCH   6  20
HETATM   20  O   UNL     1      -9.473  14.825  68.780  1.00  0.00    -0.201 OA 
BRANCH  20  21
HETATM   21  C   UNL     1      -8.129  14.991  69.006  1.00  0.00    -0.178 A  
HETATM   22  C   UNL     1      -5.131  12.959  69.478  1.00  0.00    -0.075 C  
HETATM   23  N   UNL     1      -7.324  13.921  69.042  1.00  0.00    -0.092 NA 
HETATM   24  C   UNL     1      -5.550  15.420  69.608  1.00  0.00    -0.108 A  
HETATM   25  C   UNL     1      -6.035  14.150  69.362  1.00  0.00    -0.095 A  
HETATM   26  C   UNL     1      -6.454  16.459  69.506  1.00  0.00    -0.210 A  
HETATM   27  C   UNL     1      -6.033  17.873  69.773  1.00  0.00    -0.230 C  
HETATM   28  N   UNL     1      -7.753  16.259  69.200  1.00  0.00    -0.235 NA 
ENDBRANCH  20  21
ENDBRANCH   6  20
TORSDOF 2
ENDMDL
MODEL       18
REMARK 921   NORMALIZED FREE ENERGY PREDICTED BY IDOCK:   -6.43 KCAL/MOL
REMARK 922        TOTAL FREE ENERGY PREDICTED BY IDOCK:   -7.84 KCAL/MOL
REMARK 923 INTER-LIGAND FREE ENERGY PREDICTED BY IDOCK:   -7.22 KCAL/MOL
REMARK 924 INTRA-LIGAND FREE ENERGY PREDICTED BY IDOCK:   -0.62 KCAL/MOL
REMARK 927      BINDING AFFINITY PREDICTED BY RF-SCORE:    0.00 PKD
ROOT
HETATM    1  C   UNL     1     -11.023   7.365  67.447  1.00  0.00    -0.144 C  
HETATM    2  O   UNL     1      -9.935   7.489  68.341  1.00  0.00    -0.160 OA 
HETATM    3  C   UNL     1      -9.837   8.624  69.247  1.00  0.00    -0.188 C  
HETATM    4  C   UNL     1     -11.032   8.572  70.260  1.00  0.00    -0.245 A  
HETATM    5  C   UNL     1      -8.466   8.376  69.941  1.00  0.00    -0.126 A  
HETATM    6  C   UNL     1      -9.774  10.021  68.492  1.00  0.00    -0.155 C  
HETATM    7  C   UNL     1      -8.559  10.213  67.589  1.00  0.00    -0.118 C  
HETATM    8  C   UNL     1      -7.397   7.825  69.189  1.00  0.00    -0.088 A  
HETATM    9  C   UNL     1     -11.629   7.350  70.625  1.00  0.00    -0.295 A  
HETATM   10  C   UNL     1      -6.883   8.668  71.774  1.00  0.00    -0.087 A  
HETATM   11  O   UNL     1      -7.475  10.641  67.960  1.00  0.00    -0.088 OA 
HETATM   12  C   UNL     1     -12.800   7.309  71.397  1.00  0.00    -0.425 A  
HETATM   13  C   UNL     1      -6.101   7.742  69.697  1.00  0.00    -0.030 A  
HETATM   14  C   UNL     1      -8.183   8.769  71.259  1.00  0.00    -0.212 A  
HETATM   15  O   UNL     1      -8.782   9.928  66.276  1.00  0.00    -0.136 OA 
HETATM   16  C   UNL     1     -11.592   9.735  70.831  1.00  0.00    -0.441 A  
HETATM   17  C   UNL     1     -13.388   8.486  71.849  1.00  0.00    -0.401 A  
HETATM   18  C   UNL     1      -5.841   8.178  70.988  1.00  0.00    -0.033 A  
HETATM   19  C   UNL     1     -12.771   9.699  71.584  1.00  0.00    -0.499 A  
ENDROOT
BRANCH   6  20
HETATM   20  O   UNL     1     -10.913  10.211  67.624  1.00  0.00    -0.289 OA 
BRANCH  20  21
HETATM   21  C   UNL     1     -11.331  11.511  67.476  1.00  0.00    -0.299 A  
HETATM   22  C   UNL     1     -12.320  13.814  64.820  1.00  0.00    -0.420 C  
HETATM   23  N   UNL     1     -11.683  11.962  66.266  1.00  0.00    -0.520 NA 
HETATM   24  C   UNL     1     -11.983  14.106  67.279  1.00  0.00    -0.449 A  
HETATM   25  C   UNL     1     -11.992  13.271  66.179  1.00  0.00    -0.418 A  
HETATM   26  C   UNL     1     -11.644  13.532  68.489  1.00  0.00    -0.333 A  
HETATM   27  C   UNL     1     -11.586  14.355  69.741  1.00  0.00    -0.352 C  
HETATM   28  N   UNL     1     -11.318  12.228  68.604  1.00  0.00    -0.266 NA 
ENDBRANCH  20  21
ENDBRANCH   6  20
TORSDOF 2
ENDMDL
MODEL       19
REMARK 921   NORMALIZED FREE ENERGY PREDICTED BY IDOCK:   -6.39 KCAL/MOL
REMARK 922        TOTAL FREE ENERGY PREDICTED BY IDOCK:   -7.80 KCAL/MOL
REMARK 923 INTER-LIGAND FREE ENERGY PREDICTED BY IDOCK:   -7.38 KCAL/MOL
REMARK 924 INTRA-LIGAND FREE ENERGY PREDICTED BY IDOCK:   -0.42 KCAL/MOL
REMARK 927      BINDING AFFINITY PREDICTED BY RF-SCORE:    0.00 PKD
ROOT
HETATM    1  C   UNL     1      -8.058  11.696  68.821  1.00  0.00    -0.072 C  
HETATM    2  O   UNL     1      -8.679  10.429  68.909  1.00  0.00    -0.139 OA 
HETATM    3  C   UNL     1      -9.653  10.003  67.915  1.00  0.00    -0.145 C  
HETATM    4  C   UNL     1      -8.940   9.874  66.525  1.00  0.00    -0.166 A  
HETATM    5  C   UNL     1     -10.112   8.623  68.472  1.00  0.00    -0.211 A  
HETATM    6  C   UNL     1     -10.920  10.959  67.834  1.00  0.00    -0.271 C  
HETATM    7  C   UNL     1     -11.757  11.033  69.108  1.00  0.00    -0.333 C  
HETATM    8  C   UNL     1     -10.230   8.446  69.874  1.00  0.00    -0.201 A  
HETATM    9  C   UNL     1      -7.569   9.570  66.432  1.00  0.00    -0.097 A  
HETATM   10  C   UNL     1     -11.082   6.400  68.217  1.00  0.00    -0.359 A  
HETATM   11  O   UNL     1     -12.662  10.261  69.393  1.00  0.00     0.050 OA 
HETATM   12  C   UNL     1      -6.890   9.617  65.205  1.00  0.00    -0.096 A  
HETATM   13  C   UNL     1     -10.800   7.300  70.429  1.00  0.00    -0.265 A  
HETATM   14  C   UNL     1     -10.525   7.558  67.657  1.00  0.00    -0.319 A  
HETATM   15  O   UNL     1     -11.466  12.092  69.913  1.00  0.00    -0.253 OA 
HETATM   16  C   UNL     1      -9.617  10.084  65.305  1.00  0.00    -0.355 A  
HETATM   17  C   UNL     1      -7.570   9.941  64.035  1.00  0.00    -0.138 A  
HETATM   18  C   UNL     1     -11.240   6.281  69.597  1.00  0.00    -0.506 A  
HETATM   19  C   UNL     1      -8.940  10.153  64.082  1.00  0.00    -0.267 A  
ENDROOT
BRANCH   6  20
HETATM   20  O   UNL     1     -10.541  12.326  67.562  1.00  0.00    -0.213 OA 
BRANCH  20  21
HETATM   21  C   UNL     1     -11.108  12.884  66.443  1.00  0.00    -0.285 A  
HETATM   22  C   UNL     1     -13.031  11.859  63.511  1.00  0.00    -0.307 C  
HETATM   23  N   UNL     1     -11.832  12.121  65.614  1.00  0.00    -0.475 NA 
HETATM   24  C   UNL     1     -12.040  14.044  64.211  1.00  0.00    -0.476 A  
HETATM   25  C   UNL     1     -12.279  12.713  64.489  1.00  0.00    -0.443 A  
HETATM   26  C   UNL     1     -11.317  14.754  65.150  1.00  0.00    -0.379 A  
HETATM   27  C   UNL     1     -10.987  16.200  64.934  1.00  0.00    -0.364 C  
HETATM   28  N   UNL     1     -10.846  14.184  66.279  1.00  0.00    -0.297 NA 
ENDBRANCH  20  21
ENDBRANCH   6  20
TORSDOF 2
ENDMDL
MODEL       20
REMARK 921   NORMALIZED FREE ENERGY PREDICTED BY IDOCK:   -6.13 KCAL/MOL
REMARK 922        TOTAL FREE ENERGY PREDICTED BY IDOCK:   -7.51 KCAL/MOL
REMARK 923 INTER-LIGAND FREE ENERGY PREDICTED BY IDOCK:   -7.14 KCAL/MOL
REMARK 924 INTRA-LIGAND FREE ENERGY PREDICTED BY IDOCK:   -0.37 KCAL/MOL
REMARK 927      BINDING AFFINITY PREDICTED BY RF-SCORE:    0.00 PKD
ROOT
HETATM    1  C   UNL     1      -7.724  10.647  69.329  1.00  0.00    -0.142 C  
HETATM    2  O   UNL     1      -8.680   9.753  69.863  1.00  0.00    -0.192 OA 
HETATM    3  C   UNL     1      -9.627   9.065  68.998  1.00  0.00    -0.160 C  
HETATM    4  C   UNL     1      -8.840   8.101  68.045  1.00  0.00    -0.131 A  
HETATM    5  C   UNL     1     -10.509   8.291  70.021  1.00  0.00    -0.231 A  
HETATM    6  C   UNL     1     -10.560  10.059  68.180  1.00  0.00    -0.227 C  
HETATM    7  C   UNL     1     -11.469  10.940  69.031  1.00  0.00    -0.302 C  
HETATM    8  C   UNL     1     -10.816   8.894  71.267  1.00  0.00    -0.360 A  
HETATM    9  C   UNL     1      -7.606   7.541  68.429  1.00  0.00    -0.114 A  
HETATM   10  C   UNL     1     -12.032   6.489  70.639  1.00  0.00    -0.345 A  
HETATM   11  O   UNL     1     -12.579  10.616  69.431  1.00  0.00    -0.279 OA 
HETATM   12  C   UNL     1      -6.818   6.815  67.523  1.00  0.00    -0.077 A  
HETATM   13  C   UNL     1     -11.739   8.335  72.152  1.00  0.00    -0.429 A  
HETATM   14  C   UNL     1     -11.118   7.058  69.741  1.00  0.00    -0.278 A  
HETATM   15  O   UNL     1     -10.978  12.186  69.277  1.00  0.00    -0.200 OA 
HETATM   16  C   UNL     1      -9.300   7.770  66.753  1.00  0.00    -0.227 A  
HETATM   17  C   UNL     1      -7.256   6.605  66.219  1.00  0.00    -0.072 A  
HETATM   18  C   UNL     1     -12.359   7.137  71.829  1.00  0.00    -0.385 A  
HETATM   19  C   UNL     1      -8.509   7.065  65.841  1.00  0.00    -0.151 A  
ENDROOT
BRANCH   6  20
HETATM   20  O   UNL     1      -9.786  10.986  67.386  1.00  0.00    -0.171 OA 
BRANCH  20  21
HETATM   21  C   UNL     1     -10.256  11.207  66.115  1.00  0.00    -0.244 A  
HETATM   22  C   UNL     1      -9.405  10.364  62.664  1.00  0.00    -0.335 C  
HETATM   23  N   UNL     1      -9.655  10.619  65.072  1.00  0.00    -0.241 NA 
HETATM   24  C   UNL     1     -11.161  11.833  63.668  1.00  0.00    -0.518 A  
HETATM   25  C   UNL     1     -10.110  10.956  63.849  1.00  0.00    -0.361 A  
HETATM   26  C   UNL     1     -11.737  12.354  64.810  1.00  0.00    -0.368 A  
HETATM   27  C   UNL     1     -12.872  13.330  64.722  1.00  0.00    -0.259 C  
HETATM   28  N   UNL     1     -11.295  12.045  66.047  1.00  0.00    -0.342 NA 
ENDBRANCH  20  21
ENDBRANCH   6  20
TORSDOF 2
ENDMDL
MODEL       21
REMARK 921   NORMALIZED FREE ENERGY PREDICTED BY IDOCK:   -6.13 KCAL/MOL
REMARK 922        TOTAL FREE ENERGY PREDICTED BY IDOCK:   -7.50 KCAL/MOL
REMARK 923 INTER-LIGAND FREE ENERGY PREDICTED BY IDOCK:   -7.02 KCAL/MOL
REMARK 924 INTRA-LIGAND FREE ENERGY PREDICTED BY IDOCK:   -0.48 KCAL/MOL
REMARK 927      BINDING AFFINITY PREDICTED BY RF-SCORE:    0.00 PKD
ROOT
HETATM    1  C   UNL     1     -10.659  11.797  65.458  1.00  0.00    -0.276 C  
HETATM    2  O   UNL     1      -9.810  12.876  65.794  1.00  0.00    -0.264 OA 
HETATM    3  C   UNL     1      -9.350  13.068  67.162  1.00  0.00    -0.230 C  
HETATM    4  C   UNL     1      -8.444  11.856  67.570  1.00  0.00    -0.161 A  
HETATM    5  C   UNL     1      -8.544  14.396  67.056  1.00  0.00    -0.226 A  
HETATM    6  C   UNL     1     -10.539  13.282  68.194  1.00  0.00    -0.249 C  
HETATM    7  C   UNL     1     -11.389  14.525  67.953  1.00  0.00    -0.310 C  
HETATM    8  C   UNL     1      -9.003  15.419  66.187  1.00  0.00    -0.294 A  
HETATM    9  C   UNL     1      -7.709  11.137  66.609  1.00  0.00    -0.155 A  
HETATM   10  C   UNL     1      -6.849  15.967  67.835  1.00  0.00    -0.158 A  
HETATM   11  O   UNL     1     -11.135  15.639  68.389  1.00  0.00    -0.292 OA 
HETATM   12  C   UNL     1      -7.031   9.953  66.941  1.00  0.00    -0.088 A  
HETATM   13  C   UNL     1      -8.432  16.692  66.176  1.00  0.00    -0.308 A  
HETATM   14  C   UNL     1      -7.432  14.692  67.859  1.00  0.00    -0.158 A  
HETATM   15  O   UNL     1     -12.531  14.299  67.246  1.00  0.00    -0.235 OA 
HETATM   16  C   UNL     1      -8.341  11.403  68.903  1.00  0.00    -0.042 A  
HETATM   17  C   UNL     1      -7.046   9.475  68.248  1.00  0.00    -0.075 A  
HETATM   18  C   UNL     1      -7.362  16.970  67.013  1.00  0.00    -0.220 A  
HETATM   19  C   UNL     1      -7.684  10.213  69.234  1.00  0.00    -0.126 A  
ENDROOT
BRANCH   6  20
HETATM   20  O   UNL     1     -11.476  12.182  68.165  1.00  0.00    -0.271 OA 
BRANCH  20  21
HETATM   21  C   UNL     1     -11.823  11.671  69.391  1.00  0.00    -0.342 A  
HETATM   22  C   UNL     1     -11.884   8.461  71.134  1.00  0.00    -0.314 C  
HETATM   23  N   UNL     1     -11.604  10.377  69.658  1.00  0.00    -0.250 NA 
HETATM   24  C   UNL     1     -12.681  10.747  71.759  1.00  0.00    -0.464 A  
HETATM   25  C   UNL     1     -12.055   9.923  70.844  1.00  0.00    -0.341 A  
HETATM   26  C   UNL     1     -12.823  12.074  71.403  1.00  0.00    -0.288 A  
HETATM   27  C   UNL     1     -13.506  13.046  72.317  1.00  0.00    -0.645 C  
HETATM   28  N   UNL     1     -12.392  12.553  70.218  1.00  0.00    -0.241 NA 
ENDBRANCH  20  21
ENDBRANCH   6  20
TORSDOF 2
ENDMDL
MODEL       22
REMARK 921   NORMALIZED FREE ENERGY PREDICTED BY IDOCK:   -6.10 KCAL/MOL
REMARK 922        TOTAL FREE ENERGY PREDICTED BY IDOCK:   -7.47 KCAL/MOL
REMARK 923 INTER-LIGAND FREE ENERGY PREDICTED BY IDOCK:   -6.87 KCAL/MOL
REMARK 924 INTRA-LIGAND FREE ENERGY PREDICTED BY IDOCK:   -0.60 KCAL/MOL
REMARK 927      BINDING AFFINITY PREDICTED BY RF-SCORE:    0.00 PKD
ROOT
HETATM    1  C   UNL     1      -6.750  10.788  66.281  1.00  0.00    -0.134 C  
HETATM    2  O   UNL     1      -7.543   9.647  66.537  1.00  0.00    -0.096 OA 
HETATM    3  C   UNL     1      -8.960   9.774  66.846  1.00  0.00    -0.138 C  
HETATM    4  C   UNL     1      -9.703  10.362  65.597  1.00  0.00    -0.294 A  
HETATM    5  C   UNL     1      -9.369   8.300  67.136  1.00  0.00    -0.189 A  
HETATM    6  C   UNL     1      -9.237  10.639  68.150  1.00  0.00    -0.148 C  
HETATM    7  C   UNL     1      -8.668  10.062  69.442  1.00  0.00    -0.186 C  
HETATM    8  C   UNL     1      -8.453   7.443  67.797  1.00  0.00    -0.118 A  
HETATM    9  C   UNL     1      -9.220  10.149  64.292  1.00  0.00    -0.312 A  
HETATM   10  C   UNL     1     -11.009   6.502  67.306  1.00  0.00    -0.475 A  
HETATM   11  O   UNL     1      -9.240   9.249  70.155  1.00  0.00    -0.188 OA 
HETATM   12  C   UNL     1      -9.781  10.807  63.187  1.00  0.00    -0.394 A  
HETATM   13  C   UNL     1      -8.818   6.172  68.241  1.00  0.00    -0.112 A  
HETATM   14  C   UNL     1     -10.649   7.787  66.874  1.00  0.00    -0.347 A  
HETATM   15  O   UNL     1      -7.459  10.574  69.804  1.00  0.00    -0.154 OA 
HETATM   16  C   UNL     1     -10.865  11.154  65.711  1.00  0.00    -0.218 A  
HETATM   17  C   UNL     1     -10.858  11.672  63.355  1.00  0.00    -0.453 A  
HETATM   18  C   UNL     1     -10.104   5.707  68.007  1.00  0.00    -0.211 A  
HETATM   19  C   UNL     1     -11.414  11.828  64.616  1.00  0.00    -0.303 A  
ENDROOT
BRANCH   6  20
HETATM   20  O   UNL     1      -8.660  11.959  68.049  1.00  0.00    -0.152 OA 
BRANCH  20  21
HETATM   21  C   UNL     1      -9.559  12.997  68.033  1.00  0.00    -0.224 A  
HETATM   22  C   UNL     1     -12.408  14.220  69.963  1.00  0.00    -0.403 C  
HETATM   23  N   UNL     1     -10.448  13.122  69.026  1.00  0.00    -0.080 NA 
HETATM   24  C   UNL     1     -11.365  14.969  67.818  1.00  0.00    -0.340 A  
HETATM   25  C   UNL     1     -11.359  14.106  68.897  1.00  0.00    -0.277 A  
HETATM   26  C   UNL     1     -10.381  14.779  66.867  1.00  0.00    -0.267 A  
HETATM   27  C   UNL     1     -10.312  15.649  65.649  1.00  0.00    -0.408 C  
HETATM   28  N   UNL     1      -9.463  13.794  66.965  1.00  0.00    -0.246 NA 
ENDBRANCH  20  21
ENDBRANCH   6  20
TORSDOF 2
ENDMDL
MODEL       23
REMARK 921   NORMALIZED FREE ENERGY PREDICTED BY IDOCK:   -6.09 KCAL/MOL
REMARK 922        TOTAL FREE ENERGY PREDICTED BY IDOCK:   -7.46 KCAL/MOL
REMARK 923 INTER-LIGAND FREE ENERGY PREDICTED BY IDOCK:   -6.85 KCAL/MOL
REMARK 924 INTRA-LIGAND FREE ENERGY PREDICTED BY IDOCK:   -0.62 KCAL/MOL
REMARK 927      BINDING AFFINITY PREDICTED BY RF-SCORE:    0.00 PKD
ROOT
HETATM    1  C   UNL     1     -11.408   6.238  68.838  1.00  0.00    -0.186 C  
HETATM    2  O   UNL     1     -10.583   6.391  69.975  1.00  0.00    -0.202 OA 
HETATM    3  C   UNL     1     -10.418   7.690  70.611  1.00  0.00    -0.216 C  
HETATM    4  C   UNL     1     -11.797   8.150  71.197  1.00  0.00    -0.303 A  
HETATM    5  C   UNL     1      -9.376   7.384  71.726  1.00  0.00    -0.161 A  
HETATM    6  C   UNL     1      -9.804   8.786  69.637  1.00  0.00    -0.183 C  
HETATM    7  C   UNL     1      -8.397   8.485  69.129  1.00  0.00    -0.120 C  
HETATM    8  C   UNL     1      -8.338   6.452  71.469  1.00  0.00    -0.125 A  
HETATM    9  C   UNL     1     -12.764   7.214  71.608  1.00  0.00    -0.415 A  
HETATM   10  C   UNL     1      -8.278   7.857  73.852  1.00  0.00    -0.286 A  
HETATM   11  O   UNL     1      -7.366   8.781  69.717  1.00  0.00    -0.050 OA 
HETATM   12  C   UNL     1     -14.059   7.612  71.975  1.00  0.00    -0.359 A  
HETATM   13  C   UNL     1      -7.278   6.263  72.356  1.00  0.00    -0.084 A  
HETATM   14  C   UNL     1      -9.336   8.061  72.955  1.00  0.00    -0.338 A  
HETATM   15  O   UNL     1      -8.354   7.898  67.901  1.00  0.00    -0.124 OA 
HETATM   16  C   UNL     1     -12.154   9.510  71.313  1.00  0.00    -0.443 A  
HETATM   17  C   UNL     1     -14.410   8.959  71.970  1.00  0.00    -0.406 A  
HETATM   18  C   UNL     1      -7.241   6.979  73.543  1.00  0.00    -0.075 A  
HETATM   19  C   UNL     1     -13.450   9.910  71.659  1.00  0.00    -0.421 A  
ENDROOT
BRANCH   6  20
HETATM   20  O   UNL     1     -10.601   8.946  68.442  1.00  0.00    -0.206 OA 
BRANCH  20  21
HETATM   21  C   UNL     1     -10.638  10.217  67.924  1.00  0.00    -0.249 A  
HETATM   22  C   UNL     1     -11.490  13.610  68.974  1.00  0.00    -0.346 C  
HETATM   23  N   UNL     1     -10.956  11.249  68.716  1.00  0.00    -0.203 NA 
HETATM   24  C   UNL     1     -10.829  12.632  66.771  1.00  0.00    -0.279 A  
HETATM   25  C   UNL     1     -11.065  12.453  68.120  1.00  0.00    -0.247 A  
HETATM   26  C   UNL     1     -10.468  11.510  66.050  1.00  0.00    -0.252 A  
HETATM   27  C   UNL     1     -10.209  11.594  64.576  1.00  0.00    -0.337 C  
HETATM   28  N   UNL     1     -10.363  10.290  66.618  1.00  0.00    -0.230 NA 
ENDBRANCH  20  21
ENDBRANCH   6  20
TORSDOF 2
ENDMDL
MODEL       24
REMARK 921   NORMALIZED FREE ENERGY PREDICTED BY IDOCK:   -6.07 KCAL/MOL
REMARK 922        TOTAL FREE ENERGY PREDICTED BY IDOCK:   -7.44 KCAL/MOL
REMARK 923 INTER-LIGAND FREE ENERGY PREDICTED BY IDOCK:   -7.00 KCAL/MOL
REMARK 924 INTRA-LIGAND FREE ENERGY PREDICTED BY IDOCK:   -0.43 KCAL/MOL
REMARK 927      BINDING AFFINITY PREDICTED BY RF-SCORE:    0.00 PKD
ROOT
HETATM    1  C   UNL     1     -10.860  12.060  65.386  1.00  0.00    -0.291 C  
HETATM    2  O   UNL     1      -9.924  13.067  65.713  1.00  0.00    -0.279 OA 
HETATM    3  C   UNL     1      -9.407  13.197  67.068  1.00  0.00    -0.238 C  
HETATM    4  C   UNL     1      -8.579  11.915  67.422  1.00  0.00    -0.164 A  
HETATM    5  C   UNL     1      -8.512  14.466  66.961  1.00  0.00    -0.206 A  
HETATM    6  C   UNL     1     -10.544  13.473  68.144  1.00  0.00    -0.245 C  
HETATM    7  C   UNL     1     -11.310  14.779  67.956  1.00  0.00    -0.316 C  
HETATM    8  C   UNL     1      -8.924  15.537  66.127  1.00  0.00    -0.329 A  
HETATM    9  C   UNL     1      -7.929  11.166  66.423  1.00  0.00    -0.147 A  
HETATM   10  C   UNL     1      -6.683  15.895  67.710  1.00  0.00    -0.178 A  
HETATM   11  O   UNL     1     -10.962  15.862  68.404  1.00  0.00    -0.297 OA 
HETATM   12  C   UNL     1      -7.328   9.930  66.709  1.00  0.00    -0.095 A  
HETATM   13  C   UNL     1      -8.263  16.766  66.121  1.00  0.00    -0.300 A  
HETATM   14  C   UNL     1      -7.356  14.665  67.731  1.00  0.00    -0.188 A  
HETATM   15  O   UNL     1     -12.487  14.650  67.284  1.00  0.00    -0.082 OA 
HETATM   16  C   UNL     1      -8.466  11.427  68.742  1.00  0.00    -0.089 A  
HETATM   17  C   UNL     1      -7.335   9.426  68.007  1.00  0.00    -0.079 A  
HETATM   18  C   UNL     1      -7.149  16.949  66.926  1.00  0.00    -0.251 A  
HETATM   19  C   UNL     1      -7.886  10.186  69.028  1.00  0.00    -0.107 A  
ENDROOT
BRANCH   6  20
HETATM   20  O   UNL     1     -11.558  12.444  68.126  1.00  0.00    -0.298 OA 
BRANCH  20  21
HETATM   21  C   UNL     1     -12.032  12.062  69.357  1.00  0.00    -0.275 A  
HETATM   22  C   UNL     1     -13.389  13.577  72.391  1.00  0.00    -0.641 C  
HETATM   23  N   UNL     1     -12.533  12.982  70.191  1.00  0.00    -0.162 NA 
HETATM   24  C   UNL     1     -12.787  11.226  71.792  1.00  0.00    -0.466 A  
HETATM   25  C   UNL     1     -12.892  12.551  71.416  1.00  0.00    -0.260 A  
HETATM   26  C   UNL     1     -12.295  10.350  70.843  1.00  0.00    -0.381 A  
HETATM   27  C   UNL     1     -12.124   8.894  71.157  1.00  0.00    -0.326 C  
HETATM   28  N   UNL     1     -11.916  10.756  69.613  1.00  0.00    -0.315 NA 
ENDBRANCH  20  21
ENDBRANCH   6  20
TORSDOF 2
ENDMDL
MODEL       25
REMARK 921   NORMALIZED FREE ENERGY PREDICTED BY IDOCK:   -6.07 KCAL/MOL
REMARK 922        TOTAL FREE ENERGY PREDICTED BY IDOCK:   -7.44 KCAL/MOL
REMARK 923 INTER-LIGAND FREE ENERGY PREDICTED BY IDOCK:   -6.84 KCAL/MOL
REMARK 924 INTRA-LIGAND FREE ENERGY PREDICTED BY IDOCK:   -0.60 KCAL/MOL
REMARK 927      BINDING AFFINITY PREDICTED BY RF-SCORE:    0.00 PKD
ROOT
HETATM    1  C   UNL     1      -7.055  10.964  67.943  1.00  0.00    -0.081 C  
HETATM    2  O   UNL     1      -7.918   9.878  68.213  1.00  0.00    -0.098 OA 
HETATM    3  C   UNL     1      -8.985   9.523  67.288  1.00  0.00    -0.131 C  
HETATM    4  C   UNL     1      -8.351   9.052  65.934  1.00  0.00    -0.129 A  
HETATM    5  C   UNL     1      -9.701   8.361  68.038  1.00  0.00    -0.184 A  
HETATM    6  C   UNL     1     -10.032  10.697  67.064  1.00  0.00    -0.202 C  
HETATM    7  C   UNL     1     -10.803  11.123  68.310  1.00  0.00    -0.212 C  
HETATM    8  C   UNL     1      -9.815   8.415  69.451  1.00  0.00    -0.185 A  
HETATM    9  C   UNL     1      -7.073   8.463  65.892  1.00  0.00    -0.072 A  
HETATM   10  C   UNL     1     -11.110   6.371  68.107  1.00  0.00    -0.358 A  
HETATM   11  O   UNL     1     -11.838  10.603  68.701  1.00  0.00    -0.371 OA 
HETATM   12  C   UNL     1      -6.431   8.193  64.673  1.00  0.00    -0.064 A  
HETATM   13  C   UNL     1     -10.592   7.502  70.165  1.00  0.00    -0.241 A  
HETATM   14  C   UNL     1     -10.343   7.298  67.385  1.00  0.00    -0.330 A  
HETATM   15  O   UNL     1     -10.281  12.204  68.954  1.00  0.00    -0.157 OA 
HETATM   16  C   UNL     1      -9.002   9.220  64.694  1.00  0.00    -0.202 A  
HETATM   17  C   UNL     1      -7.062   8.478  63.466  1.00  0.00    -0.090 A  
HETATM   18  C   UNL     1     -11.252   6.487  69.488  1.00  0.00    -0.434 A  
HETATM   19  C   UNL     1      -8.358   8.972  63.477  1.00  0.00    -0.182 A  
ENDROOT
BRANCH   6  20
HETATM   20  O   UNL     1      -9.390  11.904  66.597  1.00  0.00    -0.194 OA 
BRANCH  20  21
HETATM   21  C   UNL     1     -10.149  12.694  65.769  1.00  0.00    -0.271 A  
HETATM   22  C   UNL     1     -10.689  16.234  65.053  1.00  0.00    -0.319 C  
HETATM   23  N   UNL     1      -9.976  14.021  65.775  1.00  0.00    -0.311 NA 
HETATM   24  C   UNL     1     -11.792  14.149  64.226  1.00  0.00    -0.420 A  
HETATM   25  C   UNL     1     -10.819  14.740  65.008  1.00  0.00    -0.425 A  
HETATM   26  C   UNL     1     -11.861  12.770  64.262  1.00  0.00    -0.396 A  
HETATM   27  C   UNL     1     -12.894  12.031  63.465  1.00  0.00    -0.472 C  
HETATM   28  N   UNL     1     -11.038  12.025  65.029  1.00  0.00    -0.310 NA 
ENDBRANCH  20  21
ENDBRANCH   6  20
TORSDOF 2
ENDMDL
MODEL       26
REMARK 921   NORMALIZED FREE ENERGY PREDICTED BY IDOCK:   -6.06 KCAL/MOL
REMARK 922        TOTAL FREE ENERGY PREDICTED BY IDOCK:   -7.42 KCAL/MOL
REMARK 923 INTER-LIGAND FREE ENERGY PREDICTED BY IDOCK:   -7.18 KCAL/MOL
REMARK 924 INTRA-LIGAND FREE ENERGY PREDICTED BY IDOCK:   -0.25 KCAL/MOL
REMARK 927      BINDING AFFINITY PREDICTED BY RF-SCORE:    0.00 PKD
ROOT
HETATM    1  C   UNL     1     -10.675  14.598  69.445  1.00  0.00    -0.222 C  
HETATM    2  O   UNL     1     -10.954  14.089  68.156  1.00  0.00    -0.242 OA 
HETATM    3  C   UNL     1      -9.935  14.087  67.116  1.00  0.00    -0.252 C  
HETATM    4  C   UNL     1      -8.766  13.137  67.549  1.00  0.00    -0.201 A  
HETATM    5  C   UNL     1     -10.717  13.536  65.887  1.00  0.00    -0.279 A  
HETATM    6  C   UNL     1      -9.403  15.542  66.762  1.00  0.00    -0.245 C  
HETATM    7  C   UNL     1     -10.452  16.494  66.196  1.00  0.00    -0.294 C  
HETATM    8  C   UNL     1     -12.077  13.899  65.711  1.00  0.00    -0.449 A  
HETATM    9  C   UNL     1      -8.994  12.039  68.400  1.00  0.00    -0.153 A  
HETATM   10  C   UNL     1     -10.837  12.447  63.708  1.00  0.00    -0.500 A  
HETATM   11  O   UNL     1     -10.749  16.580  65.013  1.00  0.00    -0.662 OA 
HETATM   12  C   UNL     1      -7.932  11.286  68.925  1.00  0.00    -0.104 A  
HETATM   13  C   UNL     1     -12.781  13.586  64.548  1.00  0.00    -0.165 A  
HETATM   14  C   UNL     1     -10.122  12.776  64.869  1.00  0.00    -0.235 A  
HETATM   15  O   UNL     1     -11.018  17.323  67.117  1.00  0.00    -0.145 OA 
HETATM   16  C   UNL     1      -7.431  13.345  67.143  1.00  0.00     0.061 A  
HETATM   17  C   UNL     1      -6.617  11.593  68.589  1.00  0.00    -0.066 A  
HETATM   18  C   UNL     1     -12.154  12.871  63.539  1.00  0.00    -0.633 A  
HETATM   19  C   UNL     1      -6.368  12.611  67.680  1.00  0.00    -0.147 A  
ENDROOT
BRANCH   6  20
HETATM   20  O   UNL     1      -8.882  16.218  67.928  1.00  0.00    -0.181 OA 
BRANCH  20  21
HETATM   21  C   UNL     1      -8.009  17.246  67.672  1.00  0.00    -0.187 A  
HETATM   22  C   UNL     1      -5.894  18.470  64.956  1.00  0.00    -0.252 C  
HETATM   23  N   UNL     1      -7.476  17.377  66.450  1.00  0.00    -0.277 NA 
HETATM   24  C   UNL     1      -6.199  19.197  67.328  1.00  0.00    -0.178 A  
HETATM   25  C   UNL     1      -6.556  18.351  66.297  1.00  0.00    -0.220 A  
HETATM   26  C   UNL     1      -6.837  19.003  68.538  1.00  0.00    -0.268 A  
HETATM   27  C   UNL     1      -6.507  19.856  69.726  1.00  0.00    -0.391 C  
HETATM   28  N   UNL     1      -7.752  18.029  68.724  1.00  0.00    -0.289 NA 
ENDBRANCH  20  21
ENDBRANCH   6  20
TORSDOF 2
ENDMDL
MODEL       27
REMARK 921   NORMALIZED FREE ENERGY PREDICTED BY IDOCK:   -5.90 KCAL/MOL
REMARK 922        TOTAL FREE ENERGY PREDICTED BY IDOCK:   -7.24 KCAL/MOL
REMARK 923 INTER-LIGAND FREE ENERGY PREDICTED BY IDOCK:   -6.67 KCAL/MOL
REMARK 924 INTRA-LIGAND FREE ENERGY PREDICTED BY IDOCK:   -0.57 KCAL/MOL
REMARK 927      BINDING AFFINITY PREDICTED BY RF-SCORE:    0.00 PKD
ROOT
HETATM    1  C   UNL     1      -7.160   7.478  70.808  1.00  0.00    -0.059 C  
HETATM    2  O   UNL     1      -7.650   6.265  71.342  1.00  0.00    -0.095 OA 
HETATM    3  C   UNL     1      -9.076   5.972  71.347  1.00  0.00    -0.143 C  
HETATM    4  C   UNL     1      -9.578   5.855  69.866  1.00  0.00    -0.194 A  
HETATM    5  C   UNL     1      -9.132   4.609  72.097  1.00  0.00    -0.151 A  
HETATM    6  C   UNL     1      -9.927   7.033  72.168  1.00  0.00    -0.165 C  
HETATM    7  C   UNL     1      -9.600   7.112  73.656  1.00  0.00    -0.246 C  
HETATM    8  C   UNL     1      -8.236   4.371  73.170  1.00  0.00    -0.095 A  
HETATM    9  C   UNL     1      -8.715   5.443  68.833  1.00  0.00    -0.099 A  
HETATM   10  C   UNL     1     -10.200   2.490  72.661  1.00  0.00    -0.236 A  
HETATM   11  O   UNL     1     -10.103   6.405  74.519  1.00  0.00    -0.332 OA 
HETATM   12  C   UNL     1      -9.108   5.496  67.487  1.00  0.00    -0.107 A  
HETATM   13  C   UNL     1      -8.348   3.250  73.993  1.00  0.00    -0.074 A  
HETATM   14  C   UNL     1     -10.100   3.625  71.843  1.00  0.00    -0.182 A  
HETATM   15  O   UNL     1      -8.725   8.101  73.990  1.00  0.00    -0.258 OA 
HETATM   16  C   UNL     1     -10.897   6.183  69.485  1.00  0.00    -0.428 A  
HETATM   17  C   UNL     1     -10.383   5.933  67.141  1.00  0.00    -0.286 A  
HETATM   18  C   UNL     1      -9.342   2.315  73.745  1.00  0.00    -0.093 A  
HETATM   19  C   UNL     1     -11.285   6.256  68.144  1.00  0.00    -0.239 A  
ENDROOT
BRANCH   6  20
HETATM   20  O   UNL     1      -9.726   8.376  71.675  1.00  0.00    -0.178 OA 
BRANCH  20  21
HETATM   21  C   UNL     1     -10.872   9.072  71.376  1.00  0.00    -0.330 A  
HETATM   22  C   UNL     1     -11.870  12.211  69.798  1.00  0.00    -0.397 C  
HETATM   23  N   UNL     1     -10.793  10.216  70.684  1.00  0.00    -0.293 NA 
HETATM   24  C   UNL     1     -13.155  10.424  70.982  1.00  0.00    -0.450 A  
HETATM   25  C   UNL     1     -11.945  10.892  70.508  1.00  0.00    -0.371 A  
HETATM   26  C   UNL     1     -13.134   9.214  71.648  1.00  0.00    -0.369 A  
HETATM   27  C   UNL     1     -14.390   8.628  72.218  1.00  0.00    -0.486 C  
HETATM   28  N   UNL     1     -11.993   8.521  71.849  1.00  0.00    -0.320 NA 
ENDBRANCH  20  21
ENDBRANCH   6  20
TORSDOF 2
ENDMDL
MODEL       28
REMARK 921   NORMALIZED FREE ENERGY PREDICTED BY IDOCK:   -5.89 KCAL/MOL
REMARK 922        TOTAL FREE ENERGY PREDICTED BY IDOCK:   -7.23 KCAL/MOL
REMARK 923 INTER-LIGAND FREE ENERGY PREDICTED BY IDOCK:   -6.58 KCAL/MOL
REMARK 924 INTRA-LIGAND FREE ENERGY PREDICTED BY IDOCK:   -0.65 KCAL/MOL
REMARK 927      BINDING AFFINITY PREDICTED BY RF-SCORE:    0.00 PKD
ROOT
HETATM    1  C   UNL     1      -9.996  11.292  64.933  1.00  0.00    -0.274 C  
HETATM    2  O   UNL     1      -9.570  12.573  65.352  1.00  0.00    -0.147 OA 
HETATM    3  C   UNL     1      -9.368  12.870  66.763  1.00  0.00    -0.243 C  
HETATM    4  C   UNL     1      -8.192  11.988  67.307  1.00  0.00    -0.173 A  
HETATM    5  C   UNL     1      -9.005  14.384  66.734  1.00  0.00    -0.256 A  
HETATM    6  C   UNL     1     -10.685  12.686  67.633  1.00  0.00    -0.218 C  
HETATM    7  C   UNL     1     -11.840  13.611  67.262  1.00  0.00    -0.391 C  
HETATM    8  C   UNL     1      -9.643  15.233  65.795  1.00  0.00    -0.359 A  
HETATM    9  C   UNL     1      -7.156  11.550  66.460  1.00  0.00    -0.009 A  
HETATM   10  C   UNL     1      -7.988  16.385  67.690  1.00  0.00    -0.165 A  
HETATM   11  O   UNL     1     -11.998  14.740  67.705  1.00  0.00    -0.334 OA 
HETATM   12  C   UNL     1      -6.194  10.627  66.898  1.00  0.00    -0.070 A  
HETATM   13  C   UNL     1      -9.495  16.620  65.831  1.00  0.00    -0.218 A  
HETATM   14  C   UNL     1      -8.148  14.992  67.666  1.00  0.00    -0.184 A  
HETATM   15  O   UNL     1     -12.758  13.059  66.422  1.00  0.00    -0.231 OA 
HETATM   16  C   UNL     1      -8.123  11.562  68.650  1.00  0.00    -0.132 A  
HETATM   17  C   UNL     1      -6.225  10.140  68.202  1.00  0.00    -0.049 A  
HETATM   18  C   UNL     1      -8.677  17.197  66.790  1.00  0.00    -0.270 A  
HETATM   19  C   UNL     1      -7.179  10.626  69.085  1.00  0.00    -0.102 A  
ENDROOT
BRANCH   6  20
HETATM   20  O   UNL     1     -11.226  11.352  67.508  1.00  0.00    -0.259 OA 
BRANCH  20  21
HETATM   21  C   UNL     1     -11.414  10.679  68.689  1.00  0.00    -0.263 A  
HETATM   22  C   UNL     1     -13.067  11.154  71.912  1.00  0.00    -0.513 C  
HETATM   23  N   UNL     1     -12.193  11.210  69.640  1.00  0.00    -0.314 NA 
HETATM   24  C   UNL     1     -11.587   9.350  71.014  1.00  0.00    -0.400 A  
HETATM   25  C   UNL     1     -12.257  10.540  70.808  1.00  0.00    -0.369 A  
HETATM   26  C   UNL     1     -10.842   8.868  69.956  1.00  0.00    -0.227 A  
HETATM   27  C   UNL     1     -10.062   7.594  70.083  1.00  0.00    -0.199 C  
HETATM   28  N   UNL     1     -10.750   9.523  68.779  1.00  0.00    -0.214 NA 
ENDBRANCH  20  21
ENDBRANCH   6  20
TORSDOF 2
ENDMDL
MODEL       29
REMARK 921   NORMALIZED FREE ENERGY PREDICTED BY IDOCK:   -5.81 KCAL/MOL
REMARK 922        TOTAL FREE ENERGY PREDICTED BY IDOCK:   -7.15 KCAL/MOL
REMARK 923 INTER-LIGAND FREE ENERGY PREDICTED BY IDOCK:   -6.51 KCAL/MOL
REMARK 924 INTRA-LIGAND FREE ENERGY PREDICTED BY IDOCK:   -0.64 KCAL/MOL
REMARK 927      BINDING AFFINITY PREDICTED BY RF-SCORE:    0.00 PKD
ROOT
HETATM    1  C   UNL     1      -6.739   7.258  70.097  1.00  0.00    -0.054 C  
HETATM    2  O   UNL     1      -7.382   6.276  70.884  1.00  0.00    -0.076 OA 
HETATM    3  C   UNL     1      -8.834   6.233  70.988  1.00  0.00    -0.136 C  
HETATM    4  C   UNL     1      -9.436   5.905  69.578  1.00  0.00    -0.166 A  
HETATM    5  C   UNL     1      -9.058   5.077  72.007  1.00  0.00    -0.153 A  
HETATM    6  C   UNL     1      -9.455   7.565  71.592  1.00  0.00    -0.149 C  
HETATM    7  C   UNL     1      -9.031   7.885  73.022  1.00  0.00    -0.225 C  
HETATM    8  C   UNL     1      -8.148   4.915  73.082  1.00  0.00    -0.101 A  
HETATM    9  C   UNL     1      -8.712   5.155  68.631  1.00  0.00    -0.098 A  
HETATM   10  C   UNL     1     -10.412   3.324  73.028  1.00  0.00    -0.251 A  
HETATM   11  O   UNL     1      -9.586   7.461  74.026  1.00  0.00    -0.274 OA 
HETATM   12  C   UNL     1      -9.172   5.001  67.314  1.00  0.00    -0.127 A  
HETATM   13  C   UNL     1      -8.386   4.017  74.123  1.00  0.00    -0.094 A  
HETATM   14  C   UNL     1     -10.183   4.238  71.990  1.00  0.00    -0.220 A  
HETATM   15  O   UNL     1      -7.992   8.761  73.119  1.00  0.00    -0.405 OA 
HETATM   16  C   UNL     1     -10.706   6.365  69.172  1.00  0.00    -0.339 A  
HETATM   17  C   UNL     1     -10.381   5.567  66.918  1.00  0.00    -0.315 A  
HETATM   18  C   UNL     1      -9.529   3.231  74.103  1.00  0.00    -0.116 A  
HETATM   19  C   UNL     1     -11.159   6.231  67.855  1.00  0.00    -0.360 A  
ENDROOT
BRANCH   6  20
HETATM   20  O   UNL     1      -9.075   8.728  70.824  1.00  0.00    -0.157 OA 
BRANCH  20  21
HETATM   21  C   UNL     1     -10.109   9.544  70.439  1.00  0.00    -0.271 A  
HETATM   22  C   UNL     1     -13.240  10.864  71.780  1.00  0.00    -0.513 C  
HETATM   23  N   UNL     1     -11.078   9.846  71.312  1.00  0.00    -0.312 NA 
HETATM   24  C   UNL     1     -12.158  11.020  69.532  1.00  0.00    -0.400 A  
HETATM   25  C   UNL     1     -12.109  10.574  70.838  1.00  0.00    -0.383 A  
HETATM   26  C   UNL     1     -11.089  10.687  68.723  1.00  0.00    -0.265 A  
HETATM   27  C   UNL     1     -11.055  11.106  67.284  1.00  0.00    -0.366 C  
HETATM   28  N   UNL     1     -10.050   9.950  69.167  1.00  0.00    -0.188 NA 
ENDBRANCH  20  21
ENDBRANCH   6  20
TORSDOF 2
ENDMDL
MODEL       30
REMARK 921   NORMALIZED FREE ENERGY PREDICTED BY IDOCK:   -5.81 KCAL/MOL
REMARK 922        TOTAL FREE ENERGY PREDICTED BY IDOCK:   -7.15 KCAL/MOL
REMARK 923 INTER-LIGAND FREE ENERGY PREDICTED BY IDOCK:   -6.60 KCAL/MOL
REMARK 924 INTRA-LIGAND FREE ENERGY PREDICTED BY IDOCK:   -0.54 KCAL/MOL
REMARK 927      BINDING AFFINITY PREDICTED BY RF-SCORE:    0.00 PKD
ROOT
HETATM    1  C   UNL     1     -10.454  16.711  69.353  1.00  0.00    -0.320 C  
HETATM    2  O   UNL     1     -10.694  15.878  68.236  1.00  0.00    -0.267 OA 
HETATM    3  C   UNL     1      -9.741  15.807  67.137  1.00  0.00    -0.223 C  
HETATM    4  C   UNL     1      -8.398  15.195  67.665  1.00  0.00    -0.172 A  
HETATM    5  C   UNL     1     -10.465  14.863  66.132  1.00  0.00    -0.313 A  
HETATM    6  C   UNL     1      -9.504  17.210  66.428  1.00  0.00    -0.269 C  
HETATM    7  C   UNL     1     -10.735  17.814  65.760  1.00  0.00    -0.098 C  
HETATM    8  C   UNL     1     -11.875  14.941  66.000  1.00  0.00    -0.114 A  
HETATM    9  C   UNL     1      -8.381  14.301  68.752  1.00  0.00    -0.095 A  
HETATM   10  C   UNL     1     -10.483  13.296  64.263  1.00  0.00    -0.372 A  
HETATM   11  O   UNL     1     -11.097  17.572  64.617  1.00  0.00    -0.978 OA 
HETATM   12  C   UNL     1      -7.175  13.880  69.334  1.00  0.00     0.077 A  
HETATM   13  C   UNL     1     -12.562  14.253  65.000  1.00  0.00    -0.360 A  
HETATM   14  C   UNL     1      -9.788  14.000  65.257  1.00  0.00    -0.186 A  
HETATM   15  O   UNL     1     -11.400  18.725  66.523  1.00  0.00     0.393 OA 
HETATM   16  C   UNL     1      -7.145  15.526  67.108  1.00  0.00    -0.171 A  
HETATM   17  C   UNL     1      -5.956  14.319  68.826  1.00  0.00    -0.085 A  
HETATM   18  C   UNL     1     -11.862  13.440  64.121  1.00  0.00    -0.492 A  
HETATM   19  C   UNL     1      -5.941  15.126  67.698  1.00  0.00    -0.104 A  
ENDROOT
BRANCH   6  20
HETATM   20  O   UNL     1      -9.062  18.215  67.367  1.00  0.00    -0.251 OA 
BRANCH  20  21
HETATM   21  C   UNL     1      -7.867  18.820  67.064  1.00  0.00    -0.240 A  
HETATM   22  C   UNL     1      -5.372  20.965  68.650  1.00  0.00    -0.370 C  
HETATM   23  N   UNL     1      -7.206  19.497  68.012  1.00  0.00    -0.269 NA 
HETATM   24  C   UNL     1      -5.623  20.089  66.322  1.00  0.00    -0.187 A  
HETATM   25  C   UNL     1      -6.089  20.142  67.621  1.00  0.00    -0.213 A  
HETATM   26  C   UNL     1      -6.357  19.331  65.431  1.00  0.00    -0.268 A  
HETATM   27  C   UNL     1      -5.946  19.224  63.993  1.00  0.00    -0.160 C  
HETATM   28  N   UNL     1      -7.485  18.684  65.791  1.00  0.00    -0.498 NA 
ENDBRANCH  20  21
ENDBRANCH   6  20
TORSDOF 2
ENDMDL
MODEL       31
REMARK 921   NORMALIZED FREE ENERGY PREDICTED BY IDOCK:   -5.78 KCAL/MOL
REMARK 922        TOTAL FREE ENERGY PREDICTED BY IDOCK:   -7.11 KCAL/MOL
REMARK 923 INTER-LIGAND FREE ENERGY PREDICTED BY IDOCK:   -6.46 KCAL/MOL
REMARK 924 INTRA-LIGAND FREE ENERGY PREDICTED BY IDOCK:   -0.65 KCAL/MOL
REMARK 927      BINDING AFFINITY PREDICTED BY RF-SCORE:    0.00 PKD
ROOT
HETATM    1  C   UNL     1     -11.360  11.332  68.461  1.00  0.00    -0.276 C  
HETATM    2  O   UNL     1     -10.762  12.601  68.287  1.00  0.00    -0.215 OA 
HETATM    3  C   UNL     1      -9.892  12.868  67.151  1.00  0.00    -0.225 C  
HETATM    4  C   UNL     1     -10.732  12.767  65.831  1.00  0.00    -0.294 A  
HETATM    5  C   UNL     1      -9.414  14.323  67.435  1.00  0.00    -0.211 A  
HETATM    6  C   UNL     1      -8.618  11.920  67.106  1.00  0.00    -0.172 C  
HETATM    7  C   UNL     1      -7.666  12.057  68.290  1.00  0.00    -0.127 C  
HETATM    8  C   UNL     1      -9.172  14.724  68.774  1.00  0.00    -0.196 A  
HETATM    9  C   UNL     1     -12.112  13.043  65.821  1.00  0.00    -0.510 A  
HETATM   10  C   UNL     1      -8.519  16.483  66.739  1.00  0.00    -0.273 A  
HETATM   11  O   UNL     1      -6.756  12.870  68.362  1.00  0.00    -0.077 OA 
HETATM   12  C   UNL     1     -12.899  12.795  64.686  1.00  0.00    -0.355 A  
HETATM   13  C   UNL     1      -8.578  15.948  69.083  1.00  0.00    -0.252 A  
HETATM   14  C   UNL     1      -9.100  15.245  66.425  1.00  0.00    -0.347 A  
HETATM   15  O   UNL     1      -7.859  11.140  69.278  1.00  0.00    -0.103 OA 
HETATM   16  C   UNL     1     -10.165  12.368  64.602  1.00  0.00    -0.312 A  
HETATM   17  C   UNL     1     -12.322  12.292  63.523  1.00  0.00    -0.670 A  
HETATM   18  C   UNL     1      -8.238  16.822  68.061  1.00  0.00    -0.192 A  
HETATM   19  C   UNL     1     -10.949  12.099  63.475  1.00  0.00    -0.521 A  
ENDROOT
BRANCH   6  20
HETATM   20  O   UNL     1      -8.991  10.524  67.091  1.00  0.00    -0.139 OA 
BRANCH  20  21
HETATM   21  C   UNL     1      -8.344   9.750  66.160  1.00  0.00    -0.120 A  
HETATM   22  C   UNL     1      -6.066  10.148  63.333  1.00  0.00    -0.143 C  
HETATM   23  N   UNL     1      -7.493  10.320  65.298  1.00  0.00    -0.145 NA 
HETATM   24  C   UNL     1      -7.257   8.168  64.286  1.00  0.00    -0.089 A  
HETATM   25  C   UNL     1      -6.967   9.516  64.352  1.00  0.00    -0.107 A  
HETATM   26  C   UNL     1      -8.117   7.671  65.246  1.00  0.00    -0.133 A  
HETATM   27  C   UNL     1      -8.511   6.224  65.250  1.00  0.00    -0.113 C  
HETATM   28  N   UNL     1      -8.667   8.454  66.197  1.00  0.00    -0.142 NA 
ENDBRANCH  20  21
ENDBRANCH   6  20
TORSDOF 2
ENDMDL
MODEL       32
REMARK 921   NORMALIZED FREE ENERGY PREDICTED BY IDOCK:   -5.72 KCAL/MOL
REMARK 922        TOTAL FREE ENERGY PREDICTED BY IDOCK:   -7.05 KCAL/MOL
REMARK 923 INTER-LIGAND FREE ENERGY PREDICTED BY IDOCK:   -6.46 KCAL/MOL
REMARK 924 INTRA-LIGAND FREE ENERGY PREDICTED BY IDOCK:   -0.59 KCAL/MOL
REMARK 927      BINDING AFFINITY PREDICTED BY RF-SCORE:    0.00 PKD
ROOT
HETATM    1  C   UNL     1     -11.187   6.428  68.437  1.00  0.00    -0.200 C  
HETATM    2  O   UNL     1     -10.193   6.636  69.420  1.00  0.00    -0.171 OA 
HETATM    3  C   UNL     1      -9.915   7.970  69.933  1.00  0.00    -0.189 C  
HETATM    4  C   UNL     1     -11.180   8.498  70.692  1.00  0.00    -0.278 A  
HETATM    5  C   UNL     1      -8.717   7.712  70.893  1.00  0.00    -0.138 A  
HETATM    6  C   UNL     1      -9.446   8.985  68.804  1.00  0.00    -0.148 C  
HETATM    7  C   UNL     1      -8.139   8.619  68.107  1.00  0.00    -0.115 C  
HETATM    8  C   UNL     1      -7.744   6.742  70.542  1.00  0.00    -0.104 A  
HETATM    9  C   UNL     1     -12.084   7.613  71.311  1.00  0.00    -0.337 A  
HETATM   10  C   UNL     1      -7.295   8.297  72.787  1.00  0.00    -0.143 A  
HETATM   11  O   UNL     1      -7.026   8.929  68.507  1.00  0.00    -0.063 OA 
HETATM   12  C   UNL     1     -13.300   8.065  71.846  1.00  0.00    -0.336 A  
HETATM   13  C   UNL     1      -6.560   6.587  71.265  1.00  0.00    -0.051 A  
HETATM   14  C   UNL     1      -8.478   8.467  72.052  1.00  0.00    -0.245 A  
HETATM   15  O   UNL     1      -8.295   7.953  66.930  1.00  0.00    -0.113 OA 
HETATM   16  C   UNL     1     -11.498   9.871  70.770  1.00  0.00    -0.433 A  
HETATM   17  C   UNL     1     -13.631   9.416  71.803  1.00  0.00    -0.461 A  
HETATM   18  C   UNL     1      -6.330   7.377  72.381  1.00  0.00    -0.050 A  
HETATM   19  C   UNL     1     -12.719  10.322  71.284  1.00  0.00    -0.523 A  
ENDROOT
BRANCH   6  20
HETATM   20  O   UNL     1     -10.417   9.086  67.739  1.00  0.00    -0.237 OA 
BRANCH  20  21
HETATM   21  C   UNL     1     -10.439  10.286  67.072  1.00  0.00    -0.244 A  
HETATM   22  C   UNL     1     -10.224  11.556  63.654  1.00  0.00    -0.450 C  
HETATM   23  N   UNL     1     -10.405  10.303  65.733  1.00  0.00    -0.210 NA 
HETATM   24  C   UNL     1     -10.329  12.687  65.881  1.00  0.00    -0.295 A  
HETATM   25  C   UNL     1     -10.334  11.516  65.150  1.00  0.00    -0.278 A  
HETATM   26  C   UNL     1     -10.406  12.561  67.254  1.00  0.00    -0.220 A  
HETATM   27  C   UNL     1     -10.389  13.770  68.139  1.00  0.00    -0.252 C  
HETATM   28  N   UNL     1     -10.467  11.360  67.867  1.00  0.00    -0.179 NA 
ENDBRANCH  20  21
ENDBRANCH   6  20
TORSDOF 2
ENDMDL
MODEL       33
REMARK 921   NORMALIZED FREE ENERGY PREDICTED BY IDOCK:   -5.70 KCAL/MOL
REMARK 922        TOTAL FREE ENERGY PREDICTED BY IDOCK:   -7.02 KCAL/MOL
REMARK 923 INTER-LIGAND FREE ENERGY PREDICTED BY IDOCK:   -6.45 KCAL/MOL
REMARK 924 INTRA-LIGAND FREE ENERGY PREDICTED BY IDOCK:   -0.57 KCAL/MOL
REMARK 927      BINDING AFFINITY PREDICTED BY RF-SCORE:    0.00 PKD
ROOT
HETATM    1  C   UNL     1     -11.234  11.378  68.455  1.00  0.00    -0.263 C  
HETATM    2  O   UNL     1     -10.635  12.637  68.223  1.00  0.00    -0.222 OA 
HETATM    3  C   UNL     1      -9.808  12.868  67.048  1.00  0.00    -0.233 C  
HETATM    4  C   UNL     1     -10.699  12.737  65.764  1.00  0.00    -0.296 A  
HETATM    5  C   UNL     1      -9.311  14.326  67.273  1.00  0.00    -0.215 A  
HETATM    6  C   UNL     1      -8.543  11.909  66.979  1.00  0.00    -0.176 C  
HETATM    7  C   UNL     1      -7.545  12.072  68.121  1.00  0.00    -0.120 C  
HETATM    8  C   UNL     1      -9.015  14.761  68.590  1.00  0.00    -0.185 A  
HETATM    9  C   UNL     1     -12.077  13.022  65.799  1.00  0.00    -0.510 A  
HETATM   10  C   UNL     1      -8.432  16.460  66.485  1.00  0.00    -0.336 A  
HETATM   11  O   UNL     1      -6.628  12.881  68.136  1.00  0.00    -0.072 OA 
HETATM   12  C   UNL     1     -12.910  12.748  64.703  1.00  0.00    -0.355 A  
HETATM   13  C   UNL     1      -8.403  15.989  68.843  1.00  0.00    -0.231 A  
HETATM   14  C   UNL     1      -9.032  15.219  66.227  1.00  0.00    -0.314 A  
HETATM   15  O   UNL     1      -7.705  11.183  69.141  1.00  0.00    -0.129 OA 
HETATM   16  C   UNL     1     -10.183  12.300  64.526  1.00  0.00    -0.322 A  
HETATM   17  C   UNL     1     -12.381  12.211  63.533  1.00  0.00    -0.682 A  
HETATM   18  C   UNL     1      -8.097  16.833  67.785  1.00  0.00    -0.186 A  
HETATM   19  C   UNL     1     -11.012  12.007  63.438  1.00  0.00    -0.475 A  
ENDROOT
BRANCH   6  20
HETATM   20  O   UNL     1      -8.924  10.516  67.017  1.00  0.00    -0.139 OA 
BRANCH  20  21
HETATM   21  C   UNL     1      -8.310   9.711  66.090  1.00  0.00    -0.119 A  
HETATM   22  C   UNL     1      -8.185   6.188  65.136  1.00  0.00    -0.141 C  
HETATM   23  N   UNL     1      -8.617   8.409  66.034  1.00  0.00    -0.137 NA 
HETATM   24  C   UNL     1      -6.936   8.204  64.346  1.00  0.00    -0.076 A  
HETATM   25  C   UNL     1      -7.907   7.661  65.165  1.00  0.00    -0.124 A  
HETATM   26  C   UNL     1      -6.724   9.565  64.455  1.00  0.00    -0.100 A  
HETATM   27  C   UNL     1      -5.680  10.248  63.625  1.00  0.00    -0.144 C  
HETATM   28  N   UNL     1      -7.410  10.336  65.324  1.00  0.00    -0.145 NA 
ENDBRANCH  20  21
ENDBRANCH   6  20
TORSDOF 2
ENDMDL
MODEL       34
REMARK 921   NORMALIZED FREE ENERGY PREDICTED BY IDOCK:   -5.68 KCAL/MOL
REMARK 922        TOTAL FREE ENERGY PREDICTED BY IDOCK:   -7.00 KCAL/MOL
REMARK 923 INTER-LIGAND FREE ENERGY PREDICTED BY IDOCK:   -6.48 KCAL/MOL
REMARK 924 INTRA-LIGAND FREE ENERGY PREDICTED BY IDOCK:   -0.52 KCAL/MOL
REMARK 927      BINDING AFFINITY PREDICTED BY RF-SCORE:    0.00 PKD
ROOT
HETATM    1  C   UNL     1     -11.144   6.686  67.363  1.00  0.00    -0.320 C  
HETATM    2  O   UNL     1      -9.899   6.785  68.026  1.00  0.00    -0.133 OA 
HETATM    3  C   UNL     1      -9.507   8.013  68.703  1.00  0.00    -0.147 C  
HETATM    4  C   UNL     1     -10.487   8.270  69.899  1.00  0.00    -0.223 A  
HETATM    5  C   UNL     1      -8.065   7.679  69.185  1.00  0.00    -0.125 A  
HETATM    6  C   UNL     1      -9.435   9.265  67.729  1.00  0.00    -0.140 C  
HETATM    7  C   UNL     1      -8.400   9.158  66.613  1.00  0.00    -0.122 C  
HETATM    8  C   UNL     1      -7.226   6.885  68.363  1.00  0.00    -0.088 A  
HETATM    9  C   UNL     1     -11.134   7.206  70.556  1.00  0.00    -0.299 A  
HETATM   10  C   UNL     1      -6.141   8.006  70.649  1.00  0.00    -0.033 A  
HETATM   11  O   UNL     1      -7.225   9.481  66.719  1.00  0.00    -0.085 OA 
HETATM   12  C   UNL     1     -12.135   7.436  71.512  1.00  0.00    -0.357 A  
HETATM   13  C   UNL     1      -5.873   6.696  68.650  1.00  0.00    -0.021 A  
HETATM   14  C   UNL     1      -7.497   8.211  70.353  1.00  0.00    -0.067 A  
HETATM   15  O   UNL     1      -8.897   8.723  65.422  1.00  0.00    -0.186 OA 
HETATM   16  C   UNL     1     -10.798   9.568  70.358  1.00  0.00    -0.338 A  
HETATM   17  C   UNL     1     -12.495   8.736  71.858  1.00  0.00    -0.434 A  
HETATM   18  C   UNL     1      -5.328   7.271  69.788  1.00  0.00    -0.022 A  
HETATM   19  C   UNL     1     -11.809   9.802  71.295  1.00  0.00    -0.481 A  
ENDROOT
BRANCH   6  20
HETATM   20  O   UNL     1     -10.690   9.486  67.048  1.00  0.00    -0.231 OA 
BRANCH  20  21
HETATM   21  C   UNL     1     -11.032  10.801  66.853  1.00  0.00    -0.190 A  
HETATM   22  C   UNL     1     -12.029  13.721  68.808  1.00  0.00    -0.400 C  
HETATM   23  N   UNL     1     -11.268  11.590  67.909  1.00  0.00    -0.256 NA 
HETATM   24  C   UNL     1     -11.842  13.309  66.350  1.00  0.00    -0.446 A  
HETATM   25  C   UNL     1     -11.690  12.842  67.641  1.00  0.00    -0.370 A  
HETATM   26  C   UNL     1     -11.534  12.428  65.332  1.00  0.00    -0.358 A  
HETATM   27  C   UNL     1     -11.683  12.831  63.896  1.00  0.00    -0.530 C  
HETATM   28  N   UNL     1     -11.121  11.166  65.570  1.00  0.00    -0.081 NA 
ENDBRANCH  20  21
ENDBRANCH   6  20
TORSDOF 2
ENDMDL
MODEL       35
REMARK 921   NORMALIZED FREE ENERGY PREDICTED BY IDOCK:   -5.67 KCAL/MOL
REMARK 922        TOTAL FREE ENERGY PREDICTED BY IDOCK:   -6.98 KCAL/MOL
REMARK 923 INTER-LIGAND FREE ENERGY PREDICTED BY IDOCK:   -6.34 KCAL/MOL
REMARK 924 INTRA-LIGAND FREE ENERGY PREDICTED BY IDOCK:   -0.65 KCAL/MOL
REMARK 927      BINDING AFFINITY PREDICTED BY RF-SCORE:    0.00 PKD
ROOT
HETATM    1  C   UNL     1     -10.609   8.054  66.982  1.00  0.00    -0.294 C  
HETATM    2  O   UNL     1      -9.335   8.664  67.029  1.00  0.00    -0.146 OA 
HETATM    3  C   UNL     1      -8.974   9.560  68.118  1.00  0.00    -0.123 C  
HETATM    4  C   UNL     1      -8.950   8.749  69.459  1.00  0.00    -0.145 A  
HETATM    5  C   UNL     1      -7.555  10.041  67.695  1.00  0.00    -0.091 A  
HETATM    6  C   UNL     1      -9.925  10.829  68.221  1.00  0.00    -0.168 C  
HETATM    7  C   UNL     1      -9.902  11.755  67.010  1.00  0.00    -0.197 C  
HETATM    8  C   UNL     1      -7.277  10.257  66.321  1.00  0.00    -0.117 A  
HETATM    9  C   UNL     1      -8.663   7.371  69.474  1.00  0.00    -0.137 A  
HETATM   10  C   UNL     1      -5.349  10.964  68.175  1.00  0.00    -0.035 A  
HETATM   11  O   UNL     1      -9.106  12.669  66.846  1.00  0.00    -0.208 OA 
HETATM   12  C   UNL     1      -8.802   6.606  70.642  1.00  0.00    -0.148 A  
HETATM   13  C   UNL     1      -6.090  10.851  65.891  1.00  0.00    -0.103 A  
HETATM   14  C   UNL     1      -6.548  10.382  68.611  1.00  0.00    -0.052 A  
HETATM   15  O   UNL     1     -10.902  11.536  66.112  1.00  0.00    -0.274 OA 
HETATM   16  C   UNL     1      -9.242   9.339  70.707  1.00  0.00    -0.316 A  
HETATM   17  C   UNL     1      -9.204   7.205  71.833  1.00  0.00    -0.149 A  
HETATM   18  C   UNL     1      -5.131  11.219  66.823  1.00  0.00    -0.095 A  
HETATM   19  C   UNL     1      -9.403   8.578  71.869  1.00  0.00    -0.337 A  
ENDROOT
BRANCH   6  20
HETATM   20  O   UNL     1     -11.311  10.448  68.368  1.00  0.00    -0.276 OA 
BRANCH  20  21
HETATM   21  C   UNL     1     -11.937  10.922  69.494  1.00  0.00    -0.330 A  
HETATM   22  C   UNL     1     -12.498  14.092  71.221  1.00  0.00    -0.448 C  
HETATM   23  N   UNL     1     -11.968  12.240  69.732  1.00  0.00    -0.313 NA 
HETATM   24  C   UNL     1     -13.052  11.724  71.799  1.00  0.00    -0.480 A  
HETATM   25  C   UNL     1     -12.516  12.626  70.901  1.00  0.00    -0.278 A  
HETATM   26  C   UNL     1     -13.004  10.390  71.441  1.00  0.00    -0.443 A  
HETATM   27  C   UNL     1     -13.541   9.330  72.354  1.00  0.00    -0.527 C  
HETATM   28  N   UNL     1     -12.451   9.973  70.283  1.00  0.00    -0.106 NA 
ENDBRANCH  20  21
ENDBRANCH   6  20
TORSDOF 2
ENDMDL
MODEL       36
REMARK 921   NORMALIZED FREE ENERGY PREDICTED BY IDOCK:   -5.61 KCAL/MOL
REMARK 922        TOTAL FREE ENERGY PREDICTED BY IDOCK:   -6.92 KCAL/MOL
REMARK 923 INTER-LIGAND FREE ENERGY PREDICTED BY IDOCK:   -6.46 KCAL/MOL
REMARK 924 INTRA-LIGAND FREE ENERGY PREDICTED BY IDOCK:   -0.46 KCAL/MOL
REMARK 927      BINDING AFFINITY PREDICTED BY RF-SCORE:    0.00 PKD
ROOT
HETATM    1  C   UNL     1     -10.259  10.227  65.639  1.00  0.00    -0.231 C  
HETATM    2  O   UNL     1      -9.707  11.515  65.828  1.00  0.00    -0.221 OA 
HETATM    3  C   UNL     1      -8.995  11.851  67.052  1.00  0.00    -0.190 C  
HETATM    4  C   UNL     1      -7.701  10.971  67.147  1.00  0.00    -0.131 A  
HETATM    5  C   UNL     1      -8.667  13.358  66.841  1.00  0.00    -0.154 A  
HETATM    6  C   UNL     1      -9.894  11.709  68.355  1.00  0.00    -0.202 C  
HETATM    7  C   UNL     1     -11.103  12.637  68.410  1.00  0.00    -0.265 C  
HETATM    8  C   UNL     1      -9.609  14.186  66.179  1.00  0.00    -0.278 A  
HETATM    9  C   UNL     1      -7.055  10.495  65.991  1.00  0.00    -0.137 A  
HETATM   10  C   UNL     1      -7.368  15.374  67.285  1.00  0.00    -0.239 A  
HETATM   11  O   UNL     1     -11.085  13.781  68.844  1.00  0.00    -0.250 OA 
HETATM   12  C   UNL     1      -5.999   9.573  66.069  1.00  0.00    -0.062 A  
HETATM   13  C   UNL     1      -9.458  15.572  66.113  1.00  0.00    -0.376 A  
HETATM   14  C   UNL     1      -7.526  13.983  67.367  1.00  0.00    -0.147 A  
HETATM   15  O   UNL     1     -12.268  12.071  67.989  1.00  0.00    -0.454 OA 
HETATM   16  C   UNL     1      -7.138  10.584  68.382  1.00  0.00    -0.078 A  
HETATM   17  C   UNL     1      -5.544   9.126  67.306  1.00  0.00    -0.041 A  
HETATM   18  C   UNL     1      -8.341  16.167  66.681  1.00  0.00    -0.321 A  
HETATM   19  C   UNL     1      -6.100   9.649  68.464  1.00  0.00    -0.043 A  
ENDROOT
BRANCH   6  20
HETATM   20  O   UNL     1     -10.443  10.379  68.483  1.00  0.00    -0.167 OA 
BRANCH  20  21
HETATM   21  C   UNL     1     -10.442   9.860  69.754  1.00  0.00    -0.261 A  
HETATM   22  C   UNL     1      -8.090   8.441  72.161  1.00  0.00    -0.192 C  
HETATM   23  N   UNL     1      -9.285   9.502  70.325  1.00  0.00    -0.246 NA 
HETATM   24  C   UNL     1     -10.575   8.716  72.177  1.00  0.00    -0.411 A  
HETATM   25  C   UNL     1      -9.368   8.914  71.535  1.00  0.00    -0.265 A  
HETATM   26  C   UNL     1     -11.707   9.157  71.519  1.00  0.00    -0.363 A  
HETATM   27  C   UNL     1     -13.066   8.972  72.122  1.00  0.00    -0.496 C  
HETATM   28  N   UNL     1     -11.654   9.738  70.303  1.00  0.00    -0.243 NA 
ENDBRANCH  20  21
ENDBRANCH   6  20
TORSDOF 2
ENDMDL
MODEL       37
REMARK 921   NORMALIZED FREE ENERGY PREDICTED BY IDOCK:   -5.57 KCAL/MOL
REMARK 922        TOTAL FREE ENERGY PREDICTED BY IDOCK:   -6.87 KCAL/MOL
REMARK 923 INTER-LIGAND FREE ENERGY PREDICTED BY IDOCK:   -6.27 KCAL/MOL
REMARK 924 INTRA-LIGAND FREE ENERGY PREDICTED BY IDOCK:   -0.60 KCAL/MOL
REMARK 927      BINDING AFFINITY PREDICTED BY RF-SCORE:    0.00 PKD
ROOT
HETATM    1  C   UNL     1      -9.484   7.545  67.937  1.00  0.00    -0.141 C  
HETATM    2  O   UNL     1     -10.417   8.105  68.840  1.00  0.00    -0.215 OA 
HETATM    3  C   UNL     1     -10.174   9.399  69.461  1.00  0.00    -0.209 C  
HETATM    4  C   UNL     1     -10.159  10.503  68.347  1.00  0.00    -0.181 A  
HETATM    5  C   UNL     1     -11.395   9.543  70.416  1.00  0.00    -0.318 A  
HETATM    6  C   UNL     1      -8.846   9.433  70.332  1.00  0.00    -0.249 C  
HETATM    7  C   UNL     1      -8.833   8.486  71.528  1.00  0.00    -0.199 C  
HETATM    8  C   UNL     1     -11.898   8.393  71.075  1.00  0.00    -0.278 A  
HETATM    9  C   UNL     1     -10.895  10.350  67.157  1.00  0.00    -0.301 A  
HETATM   10  C   UNL     1     -12.961  10.859  71.745  1.00  0.00    -0.557 A  
HETATM   11  O   UNL     1      -9.276   8.755  72.636  1.00  0.00    -0.327 OA 
HETATM   12  C   UNL     1     -10.756  11.251  66.090  1.00  0.00    -0.307 A  
HETATM   13  C   UNL     1     -12.870   8.478  72.072  1.00  0.00    -0.414 A  
HETATM   14  C   UNL     1     -11.971  10.777  70.755  1.00  0.00    -0.464 A  
HETATM   15  O   UNL     1      -8.215   7.294  71.297  1.00  0.00    -0.105 OA 
HETATM   16  C   UNL     1      -9.392  11.682  68.460  1.00  0.00    -0.169 A  
HETATM   17  C   UNL     1      -9.900  12.344  66.196  1.00  0.00    -0.263 A  
HETATM   18  C   UNL     1     -13.391   9.716  72.418  1.00  0.00    -0.426 A  
HETATM   19  C   UNL     1      -9.234  12.571  67.391  1.00  0.00    -0.186 A  
ENDROOT
BRANCH   6  20
HETATM   20  O   UNL     1      -7.686   9.061  69.554  1.00  0.00    -0.077 OA 
BRANCH  20  21
HETATM   21  C   UNL     1      -6.819  10.084  69.263  1.00  0.00    -0.059 A  
HETATM   22  C   UNL     1      -5.385  13.037  70.866  1.00  0.00    -0.174 C  
HETATM   23  N   UNL     1      -6.489  10.967  70.215  1.00  0.00    -0.247 NA 
HETATM   24  C   UNL     1      -5.238  12.129  68.541  1.00  0.00    -0.050 A  
HETATM   25  C   UNL     1      -5.708  11.998  69.833  1.00  0.00    -0.126 A  
HETATM   26  C   UNL     1      -5.604  11.143  67.646  1.00  0.00    -0.041 A  
HETATM   27  C   UNL     1      -5.163  11.202  66.215  1.00  0.00    -0.132 C  
HETATM   28  N   UNL     1      -6.395  10.106  67.996  1.00  0.00    -0.057 NA 
ENDBRANCH  20  21
ENDBRANCH   6  20
TORSDOF 2
ENDMDL
MODEL       38
REMARK 921   NORMALIZED FREE ENERGY PREDICTED BY IDOCK:   -5.57 KCAL/MOL
REMARK 922        TOTAL FREE ENERGY PREDICTED BY IDOCK:   -6.87 KCAL/MOL
REMARK 923 INTER-LIGAND FREE ENERGY PREDICTED BY IDOCK:   -6.34 KCAL/MOL
REMARK 924 INTRA-LIGAND FREE ENERGY PREDICTED BY IDOCK:   -0.53 KCAL/MOL
REMARK 927      BINDING AFFINITY PREDICTED BY RF-SCORE:    0.00 PKD
ROOT
HETATM    1  C   UNL     1      -8.106   8.248  72.089  1.00  0.00    -0.145 C  
HETATM    2  O   UNL     1      -9.519   8.255  72.132  1.00  0.00    -0.205 OA 
HETATM    3  C   UNL     1     -10.300   7.516  71.151  1.00  0.00    -0.200 C  
HETATM    4  C   UNL     1     -10.019   5.984  71.325  1.00  0.00    -0.223 A  
HETATM    5  C   UNL     1     -11.760   7.895  71.537  1.00  0.00    -0.317 A  
HETATM    6  C   UNL     1     -10.036   7.991  69.658  1.00  0.00    -0.188 C  
HETATM    7  C   UNL     1     -10.417   9.438  69.362  1.00  0.00    -0.220 C  
HETATM    8  C   UNL     1     -12.037   9.208  71.995  1.00  0.00    -0.431 A  
HETATM    9  C   UNL     1      -9.649   5.446  72.573  1.00  0.00    -0.169 A  
HETATM   10  C   UNL     1     -14.165   7.491  71.570  1.00  0.00    -0.580 A  
HETATM   11  O   UNL     1     -11.533   9.809  69.024  1.00  0.00    -0.041 OA 
HETATM   12  C   UNL     1      -9.235   4.111  72.701  1.00  0.00    -0.140 A  
HETATM   13  C   UNL     1     -13.342   9.663  72.189  1.00  0.00    -0.545 A  
HETATM   14  C   UNL     1     -12.856   7.036  71.358  1.00  0.00    -0.407 A  
HETATM   15  O   UNL     1      -9.383  10.321  69.438  1.00  0.00    -0.204 OA 
HETATM   16  C   UNL     1     -10.088   5.074  70.249  1.00  0.00    -0.339 A  
HETATM   17  C   UNL     1      -9.209   3.272  71.591  1.00  0.00    -0.185 A  
HETATM   18  C   UNL     1     -14.408   8.806  71.961  1.00  0.00    -0.466 A  
HETATM   19  C   UNL     1      -9.657   3.748  70.368  1.00  0.00    -0.262 A  
ENDROOT
BRANCH   6  20
HETATM   20  O   UNL     1      -8.637   7.899  69.307  1.00  0.00    -0.135 OA 
BRANCH  20  21
HETATM   21  C   UNL     1      -8.375   7.429  68.044  1.00  0.00    -0.124 A  
HETATM   22  C   UNL     1      -6.201   8.182  65.207  1.00  0.00    -0.045 C  
HETATM   23  N   UNL     1      -7.390   7.978  67.322  1.00  0.00    -0.087 NA 
HETATM   24  C   UNL     1      -8.054   6.536  65.535  1.00  0.00    -0.127 A  
HETATM   25  C   UNL     1      -7.251   7.532  66.058  1.00  0.00    -0.070 A  
HETATM   26  C   UNL     1      -9.014   6.009  66.375  1.00  0.00    -0.145 A  
HETATM   27  C   UNL     1      -9.948   4.938  65.899  1.00  0.00    -0.222 C  
HETATM   28  N   UNL     1      -9.184   6.445  67.641  1.00  0.00    -0.117 NA 
ENDBRANCH  20  21
ENDBRANCH   6  20
TORSDOF 2
ENDMDL
MODEL       39
REMARK 921   NORMALIZED FREE ENERGY PREDICTED BY IDOCK:   -5.54 KCAL/MOL
REMARK 922        TOTAL FREE ENERGY PREDICTED BY IDOCK:   -6.85 KCAL/MOL
REMARK 923 INTER-LIGAND FREE ENERGY PREDICTED BY IDOCK:   -6.17 KCAL/MOL
REMARK 924 INTRA-LIGAND FREE ENERGY PREDICTED BY IDOCK:   -0.68 KCAL/MOL
REMARK 927      BINDING AFFINITY PREDICTED BY RF-SCORE:    0.00 PKD
ROOT
HETATM    1  C   UNL     1      -6.617   6.491  69.365  1.00  0.00    -0.044 C  
HETATM    2  O   UNL     1      -7.544   6.068  70.345  1.00  0.00    -0.090 OA 
HETATM    3  C   UNL     1      -8.929   6.515  70.307  1.00  0.00    -0.155 C  
HETATM    4  C   UNL     1      -9.610   5.953  69.011  1.00  0.00    -0.157 A  
HETATM    5  C   UNL     1      -9.517   5.882  71.602  1.00  0.00    -0.166 A  
HETATM    6  C   UNL     1      -9.077   8.094  70.406  1.00  0.00    -0.150 C  
HETATM    7  C   UNL     1      -8.567   8.711  71.704  1.00  0.00    -0.189 C  
HETATM    8  C   UNL     1      -8.707   5.801  72.764  1.00  0.00    -0.118 A  
HETATM    9  C   UNL     1      -9.176   4.752  68.420  1.00  0.00    -0.162 A  
HETATM   10  C   UNL     1     -11.367   5.067  72.967  1.00  0.00    -0.374 A  
HETATM   11  O   UNL     1      -9.227   8.829  72.727  1.00  0.00    -0.305 OA 
HETATM   12  C   UNL     1      -9.666   4.331  67.174  1.00  0.00    -0.232 A  
HETATM   13  C   UNL     1      -9.223   5.410  73.999  1.00  0.00    -0.121 A  
HETATM   14  C   UNL     1     -10.855   5.477  71.728  1.00  0.00    -0.277 A  
HETATM   15  O   UNL     1      -7.298   9.202  71.634  1.00  0.00    -0.315 OA 
HETATM   16  C   UNL     1     -10.661   6.628  68.355  1.00  0.00    -0.314 A  
HETATM   17  C   UNL     1     -10.623   5.084  66.501  1.00  0.00    -0.289 A  
HETATM   18  C   UNL     1     -10.560   5.057  74.103  1.00  0.00    -0.338 A  
HETATM   19  C   UNL     1     -11.137   6.223  67.103  1.00  0.00    -0.389 A  
ENDROOT
BRANCH   6  20
HETATM   20  O   UNL     1      -8.339   8.766  69.362  1.00  0.00    -0.113 OA 
BRANCH  20  21
HETATM   21  C   UNL     1      -9.090   9.546  68.517  1.00  0.00    -0.131 A  
HETATM   22  C   UNL     1     -11.819  11.968  68.680  1.00  0.00    -0.366 C  
HETATM   23  N   UNL     1      -9.990  10.398  69.023  1.00  0.00    -0.204 NA 
HETATM   24  C   UNL     1     -10.607  10.904  66.770  1.00  0.00    -0.313 A  
HETATM   25  C   UNL     1     -10.756  11.061  68.134  1.00  0.00    -0.205 A  
HETATM   26  C   UNL     1      -9.623  10.030  66.351  1.00  0.00    -0.196 A  
HETATM   27  C   UNL     1      -9.394   9.774  64.892  1.00  0.00    -0.327 C  
HETATM   28  N   UNL     1      -8.850   9.344  67.218  1.00  0.00    -0.127 NA 
ENDBRANCH  20  21
ENDBRANCH   6  20
TORSDOF 2
ENDMDL
MODEL       40
REMARK 921   NORMALIZED FREE ENERGY PREDICTED BY IDOCK:   -5.44 KCAL/MOL
REMARK 922        TOTAL FREE ENERGY PREDICTED BY IDOCK:   -6.73 KCAL/MOL
REMARK 923 INTER-LIGAND FREE ENERGY PREDICTED BY IDOCK:   -6.36 KCAL/MOL
REMARK 924 INTRA-LIGAND FREE ENERGY PREDICTED BY IDOCK:   -0.37 KCAL/MOL
REMARK 927      BINDING AFFINITY PREDICTED BY RF-SCORE:    0.00 PKD
ROOT
HETATM    1  C   UNL     1      -7.122  11.922  69.400  1.00  0.00     0.055 C  
HETATM    2  O   UNL     1      -7.720  11.642  68.150  1.00  0.00    -0.107 OA 
HETATM    3  C   UNL     1      -9.154  11.420  68.039  1.00  0.00    -0.171 C  
HETATM    4  C   UNL     1      -9.905  12.742  68.423  1.00  0.00    -0.196 A  
HETATM    5  C   UNL     1      -9.319  11.066  66.532  1.00  0.00    -0.200 A  
HETATM    6  C   UNL     1      -9.663  10.188  68.904  1.00  0.00    -0.187 C  
HETATM    7  C   UNL     1      -9.087   8.834  68.502  1.00  0.00    -0.138 C  
HETATM    8  C   UNL     1      -8.313  10.304  65.885  1.00  0.00    -0.145 A  
HETATM    9  C   UNL     1      -9.308  14.002  68.234  1.00  0.00    -0.208 A  
HETATM   10  C   UNL     1     -10.629  10.878  64.482  1.00  0.00    -0.335 A  
HETATM   11  O   UNL     1      -9.555   8.107  67.637  1.00  0.00    -0.145 OA 
HETATM   12  C   UNL     1      -9.902  15.175  68.727  1.00  0.00    -0.223 A  
HETATM   13  C   UNL     1      -8.480   9.805  64.593  1.00  0.00    -0.179 A  
HETATM   14  C   UNL     1     -10.470  11.367  65.788  1.00  0.00    -0.314 A  
HETATM   15  O   UNL     1      -8.012   8.437  69.238  1.00  0.00    -0.108 OA 
HETATM   16  C   UNL     1     -11.192  12.740  69.002  1.00  0.00    -0.317 A  
HETATM   17  C   UNL     1     -11.122  15.120  69.395  1.00  0.00    -0.283 A  
HETATM   18  C   UNL     1      -9.647  10.081  63.896  1.00  0.00    -0.217 A  
HETATM   19  C   UNL     1     -11.778  13.903  69.512  1.00  0.00    -0.369 A  
ENDROOT
BRANCH   6  20
HETATM   20  O   UNL     1      -9.318  10.336  70.299  1.00  0.00     0.054 OA 
BRANCH  20  21
HETATM   21  C   UNL     1     -10.038   9.557  71.171  1.00  0.00    -0.192 A  
HETATM   22  C   UNL     1      -9.460   7.163  73.868  1.00  0.00    -0.297 C  
HETATM   23  N   UNL     1      -9.400   8.841  72.105  1.00  0.00    -0.351 NA 
HETATM   24  C   UNL     1     -11.534   7.954  72.718  1.00  0.00    -0.428 A  
HETATM   25  C   UNL     1     -10.162   8.028  72.863  1.00  0.00    -0.314 A  
HETATM   26  C   UNL     1     -12.099   8.764  71.751  1.00  0.00    -0.350 A  
HETATM   27  C   UNL     1     -13.576   8.745  71.500  1.00  0.00    -0.374 C  
HETATM   28  N   UNL     1     -11.359   9.578  70.970  1.00  0.00    -0.321 NA 
ENDBRANCH  20  21
ENDBRANCH   6  20
TORSDOF 2
ENDMDL
MODEL       41
REMARK 921   NORMALIZED FREE ENERGY PREDICTED BY IDOCK:   -5.38 KCAL/MOL
REMARK 922        TOTAL FREE ENERGY PREDICTED BY IDOCK:   -6.67 KCAL/MOL
REMARK 923 INTER-LIGAND FREE ENERGY PREDICTED BY IDOCK:   -6.37 KCAL/MOL
REMARK 924 INTRA-LIGAND FREE ENERGY PREDICTED BY IDOCK:   -0.29 KCAL/MOL
REMARK 927      BINDING AFFINITY PREDICTED BY RF-SCORE:    0.00 PKD
ROOT
HETATM    1  C   UNL     1      -7.063   7.512  68.809  1.00  0.00    -0.080 C  
HETATM    2  O   UNL     1      -8.192   7.346  69.643  1.00  0.00    -0.126 OA 
HETATM    3  C   UNL     1      -9.541   7.443  69.105  1.00  0.00    -0.156 C  
HETATM    4  C   UNL     1      -9.768   6.275  68.084  1.00  0.00    -0.123 A  
HETATM    5  C   UNL     1     -10.420   7.288  70.381  1.00  0.00    -0.232 A  
HETATM    6  C   UNL     1      -9.850   8.858  68.450  1.00  0.00    -0.174 C  
HETATM    7  C   UNL     1      -9.792  10.041  69.410  1.00  0.00    -0.224 C  
HETATM    8  C   UNL     1      -9.974   7.857  71.602  1.00  0.00    -0.227 A  
HETATM    9  C   UNL     1      -9.078   5.054  68.206  1.00  0.00    -0.135 A  
HETATM   10  C   UNL     1     -12.506   6.740  71.520  1.00  0.00    -0.390 A  
HETATM   11  O   UNL     1     -10.726  10.428  70.097  1.00  0.00    -0.280 OA 
HETATM   12  C   UNL     1      -9.148   4.070  67.207  1.00  0.00    -0.169 A  
HETATM   13  C   UNL     1     -10.789   7.907  72.734  1.00  0.00    -0.451 A  
HETATM   14  C   UNL     1     -11.695   6.704  70.376  1.00  0.00    -0.446 A  
HETATM   15  O   UNL     1      -8.605  10.710  69.410  1.00  0.00    -0.130 OA 
HETATM   16  C   UNL     1     -10.640   6.392  66.981  1.00  0.00    -0.396 A  
HETATM   17  C   UNL     1      -9.934   4.270  66.075  1.00  0.00    -0.234 A  
HETATM   18  C   UNL     1     -12.062   7.360  72.687  1.00  0.00    -0.030 A  
HETATM   19  C   UNL     1     -10.698   5.423  65.973  1.00  0.00    -0.068 A  
ENDROOT
BRANCH   6  20
HETATM   20  O   UNL     1      -8.905   9.181  67.406  1.00  0.00    -0.118 OA 
BRANCH  20  21
HETATM   21  C   UNL     1      -9.423   9.859  66.331  1.00  0.00    -0.183 A  
HETATM   22  C   UNL     1     -11.891  12.457  65.624  1.00  0.00    -0.468 C  
HETATM   23  N   UNL     1     -10.308  10.844  66.529  1.00  0.00    -0.240 NA 
HETATM   24  C   UNL     1     -10.483  11.009  64.151  1.00  0.00    -0.434 A  
HETATM   25  C   UNL     1     -10.845  11.401  65.425  1.00  0.00    -0.229 A  
HETATM   26  C   UNL     1      -9.532  10.011  64.055  1.00  0.00    -0.237 A  
HETATM   27  C   UNL     1      -9.086   9.501  62.719  1.00  0.00    -0.196 C  
HETATM   28  N   UNL     1      -8.987   9.427  65.143  1.00  0.00    -0.201 NA 
ENDBRANCH  20  21
ENDBRANCH   6  20
TORSDOF 2
ENDMDL
MODEL       42
REMARK 921   NORMALIZED FREE ENERGY PREDICTED BY IDOCK:   -5.38 KCAL/MOL
REMARK 922        TOTAL FREE ENERGY PREDICTED BY IDOCK:   -6.66 KCAL/MOL
REMARK 923 INTER-LIGAND FREE ENERGY PREDICTED BY IDOCK:   -6.12 KCAL/MOL
REMARK 924 INTRA-LIGAND FREE ENERGY PREDICTED BY IDOCK:   -0.54 KCAL/MOL
REMARK 927      BINDING AFFINITY PREDICTED BY RF-SCORE:    0.00 PKD
ROOT
HETATM    1  C   UNL     1      -9.558  10.003  66.539  1.00  0.00    -0.187 C  
HETATM    2  O   UNL     1     -10.354   9.822  67.692  1.00  0.00    -0.198 OA 
HETATM    3  C   UNL     1     -10.352  10.806  68.765  1.00  0.00    -0.192 C  
HETATM    4  C   UNL     1     -10.943  12.153  68.222  1.00  0.00    -0.273 A  
HETATM    5  C   UNL     1     -11.279  10.142  69.825  1.00  0.00    -0.325 A  
HETATM    6  C   UNL     1      -8.917  11.018  69.413  1.00  0.00     0.222 C  
HETATM    7  C   UNL     1      -8.326   9.787  70.094  1.00  0.00    -0.175 C  
HETATM    8  C   UNL     1     -11.241   8.734  69.995  1.00  0.00    -0.113 A  
HETATM    9  C   UNL     1     -11.877  12.169  67.169  1.00  0.00    -0.292 A  
HETATM   10  C   UNL     1     -12.773  10.226  71.752  1.00  0.00    -0.535 A  
HETATM   11  O   UNL     1      -8.535   9.464  71.255  1.00  0.00    -0.302 OA 
HETATM   12  C   UNL     1     -12.282  13.371  66.568  1.00  0.00    -0.414 A  
HETATM   13  C   UNL     1     -11.910   8.097  71.040  1.00  0.00    -0.279 A  
HETATM   14  C   UNL     1     -12.087  10.870  70.712  1.00  0.00    -0.469 A  
HETATM   15  O   UNL     1      -7.466   9.072  69.317  1.00  0.00    -0.072 OA 
HETATM   16  C   UNL     1     -10.552  13.410  68.729  1.00  0.00    -0.230 A  
HETATM   17  C   UNL     1     -11.786  14.589  67.024  1.00  0.00    -0.412 A  
HETATM   18  C   UNL     1     -12.666   8.848  71.929  1.00  0.00    -0.436 A  
HETATM   19  C   UNL     1     -10.937  14.609  68.120  1.00  0.00    -0.269 A  
ENDROOT
BRANCH   6  20
HETATM   20  O   UNL     1      -7.935  11.401  68.425  1.00  0.00    -0.127 OA 
BRANCH  20  21
HETATM   21  C   UNL     1      -7.314  12.605  68.646  1.00  0.00    -0.101 A  
HETATM   22  C   UNL     1      -5.214  14.214  71.164  1.00  0.00    -0.147 C  
HETATM   23  N   UNL     1      -6.534  12.762  69.723  1.00  0.00    -0.060 NA 
HETATM   24  C   UNL     1      -6.277  15.044  69.060  1.00  0.00    -0.098 A  
HETATM   25  C   UNL     1      -6.033  13.997  69.926  1.00  0.00    -0.133 A  
HETATM   26  C   UNL     1      -7.063  14.767  67.958  1.00  0.00    -0.138 A  
HETATM   27  C   UNL     1      -7.402  15.839  66.967  1.00  0.00    -0.226 C  
HETATM   28  N   UNL     1      -7.587  13.544  67.735  1.00  0.00    -0.145 NA 
ENDBRANCH  20  21
ENDBRANCH   6  20
TORSDOF 2
ENDMDL
MODEL       43
REMARK 921   NORMALIZED FREE ENERGY PREDICTED BY IDOCK:   -5.32 KCAL/MOL
REMARK 922        TOTAL FREE ENERGY PREDICTED BY IDOCK:   -6.60 KCAL/MOL
REMARK 923 INTER-LIGAND FREE ENERGY PREDICTED BY IDOCK:   -6.30 KCAL/MOL
REMARK 924 INTRA-LIGAND FREE ENERGY PREDICTED BY IDOCK:   -0.30 KCAL/MOL
REMARK 927      BINDING AFFINITY PREDICTED BY RF-SCORE:    0.00 PKD
ROOT
HETATM    1  C   UNL     1     -12.156  15.324  67.191  1.00  0.00     0.385 C  
HETATM    2  O   UNL     1     -11.941  14.004  67.651  1.00  0.00    -0.368 OA 
HETATM    3  C   UNL     1     -11.092  13.743  68.804  1.00  0.00    -0.266 C  
HETATM    4  C   UNL     1     -11.749  14.382  70.076  1.00  0.00    -0.360 A  
HETATM    5  C   UNL     1     -11.085  12.187  68.864  1.00  0.00    -0.292 A  
HETATM    6  C   UNL     1      -9.598  14.245  68.605  1.00  0.00    -0.192 C  
HETATM    7  C   UNL     1      -8.834  13.567  67.472  1.00  0.00    -0.209 C  
HETATM    8  C   UNL     1     -11.087  11.447  67.655  1.00  0.00    -0.325 A  
HETATM    9  C   UNL     1     -13.144  14.548  70.173  1.00  0.00     0.094 A  
HETATM   10  C   UNL     1     -10.803  10.067  70.037  1.00  0.00    -0.352 A  
HETATM   11  O   UNL     1      -8.209  12.521  67.580  1.00  0.00    -0.154 OA 
HETATM   12  C   UNL     1     -13.724  15.268  71.229  1.00  0.00    -0.570 A  
HETATM   13  C   UNL     1     -10.905  10.063  67.634  1.00  0.00    -0.336 A  
HETATM   14  C   UNL     1     -10.969  11.459  70.058  1.00  0.00     0.078 A  
HETATM   15  O   UNL     1      -8.835  14.259  66.298  1.00  0.00    -0.071 OA 
HETATM   16  C   UNL     1     -10.987  14.852  71.167  1.00  0.00    -0.003 A  
HETATM   17  C   UNL     1     -12.927  15.815  72.230  1.00  0.00    -0.523 A  
HETATM   18  C   UNL     1     -10.748   9.375  68.828  1.00  0.00    -0.200 A  
HETATM   19  C   UNL     1     -11.559  15.587  72.210  1.00  0.00    -0.554 A  
ENDROOT
BRANCH   6  20
HETATM   20  O   UNL     1      -9.545  15.655  68.294  1.00  0.00    -0.198 OA 
BRANCH  20  21
HETATM   21  C   UNL     1      -8.398  16.302  68.684  1.00  0.00    -0.220 A  
HETATM   22  C   UNL     1      -5.300  15.598  70.485  1.00  0.00    -0.157 C  
HETATM   23  N   UNL     1      -7.424  15.617  69.296  1.00  0.00    -0.202 NA 
HETATM   24  C   UNL     1      -6.271  17.697  69.537  1.00  0.00    -0.245 A  
HETATM   25  C   UNL     1      -6.369  16.334  69.734  1.00  0.00    -0.181 A  
HETATM   26  C   UNL     1      -7.312  18.302  68.859  1.00  0.00    -0.253 A  
HETATM   27  C   UNL     1      -7.310  19.780  68.610  1.00  0.00    -0.342 C  
HETATM   28  N   UNL     1      -8.385  17.612  68.420  1.00  0.00    -0.283 NA 
ENDBRANCH  20  21
ENDBRANCH   6  20
TORSDOF 2
ENDMDL
MODEL       44
REMARK 921   NORMALIZED FREE ENERGY PREDICTED BY IDOCK:   -5.31 KCAL/MOL
REMARK 922        TOTAL FREE ENERGY PREDICTED BY IDOCK:   -6.59 KCAL/MOL
REMARK 923 INTER-LIGAND FREE ENERGY PREDICTED BY IDOCK:   -5.93 KCAL/MOL
REMARK 924 INTRA-LIGAND FREE ENERGY PREDICTED BY IDOCK:   -0.66 KCAL/MOL
REMARK 927      BINDING AFFINITY PREDICTED BY RF-SCORE:    0.00 PKD
ROOT
HETATM    1  C   UNL     1      -9.526   7.492  73.717  1.00  0.00    -0.276 C  
HETATM    2  O   UNL     1      -9.208   6.619  72.651  1.00  0.00    -0.141 OA 
HETATM    3  C   UNL     1      -9.093   7.115  71.287  1.00  0.00    -0.151 C  
HETATM    4  C   UNL     1      -7.886   8.112  71.207  1.00  0.00    -0.102 A  
HETATM    5  C   UNL     1      -8.831   5.809  70.481  1.00  0.00    -0.144 A  
HETATM    6  C   UNL     1     -10.433   7.777  70.750  1.00  0.00    -0.210 C  
HETATM    7  C   UNL     1     -11.630   6.835  70.660  1.00  0.00    -0.370 C  
HETATM    8  C   UNL     1      -9.481   4.611  70.873  1.00  0.00    -0.233 A  
HETATM    9  C   UNL     1      -6.784   7.997  72.076  1.00  0.00    -0.067 A  
HETATM   10  C   UNL     1      -7.998   4.595  68.536  1.00  0.00    -0.080 A  
HETATM   11  O   UNL     1     -11.885   6.123  69.699  1.00  0.00    -0.187 OA 
HETATM   12  C   UNL     1      -5.783   8.980  72.124  1.00  0.00    -0.072 A  
HETATM   13  C   UNL     1      -9.429   3.453  70.095  1.00  0.00    -0.244 A  
HETATM   14  C   UNL     1      -8.063   5.764  69.308  1.00  0.00    -0.101 A  
HETATM   15  O   UNL     1     -12.468   6.883  71.732  1.00  0.00    -0.345 OA 
HETATM   16  C   UNL     1      -7.852   9.188  70.294  1.00  0.00    -0.129 A  
HETATM   17  C   UNL     1      -5.843  10.088  71.283  1.00  0.00    -0.005 A  
HETATM   18  C   UNL     1      -8.698   3.451  68.917  1.00  0.00    -0.140 A  
HETATM   19  C   UNL     1      -6.867  10.180  70.353  1.00  0.00    -0.129 A  
ENDROOT
BRANCH   6  20
HETATM   20  O   UNL     1     -10.876   8.855  71.605  1.00  0.00    -0.296 OA 
BRANCH  20  21
HETATM   21  C   UNL     1     -11.372   9.958  70.954  1.00  0.00    -0.370 A  
HETATM   22  C   UNL     1     -10.999  11.685  67.757  1.00  0.00    -0.287 C  
HETATM   23  N   UNL     1     -11.005  10.205  69.690  1.00  0.00    -0.248 NA 
HETATM   24  C   UNL     1     -12.282  12.221  69.836  1.00  0.00    -0.234 A  
HETATM   25  C   UNL     1     -11.456  11.353  69.147  1.00  0.00    -0.299 A  
HETATM   26  C   UNL     1     -12.633  11.853  71.120  1.00  0.00    -0.288 A  
HETATM   27  C   UNL     1     -13.510  12.734  71.958  1.00  0.00    -0.540 C  
HETATM   28  N   UNL     1     -12.188  10.716  71.693  1.00  0.00    -0.244 NA 
ENDBRANCH  20  21
ENDBRANCH   6  20
TORSDOF 2
ENDMDL
MODEL       45
REMARK 921   NORMALIZED FREE ENERGY PREDICTED BY IDOCK:   -5.30 KCAL/MOL
REMARK 922        TOTAL FREE ENERGY PREDICTED BY IDOCK:   -6.58 KCAL/MOL
REMARK 923 INTER-LIGAND FREE ENERGY PREDICTED BY IDOCK:   -5.90 KCAL/MOL
REMARK 924 INTRA-LIGAND FREE ENERGY PREDICTED BY IDOCK:   -0.67 KCAL/MOL
REMARK 927      BINDING AFFINITY PREDICTED BY RF-SCORE:    0.00 PKD
ROOT
HETATM    1  C   UNL     1      -7.260   8.970  70.674  1.00  0.00    -0.093 C  
HETATM    2  O   UNL     1      -8.196   9.842  70.072  1.00  0.00    -0.175 OA 
HETATM    3  C   UNL     1      -9.335   9.321  69.331  1.00  0.00    -0.164 C  
HETATM    4  C   UNL     1     -10.269   8.538  70.317  1.00  0.00    -0.206 A  
HETATM    5  C   UNL     1     -10.003  10.621  68.794  1.00  0.00    -0.201 A  
HETATM    6  C   UNL     1      -8.913   8.422  68.091  1.00  0.00    -0.139 C  
HETATM    7  C   UNL     1      -8.118   9.146  67.008  1.00  0.00    -0.109 C  
HETATM    8  C   UNL     1      -9.184  11.706  68.393  1.00  0.00    -0.182 A  
HETATM    9  C   UNL     1     -10.331   8.871  71.684  1.00  0.00    -0.416 A  
HETATM   10  C   UNL     1     -11.908  11.882  67.938  1.00  0.00    -0.308 A  
HETATM   11  O   UNL     1      -8.612   9.768  66.079  1.00  0.00    -0.131 OA 
HETATM   12  C   UNL     1     -11.034   8.073  72.600  1.00  0.00    -0.448 A  
HETATM   13  C   UNL     1      -9.705  12.825  67.742  1.00  0.00    -0.207 A  
HETATM   14  C   UNL     1     -11.384  10.749  68.577  1.00  0.00    -0.360 A  
HETATM   15  O   UNL     1      -6.768   8.999  67.107  1.00  0.00    -0.064 OA 
HETATM   16  C   UNL     1     -11.066   7.450  69.902  1.00  0.00    -0.208 A  
HETATM   17  C   UNL     1     -11.717   6.939  72.169  1.00  0.00    -0.327 A  
HETATM   18  C   UNL     1     -11.069  12.905  67.502  1.00  0.00    -0.302 A  
HETATM   19  C   UNL     1     -11.750   6.640  70.815  1.00  0.00    -0.445 A  
ENDROOT
BRANCH   6  20
HETATM   20  O   UNL     1      -8.071   7.319  68.492  1.00  0.00    -0.121 OA 
BRANCH  20  21
HETATM   21  C   UNL     1      -8.560   6.069  68.205  1.00  0.00    -0.114 A  
HETATM   22  C   UNL     1     -10.114   4.276  65.428  1.00  0.00    -0.238 C  
HETATM   23  N   UNL     1      -8.999   5.794  66.970  1.00  0.00    -0.114 NA 
HETATM   24  C   UNL     1      -9.636   3.645  67.799  1.00  0.00    -0.189 A  
HETATM   25  C   UNL     1      -9.552   4.579  66.785  1.00  0.00    -0.190 A  
HETATM   26  C   UNL     1      -9.118   4.013  69.025  1.00  0.00    -0.133 A  
HETATM   27  C   UNL     1      -9.177   3.079  70.196  1.00  0.00    -0.215 C  
HETATM   28  N   UNL     1      -8.570   5.227  69.243  1.00  0.00    -0.100 NA 
ENDBRANCH  20  21
ENDBRANCH   6  20
TORSDOF 2
ENDMDL
MODEL       46
REMARK 921   NORMALIZED FREE ENERGY PREDICTED BY IDOCK:   -5.22 KCAL/MOL
REMARK 922        TOTAL FREE ENERGY PREDICTED BY IDOCK:   -6.48 KCAL/MOL
REMARK 923 INTER-LIGAND FREE ENERGY PREDICTED BY IDOCK:   -5.82 KCAL/MOL
REMARK 924 INTRA-LIGAND FREE ENERGY PREDICTED BY IDOCK:   -0.66 KCAL/MOL
REMARK 927      BINDING AFFINITY PREDICTED BY RF-SCORE:    0.00 PKD
ROOT
HETATM    1  C   UNL     1     -11.136   9.366  68.060  1.00  0.00     0.059 C  
HETATM    2  O   UNL     1     -10.276   9.467  66.943  1.00  0.00    -0.224 OA 
HETATM    3  C   UNL     1      -9.237  10.485  66.887  1.00  0.00    -0.155 C  
HETATM    4  C   UNL     1      -8.194  10.211  68.025  1.00  0.00    -0.113 A  
HETATM    5  C   UNL     1      -8.633  10.265  65.469  1.00  0.00    -0.173 A  
HETATM    6  C   UNL     1      -9.811  11.965  66.966  1.00  0.00    -0.192 C  
HETATM    7  C   UNL     1     -10.728  12.365  65.815  1.00  0.00    -0.267 C  
HETATM    8  C   UNL     1      -9.490   9.900  64.400  1.00  0.00    -0.304 A  
HETATM    9  C   UNL     1      -7.965   8.909  68.508  1.00  0.00    -0.104 A  
HETATM   10  C   UNL     1      -6.841  10.455  63.826  1.00  0.00     0.008 A  
HETATM   11  O   UNL     1     -10.347  12.830  64.750  1.00  0.00    -0.310 OA 
HETATM   12  C   UNL     1      -7.160   8.677  69.634  1.00  0.00    -0.055 A  
HETATM   13  C   UNL     1      -9.047   9.860  63.077  1.00  0.00    -0.291 A  
HETATM   14  C   UNL     1      -7.288  10.513  65.154  1.00  0.00    -0.029 A  
HETATM   15  O   UNL     1     -12.057  12.228  66.078  1.00  0.00    -0.623 OA 
HETATM   16  C   UNL     1      -7.458  11.245  68.643  1.00  0.00    -0.118 A  
HETATM   17  C   UNL     1      -6.540   9.738  70.288  1.00  0.00    -0.102 A  
HETATM   18  C   UNL     1      -7.722  10.153  62.789  1.00  0.00    -0.147 A  
HETATM   19  C   UNL     1      -6.672  11.021  69.778  1.00  0.00    -0.136 A  
ENDROOT
BRANCH   6  20
HETATM   20  O   UNL     1     -10.603  12.168  68.157  1.00  0.00    -0.202 OA 
BRANCH  20  21
HETATM   21  C   UNL     1     -10.534  13.426  68.703  1.00  0.00    -0.225 A  
HETATM   22  C   UNL     1      -8.141  16.163  69.058  1.00  0.00    -0.237 C  
HETATM   23  N   UNL     1      -9.431  14.165  68.534  1.00  0.00    -0.213 NA 
HETATM   24  C   UNL     1     -10.451  15.804  69.944  1.00  0.00    -0.324 A  
HETATM   25  C   UNL     1      -9.397  15.350  69.176  1.00  0.00    -0.246 A  
HETATM   26  C   UNL     1     -11.559  14.982  70.022  1.00  0.00    -0.287 A  
HETATM   27  C   UNL     1     -12.749  15.374  70.845  1.00  0.00    -0.520 C  
HETATM   28  N   UNL     1     -11.617  13.786  69.400  1.00  0.00    -0.292 NA 
ENDBRANCH  20  21
ENDBRANCH   6  20
TORSDOF 2
ENDMDL
MODEL       47
REMARK 921   NORMALIZED FREE ENERGY PREDICTED BY IDOCK:   -5.21 KCAL/MOL
REMARK 922        TOTAL FREE ENERGY PREDICTED BY IDOCK:   -6.47 KCAL/MOL
REMARK 923 INTER-LIGAND FREE ENERGY PREDICTED BY IDOCK:   -5.84 KCAL/MOL
REMARK 924 INTRA-LIGAND FREE ENERGY PREDICTED BY IDOCK:   -0.63 KCAL/MOL
REMARK 927      BINDING AFFINITY PREDICTED BY RF-SCORE:    0.00 PKD
ROOT
HETATM    1  C   UNL     1      -9.606   9.654  69.929  1.00  0.00    -0.230 C  
HETATM    2  O   UNL     1      -8.983   9.557  68.664  1.00  0.00    -0.130 OA 
HETATM    3  C   UNL     1      -8.487  10.743  67.981  1.00  0.00    -0.124 C  
HETATM    4  C   UNL     1      -7.322  11.367  68.825  1.00  0.00    -0.114 A  
HETATM    5  C   UNL     1      -7.987  10.161  66.627  1.00  0.00    -0.116 A  
HETATM    6  C   UNL     1      -9.625  11.811  67.681  1.00  0.00    -0.183 C  
HETATM    7  C   UNL     1     -10.732  11.331  66.747  1.00  0.00    -0.275 C  
HETATM    8  C   UNL     1      -8.706   9.099  66.021  1.00  0.00    -0.176 A  
HETATM    9  C   UNL     1      -6.515  10.569  69.658  1.00  0.00    -0.084 A  
HETATM   10  C   UNL     1      -6.613  10.237  64.613  1.00  0.00    -0.092 A  
HETATM   11  O   UNL     1     -10.690  11.393  65.526  1.00  0.00    -0.276 OA 
HETATM   12  C   UNL     1      -5.584  11.140  70.539  1.00  0.00    -0.135 A  
HETATM   13  C   UNL     1      -8.417   8.652  64.731  1.00  0.00    -0.168 A  
HETATM   14  C   UNL     1      -6.913  10.700  65.902  1.00  0.00    -0.116 A  
HETATM   15  O   UNL     1     -11.844  10.867  67.382  1.00  0.00    -0.465 OA 
HETATM   16  C   UNL     1      -7.040  12.750  68.821  1.00  0.00    -0.089 A  
HETATM   17  C   UNL     1      -5.414  12.520  70.588  1.00  0.00    -0.169 A  
HETATM   18  C   UNL     1      -7.377   9.233  64.021  1.00  0.00    -0.102 A  
HETATM   19  C   UNL     1      -6.128  13.324  69.712  1.00  0.00    -0.128 A  
ENDROOT
BRANCH   6  20
HETATM   20  O   UNL     1     -10.309  12.216  68.887  1.00  0.00    -0.178 OA 
BRANCH  20  21
HETATM   21  C   UNL     1     -10.734  13.522  68.913  1.00  0.00    -0.201 A  
HETATM   22  C   UNL     1      -9.937  16.723  67.346  1.00  0.00    -0.267 C  
HETATM   23  N   UNL     1     -10.189  14.415  68.077  1.00  0.00    -0.225 NA 
HETATM   24  C   UNL     1     -11.529  16.072  69.160  1.00  0.00    -0.347 A  
HETATM   25  C   UNL     1     -10.586  15.695  68.224  1.00  0.00    -0.262 A  
HETATM   26  C   UNL     1     -12.058  15.068  69.947  1.00  0.00    -0.334 A  
HETATM   27  C   UNL     1     -13.074  15.375  71.005  1.00  0.00    -0.565 C  
HETATM   28  N   UNL     1     -11.671  13.780  69.831  1.00  0.00    -0.291 NA 
ENDBRANCH  20  21
ENDBRANCH   6  20
TORSDOF 2
ENDMDL
MODEL       48
REMARK 921   NORMALIZED FREE ENERGY PREDICTED BY IDOCK:   -5.12 KCAL/MOL
REMARK 922        TOTAL FREE ENERGY PREDICTED BY IDOCK:   -6.37 KCAL/MOL
REMARK 923 INTER-LIGAND FREE ENERGY PREDICTED BY IDOCK:   -5.77 KCAL/MOL
REMARK 924 INTRA-LIGAND FREE ENERGY PREDICTED BY IDOCK:   -0.60 KCAL/MOL
REMARK 927      BINDING AFFINITY PREDICTED BY RF-SCORE:    0.00 PKD
ROOT
HETATM    1  C   UNL     1     -10.183   5.804  68.598  1.00  0.00    -0.197 C  
HETATM    2  O   UNL     1     -11.118   6.558  69.343  1.00  0.00    -0.300 OA 
HETATM    3  C   UNL     1     -10.676   7.522  70.340  1.00  0.00    -0.239 C  
HETATM    4  C   UNL     1      -9.889   8.673  69.624  1.00  0.00    -0.186 A  
HETATM    5  C   UNL     1     -12.024   8.017  70.942  1.00  0.00    -0.201 A  
HETATM    6  C   UNL     1      -9.817   6.865  71.504  1.00  0.00    -0.169 C  
HETATM    7  C   UNL     1     -10.554   5.830  72.348  1.00  0.00    -0.220 C  
HETATM    8  C   UNL     1     -13.093   7.097  71.098  1.00  0.00    -0.294 A  
HETATM    9  C   UNL     1     -10.163   9.024  68.288  1.00  0.00    -0.241 A  
HETATM   10  C   UNL     1     -13.398   9.649  72.125  1.00  0.00    -0.545 A  
HETATM   11  O   UNL     1     -11.236   6.090  73.329  1.00  0.00    -0.209 OA 
HETATM   12  C   UNL     1      -9.354   9.934  67.590  1.00  0.00    -0.156 A  
HETATM   13  C   UNL     1     -14.259   7.430  71.788  1.00  0.00    -0.544 A  
HETATM   14  C   UNL     1     -12.217   9.312  71.447  1.00  0.00    -0.426 A  
HETATM   15  O   UNL     1     -10.349   4.540  71.965  1.00  0.00    -0.192 OA 
HETATM   16  C   UNL     1      -8.853   9.391  70.258  1.00  0.00    -0.269 A  
HETATM   17  C   UNL     1      -8.269  10.539  68.217  1.00  0.00    -0.117 A  
HETATM   18  C   UNL     1     -14.405   8.704  72.315  1.00  0.00    -0.486 A  
HETATM   19  C   UNL     1      -8.032  10.283  69.560  1.00  0.00    -0.171 A  
ENDROOT
BRANCH   6  20
HETATM   20  O   UNL     1      -8.664   6.165  70.986  1.00  0.00    -0.130 OA 
BRANCH  20  21
HETATM   21  C   UNL     1      -7.564   6.150  71.809  1.00  0.00    -0.096 A  
HETATM   22  C   UNL     1      -5.286   3.739  73.339  1.00  0.00     0.000 C  
HETATM   23  N   UNL     1      -6.952   4.990  72.079  1.00  0.00    -0.063 NA 
HETATM   24  C   UNL     1      -5.524   6.219  73.549  1.00  0.00    -0.041 A  
HETATM   25  C   UNL     1      -5.940   5.037  72.968  1.00  0.00    -0.026 A  
HETATM   26  C   UNL     1      -6.196   7.365  73.173  1.00  0.00    -0.059 A  
HETATM   27  C   UNL     1      -5.834   8.696  73.760  1.00  0.00    -0.120 C  
HETATM   28  N   UNL     1      -7.221   7.346  72.295  1.00  0.00    -0.067 NA 
ENDBRANCH  20  21
ENDBRANCH   6  20
TORSDOF 2
ENDMDL
MODEL       49
REMARK 921   NORMALIZED FREE ENERGY PREDICTED BY IDOCK:   -5.06 KCAL/MOL
REMARK 922        TOTAL FREE ENERGY PREDICTED BY IDOCK:   -6.31 KCAL/MOL
REMARK 923 INTER-LIGAND FREE ENERGY PREDICTED BY IDOCK:   -5.66 KCAL/MOL
REMARK 924 INTRA-LIGAND FREE ENERGY PREDICTED BY IDOCK:   -0.65 KCAL/MOL
REMARK 927      BINDING AFFINITY PREDICTED BY RF-SCORE:    0.00 PKD
ROOT
HETATM    1  C   UNL     1     -10.954   9.728  67.428  1.00  0.00    -0.106 C  
HETATM    2  O   UNL     1     -10.000   9.593  66.393  1.00  0.00    -0.223 OA 
HETATM    3  C   UNL     1      -9.026  10.643  66.132  1.00  0.00    -0.168 C  
HETATM    4  C   UNL     1      -8.079  10.779  67.374  1.00  0.00    -0.112 A  
HETATM    5  C   UNL     1      -8.279  10.098  64.880  1.00  0.00    -0.157 A  
HETATM    6  C   UNL     1      -9.695  12.033  65.754  1.00  0.00    -0.235 C  
HETATM    7  C   UNL     1     -10.523  12.026  64.473  1.00  0.00    -0.299 C  
HETATM    8  C   UNL     1      -9.008   9.384  63.894  1.00  0.00    -0.166 A  
HETATM    9  C   UNL     1      -7.817   9.682  68.217  1.00  0.00    -0.085 A  
HETATM   10  C   UNL     1      -6.355   9.985  63.384  1.00  0.00    -0.136 A  
HETATM   11  O   UNL     1     -10.073  12.214  63.351  1.00  0.00    -0.428 OA 
HETATM   12  C   UNL     1      -7.108   9.834  69.419  1.00  0.00    -0.066 A  
HETATM   13  C   UNL     1      -8.440   9.023  62.672  1.00  0.00    -0.210 A  
HETATM   14  C   UNL     1      -6.929  10.364  64.607  1.00  0.00    -0.017 A  
HETATM   15  O   UNL     1     -11.859  11.852  64.666  1.00  0.00    -0.295 OA 
HETATM   16  C   UNL     1      -7.470  12.000  67.732  1.00  0.00    -0.121 A  
HETATM   17  C   UNL     1      -6.619  11.082  69.795  1.00  0.00    -0.143 A  
HETATM   18  C   UNL     1      -7.115   9.338  62.412  1.00  0.00    -0.099 A  
HETATM   19  C   UNL     1      -6.782  12.161  68.939  1.00  0.00    -0.094 A  
ENDROOT
BRANCH   6  20
HETATM   20  O   UNL     1     -10.606  12.485  66.780  1.00  0.00    -0.231 OA 
BRANCH  20  21
HETATM   21  C   UNL     1     -10.448  13.790  67.177  1.00  0.00    -0.272 A  
HETATM   22  C   UNL     1      -8.339  16.675  66.423  1.00  0.00    -0.353 C  
HETATM   23  N   UNL     1      -9.554  14.570  66.555  1.00  0.00    -0.280 NA 
HETATM   24  C   UNL     1     -10.114  16.273  68.137  1.00  0.00    -0.244 A  
HETATM   25  C   UNL     1      -9.386  15.809  67.059  1.00  0.00    -0.220 A  
HETATM   26  C   UNL     1     -11.038  15.402  68.681  1.00  0.00    -0.289 A  
HETATM   27  C   UNL     1     -11.866  15.802  69.865  1.00  0.00    -0.355 C  
HETATM   28  N   UNL     1     -11.220  14.153  68.205  1.00  0.00    -0.260 NA 
ENDBRANCH  20  21
ENDBRANCH   6  20
TORSDOF 2
ENDMDL
MODEL       50
REMARK 921   NORMALIZED FREE ENERGY PREDICTED BY IDOCK:   -5.04 KCAL/MOL
REMARK 922        TOTAL FREE ENERGY PREDICTED BY IDOCK:   -6.29 KCAL/MOL
REMARK 923 INTER-LIGAND FREE ENERGY PREDICTED BY IDOCK:   -5.72 KCAL/MOL
REMARK 924 INTRA-LIGAND FREE ENERGY PREDICTED BY IDOCK:   -0.56 KCAL/MOL
REMARK 927      BINDING AFFINITY PREDICTED BY RF-SCORE:    0.00 PKD
ROOT
HETATM    1  C   UNL     1      -6.528   6.903  68.877  1.00  0.00    -0.036 C  
HETATM    2  O   UNL     1      -7.329   6.360  69.907  1.00  0.00    -0.078 OA 
HETATM    3  C   UNL     1      -8.761   6.619  69.957  1.00  0.00    -0.141 C  
HETATM    4  C   UNL     1      -9.439   5.973  68.700  1.00  0.00    -0.134 A  
HETATM    5  C   UNL     1      -9.179   5.913  71.280  1.00  0.00    -0.155 A  
HETATM    6  C   UNL     1      -9.111   8.164  70.078  1.00  0.00    -0.151 C  
HETATM    7  C   UNL     1      -8.609   8.843  71.349  1.00  0.00    -0.172 C  
HETATM    8  C   UNL     1      -8.296   5.939  72.389  1.00  0.00    -0.117 A  
HETATM    9  C   UNL     1      -8.886   4.840  68.072  1.00  0.00    -0.115 A  
HETATM   10  C   UNL     1     -10.819   4.858  72.746  1.00  0.00    -0.293 A  
HETATM   11  O   UNL     1      -9.215   8.871  72.411  1.00  0.00    -0.362 OA 
HETATM   12  C   UNL     1      -9.390   4.358  66.855  1.00  0.00    -0.167 A  
HETATM   13  C   UNL     1      -8.680   5.482  73.650  1.00  0.00    -0.122 A  
HETATM   14  C   UNL     1     -10.441   5.333  71.482  1.00  0.00    -0.279 A  
HETATM   15  O   UNL     1      -7.423   9.498  71.207  1.00  0.00    -0.332 OA 
HETATM   16  C   UNL     1     -10.608   6.502  68.114  1.00  0.00    -0.307 A  
HETATM   17  C   UNL     1     -10.479   4.979  66.248  1.00  0.00    -0.352 A  
HETATM   18  C   UNL     1      -9.949   4.954  73.831  1.00  0.00    -0.192 A  
HETATM   19  C   UNL     1     -11.102   6.039  66.890  1.00  0.00    -0.253 A  
ENDROOT
BRANCH   6  20
HETATM   20  O   UNL     1      -8.534   8.930  68.998  1.00  0.00    -0.129 OA 
BRANCH  20  21
HETATM   21  C   UNL     1      -9.429   9.630  68.227  1.00  0.00    -0.136 A  
HETATM   22  C   UNL     1      -9.987  10.484  64.720  1.00  0.00    -0.412 C  
HETATM   23  N   UNL     1      -9.301   9.630  66.894  1.00  0.00    -0.142 NA 
HETATM   24  C   UNL     1     -11.140  11.156  66.834  1.00  0.00    -0.313 A  
HETATM   25  C   UNL     1     -10.157  10.413  66.209  1.00  0.00    -0.231 A  
HETATM   26  C   UNL     1     -11.212  11.055  68.209  1.00  0.00    -0.277 A  
HETATM   27  C   UNL     1     -12.231  11.835  68.985  1.00  0.00    -0.132 C  
HETATM   28  N   UNL     1     -10.361  10.288  68.923  1.00  0.00    -0.192 NA 
ENDBRANCH  20  21
ENDBRANCH   6  20
TORSDOF 2
ENDMDL
MODEL       51
REMARK 921   NORMALIZED FREE ENERGY PREDICTED BY IDOCK:   -5.02 KCAL/MOL
REMARK 922        TOTAL FREE ENERGY PREDICTED BY IDOCK:   -6.27 KCAL/MOL
REMARK 923 INTER-LIGAND FREE ENERGY PREDICTED BY IDOCK:   -5.68 KCAL/MOL
REMARK 924 INTRA-LIGAND FREE ENERGY PREDICTED BY IDOCK:   -0.59 KCAL/MOL
REMARK 927      BINDING AFFINITY PREDICTED BY RF-SCORE:    0.00 PKD
ROOT
HETATM    1  C   UNL     1     -10.377   5.734  68.690  1.00  0.00    -0.221 C  
HETATM    2  O   UNL     1     -11.271   6.544  69.427  1.00  0.00    -0.340 OA 
HETATM    3  C   UNL     1     -10.776   7.562  70.342  1.00  0.00    -0.239 C  
HETATM    4  C   UNL     1     -10.011   8.657  69.522  1.00  0.00    -0.196 A  
HETATM    5  C   UNL     1     -12.091   8.110  70.971  1.00  0.00    -0.223 A  
HETATM    6  C   UNL     1      -9.872   6.967  71.506  1.00  0.00    -0.172 C  
HETATM    7  C   UNL     1     -10.582   5.996  72.444  1.00  0.00    -0.217 C  
HETATM    8  C   UNL     1     -13.161   7.215  71.230  1.00  0.00    -0.361 A  
HETATM    9  C   UNL     1     -10.340   8.928  68.180  1.00  0.00    -0.261 A  
HETATM   10  C   UNL     1     -13.395   9.829  72.109  1.00  0.00    -0.527 A  
HETATM   11  O   UNL     1     -11.217   6.324  73.437  1.00  0.00    -0.131 OA 
HETATM   12  C   UNL     1      -9.554   9.783  67.392  1.00  0.00    -0.187 A  
HETATM   13  C   UNL     1     -14.292   7.604  71.948  1.00  0.00    -0.536 A  
HETATM   14  C   UNL     1     -12.249   9.436  71.402  1.00  0.00    -0.438 A  
HETATM   15  O   UNL     1     -10.406   4.682  72.134  1.00  0.00    -0.191 OA 
HETATM   16  C   UNL     1      -8.940   9.400  70.065  1.00  0.00    -0.234 A  
HETATM   17  C   UNL     1      -8.437  10.412  67.933  1.00  0.00    -0.114 A  
HETATM   18  C   UNL     1     -14.402   8.910  72.400  1.00  0.00    -0.385 A  
HETATM   19  C   UNL     1      -8.143  10.237  69.277  1.00  0.00    -0.156 A  
ENDROOT
BRANCH   6  20
HETATM   20  O   UNL     1      -8.750   6.222  70.983  1.00  0.00    -0.134 OA 
BRANCH  20  21
HETATM   21  C   UNL     1      -7.648   6.165  71.800  1.00  0.00    -0.096 A  
HETATM   22  C   UNL     1      -5.629   8.384  73.884  1.00  0.00    -0.094 C  
HETATM   23  N   UNL     1      -7.262   7.256  72.473  1.00  0.00    -0.071 NA 
HETATM   24  C   UNL     1      -5.395   5.978  73.245  1.00  0.00    -0.031 A  
HETATM   25  C   UNL     1      -6.119   7.153  73.181  1.00  0.00    -0.056 A  
HETATM   26  C   UNL     1      -5.901   4.899  72.547  1.00  0.00    -0.017 A  
HETATM   27  C   UNL     1      -5.181   3.585  72.536  1.00  0.00     0.000 C  
HETATM   28  N   UNL     1      -7.035   4.977  71.820  1.00  0.00    -0.055 NA 
ENDBRANCH  20  21
ENDBRANCH   6  20
TORSDOF 2
ENDMDL
MODEL       52
REMARK 921   NORMALIZED FREE ENERGY PREDICTED BY IDOCK:   -5.02 KCAL/MOL
REMARK 922        TOTAL FREE ENERGY PREDICTED BY IDOCK:   -6.26 KCAL/MOL
REMARK 923 INTER-LIGAND FREE ENERGY PREDICTED BY IDOCK:   -5.70 KCAL/MOL
REMARK 924 INTRA-LIGAND FREE ENERGY PREDICTED BY IDOCK:   -0.56 KCAL/MOL
REMARK 927      BINDING AFFINITY PREDICTED BY RF-SCORE:    0.00 PKD
ROOT
HETATM    1  C   UNL     1     -10.875   9.843  67.586  1.00  0.00    -0.257 C  
HETATM    2  O   UNL     1      -9.920   9.712  66.552  1.00  0.00    -0.214 OA 
HETATM    3  C   UNL     1      -8.922  10.746  66.319  1.00  0.00    -0.170 C  
HETATM    4  C   UNL     1      -7.978  10.833  67.568  1.00  0.00    -0.110 A  
HETATM    5  C   UNL     1      -8.182  10.214  65.057  1.00  0.00    -0.152 A  
HETATM    6  C   UNL     1      -9.559  12.160  65.971  1.00  0.00    -0.231 C  
HETATM    7  C   UNL     1     -10.382  12.200  64.687  1.00  0.00    -0.297 C  
HETATM    8  C   UNL     1      -8.922   9.539  64.053  1.00  0.00    -0.228 A  
HETATM    9  C   UNL     1      -7.743   9.711  68.385  1.00  0.00    -0.081 A  
HETATM   10  C   UNL     1      -6.255  10.095  63.567  1.00  0.00    -0.138 A  
HETATM   11  O   UNL     1      -9.923  12.404  63.572  1.00  0.00    -0.374 OA 
HETATM   12  C   UNL     1      -7.036   9.821  69.593  1.00  0.00    -0.083 A  
HETATM   13  C   UNL     1      -8.357   9.195  62.824  1.00  0.00    -0.197 A  
HETATM   14  C   UNL     1      -6.825  10.458  64.796  1.00  0.00    -0.028 A  
HETATM   15  O   UNL     1     -11.723  12.051  64.871  1.00  0.00    -0.324 OA 
HETATM   16  C   UNL     1      -7.344  12.032  67.956  1.00  0.00    -0.102 A  
HETATM   17  C   UNL     1      -6.522  11.048  70.000  1.00  0.00    -0.144 A  
HETATM   18  C   UNL     1      -7.024   9.487  62.576  1.00  0.00    -0.098 A  
HETATM   19  C   UNL     1      -6.657  12.150  69.169  1.00  0.00    -0.106 A  
ENDROOT
BRANCH   6  20
HETATM   20  O   UNL     1     -10.465  12.607  67.004  1.00  0.00    -0.231 OA 
BRANCH  20  21
HETATM   21  C   UNL     1     -10.183  13.838  67.543  1.00  0.00    -0.241 A  
HETATM   22  C   UNL     1     -11.069  15.849  70.461  1.00  0.00    -0.381 C  
HETATM   23  N   UNL     1     -10.691  14.172  68.736  1.00  0.00    -0.251 NA 
HETATM   24  C   UNL     1      -9.693  16.323  68.428  1.00  0.00    -0.222 A  
HETATM   25  C   UNL     1     -10.450  15.429  69.160  1.00  0.00    -0.239 A  
HETATM   26  C   UNL     1      -9.183  15.865  67.229  1.00  0.00    -0.206 A  
HETATM   27  C   UNL     1      -8.365  16.762  66.350  1.00  0.00    -0.344 C  
HETATM   28  N   UNL     1      -9.417  14.617  66.773  1.00  0.00    -0.248 NA 
ENDBRANCH  20  21
ENDBRANCH   6  20
TORSDOF 2
ENDMDL
MODEL       53
REMARK 921   NORMALIZED FREE ENERGY PREDICTED BY IDOCK:   -4.98 KCAL/MOL
REMARK 922        TOTAL FREE ENERGY PREDICTED BY IDOCK:   -6.21 KCAL/MOL
REMARK 923 INTER-LIGAND FREE ENERGY PREDICTED BY IDOCK:   -5.97 KCAL/MOL
REMARK 924 INTRA-LIGAND FREE ENERGY PREDICTED BY IDOCK:   -0.25 KCAL/MOL
REMARK 927      BINDING AFFINITY PREDICTED BY RF-SCORE:    0.00 PKD
ROOT
HETATM    1  C   UNL     1     -10.999   9.479  66.852  1.00  0.00     0.134 C  
HETATM    2  O   UNL     1      -9.736   9.341  67.472  1.00  0.00    -0.147 OA 
HETATM    3  C   UNL     1      -9.515   9.807  68.833  1.00  0.00    -0.161 C  
HETATM    4  C   UNL     1     -10.404   8.964  69.811  1.00  0.00    -0.213 A  
HETATM    5  C   UNL     1      -7.996   9.535  69.035  1.00  0.00    -0.092 A  
HETATM    6  C   UNL     1      -9.774  11.365  69.008  1.00  0.00    -0.012 C  
HETATM    7  C   UNL     1      -8.852  12.269  68.196  1.00  0.00    -0.187 C  
HETATM    8  C   UNL     1      -7.108   9.719  67.945  1.00  0.00    -0.083 A  
HETATM    9  C   UNL     1     -10.774   7.640  69.504  1.00  0.00    -0.211 A  
HETATM   10  C   UNL     1      -6.033   9.141  70.429  1.00  0.00    -0.041 A  
HETATM   11  O   UNL     1      -7.753  12.658  68.567  1.00  0.00    -0.132 OA 
HETATM   12  C   UNL     1     -11.701   6.939  70.290  1.00  0.00    -0.344 A  
HETATM   13  C   UNL     1      -5.723   9.662  68.102  1.00  0.00    -0.040 A  
HETATM   14  C   UNL     1      -7.425   9.214  70.276  1.00  0.00    -0.099 A  
HETATM   15  O   UNL     1      -9.373  12.688  67.009  1.00  0.00    -0.205 OA 
HETATM   16  C   UNL     1     -10.905   9.487  71.022  1.00  0.00    -0.423 A  
HETATM   17  C   UNL     1     -12.262   7.531  71.417  1.00  0.00    -0.363 A  
HETATM   18  C   UNL     1      -5.185   9.388  69.351  1.00  0.00    -0.035 A  
HETATM   19  C   UNL     1     -11.846   8.799  71.796  1.00  0.00    -0.414 A  
ENDROOT
BRANCH   6  20
HETATM   20  O   UNL     1     -11.109  11.735  68.596  1.00  0.00    -0.205 OA 
BRANCH  20  21
HETATM   21  C   UNL     1     -11.662  12.794  69.272  1.00  0.00    -0.319 A  
HETATM   22  C   UNL     1     -11.632  16.446  69.193  1.00  0.00    -0.117 C  
HETATM   23  N   UNL     1     -11.437  14.044  68.847  1.00  0.00    -0.273 NA 
HETATM   24  C   UNL     1     -12.665  14.792  70.757  1.00  0.00    -0.422 A  
HETATM   25  C   UNL     1     -11.933  15.037  69.612  1.00  0.00    -0.321 A  
HETATM   26  C   UNL     1     -12.874  13.467  71.086  1.00  0.00    -0.291 A  
HETATM   27  C   UNL     1     -13.640  13.093  72.319  1.00  0.00    -0.677 C  
HETATM   28  N   UNL     1     -12.380  12.452  70.346  1.00  0.00    -0.274 NA 
ENDBRANCH  20  21
ENDBRANCH   6  20
TORSDOF 2
ENDMDL
MODEL       54
REMARK 921   NORMALIZED FREE ENERGY PREDICTED BY IDOCK:   -4.94 KCAL/MOL
REMARK 922        TOTAL FREE ENERGY PREDICTED BY IDOCK:   -6.17 KCAL/MOL
REMARK 923 INTER-LIGAND FREE ENERGY PREDICTED BY IDOCK:   -6.24 KCAL/MOL
REMARK 924 INTRA-LIGAND FREE ENERGY PREDICTED BY IDOCK:    0.07 KCAL/MOL
REMARK 927      BINDING AFFINITY PREDICTED BY RF-SCORE:    0.00 PKD
ROOT
HETATM    1  C   UNL     1      -8.583  11.434  66.684  1.00  0.00    -0.170 C  
HETATM    2  O   UNL     1      -9.045  12.694  66.238  1.00  0.00    -0.167 OA 
HETATM    3  C   UNL     1      -9.467  13.715  67.186  1.00  0.00    -0.244 C  
HETATM    4  C   UNL     1      -8.231  14.154  68.045  1.00  0.00    -0.152 A  
HETATM    5  C   UNL     1      -9.966  14.852  66.248  1.00  0.00    -0.300 A  
HETATM    6  C   UNL     1     -10.678  13.250  68.104  1.00  0.00    -0.249 C  
HETATM    7  C   UNL     1     -11.972  12.938  67.358  1.00  0.00    -0.300 C  
HETATM    8  C   UNL     1     -10.638  14.514  65.046  1.00  0.00    -0.458 A  
HETATM    9  C   UNL     1      -6.921  14.077  67.534  1.00  0.00    -0.167 A  
HETATM   10  C   UNL     1     -10.501  17.183  65.765  1.00  0.00    -0.242 A  
HETATM   11  O   UNL     1     -12.826  13.764  67.068  1.00  0.00     0.142 OA 
HETATM   12  C   UNL     1      -5.802  14.309  68.348  1.00  0.00    -0.105 A  
HETATM   13  C   UNL     1     -11.262  15.477  64.252  1.00  0.00    -0.095 A  
HETATM   14  C   UNL     1      -9.887  16.215  66.574  1.00  0.00    -0.283 A  
HETATM   15  O   UNL     1     -12.157  11.618  67.077  1.00  0.00    -0.547 OA 
HETATM   16  C   UNL     1      -8.357  14.614  69.373  1.00  0.00     0.085 A  
HETATM   17  C   UNL     1      -5.964  14.652  69.687  1.00  0.00    -0.110 A  
HETATM   18  C   UNL     1     -11.205  16.812  64.621  1.00  0.00     0.098 A  
HETATM   19  C   UNL     1      -7.244  14.826  70.194  1.00  0.00     0.145 A  
ENDROOT
BRANCH   6  20
HETATM   20  O   UNL     1     -10.368  12.039  68.827  1.00  0.00    -0.218 OA 
BRANCH  20  21
HETATM   21  C   UNL     1     -11.265  11.690  69.806  1.00  0.00    -0.127 A  
HETATM   22  C   UNL     1     -13.626  13.284  72.092  1.00  0.00    -0.655 C  
HETATM   23  N   UNL     1     -12.027  12.632  70.375  1.00  0.00    -0.309 NA 
HETATM   24  C   UNL     1     -12.870  10.918  71.812  1.00  0.00    -0.509 A  
HETATM   25  C   UNL     1     -12.816  12.232  71.393  1.00  0.00    -0.271 A  
HETATM   26  C   UNL     1     -12.073  10.017  71.133  1.00  0.00    -0.380 A  
HETATM   27  C   UNL     1     -12.043   8.570  71.523  1.00  0.00    -0.351 C  
HETATM   28  N   UNL     1     -11.264  10.390  70.119  1.00  0.00    -0.301 NA 
ENDBRANCH  20  21
ENDBRANCH   6  20
TORSDOF 2
ENDMDL
MODEL       55
REMARK 921   NORMALIZED FREE ENERGY PREDICTED BY IDOCK:   -4.93 KCAL/MOL
REMARK 922        TOTAL FREE ENERGY PREDICTED BY IDOCK:   -6.17 KCAL/MOL
REMARK 923 INTER-LIGAND FREE ENERGY PREDICTED BY IDOCK:   -5.78 KCAL/MOL
REMARK 924 INTRA-LIGAND FREE ENERGY PREDICTED BY IDOCK:   -0.38 KCAL/MOL
REMARK 927      BINDING AFFINITY PREDICTED BY RF-SCORE:    0.00 PKD
ROOT
HETATM    1  C   UNL     1     -10.341   6.230  73.664  1.00  0.00    -0.273 C  
HETATM    2  O   UNL     1      -9.794   5.560  72.546  1.00  0.00    -0.161 OA 
HETATM    3  C   UNL     1      -9.188   6.303  71.451  1.00  0.00    -0.149 C  
HETATM    4  C   UNL     1      -7.917   7.051  71.983  1.00  0.00    -0.094 A  
HETATM    5  C   UNL     1      -8.828   5.173  70.443  1.00  0.00    -0.148 A  
HETATM    6  C   UNL     1     -10.199   7.304  70.744  1.00  0.00    -0.197 C  
HETATM    7  C   UNL     1     -11.399   6.644  70.071  1.00  0.00    -0.382 C  
HETATM    8  C   UNL     1      -9.699   4.062  70.306  1.00  0.00    -0.263 A  
HETATM    9  C   UNL     1      -7.177   6.549  73.071  1.00  0.00    -0.081 A  
HETATM   10  C   UNL     1      -7.551   4.265  68.574  1.00  0.00    -0.063 A  
HETATM   11  O   UNL     1     -11.407   6.213  68.927  1.00  0.00    -0.367 OA 
HETATM   12  C   UNL     1      -6.142   7.294  73.657  1.00  0.00    -0.060 A  
HETATM   13  C   UNL     1      -9.528   3.108  69.303  1.00  0.00    -0.179 A  
HETATM   14  C   UNL     1      -7.730   5.235  69.570  1.00  0.00    -0.073 A  
HETATM   15  O   UNL     1     -12.529   6.619  70.832  1.00  0.00    -0.325 OA 
HETATM   16  C   UNL     1      -7.468   8.269  71.431  1.00  0.00    -0.089 A  
HETATM   17  C   UNL     1      -5.801   8.546  73.154  1.00  0.00    -0.079 A  
HETATM   18  C   UNL     1      -8.459   3.219  68.426  1.00  0.00    -0.105 A  
HETATM   19  C   UNL     1      -6.452   9.024  72.026  1.00  0.00     0.019 A  
ENDROOT
BRANCH   6  20
HETATM   20  O   UNL     1     -10.772   8.240  71.684  1.00  0.00    -0.230 OA 
BRANCH  20  21
HETATM   21  C   UNL     1     -11.183   9.436  71.150  1.00  0.00    -0.357 A  
HETATM   22  C   UNL     1     -13.498  12.156  71.913  1.00  0.00    -0.318 C  
HETATM   23  N   UNL     1     -12.046  10.204  71.828  1.00  0.00    -0.285 NA 
HETATM   24  C   UNL     1     -12.036  11.675  69.944  1.00  0.00    -0.414 A  
HETATM   25  C   UNL     1     -12.478  11.317  71.202  1.00  0.00    -0.373 A  
HETATM   26  C   UNL     1     -11.116  10.834  69.347  1.00  0.00    -0.268 A  
HETATM   27  C   UNL     1     -10.589  11.123  67.974  1.00  0.00    -0.233 C  
HETATM   28  N   UNL     1     -10.675   9.707  69.945  1.00  0.00    -0.235 NA 
ENDBRANCH  20  21
ENDBRANCH   6  20
TORSDOF 2
ENDMDL
MODEL       56
REMARK 921   NORMALIZED FREE ENERGY PREDICTED BY IDOCK:   -4.91 KCAL/MOL
REMARK 922        TOTAL FREE ENERGY PREDICTED BY IDOCK:   -6.14 KCAL/MOL
REMARK 923 INTER-LIGAND FREE ENERGY PREDICTED BY IDOCK:   -5.59 KCAL/MOL
REMARK 924 INTRA-LIGAND FREE ENERGY PREDICTED BY IDOCK:   -0.55 KCAL/MOL
REMARK 927      BINDING AFFINITY PREDICTED BY RF-SCORE:    0.00 PKD
ROOT
HETATM    1  C   UNL     1      -9.673   9.592  70.357  1.00  0.00    -0.271 C  
HETATM    2  O   UNL     1      -9.106   9.413  69.074  1.00  0.00    -0.136 OA 
HETATM    3  C   UNL     1      -8.654  10.553  68.290  1.00  0.00    -0.127 C  
HETATM    4  C   UNL     1      -7.459  11.242  69.035  1.00  0.00    -0.116 A  
HETATM    5  C   UNL     1      -8.210   9.883  66.957  1.00  0.00    -0.117 A  
HETATM    6  C   UNL     1      -9.816  11.588  67.970  1.00  0.00    -0.188 C  
HETATM    7  C   UNL     1     -10.959  11.037  67.123  1.00  0.00    -0.283 C  
HETATM    8  C   UNL     1      -8.944   8.776  66.459  1.00  0.00    -0.180 A  
HETATM    9  C   UNL     1      -6.607  10.510  69.883  1.00  0.00    -0.130 A  
HETATM   10  C   UNL     1      -6.929   9.831  64.882  1.00  0.00    -0.124 A  
HETATM   11  O   UNL     1     -10.973  11.016  65.900  1.00  0.00    -0.173 OA 
HETATM   12  C   UNL     1      -5.643  11.146  70.680  1.00  0.00    -0.131 A  
HETATM   13  C   UNL     1      -8.709   8.244  65.191  1.00  0.00    -0.089 A  
HETATM   14  C   UNL     1      -7.175  10.379  66.149  1.00  0.00    -0.131 A  
HETATM   15  O   UNL     1     -12.036  10.609  67.838  1.00  0.00    -0.420 OA 
HETATM   16  C   UNL     1      -7.193  12.623  68.924  1.00  0.00    -0.045 A  
HETATM   17  C   UNL     1      -5.486  12.528  70.626  1.00  0.00    -0.169 A  
HETATM   18  C   UNL     1      -7.708   8.782  64.396  1.00  0.00    -0.123 A  
HETATM   19  C   UNL     1      -6.247  13.265  69.731  1.00  0.00    -0.110 A  
ENDROOT
BRANCH   6  20
HETATM   20  O   UNL     1     -10.450  12.071  69.175  1.00  0.00    -0.114 OA 
BRANCH  20  21
HETATM   21  C   UNL     1     -10.847  13.385  69.148  1.00  0.00    -0.114 A  
HETATM   22  C   UNL     1     -13.055  15.647  70.977  1.00  0.00    -0.487 C  
HETATM   23  N   UNL     1     -11.662  13.853  70.102  1.00  0.00    -0.268 NA 
HETATM   24  C   UNL     1     -11.680  15.924  68.908  1.00  0.00    -0.376 A  
HETATM   25  C   UNL     1     -12.085  15.125  69.959  1.00  0.00    -0.345 A  
HETATM   26  C   UNL     1     -10.808  15.357  67.999  1.00  0.00    -0.292 A  
HETATM   27  C   UNL     1     -10.323  16.134  66.812  1.00  0.00    -0.291 C  
HETATM   28  N   UNL     1     -10.376  14.083  68.110  1.00  0.00    -0.236 NA 
ENDBRANCH  20  21
ENDBRANCH   6  20
TORSDOF 2
ENDMDL
MODEL       57
REMARK 921   NORMALIZED FREE ENERGY PREDICTED BY IDOCK:   -4.88 KCAL/MOL
REMARK 922        TOTAL FREE ENERGY PREDICTED BY IDOCK:   -6.11 KCAL/MOL
REMARK 923 INTER-LIGAND FREE ENERGY PREDICTED BY IDOCK:   -5.56 KCAL/MOL
REMARK 924 INTRA-LIGAND FREE ENERGY PREDICTED BY IDOCK:   -0.55 KCAL/MOL
REMARK 927      BINDING AFFINITY PREDICTED BY RF-SCORE:    0.00 PKD
ROOT
HETATM    1  C   UNL     1     -10.227  10.299  66.002  1.00  0.00    -0.228 C  
HETATM    2  O   UNL     1      -9.951  11.588  66.511  1.00  0.00    -0.202 OA 
HETATM    3  C   UNL     1      -9.291  11.759  67.798  1.00  0.00    -0.181 C  
HETATM    4  C   UNL     1      -7.840  11.173  67.708  1.00  0.00    -0.114 A  
HETATM    5  C   UNL     1      -9.292  13.306  67.968  1.00  0.00    -0.218 A  
HETATM    6  C   UNL     1     -10.104  11.120  69.004  1.00  0.00    -0.155 C  
HETATM    7  C   UNL     1     -11.479  11.732  69.254  1.00  0.00    -0.306 C  
HETATM    8  C   UNL     1     -10.404  14.054  67.504  1.00  0.00    -0.245 A  
HETATM    9  C   UNL     1      -7.140  11.139  66.487  1.00  0.00    -0.124 A  
HETATM   10  C   UNL     1      -8.431  15.381  68.920  1.00  0.00    -0.205 A  
HETATM   11  O   UNL     1     -11.688  12.714  69.953  1.00  0.00    -0.301 OA 
HETATM   12  C   UNL     1      -5.914  10.468  66.365  1.00  0.00    -0.084 A  
HETATM   13  C   UNL     1     -10.548  15.414  67.781  1.00  0.00    -0.274 A  
HETATM   14  C   UNL     1      -8.293  14.010  68.658  1.00  0.00    -0.104 A  
HETATM   15  O   UNL     1     -12.511  11.054  68.680  1.00  0.00    -0.462 OA 
HETATM   16  C   UNL     1      -7.174  10.625  68.825  1.00  0.00    -0.087 A  
HETATM   17  C   UNL     1      -5.341   9.839  67.467  1.00  0.00    -0.036 A  
HETATM   18  C   UNL     1      -9.565  16.074  68.503  1.00  0.00    -0.215 A  
HETATM   19  C   UNL     1      -5.962   9.937  68.703  1.00  0.00    -0.038 A  
ENDROOT
BRANCH   6  20
HETATM   20  O   UNL     1     -10.359   9.714  68.792  1.00  0.00    -0.198 OA 
BRANCH  20  21
HETATM   21  C   UNL     1     -10.292   8.926  69.914  1.00  0.00    -0.206 A  
HETATM   22  C   UNL     1     -12.393   6.606  71.797  1.00  0.00    -0.385 C  
HETATM   23  N   UNL     1     -11.319   8.126  70.228  1.00  0.00    -0.192 NA 
HETATM   24  C   UNL     1     -10.114   7.547  72.209  1.00  0.00    -0.244 A  
HETATM   25  C   UNL     1     -11.223   7.453  71.391  1.00  0.00    -0.246 A  
HETATM   26  C   UNL     1      -9.092   8.369  71.775  1.00  0.00    -0.218 A  
HETATM   27  C   UNL     1      -7.853   8.556  72.598  1.00  0.00    -0.080 C  
HETATM   28  N   UNL     1      -9.166   9.064  70.620  1.00  0.00    -0.210 NA 
ENDBRANCH  20  21
ENDBRANCH   6  20
TORSDOF 2
ENDMDL
MODEL       58
REMARK 921   NORMALIZED FREE ENERGY PREDICTED BY IDOCK:   -4.80 KCAL/MOL
REMARK 922        TOTAL FREE ENERGY PREDICTED BY IDOCK:   -6.02 KCAL/MOL
REMARK 923 INTER-LIGAND FREE ENERGY PREDICTED BY IDOCK:   -6.68 KCAL/MOL
REMARK 924 INTRA-LIGAND FREE ENERGY PREDICTED BY IDOCK:    0.66 KCAL/MOL
REMARK 927      BINDING AFFINITY PREDICTED BY RF-SCORE:    0.00 PKD
ROOT
HETATM    1  C   UNL     1      -9.295  13.369  66.140  1.00  0.00    -0.057 C  
HETATM    2  O   UNL     1      -9.219  14.762  66.367  1.00  0.00    -0.277 OA 
HETATM    3  C   UNL     1      -9.083  15.294  67.716  1.00  0.00    -0.182 C  
HETATM    4  C   UNL     1      -7.706  14.835  68.308  1.00  0.00    -0.120 A  
HETATM    5  C   UNL     1      -9.137  16.831  67.473  1.00  0.00    -0.211 A  
HETATM    6  C   UNL     1     -10.290  14.893  68.668  1.00  0.00    -0.237 C  
HETATM    7  C   UNL     1     -11.655  15.423  68.241  1.00  0.00    -0.348 C  
HETATM    8  C   UNL     1      -9.992  17.344  66.465  1.00  0.00    -0.314 A  
HETATM    9  C   UNL     1      -6.603  14.572  67.473  1.00  0.00    -0.106 A  
HETATM   10  C   UNL     1      -8.676  19.141  68.107  1.00  0.00    -0.360 A  
HETATM   11  O   UNL     1     -12.102  16.521  68.541  1.00  0.00     0.206 OA 
HETATM   12  C   UNL     1      -5.423  14.003  67.977  1.00  0.00    -0.117 A  
HETATM   13  C   UNL     1     -10.219  18.712  66.314  1.00  0.00    -0.462 A  
HETATM   14  C   UNL     1      -8.460  17.765  68.272  1.00  0.00    -0.277 A  
HETATM   15  O   UNL     1     -12.405  14.538  67.527  1.00  0.00    -0.240 OA 
HETATM   16  C   UNL     1      -7.506  14.632  69.690  1.00  0.00    -0.029 A  
HETATM   17  C   UNL     1      -5.305  13.710  69.333  1.00  0.00    -0.083 A  
HETATM   18  C   UNL     1      -9.571  19.611  67.147  1.00  0.00    -0.459 A  
HETATM   19  C   UNL     1      -6.340  14.046  70.193  1.00  0.00    -0.107 A  
ENDROOT
BRANCH   6  20
HETATM   20  O   UNL     1     -10.457  13.460  68.745  1.00  0.00    -0.242 OA 
BRANCH  20  21
HETATM   21  C   UNL     1     -11.317  13.018  69.720  1.00  0.00    -0.044 A  
HETATM   22  C   UNL     1     -13.348  14.368  72.439  1.00  0.00    -0.546 C  
HETATM   23  N   UNL     1     -11.941  13.903  70.507  1.00  0.00    -0.328 NA 
HETATM   24  C   UNL     1     -12.853  12.036  71.688  1.00  0.00    -0.399 A  
HETATM   25  C   UNL     1     -12.696  13.395  71.501  1.00  0.00    -0.293 A  
HETATM   26  C   UNL     1     -12.197  11.208  70.797  1.00  0.00    -0.385 A  
HETATM   27  C   UNL     1     -12.287   9.718  70.925  1.00  0.00    -0.379 C  
HETATM   28  N   UNL     1     -11.426  11.688  69.800  1.00  0.00    -0.282 NA 
ENDBRANCH  20  21
ENDBRANCH   6  20
TORSDOF 2
ENDMDL
MODEL       59
REMARK 921   NORMALIZED FREE ENERGY PREDICTED BY IDOCK:   -4.80 KCAL/MOL
REMARK 922        TOTAL FREE ENERGY PREDICTED BY IDOCK:   -6.02 KCAL/MOL
REMARK 923 INTER-LIGAND FREE ENERGY PREDICTED BY IDOCK:   -5.40 KCAL/MOL
REMARK 924 INTRA-LIGAND FREE ENERGY PREDICTED BY IDOCK:   -0.62 KCAL/MOL
REMARK 927      BINDING AFFINITY PREDICTED BY RF-SCORE:    0.00 PKD
ROOT
HETATM    1  C   UNL     1      -8.992   9.554  70.280  1.00  0.00    -0.248 C  
HETATM    2  O   UNL     1      -8.107   9.208  69.234  1.00  0.00    -0.096 OA 
HETATM    3  C   UNL     1      -7.976  10.052  68.055  1.00  0.00    -0.101 C  
HETATM    4  C   UNL     1      -7.381  11.438  68.484  1.00  0.00    -0.105 A  
HETATM    5  C   UNL     1      -6.989   9.235  67.171  1.00  0.00    -0.085 A  
HETATM    6  C   UNL     1      -9.340  10.225  67.258  1.00  0.00    -0.149 C  
HETATM    7  C   UNL     1      -9.919   8.937  66.680  1.00  0.00    -0.276 C  
HETATM    8  C   UNL     1      -7.070   7.820  67.169  1.00  0.00    -0.085 A  
HETATM    9  C   UNL     1      -6.542  11.556  69.608  1.00  0.00    -0.112 A  
HETATM   10  C   UNL     1      -5.332   9.037  65.392  1.00  0.00    -0.037 A  
HETATM   11  O   UNL     1      -9.625   8.468  65.590  1.00  0.00    -0.097 OA 
HETATM   12  C   UNL     1      -6.142  12.811  70.094  1.00  0.00    -0.090 A  
HETATM   13  C   UNL     1      -6.338   7.039  66.273  1.00  0.00    -0.050 A  
HETATM   14  C   UNL     1      -6.079   9.825  66.280  1.00  0.00    -0.064 A  
HETATM   15  O   UNL     1     -10.872   8.349  67.456  1.00  0.00    -0.191 OA 
HETATM   16  C   UNL     1      -7.676  12.634  67.795  1.00  0.00    -0.145 A  
HETATM   17  C   UNL     1      -6.547  13.977  69.452  1.00  0.00    -0.118 A  
HETATM   18  C   UNL     1      -5.479   7.652  65.373  1.00  0.00    -0.033 A  
HETATM   19  C   UNL     1      -7.297  13.887  68.289  1.00  0.00    -0.117 A  
ENDROOT
BRANCH   6  20
HETATM   20  O   UNL     1     -10.388  10.755  68.100  1.00  0.00    -0.160 OA 
BRANCH  20  21
HETATM   21  C   UNL     1     -11.080  11.821  67.580  1.00  0.00    -0.272 A  
HETATM   22  C   UNL     1     -12.655  12.831  64.442  1.00  0.00    -0.431 C  
HETATM   23  N   UNL     1     -11.573  11.749  66.337  1.00  0.00    -0.485 NA 
HETATM   24  C   UNL     1     -12.281  14.016  66.611  1.00  0.00    -0.463 A  
HETATM   25  C   UNL     1     -12.159  12.865  65.858  1.00  0.00    -0.444 A  
HETATM   26  C   UNL     1     -11.774  13.972  67.896  1.00  0.00    -0.362 A  
HETATM   27  C   UNL     1     -11.839  15.174  68.789  1.00  0.00    -0.329 C  
HETATM   28  N   UNL     1     -11.172  12.874  68.397  1.00  0.00    -0.252 NA 
ENDBRANCH  20  21
ENDBRANCH   6  20
TORSDOF 2
ENDMDL
MODEL       60
REMARK 921   NORMALIZED FREE ENERGY PREDICTED BY IDOCK:   -4.80 KCAL/MOL
REMARK 922        TOTAL FREE ENERGY PREDICTED BY IDOCK:   -6.01 KCAL/MOL
REMARK 923 INTER-LIGAND FREE ENERGY PREDICTED BY IDOCK:   -5.56 KCAL/MOL
REMARK 924 INTRA-LIGAND FREE ENERGY PREDICTED BY IDOCK:   -0.45 KCAL/MOL
REMARK 927      BINDING AFFINITY PREDICTED BY RF-SCORE:    0.00 PKD
ROOT
HETATM    1  C   UNL     1     -10.653  11.005  68.931  1.00  0.00    -0.207 C  
HETATM    2  O   UNL     1      -9.987  10.655  67.734  1.00  0.00    -0.163 OA 
HETATM    3  C   UNL     1      -8.875  11.451  67.236  1.00  0.00    -0.153 C  
HETATM    4  C   UNL     1      -7.689  11.366  68.258  1.00  0.00    -0.124 A  
HETATM    5  C   UNL     1      -8.542  10.749  65.887  1.00  0.00    -0.182 A  
HETATM    6  C   UNL     1      -9.276  12.959  66.933  1.00  0.00    -0.234 C  
HETATM    7  C   UNL     1     -10.328  13.142  65.844  1.00  0.00    -0.290 C  
HETATM    8  C   UNL     1      -9.599  10.222  65.101  1.00  0.00    -0.337 A  
HETATM    9  C   UNL     1      -7.514  10.238  69.082  1.00  0.00    -0.105 A  
HETATM   10  C   UNL     1      -7.040  10.196  64.047  1.00  0.00    -0.103 A  
HETATM   11  O   UNL     1     -10.086  13.221  64.647  1.00  0.00    -0.319 OA 
HETATM   12  C   UNL     1      -6.560  10.223  70.111  1.00  0.00    -0.138 A  
HETATM   13  C   UNL     1      -9.389   9.740  63.809  1.00  0.00    -0.176 A  
HETATM   14  C   UNL     1      -7.251  10.696  65.340  1.00  0.00    -0.012 A  
HETATM   15  O   UNL     1     -11.601  13.281  66.307  1.00  0.00    -0.318 OA 
HETATM   16  C   UNL     1      -6.760  12.414  68.429  1.00  0.00    -0.069 A  
HETATM   17  C   UNL     1      -5.735  11.325  70.323  1.00  0.00    -0.134 A  
HETATM   18  C   UNL     1      -8.109   9.741  63.276  1.00  0.00    -0.149 A  
HETATM   19  C   UNL     1      -5.821  12.412  69.466  1.00  0.00    -0.101 A  
ENDROOT
BRANCH   6  20
HETATM   20  O   UNL     1      -9.833  13.608  68.097  1.00  0.00    -0.223 OA 
BRANCH  20  21
HETATM   21  C   UNL     1      -9.475  14.923  68.267  1.00  0.00    -0.210 A  
HETATM   22  C   UNL     1     -10.712  18.258  67.436  1.00  0.00    -0.377 C  
HETATM   23  N   UNL     1     -10.296  15.895  67.849  1.00  0.00    -0.262 NA 
HETATM   24  C   UNL     1      -8.604  17.449  68.510  1.00  0.00    -0.270 A  
HETATM   25  C   UNL     1      -9.838  17.157  67.962  1.00  0.00    -0.283 A  
HETATM   26  C   UNL     1      -7.851  16.377  68.947  1.00  0.00    -0.234 A  
HETATM   27  C   UNL     1      -6.490  16.584  69.539  1.00  0.00    -0.223 C  
HETATM   28  N   UNL     1      -8.278  15.101  68.835  1.00  0.00    -0.168 NA 
ENDBRANCH  20  21
ENDBRANCH   6  20
TORSDOF 2
ENDMDL
MODEL       61
REMARK 921   NORMALIZED FREE ENERGY PREDICTED BY IDOCK:   -4.78 KCAL/MOL
REMARK 922        TOTAL FREE ENERGY PREDICTED BY IDOCK:   -6.00 KCAL/MOL
REMARK 923 INTER-LIGAND FREE ENERGY PREDICTED BY IDOCK:   -5.37 KCAL/MOL
REMARK 924 INTRA-LIGAND FREE ENERGY PREDICTED BY IDOCK:   -0.62 KCAL/MOL
REMARK 927      BINDING AFFINITY PREDICTED BY RF-SCORE:    0.00 PKD
ROOT
HETATM    1  C   UNL     1     -11.116   6.933  68.057  1.00  0.00    -0.096 C  
HETATM    2  O   UNL     1     -10.905   8.325  67.934  1.00  0.00    -0.117 OA 
HETATM    3  C   UNL     1      -9.923   9.009  68.764  1.00  0.00    -0.182 C  
HETATM    4  C   UNL     1      -8.494   8.473  68.408  1.00  0.00    -0.138 A  
HETATM    5  C   UNL     1     -10.116  10.496  68.346  1.00  0.00    -0.181 A  
HETATM    6  C   UNL     1     -10.224   8.880  70.319  1.00  0.00    -0.201 C  
HETATM    7  C   UNL     1     -11.537   9.506  70.778  1.00  0.00    -0.308 C  
HETATM    8  C   UNL     1     -11.419  10.970  68.047  1.00  0.00    -0.365 A  
HETATM    9  C   UNL     1      -8.198   7.975  67.125  1.00  0.00    -0.117 A  
HETATM   10  C   UNL     1      -9.344  12.799  68.121  1.00  0.00    -0.214 A  
HETATM   11  O   UNL     1     -11.677  10.679  71.095  1.00  0.00    -0.305 OA 
HETATM   12  C   UNL     1      -6.977   7.343  66.848  1.00  0.00    -0.082 A  
HETATM   13  C   UNL     1     -11.684  12.324  67.839  1.00  0.00    -0.410 A  
HETATM   14  C   UNL     1      -9.078  11.441  68.348  1.00  0.00    -0.179 A  
HETATM   15  O   UNL     1     -12.575   8.629  70.877  1.00  0.00    -0.133 OA 
HETATM   16  C   UNL     1      -7.445   8.431  69.351  1.00  0.00    -0.089 A  
HETATM   17  C   UNL     1      -6.007   7.218  67.839  1.00  0.00    -0.034 A  
HETATM   18  C   UNL     1     -10.645  13.241  67.890  1.00  0.00    -0.246 A  
HETATM   19  C   UNL     1      -6.234   7.783  69.085  1.00  0.00    -0.035 A  
ENDROOT
BRANCH   6  20
HETATM   20  O   UNL     1     -10.307   7.499  70.735  1.00  0.00    -0.202 OA 
BRANCH  20  21
HETATM   21  C   UNL     1      -9.912   7.247  72.025  1.00  0.00    -0.162 A  
HETATM   22  C   UNL     1      -7.534   8.518  74.490  1.00  0.00    -0.235 C  
HETATM   23  N   UNL     1      -9.008   8.043  72.611  1.00  0.00    -0.194 NA 
HETATM   24  C   UNL     1      -9.101   6.570  74.491  1.00  0.00    -0.208 A  
HETATM   25  C   UNL     1      -8.598   7.681  73.843  1.00  0.00    -0.237 A  
HETATM   26  C   UNL     1     -10.058   5.838  73.815  1.00  0.00    -0.216 A  
HETATM   27  C   UNL     1     -10.653   4.604  74.423  1.00  0.00    -0.293 C  
HETATM   28  N   UNL     1     -10.479   6.170  72.577  1.00  0.00    -0.194 NA 
ENDBRANCH  20  21
ENDBRANCH   6  20
TORSDOF 2
ENDMDL
MODEL       62
REMARK 921   NORMALIZED FREE ENERGY PREDICTED BY IDOCK:   -4.77 KCAL/MOL
REMARK 922        TOTAL FREE ENERGY PREDICTED BY IDOCK:   -5.98 KCAL/MOL
REMARK 923 INTER-LIGAND FREE ENERGY PREDICTED BY IDOCK:   -5.48 KCAL/MOL
REMARK 924 INTRA-LIGAND FREE ENERGY PREDICTED BY IDOCK:   -0.50 KCAL/MOL
REMARK 927      BINDING AFFINITY PREDICTED BY RF-SCORE:    0.00 PKD
ROOT
HETATM    1  C   UNL     1     -11.022   8.972  66.813  1.00  0.00     0.357 C  
HETATM    2  O   UNL     1     -11.598   9.671  67.898  1.00  0.00     0.192 OA 
HETATM    3  C   UNL     1     -10.917  10.807  68.503  1.00  0.00    -0.243 C  
HETATM    4  C   UNL     1     -10.812  11.960  67.445  1.00  0.00    -0.289 A  
HETATM    5  C   UNL     1     -11.866  11.174  69.681  1.00  0.00    -0.419 A  
HETATM    6  C   UNL     1      -9.494  10.433  69.101  1.00  0.00    -0.208 C  
HETATM    7  C   UNL     1      -9.517   9.418  70.239  1.00  0.00    -0.251 C  
HETATM    8  C   UNL     1     -12.529  10.137  70.386  1.00  0.00    -0.243 A  
HETATM    9  C   UNL     1     -11.762  12.096  66.415  1.00  0.00    -0.394 A  
HETATM   10  C   UNL     1     -12.769  12.727  71.332  1.00  0.00    -0.353 A  
HETATM   11  O   UNL     1      -9.669   9.698  71.420  1.00  0.00    -0.130 OA 
HETATM   12  C   UNL     1     -11.584  13.017  65.372  1.00  0.00    -0.374 A  
HETATM   13  C   UNL     1     -13.250  10.381  71.555  1.00  0.00    -0.485 A  
HETATM   14  C   UNL     1     -12.029  12.481  70.166  1.00  0.00    -0.377 A  
HETATM   15  O   UNL     1      -9.285   8.132  69.853  1.00  0.00    -0.151 OA 
HETATM   16  C   UNL     1      -9.754  12.894  67.447  1.00  0.00    -0.201 A  
HETATM   17  C   UNL     1     -10.467  13.847  65.347  1.00  0.00    -0.357 A  
HETATM   18  C   UNL     1     -13.357  11.678  72.036  1.00  0.00    -0.405 A  
HETATM   19  C   UNL     1      -9.563  13.800  66.398  1.00  0.00    -0.285 A  
ENDROOT
BRANCH   6  20
HETATM   20  O   UNL     1      -8.631   9.847  68.101  1.00  0.00    -0.117 OA 
BRANCH  20  21
HETATM   21  C   UNL     1      -7.506  10.572  67.795  1.00  0.00    -0.087 A  
HETATM   22  C   UNL     1      -5.128  10.964  65.050  1.00  0.00    -0.094 C  
HETATM   23  N   UNL     1      -6.954  10.462  66.580  1.00  0.00    -0.105 NA 
HETATM   24  C   UNL     1      -5.224  11.915  67.360  1.00  0.00    -0.090 A  
HETATM   25  C   UNL     1      -5.800  11.129  66.381  1.00  0.00    -0.148 A  
HETATM   26  C   UNL     1      -5.893  11.993  68.566  1.00  0.00    -0.052 A  
HETATM   27  C   UNL     1      -5.343  12.804  69.700  1.00  0.00    -0.079 C  
HETATM   28  N   UNL     1      -7.044  11.327  68.797  1.00  0.00    -0.088 NA 
ENDBRANCH  20  21
ENDBRANCH   6  20
TORSDOF 2
ENDMDL
MODEL       63
REMARK 921   NORMALIZED FREE ENERGY PREDICTED BY IDOCK:   -4.76 KCAL/MOL
REMARK 922        TOTAL FREE ENERGY PREDICTED BY IDOCK:   -5.97 KCAL/MOL
REMARK 923 INTER-LIGAND FREE ENERGY PREDICTED BY IDOCK:   -5.46 KCAL/MOL
REMARK 924 INTRA-LIGAND FREE ENERGY PREDICTED BY IDOCK:   -0.51 KCAL/MOL
REMARK 927      BINDING AFFINITY PREDICTED BY RF-SCORE:    0.00 PKD
ROOT
HETATM    1  C   UNL     1      -7.506   6.964  71.014  1.00  0.00    -0.083 C  
HETATM    2  O   UNL     1      -7.596   6.735  69.622  1.00  0.00    -0.096 OA 
HETATM    3  C   UNL     1      -8.295   7.672  68.754  1.00  0.00    -0.129 C  
HETATM    4  C   UNL     1      -7.536   9.044  68.768  1.00  0.00    -0.076 A  
HETATM    5  C   UNL     1      -8.210   6.966  67.369  1.00  0.00    -0.119 A  
HETATM    6  C   UNL     1      -9.827   7.850  69.135  1.00  0.00    -0.174 C  
HETATM    7  C   UNL     1     -10.675   6.588  69.010  1.00  0.00    -0.278 C  
HETATM    8  C   UNL     1      -8.303   5.552  67.304  1.00  0.00    -0.104 A  
HETATM    9  C   UNL     1      -6.150   9.109  69.008  1.00  0.00    -0.043 A  
HETATM   10  C   UNL     1      -8.243   6.972  64.930  1.00  0.00    -0.076 A  
HETATM   11  O   UNL     1     -11.226   6.216  67.983  1.00  0.00    -0.310 OA 
HETATM   12  C   UNL     1      -5.496  10.338  69.187  1.00  0.00    -0.038 A  
HETATM   13  C   UNL     1      -8.411   4.873  66.090  1.00  0.00    -0.112 A  
HETATM   14  C   UNL     1      -8.152   7.659  66.149  1.00  0.00    -0.118 A  
HETATM   15  O   UNL     1     -10.843   5.904  70.176  1.00  0.00    -0.290 OA 
HETATM   16  C   UNL     1      -8.195  10.276  68.575  1.00  0.00    -0.111 A  
HETATM   17  C   UNL     1      -6.204  11.533  69.102  1.00  0.00    -0.071 A  
HETATM   18  C   UNL     1      -8.395   5.587  64.901  1.00  0.00    -0.142 A  
HETATM   19  C   UNL     1      -7.551  11.502  68.774  1.00  0.00    -0.129 A  
ENDROOT
BRANCH   6  20
HETATM   20  O   UNL     1      -9.991   8.271  70.507  1.00  0.00    -0.182 OA 
BRANCH  20  21
HETATM   21  C   UNL     1     -11.030   9.139  70.737  1.00  0.00    -0.270 A  
HETATM   22  C   UNL     1     -11.958  12.598  70.016  1.00  0.00    -0.377 C  
HETATM   23  N   UNL     1     -11.002  10.367  70.202  1.00  0.00    -0.300 NA 
HETATM   24  C   UNL     1     -13.036  10.801  71.379  1.00  0.00    -0.535 A  
HETATM   25  C   UNL     1     -12.007  11.196  70.547  1.00  0.00    -0.380 A  
HETATM   26  C   UNL     1     -12.992   9.502  71.846  1.00  0.00    -0.425 A  
HETATM   27  C   UNL     1     -14.051   8.981  72.771  1.00  0.00    -0.205 C  
HETATM   28  N   UNL     1     -11.992   8.654  71.527  1.00  0.00    -0.290 NA 
ENDBRANCH  20  21
ENDBRANCH   6  20
TORSDOF 2
ENDMDL
MODEL       64
REMARK 921   NORMALIZED FREE ENERGY PREDICTED BY IDOCK:   -4.75 KCAL/MOL
REMARK 922        TOTAL FREE ENERGY PREDICTED BY IDOCK:   -5.97 KCAL/MOL
REMARK 923 INTER-LIGAND FREE ENERGY PREDICTED BY IDOCK:   -5.40 KCAL/MOL
REMARK 924 INTRA-LIGAND FREE ENERGY PREDICTED BY IDOCK:   -0.57 KCAL/MOL
REMARK 927      BINDING AFFINITY PREDICTED BY RF-SCORE:    0.00 PKD
ROOT
HETATM    1  C   UNL     1     -10.451  11.002  64.533  1.00  0.00    -0.342 C  
HETATM    2  O   UNL     1      -9.700  11.973  65.234  1.00  0.00    -0.235 OA 
HETATM    3  C   UNL     1      -9.048  11.648  66.494  1.00  0.00    -0.197 C  
HETATM    4  C   UNL     1      -7.942  10.568  66.233  1.00  0.00    -0.144 A  
HETATM    5  C   UNL     1      -8.444  13.019  66.917  1.00  0.00    -0.087 A  
HETATM    6  C   UNL     1     -10.067  11.178  67.619  1.00  0.00    -0.179 C  
HETATM    7  C   UNL     1     -11.095  12.225  68.039  1.00  0.00    -0.239 C  
HETATM    8  C   UNL     1      -9.165  14.209  66.643  1.00  0.00    -0.272 A  
HETATM    9  C   UNL     1      -7.292  10.475  64.988  1.00  0.00    -0.003 A  
HETATM   10  C   UNL     1      -6.854  14.396  68.152  1.00  0.00    -0.126 A  
HETATM   11  O   UNL     1     -10.914  13.074  68.900  1.00  0.00    -0.244 OA 
HETATM   12  C   UNL     1      -6.426   9.411  64.692  1.00  0.00    -0.080 A  
HETATM   13  C   UNL     1      -8.768  15.448  67.147  1.00  0.00    -0.243 A  
HETATM   14  C   UNL     1      -7.260  13.147  67.661  1.00  0.00    -0.160 A  
HETATM   15  O   UNL     1     -12.301  12.113  67.415  1.00  0.00    -0.344 OA 
HETATM   16  C   UNL     1      -7.565   9.620  67.207  1.00  0.00    -0.091 A  
HETATM   17  C   UNL     1      -6.164   8.430  65.643  1.00  0.00    -0.048 A  
HETATM   18  C   UNL     1      -7.617  15.537  67.916  1.00  0.00    -0.146 A  
HETATM   19  C   UNL     1      -6.718   8.547  66.910  1.00  0.00    -0.062 A  
ENDROOT
BRANCH   6  20
HETATM   20  O   UNL     1     -10.850  10.043  67.191  1.00  0.00    -0.243 OA 
BRANCH  20  21
HETATM   21  C   UNL     1     -10.649   8.885  67.902  1.00  0.00    -0.183 A  
HETATM   22  C   UNL     1     -10.436   5.285  67.326  1.00  0.00    -0.236 C  
HETATM   23  N   UNL     1     -10.564   7.715  67.257  1.00  0.00    -0.317 NA 
HETATM   24  C   UNL     1     -10.410   6.675  69.403  1.00  0.00    -0.228 A  
HETATM   25  C   UNL     1     -10.461   6.612  68.025  1.00  0.00    -0.216 A  
HETATM   26  C   UNL     1     -10.466   7.934  69.969  1.00  0.00    -0.231 A  
HETATM   27  C   UNL     1     -10.437   8.110  71.457  1.00  0.00    -0.276 C  
HETATM   28  N   UNL     1     -10.581   9.054  69.226  1.00  0.00    -0.227 NA 
ENDBRANCH  20  21
ENDBRANCH   6  20
TORSDOF 2
ENDMDL
MODEL       65
REMARK 921   NORMALIZED FREE ENERGY PREDICTED BY IDOCK:   -4.74 KCAL/MOL
REMARK 922        TOTAL FREE ENERGY PREDICTED BY IDOCK:   -5.95 KCAL/MOL
REMARK 923 INTER-LIGAND FREE ENERGY PREDICTED BY IDOCK:   -5.39 KCAL/MOL
REMARK 924 INTRA-LIGAND FREE ENERGY PREDICTED BY IDOCK:   -0.56 KCAL/MOL
REMARK 927      BINDING AFFINITY PREDICTED BY RF-SCORE:    0.00 PKD
ROOT
HETATM    1  C   UNL     1      -9.923   6.044  72.806  1.00  0.00    -0.176 C  
HETATM    2  O   UNL     1      -9.387   5.489  71.622  1.00  0.00    -0.145 OA 
HETATM    3  C   UNL     1      -8.874   6.344  70.561  1.00  0.00    -0.144 C  
HETATM    4  C   UNL     1      -7.628   7.129  71.096  1.00  0.00    -0.085 A  
HETATM    5  C   UNL     1      -8.492   5.312  69.460  1.00  0.00    -0.094 A  
HETATM    6  C   UNL     1      -9.973   7.327  69.968  1.00  0.00    -0.184 C  
HETATM    7  C   UNL     1     -11.160   6.643  69.297  1.00  0.00    -0.289 C  
HETATM    8  C   UNL     1      -9.302   4.162  69.276  1.00  0.00    -0.237 A  
HETATM    9  C   UNL     1      -6.812   6.599  72.114  1.00  0.00    -0.067 A  
HETATM   10  C   UNL     1      -7.246   4.619  67.480  1.00  0.00    -0.069 A  
HETATM   11  O   UNL     1     -11.192   6.294  68.126  1.00  0.00    -0.327 OA 
HETATM   12  C   UNL     1      -5.799   7.364  72.712  1.00  0.00    -0.040 A  
HETATM   13  C   UNL     1      -9.118   3.293  68.200  1.00  0.00    -0.214 A  
HETATM   14  C   UNL     1      -7.439   5.503  68.552  1.00  0.00    -0.076 A  
HETATM   15  O   UNL     1     -12.252   6.495  70.098  1.00  0.00    -0.229 OA 
HETATM   16  C   UNL     1      -7.277   8.409  70.617  1.00  0.00    -0.051 A  
HETATM   17  C   UNL     1      -5.555   8.667  72.288  1.00  0.00    -0.056 A  
HETATM   18  C   UNL     1      -8.097   3.531  67.293  1.00  0.00    -0.082 A  
HETATM   19  C   UNL     1      -6.281   9.182  71.225  1.00  0.00    -0.073 A  
ENDROOT
BRANCH   6  20
HETATM   20  O   UNL     1     -10.558   8.157  70.997  1.00  0.00    -0.206 OA 
BRANCH  20  21
HETATM   21  C   UNL     1     -11.001   9.388  70.580  1.00  0.00    -0.290 A  
HETATM   22  C   UNL     1     -10.280  11.857  67.987  1.00  0.00    -0.199 C  
HETATM   23  N   UNL     1     -10.485   9.942  69.476  1.00  0.00    -0.224 NA 
HETATM   24  C   UNL     1     -11.830  11.860  69.948  1.00  0.00    -0.418 A  
HETATM   25  C   UNL     1     -10.898  11.190  69.180  1.00  0.00    -0.238 A  
HETATM   26  C   UNL     1     -12.330  11.185  71.045  1.00  0.00    -0.382 A  
HETATM   27  C   UNL     1     -13.332  11.831  71.953  1.00  0.00    -0.401 C  
HETATM   28  N   UNL     1     -11.926   9.940  71.372  1.00  0.00    -0.389 NA 
ENDBRANCH  20  21
ENDBRANCH   6  20
TORSDOF 2
ENDMDL
MODEL       66
REMARK 921   NORMALIZED FREE ENERGY PREDICTED BY IDOCK:   -4.71 KCAL/MOL
REMARK 922        TOTAL FREE ENERGY PREDICTED BY IDOCK:   -5.91 KCAL/MOL
REMARK 923 INTER-LIGAND FREE ENERGY PREDICTED BY IDOCK:   -6.21 KCAL/MOL
REMARK 924 INTRA-LIGAND FREE ENERGY PREDICTED BY IDOCK:    0.29 KCAL/MOL
REMARK 927      BINDING AFFINITY PREDICTED BY RF-SCORE:    0.00 PKD
ROOT
HETATM    1  C   UNL     1      -9.341  13.158  66.251  1.00  0.00    -0.127 C  
HETATM    2  O   UNL     1      -9.319  14.569  66.329  1.00  0.00    -0.285 OA 
HETATM    3  C   UNL     1      -9.216  15.246  67.614  1.00  0.00    -0.187 C  
HETATM    4  C   UNL     1      -7.829  14.904  68.261  1.00  0.00    -0.122 A  
HETATM    5  C   UNL     1      -9.322  16.745  67.208  1.00  0.00    -0.234 A  
HETATM    6  C   UNL     1     -10.418  14.904  68.596  1.00  0.00    -0.242 C  
HETATM    7  C   UNL     1     -11.796  15.335  68.105  1.00  0.00    -0.195 C  
HETATM    8  C   UNL     1     -10.185  17.116  66.146  1.00  0.00    -0.343 A  
HETATM    9  C   UNL     1      -6.709  14.594  67.467  1.00  0.00    -0.148 A  
HETATM   10  C   UNL     1      -8.952  19.125  67.597  1.00  0.00    -0.337 A  
HETATM   11  O   UNL     1     -12.286  16.441  68.284  1.00  0.00     0.400 OA 
HETATM   12  C   UNL     1      -5.515  14.125  68.036  1.00  0.00    -0.120 A  
HETATM   13  C   UNL     1     -10.460  18.452  65.849  1.00  0.00    -0.346 A  
HETATM   14  C   UNL     1      -8.688  17.783  67.908  1.00  0.00    -0.251 A  
HETATM   15  O   UNL     1     -12.506  14.352  67.485  1.00  0.00    -0.155 OA 
HETATM   16  C   UNL     1      -7.637  14.856  69.658  1.00  0.00    -0.098 A  
HETATM   17  C   UNL     1      -5.400  13.983  69.416  1.00  0.00    -0.082 A  
HETATM   18  C   UNL     1      -9.852  19.457  66.586  1.00  0.00    -0.462 A  
HETATM   19  C   UNL     1      -6.456  14.370  70.229  1.00  0.00    -0.130 A  
ENDROOT
BRANCH   6  20
HETATM   20  O   UNL     1     -10.534  13.482  68.824  1.00  0.00    -0.245 OA 
BRANCH  20  21
HETATM   21  C   UNL     1     -11.361  13.116  69.856  1.00  0.00     0.015 A  
HETATM   22  C   UNL     1     -13.165  10.170  71.045  1.00  0.00    -0.412 C  
HETATM   23  N   UNL     1     -11.763  11.843  69.967  1.00  0.00    -0.312 NA 
HETATM   24  C   UNL     1     -13.099  12.546  71.819  1.00  0.00    -0.450 A  
HETATM   25  C   UNL     1     -12.648  11.575  70.947  1.00  0.00    -0.341 A  
HETATM   26  C   UNL     1     -12.593  13.820  71.644  1.00  0.00    -0.279 A  
HETATM   27  C   UNL     1     -13.033  14.949  72.526  1.00  0.00    -0.472 C  
HETATM   28  N   UNL     1     -11.716  14.119  70.664  1.00  0.00    -0.244 NA 
ENDBRANCH  20  21
ENDBRANCH   6  20
TORSDOF 2
ENDMDL
MODEL       67
REMARK 921   NORMALIZED FREE ENERGY PREDICTED BY IDOCK:   -4.69 KCAL/MOL
REMARK 922        TOTAL FREE ENERGY PREDICTED BY IDOCK:   -5.89 KCAL/MOL
REMARK 923 INTER-LIGAND FREE ENERGY PREDICTED BY IDOCK:   -5.32 KCAL/MOL
REMARK 924 INTRA-LIGAND FREE ENERGY PREDICTED BY IDOCK:   -0.58 KCAL/MOL
REMARK 927      BINDING AFFINITY PREDICTED BY RF-SCORE:    0.00 PKD
ROOT
HETATM    1  C   UNL     1      -8.894   6.400  71.908  1.00  0.00    -0.138 C  
HETATM    2  O   UNL     1      -8.440   6.045  70.617  1.00  0.00    -0.129 OA 
HETATM    3  C   UNL     1      -8.422   7.019  69.535  1.00  0.00    -0.134 C  
HETATM    4  C   UNL     1      -7.403   8.156  69.891  1.00  0.00    -0.065 A  
HETATM    5  C   UNL     1      -7.948   6.162  68.325  1.00  0.00    -0.107 A  
HETATM    6  C   UNL     1      -9.860   7.607  69.203  1.00  0.00    -0.171 C  
HETATM    7  C   UNL     1     -10.879   6.584  68.710  1.00  0.00    -0.299 C  
HETATM    8  C   UNL     1      -8.382   4.815  68.217  1.00  0.00    -0.091 A  
HETATM    9  C   UNL     1      -6.291   7.909  70.718  1.00  0.00    -0.037 A  
HETATM   10  C   UNL     1      -6.936   5.900  66.121  1.00  0.00    -0.062 A  
HETATM   11  O   UNL     1     -11.017   6.245  67.543  1.00  0.00    -0.320 OA 
HETATM   12  C   UNL     1      -5.472   8.953  71.175  1.00  0.00    -0.037 A  
HETATM   13  C   UNL     1      -8.140   4.050  67.076  1.00  0.00    -0.096 A  
HETATM   14  C   UNL     1      -7.193   6.677  67.260  1.00  0.00    -0.085 A  
HETATM   15  O   UNL     1     -11.705   6.098  69.678  1.00  0.00    -0.331 OA 
HETATM   16  C   UNL     1      -7.560   9.483  69.435  1.00  0.00    -0.091 A  
HETATM   17  C   UNL     1      -5.726  10.267  70.793  1.00  0.00    -0.094 A  
HETATM   18  C   UNL     1      -7.428   4.600  66.020  1.00  0.00    -0.082 A  
HETATM   19  C   UNL     1      -6.759  10.529  69.905  1.00  0.00    -0.142 A  
ENDROOT
BRANCH   6  20
HETATM   20  O   UNL     1     -10.473   8.208  70.365  1.00  0.00    -0.207 OA 
BRANCH  20  21
HETATM   21  C   UNL     1     -11.054   9.435  70.157  1.00  0.00    -0.242 A  
HETATM   22  C   UNL     1     -13.133  11.851  71.942  1.00  0.00    -0.474 C  
HETATM   23  N   UNL     1     -11.709  10.038  71.157  1.00  0.00    -0.374 NA 
HETATM   24  C   UNL     1     -12.278  11.755  69.595  1.00  0.00    -0.248 A  
HETATM   25  C   UNL     1     -12.333  11.194  70.856  1.00  0.00    -0.399 A  
HETATM   26  C   UNL     1     -11.542  11.074  68.645  1.00  0.00    -0.316 A  
HETATM   27  C   UNL     1     -11.435  11.588  67.241  1.00  0.00    -0.338 C  
HETATM   28  N   UNL     1     -10.918   9.908  68.915  1.00  0.00    -0.207 NA 
ENDBRANCH  20  21
ENDBRANCH   6  20
TORSDOF 2
ENDMDL
MODEL       68
REMARK 921   NORMALIZED FREE ENERGY PREDICTED BY IDOCK:   -4.67 KCAL/MOL
REMARK 922        TOTAL FREE ENERGY PREDICTED BY IDOCK:   -5.87 KCAL/MOL
REMARK 923 INTER-LIGAND FREE ENERGY PREDICTED BY IDOCK:   -5.20 KCAL/MOL
REMARK 924 INTRA-LIGAND FREE ENERGY PREDICTED BY IDOCK:   -0.68 KCAL/MOL
REMARK 927      BINDING AFFINITY PREDICTED BY RF-SCORE:    0.00 PKD
ROOT
HETATM    1  C   UNL     1     -10.468  14.643  69.742  1.00  0.00     0.007 C  
HETATM    2  O   UNL     1      -9.879  15.744  69.081  1.00  0.00    -0.214 OA 
HETATM    3  C   UNL     1      -9.069  15.554  67.886  1.00  0.00    -0.175 C  
HETATM    4  C   UNL     1      -9.976  14.988  66.740  1.00  0.00    -0.254 A  
HETATM    5  C   UNL     1      -8.576  17.000  67.587  1.00  0.00    -0.213 A  
HETATM    6  C   UNL     1      -7.800  14.631  68.135  1.00  0.00    -0.128 C  
HETATM    7  C   UNL     1      -6.788  15.179  69.137  1.00  0.00    -0.136 C  
HETATM    8  C   UNL     1      -8.264  17.864  68.667  1.00  0.00    -0.281 A  
HETATM    9  C   UNL     1     -11.355  15.268  66.694  1.00  0.00    -0.170 A  
HETATM   10  C   UNL     1      -7.717  18.730  66.097  1.00  0.00    -0.274 A  
HETATM   11  O   UNL     1      -5.874  15.943  68.858  1.00  0.00    -0.109 OA 
HETATM   12  C   UNL     1     -12.200  14.632  65.771  1.00  0.00    -0.168 A  
HETATM   13  C   UNL     1      -7.655  19.104  68.471  1.00  0.00    -0.369 A  
HETATM   14  C   UNL     1      -8.314  17.477  66.293  1.00  0.00    -0.259 A  
HETATM   15  O   UNL     1      -6.930  14.697  70.403  1.00  0.00    -0.042 OA 
HETATM   16  C   UNL     1      -9.474  14.150  65.721  1.00  0.00    -0.070 A  
HETATM   17  C   UNL     1     -11.684  13.722  64.853  1.00  0.00    -0.378 A  
HETATM   18  C   UNL     1      -7.367  19.530  67.183  1.00  0.00    -0.242 A  
HETATM   19  C   UNL     1     -10.316  13.498  64.814  1.00  0.00    -0.405 A  
ENDROOT
BRANCH   6  20
HETATM   20  O   UNL     1      -8.174  13.338  68.658  1.00  0.00    -0.118 OA 
BRANCH  20  21
HETATM   21  C   UNL     1      -7.890  12.268  67.845  1.00  0.00    -0.146 A  
HETATM   22  C   UNL     1      -5.208  11.082  65.668  1.00  0.00    -0.110 C  
HETATM   23  N   UNL     1      -6.692  12.182  67.253  1.00  0.00    -0.143 NA 
HETATM   24  C   UNL     1      -7.502  10.218  66.158  1.00  0.00    -0.121 A  
HETATM   25  C   UNL     1      -6.517  11.157  66.396  1.00  0.00    -0.109 A  
HETATM   26  C   UNL     1      -8.688  10.376  66.849  1.00  0.00    -0.126 A  
HETATM   27  C   UNL     1      -9.827   9.422  66.647  1.00  0.00    -0.309 C  
HETATM   28  N   UNL     1      -8.895  11.399  67.704  1.00  0.00    -0.137 NA 
ENDBRANCH  20  21
ENDBRANCH   6  20
TORSDOF 2
ENDMDL
MODEL       69
REMARK 921   NORMALIZED FREE ENERGY PREDICTED BY IDOCK:   -4.66 KCAL/MOL
REMARK 922        TOTAL FREE ENERGY PREDICTED BY IDOCK:   -5.86 KCAL/MOL
REMARK 923 INTER-LIGAND FREE ENERGY PREDICTED BY IDOCK:   -5.30 KCAL/MOL
REMARK 924 INTRA-LIGAND FREE ENERGY PREDICTED BY IDOCK:   -0.56 KCAL/MOL
REMARK 927      BINDING AFFINITY PREDICTED BY RF-SCORE:    0.00 PKD
ROOT
HETATM    1  C   UNL     1      -7.192   8.311  67.497  1.00  0.00    -0.088 C  
HETATM    2  O   UNL     1      -8.293   8.105  68.359  1.00  0.00    -0.124 OA 
HETATM    3  C   UNL     1      -8.898   9.217  69.079  1.00  0.00    -0.139 C  
HETATM    4  C   UNL     1      -9.529  10.210  68.044  1.00  0.00    -0.156 A  
HETATM    5  C   UNL     1      -9.977   8.502  69.944  1.00  0.00    -0.189 A  
HETATM    6  C   UNL     1      -7.881   9.956  70.051  1.00  0.00    -0.180 C  
HETATM    7  C   UNL     1      -7.325   9.095  71.181  1.00  0.00    -0.067 C  
HETATM    8  C   UNL     1      -9.696   7.223  70.486  1.00  0.00    -0.176 A  
HETATM    9  C   UNL     1      -9.995   9.764  66.793  1.00  0.00    -0.278 A  
HETATM   10  C   UNL     1     -12.050   8.473  71.230  1.00  0.00    -0.323 A  
HETATM   11  O   UNL     1      -7.866   8.933  72.266  1.00  0.00    -0.361 OA 
HETATM   12  C   UNL     1     -10.406  10.667  65.800  1.00  0.00    -0.287 A  
HETATM   13  C   UNL     1     -10.543   6.608  71.409  1.00  0.00    -0.255 A  
HETATM   14  C   UNL     1     -11.191   9.101  70.316  1.00  0.00    -0.249 A  
HETATM   15  O   UNL     1      -6.106   8.544  70.922  1.00  0.00    -0.032 OA 
HETATM   16  C   UNL     1      -9.636  11.595  68.292  1.00  0.00    -0.198 A  
HETATM   17  C   UNL     1     -10.390  12.037  66.043  1.00  0.00    -0.271 A  
HETATM   18  C   UNL     1     -11.715   7.242  71.792  1.00  0.00    -0.321 A  
HETATM   19  C   UNL     1     -10.025  12.500  67.299  1.00  0.00    -0.211 A  
ENDROOT
BRANCH   6  20
HETATM   20  O   UNL     1      -6.717  10.435  69.344  1.00  0.00    -0.052 OA 
BRANCH  20  21
HETATM   21  C   UNL     1      -6.375  11.742  69.586  1.00  0.00    -0.129 A  
HETATM   22  C   UNL     1      -5.159  13.820  72.333  1.00  0.00    -0.192 C  
HETATM   23  N   UNL     1      -5.875  12.088  70.780  1.00  0.00    -0.331 NA 
HETATM   24  C   UNL     1      -5.888  14.348  70.001  1.00  0.00    -0.131 A  
HETATM   25  C   UNL     1      -5.651  13.402  70.979  1.00  0.00    -0.202 A  
HETATM   26  C   UNL     1      -6.366  13.882  68.792  1.00  0.00    -0.091 A  
HETATM   27  C   UNL     1      -6.674  14.829  67.671  1.00  0.00    -0.198 C  
HETATM   28  N   UNL     1      -6.611  12.574  68.568  1.00  0.00    -0.071 NA 
ENDBRANCH  20  21
ENDBRANCH   6  20
TORSDOF 2
ENDMDL
MODEL       70
REMARK 921   NORMALIZED FREE ENERGY PREDICTED BY IDOCK:   -4.61 KCAL/MOL
REMARK 922        TOTAL FREE ENERGY PREDICTED BY IDOCK:   -5.80 KCAL/MOL
REMARK 923 INTER-LIGAND FREE ENERGY PREDICTED BY IDOCK:   -5.24 KCAL/MOL
REMARK 924 INTRA-LIGAND FREE ENERGY PREDICTED BY IDOCK:   -0.56 KCAL/MOL
REMARK 927      BINDING AFFINITY PREDICTED BY RF-SCORE:    0.00 PKD
ROOT
HETATM    1  C   UNL     1      -9.863   9.626  70.016  1.00  0.00    -0.246 C  
HETATM    2  O   UNL     1      -8.828   8.793  69.532  1.00  0.00    -0.139 OA 
HETATM    3  C   UNL     1      -8.182   9.068  68.257  1.00  0.00    -0.116 C  
HETATM    4  C   UNL     1      -7.423  10.436  68.355  1.00  0.00    -0.091 A  
HETATM    5  C   UNL     1      -7.207   7.863  68.114  1.00  0.00    -0.090 A  
HETATM    6  C   UNL     1      -9.191   9.048  67.030  1.00  0.00    -0.136 C  
HETATM    7  C   UNL     1      -9.870   7.706  66.774  1.00  0.00    -0.237 C  
HETATM    8  C   UNL     1      -7.612   6.585  68.577  1.00  0.00    -0.097 A  
HETATM    9  C   UNL     1      -6.925  10.910  69.584  1.00  0.00    -0.128 A  
HETATM   10  C   UNL     1      -5.214   6.785  67.209  1.00  0.00    -0.009 A  
HETATM   11  O   UNL     1      -9.402   6.807  66.090  1.00  0.00    -0.144 OA 
HETATM   12  C   UNL     1      -6.395  12.203  69.710  1.00  0.00    -0.102 A  
HETATM   13  C   UNL     1      -6.863   5.435  68.322  1.00  0.00    -0.060 A  
HETATM   14  C   UNL     1      -5.973   7.940  67.449  1.00  0.00    -0.049 A  
HETATM   15  O   UNL     1     -11.111   7.588  67.323  1.00  0.00    -0.194 OA 
HETATM   16  C   UNL     1      -7.227  11.275  67.237  1.00  0.00    -0.114 A  
HETATM   17  C   UNL     1      -6.322  13.045  68.604  1.00  0.00    -0.083 A  
HETATM   18  C   UNL     1      -5.670   5.535  67.623  1.00  0.00    -0.013 A  
HETATM   19  C   UNL     1      -6.718  12.572  67.362  1.00  0.00    -0.147 A  
ENDROOT
BRANCH   6  20
HETATM   20  O   UNL     1     -10.277   9.982  67.215  1.00  0.00    -0.196 OA 
BRANCH  20  21
HETATM   21  C   UNL     1     -10.573  10.765  66.127  1.00  0.00    -0.175 A  
HETATM   22  C   UNL     1     -12.858  13.459  65.196  1.00  0.00    -0.380 C  
HETATM   23  N   UNL     1     -11.482  11.742  66.239  1.00  0.00    -0.411 NA 
HETATM   24  C   UNL     1     -11.185  12.129  63.899  1.00  0.00    -0.485 A  
HETATM   25  C   UNL     1     -11.791  12.408  65.108  1.00  0.00    -0.388 A  
HETATM   26  C   UNL     1     -10.233  11.128  63.899  1.00  0.00    -0.362 A  
HETATM   27  C   UNL     1      -9.531  10.736  62.634  1.00  0.00    -0.331 C  
HETATM   28  N   UNL     1      -9.912  10.437  65.013  1.00  0.00    -0.315 NA 
ENDBRANCH  20  21
ENDBRANCH   6  20
TORSDOF 2
ENDMDL
MODEL       71
REMARK 921   NORMALIZED FREE ENERGY PREDICTED BY IDOCK:   -4.60 KCAL/MOL
REMARK 922        TOTAL FREE ENERGY PREDICTED BY IDOCK:   -5.79 KCAL/MOL
REMARK 923 INTER-LIGAND FREE ENERGY PREDICTED BY IDOCK:   -5.28 KCAL/MOL
REMARK 924 INTRA-LIGAND FREE ENERGY PREDICTED BY IDOCK:   -0.50 KCAL/MOL
REMARK 927      BINDING AFFINITY PREDICTED BY RF-SCORE:    0.00 PKD
ROOT
HETATM    1  C   UNL     1     -11.316   9.738  70.658  1.00  0.00    -0.330 C  
HETATM    2  O   UNL     1     -10.899   8.680  69.819  1.00  0.00    -0.232 OA 
HETATM    3  C   UNL     1      -9.593   8.705  69.177  1.00  0.00    -0.163 C  
HETATM    4  C   UNL     1      -8.481   8.646  70.281  1.00  0.00    -0.133 A  
HETATM    5  C   UNL     1      -9.627   7.414  68.307  1.00  0.00    -0.153 A  
HETATM    6  C   UNL     1      -9.395   9.954  68.216  1.00  0.00    -0.132 C  
HETATM    7  C   UNL     1     -10.348  10.013  67.026  1.00  0.00    -0.243 C  
HETATM    8  C   UNL     1     -10.843   7.026  67.690  1.00  0.00    -0.312 A  
HETATM    9  C   UNL     1      -8.714   8.020  71.520  1.00  0.00    -0.168 A  
HETATM   10  C   UNL     1      -8.550   5.599  67.082  1.00  0.00    -0.109 A  
HETATM   11  O   UNL     1     -10.156   9.464  65.951  1.00  0.00    -0.296 OA 
HETATM   12  C   UNL     1      -7.788   8.109  72.571  1.00  0.00    -0.182 A  
HETATM   13  C   UNL     1     -10.902   5.986  66.761  1.00  0.00    -0.356 A  
HETATM   14  C   UNL     1      -8.486   6.655  68.003  1.00  0.00    -0.116 A  
HETATM   15  O   UNL     1     -11.443  10.799  67.220  1.00  0.00    -0.436 OA 
HETATM   16  C   UNL     1      -7.212   9.240  70.110  1.00  0.00    -0.083 A  
HETATM   17  C   UNL     1      -6.593   8.801  72.400  1.00  0.00    -0.019 A  
HETATM   18  C   UNL     1      -9.749   5.281  66.447  1.00  0.00    -0.184 A  
HETATM   19  C   UNL     1      -6.296   9.348  71.161  1.00  0.00    -0.074 A  
ENDROOT
BRANCH   6  20
HETATM   20  O   UNL     1      -9.597  11.203  68.914  1.00  0.00    -0.198 OA 
BRANCH  20  21
HETATM   21  C   UNL     1      -8.900  12.276  68.417  1.00  0.00    -0.137 A  
HETATM   22  C   UNL     1      -5.441  13.309  67.858  1.00  0.00    -0.118 C  
HETATM   23  N   UNL     1      -7.566  12.213  68.316  1.00  0.00    -0.124 NA 
HETATM   24  C   UNL     1      -7.629  14.486  67.580  1.00  0.00    -0.211 A  
HETATM   25  C   UNL     1      -6.940  13.335  67.910  1.00  0.00    -0.137 A  
HETATM   26  C   UNL     1      -9.006  14.434  67.681  1.00  0.00    -0.192 A  
HETATM   27  C   UNL     1      -9.845  15.635  67.363  1.00  0.00    -0.225 C  
HETATM   28  N   UNL     1      -9.658  13.328  68.096  1.00  0.00    -0.223 NA 
ENDBRANCH  20  21
ENDBRANCH   6  20
TORSDOF 2
ENDMDL
MODEL       72
REMARK 921   NORMALIZED FREE ENERGY PREDICTED BY IDOCK:   -4.57 KCAL/MOL
REMARK 922        TOTAL FREE ENERGY PREDICTED BY IDOCK:   -5.76 KCAL/MOL
REMARK 923 INTER-LIGAND FREE ENERGY PREDICTED BY IDOCK:   -5.32 KCAL/MOL
REMARK 924 INTRA-LIGAND FREE ENERGY PREDICTED BY IDOCK:   -0.44 KCAL/MOL
REMARK 927      BINDING AFFINITY PREDICTED BY RF-SCORE:    0.00 PKD
ROOT
HETATM    1  C   UNL     1      -6.814   9.630  69.674  1.00  0.00    -0.067 C  
HETATM    2  O   UNL     1      -7.833  10.504  69.231  1.00  0.00    -0.126 OA 
HETATM    3  C   UNL     1      -9.038   9.989  68.598  1.00  0.00    -0.139 C  
HETATM    4  C   UNL     1      -9.834   9.130  69.640  1.00  0.00    -0.188 A  
HETATM    5  C   UNL     1      -9.793  11.294  68.212  1.00  0.00    -0.201 A  
HETATM    6  C   UNL     1      -8.742   9.168  67.271  1.00  0.00    -0.117 C  
HETATM    7  C   UNL     1      -8.094   9.969  66.145  1.00  0.00    -0.122 C  
HETATM    8  C   UNL     1      -9.051  12.423  67.780  1.00  0.00    -0.193 A  
HETATM    9  C   UNL     1      -9.745   9.389  71.021  1.00  0.00    -0.293 A  
HETATM   10  C   UNL     1     -11.813  12.542  67.650  1.00  0.00    -0.381 A  
HETATM   11  O   UNL     1      -8.707  10.623  65.313  1.00  0.00    -0.183 OA 
HETATM   12  C   UNL     1     -10.319   8.525  71.967  1.00  0.00    -0.408 A  
HETATM   13  C   UNL     1      -9.670  13.558  67.255  1.00  0.00    -0.236 A  
HETATM   14  C   UNL     1     -11.193  11.393  68.162  1.00  0.00    -0.343 A  
HETATM   15  O   UNL     1      -6.738   9.856  66.081  1.00  0.00    -0.084 OA 
HETATM   16  C   UNL     1     -10.648   8.041  69.261  1.00  0.00    -0.193 A  
HETATM   17  C   UNL     1     -11.021   7.396  71.556  1.00  0.00    -0.255 A  
HETATM   18  C   UNL     1     -11.053  13.610  67.177  1.00  0.00    -0.311 A  
HETATM   19  C   UNL     1     -11.204   7.166  70.200  1.00  0.00    -0.295 A  
ENDROOT
BRANCH   6  20
HETATM   20  O   UNL     1      -7.834   8.070  67.512  1.00  0.00    -0.113 OA 
BRANCH  20  21
HETATM   21  C   UNL     1      -8.239   6.851  67.027  1.00  0.00    -0.120 A  
HETATM   22  C   UNL     1      -9.391   3.619  68.278  1.00  0.00    -0.228 C  
HETATM   23  N   UNL     1      -8.676   5.911  67.874  1.00  0.00    -0.105 NA 
HETATM   24  C   UNL     1      -8.859   4.458  65.984  1.00  0.00    -0.119 A  
HETATM   25  C   UNL     1      -8.968   4.709  67.338  1.00  0.00    -0.111 A  
HETATM   26  C   UNL     1      -8.437   5.508  65.192  1.00  0.00    -0.147 A  
HETATM   27  C   UNL     1      -8.267   5.334  63.713  1.00  0.00    -0.123 C  
HETATM   28  N   UNL     1      -8.126   6.718  65.702  1.00  0.00    -0.116 NA 
ENDBRANCH  20  21
ENDBRANCH   6  20
TORSDOF 2
ENDMDL
MODEL       73
REMARK 921   NORMALIZED FREE ENERGY PREDICTED BY IDOCK:   -4.55 KCAL/MOL
REMARK 922        TOTAL FREE ENERGY PREDICTED BY IDOCK:   -5.74 KCAL/MOL
REMARK 923 INTER-LIGAND FREE ENERGY PREDICTED BY IDOCK:   -5.09 KCAL/MOL
REMARK 924 INTRA-LIGAND FREE ENERGY PREDICTED BY IDOCK:   -0.65 KCAL/MOL
REMARK 927      BINDING AFFINITY PREDICTED BY RF-SCORE:    0.00 PKD
ROOT
HETATM    1  C   UNL     1      -9.945   8.823  70.138  1.00  0.00    -0.184 C  
HETATM    2  O   UNL     1      -8.944   7.996  69.579  1.00  0.00    -0.146 OA 
HETATM    3  C   UNL     1      -8.298   8.348  68.322  1.00  0.00    -0.131 C  
HETATM    4  C   UNL     1      -7.491   9.677  68.519  1.00  0.00    -0.079 A  
HETATM    5  C   UNL     1      -7.368   7.125  68.074  1.00  0.00    -0.097 A  
HETATM    6  C   UNL     1      -9.318   8.459  67.108  1.00  0.00    -0.153 C  
HETATM    7  C   UNL     1     -10.046   7.166  66.755  1.00  0.00    -0.208 C  
HETATM    8  C   UNL     1      -7.814   5.829  68.439  1.00  0.00    -0.101 A  
HETATM    9  C   UNL     1      -6.967  10.035  69.775  1.00  0.00    -0.107 A  
HETATM   10  C   UNL     1      -5.422   6.054  67.065  1.00  0.00    -0.009 A  
HETATM   11  O   UNL     1      -9.616   6.308  65.997  1.00  0.00    -0.078 OA 
HETATM   12  C   UNL     1      -6.391  11.295  69.997  1.00  0.00    -0.140 A  
HETATM   13  C   UNL     1      -7.108   4.678  68.087  1.00  0.00    -0.061 A  
HETATM   14  C   UNL     1      -6.138   7.211  67.403  1.00  0.00    -0.037 A  
HETATM   15  O   UNL     1     -11.286   7.048  67.307  1.00  0.00    -0.281 OA 
HETATM   16  C   UNL     1      -7.275  10.594  67.468  1.00  0.00    -0.090 A  
HETATM   17  C   UNL     1      -6.297  12.219  68.960  1.00  0.00    -0.088 A  
HETATM   18  C   UNL     1      -5.917   4.791  67.385  1.00  0.00    -0.023 A  
HETATM   19  C   UNL     1      -6.720  11.859  67.689  1.00  0.00    -0.105 A  
ENDROOT
BRANCH   6  20
HETATM   20  O   UNL     1     -10.369   9.413  67.378  1.00  0.00    -0.228 OA 
BRANCH  20  21
HETATM   21  C   UNL     1     -10.572  10.358  66.404  1.00  0.00    -0.127 A  
HETATM   22  C   UNL     1      -9.484  11.098  62.996  1.00  0.00    -0.386 C  
HETATM   23  N   UNL     1     -10.005  10.205  65.200  1.00  0.00    -0.325 NA 
HETATM   24  C   UNL     1     -10.910  12.342  64.629  1.00  0.00    -0.346 A  
HETATM   25  C   UNL     1     -10.169  11.217  64.325  1.00  0.00    -0.340 A  
HETATM   26  C   UNL     1     -11.486  12.385  65.884  1.00  0.00    -0.374 A  
HETATM   27  C   UNL     1     -12.293  13.570  66.320  1.00  0.00    -0.440 C  
HETATM   28  N   UNL     1     -11.328  11.392  66.785  1.00  0.00    -0.405 NA 
ENDBRANCH  20  21
ENDBRANCH   6  20
TORSDOF 2
ENDMDL
MODEL       74
REMARK 921   NORMALIZED FREE ENERGY PREDICTED BY IDOCK:   -4.55 KCAL/MOL
REMARK 922        TOTAL FREE ENERGY PREDICTED BY IDOCK:   -5.74 KCAL/MOL
REMARK 923 INTER-LIGAND FREE ENERGY PREDICTED BY IDOCK:   -5.10 KCAL/MOL
REMARK 924 INTRA-LIGAND FREE ENERGY PREDICTED BY IDOCK:   -0.64 KCAL/MOL
REMARK 927      BINDING AFFINITY PREDICTED BY RF-SCORE:    0.00 PKD
ROOT
HETATM    1  C   UNL     1     -12.159   6.658  70.456  1.00  0.00    -0.240 C  
HETATM    2  O   UNL     1     -11.068   5.832  70.103  1.00  0.00    -0.334 OA 
HETATM    3  C   UNL     1      -9.719   6.372  70.011  1.00  0.00    -0.165 C  
HETATM    4  C   UNL     1      -9.264   6.852  71.433  1.00  0.00    -0.156 A  
HETATM    5  C   UNL     1      -8.903   5.143  69.516  1.00  0.00    -0.120 A  
HETATM    6  C   UNL     1      -9.585   7.533  68.934  1.00  0.00    -0.149 C  
HETATM    7  C   UNL     1      -9.873   7.116  67.495  1.00  0.00    -0.151 C  
HETATM    8  C   UNL     1      -9.496   4.242  68.595  1.00  0.00    -0.221 A  
HETATM    9  C   UNL     1      -9.773   6.255  72.602  1.00  0.00    -0.164 A  
HETATM   10  C   UNL     1      -6.828   3.891  69.239  1.00  0.00    -0.045 A  
HETATM   11  O   UNL     1      -9.047   6.641  66.729  1.00  0.00    -0.132 OA 
HETATM   12  C   UNL     1      -9.501   6.786  73.873  1.00  0.00    -0.234 A  
HETATM   13  C   UNL     1      -8.765   3.226  67.979  1.00  0.00    -0.132 A  
HETATM   14  C   UNL     1      -7.556   4.924  69.846  1.00  0.00    -0.056 A  
HETATM   15  O   UNL     1     -11.143   7.373  67.077  1.00  0.00    -0.268 OA 
HETATM   16  C   UNL     1      -8.357   7.916  71.619  1.00  0.00    -0.137 A  
HETATM   17  C   UNL     1      -8.689   7.909  74.009  1.00  0.00    -0.305 A  
HETATM   18  C   UNL     1      -7.424   3.060  68.292  1.00  0.00    -0.052 A  
HETATM   19  C   UNL     1      -8.099   8.461  72.881  1.00  0.00    -0.166 A  
ENDROOT
BRANCH   6  20
HETATM   20  O   UNL     1     -10.507   8.614  69.197  1.00  0.00    -0.220 OA 
BRANCH  20  21
HETATM   21  C   UNL     1     -10.083   9.859  68.800  1.00  0.00    -0.174 A  
HETATM   22  C   UNL     1      -7.079  11.932  68.932  1.00  0.00    -0.110 C  
HETATM   23  N   UNL     1      -8.807  10.218  68.989  1.00  0.00    -0.158 NA 
HETATM   24  C   UNL     1      -9.406  12.367  68.129  1.00  0.00    -0.209 A  
HETATM   25  C   UNL     1      -8.485  11.486  68.663  1.00  0.00    -0.115 A  
HETATM   26  C   UNL     1     -10.686  11.885  67.937  1.00  0.00    -0.204 A  
HETATM   27  C   UNL     1     -11.764  12.766  67.382  1.00  0.00    -0.425 C  
HETATM   28  N   UNL     1     -11.040  10.624  68.266  1.00  0.00    -0.258 NA 
ENDBRANCH  20  21
ENDBRANCH   6  20
TORSDOF 2
ENDMDL
MODEL       75
REMARK 921   NORMALIZED FREE ENERGY PREDICTED BY IDOCK:   -4.53 KCAL/MOL
REMARK 922        TOTAL FREE ENERGY PREDICTED BY IDOCK:   -5.72 KCAL/MOL
REMARK 923 INTER-LIGAND FREE ENERGY PREDICTED BY IDOCK:   -5.10 KCAL/MOL
REMARK 924 INTRA-LIGAND FREE ENERGY PREDICTED BY IDOCK:   -0.61 KCAL/MOL
REMARK 927      BINDING AFFINITY PREDICTED BY RF-SCORE:    0.00 PKD
ROOT
HETATM    1  C   UNL     1      -7.378   5.698  69.002  1.00  0.00    -0.082 C  
HETATM    2  O   UNL     1      -7.412   7.057  68.617  1.00  0.00    -0.097 OA 
HETATM    3  C   UNL     1      -8.403   7.968  69.172  1.00  0.00    -0.132 C  
HETATM    4  C   UNL     1      -8.153   8.115  70.713  1.00  0.00    -0.102 A  
HETATM    5  C   UNL     1      -8.110   9.287  68.399  1.00  0.00    -0.106 A  
HETATM    6  C   UNL     1      -9.897   7.525  68.864  1.00  0.00    -0.159 C  
HETATM    7  C   UNL     1     -10.270   7.492  67.385  1.00  0.00    -0.249 C  
HETATM    8  C   UNL     1      -7.721   9.220  67.037  1.00  0.00    -0.095 A  
HETATM    9  C   UNL     1      -6.867   7.954  71.263  1.00  0.00    -0.046 A  
HETATM   10  C   UNL     1      -8.190  11.712  68.147  1.00  0.00    -0.151 A  
HETATM   11  O   UNL     1     -10.682   8.452  66.748  1.00  0.00    -0.249 OA 
HETATM   12  C   UNL     1      -6.664   7.919  72.651  1.00  0.00    -0.078 A  
HETATM   13  C   UNL     1      -7.615  10.362  66.242  1.00  0.00    -0.127 A  
HETATM   14  C   UNL     1      -8.314  10.564  68.943  1.00  0.00    -0.147 A  
HETATM   15  O   UNL     1     -10.175   6.263  66.806  1.00  0.00    -0.186 OA 
HETATM   16  C   UNL     1      -9.195   8.382  71.627  1.00  0.00    -0.271 A  
HETATM   17  C   UNL     1      -7.737   8.074  73.525  1.00  0.00    -0.218 A  
HETATM   18  C   UNL     1      -7.864  11.609  66.795  1.00  0.00    -0.130 A  
HETATM   19  C   UNL     1      -9.000   8.327  73.011  1.00  0.00    -0.311 A  
ENDROOT
BRANCH   6  20
HETATM   20  O   UNL     1     -10.169   6.189  69.343  1.00  0.00    -0.171 OA 
BRANCH  20  21
HETATM   21  C   UNL     1     -11.006   6.110  70.428  1.00  0.00    -0.337 A  
HETATM   22  C   UNL     1     -14.087   7.635  71.663  1.00  0.00    -0.547 C  
HETATM   23  N   UNL     1     -12.133   6.833  70.452  1.00  0.00    -0.303 NA 
HETATM   24  C   UNL     1     -12.487   5.995  72.662  1.00  0.00     0.222 A  
HETATM   25  C   UNL     1     -12.858   6.778  71.587  1.00  0.00    -0.276 A  
HETATM   26  C   UNL     1     -11.328   5.257  72.521  1.00  0.00    -0.179 A  
HETATM   27  C   UNL     1     -10.828   4.390  73.637  1.00  0.00    -0.367 C  
HETATM   28  N   UNL     1     -10.576   5.302  71.401  1.00  0.00    -0.208 NA 
ENDBRANCH  20  21
ENDBRANCH   6  20
TORSDOF 2
ENDMDL
MODEL       76
REMARK 921   NORMALIZED FREE ENERGY PREDICTED BY IDOCK:   -4.50 KCAL/MOL
REMARK 922        TOTAL FREE ENERGY PREDICTED BY IDOCK:   -5.68 KCAL/MOL
REMARK 923 INTER-LIGAND FREE ENERGY PREDICTED BY IDOCK:   -5.10 KCAL/MOL
REMARK 924 INTRA-LIGAND FREE ENERGY PREDICTED BY IDOCK:   -0.58 KCAL/MOL
REMARK 927      BINDING AFFINITY PREDICTED BY RF-SCORE:    0.00 PKD
ROOT
HETATM    1  C   UNL     1      -6.147   8.059  68.017  1.00  0.00    -0.046 C  
HETATM    2  O   UNL     1      -6.827   7.000  67.372  1.00  0.00    -0.068 OA 
HETATM    3  C   UNL     1      -8.271   7.042  67.187  1.00  0.00    -0.118 C  
HETATM    4  C   UNL     1      -8.628   8.232  66.232  1.00  0.00    -0.152 A  
HETATM    5  C   UNL     1      -8.561   5.657  66.537  1.00  0.00    -0.119 A  
HETATM    6  C   UNL     1      -9.072   7.133  68.556  1.00  0.00    -0.132 C  
HETATM    7  C   UNL     1      -8.893   5.940  69.491  1.00  0.00    -0.123 C  
HETATM    8  C   UNL     1      -7.813   4.526  66.952  1.00  0.00    -0.098 A  
HETATM    9  C   UNL     1      -7.718   8.687  65.259  1.00  0.00    -0.092 A  
HETATM   10  C   UNL     1      -9.921   4.135  65.201  1.00  0.00    -0.218 A  
HETATM   11  O   UNL     1      -9.560   4.916  69.450  1.00  0.00    -0.138 OA 
HETATM   12  C   UNL     1      -7.961   9.853  64.516  1.00  0.00    -0.145 A  
HETATM   13  C   UNL     1      -8.139   3.233  66.541  1.00  0.00    -0.088 A  
HETATM   14  C   UNL     1      -9.606   5.434  65.626  1.00  0.00    -0.021 A  
HETATM   15  O   UNL     1      -7.948   6.116  70.455  1.00  0.00    -0.107 OA 
HETATM   16  C   UNL     1      -9.854   8.927  66.313  1.00  0.00    -0.355 A  
HETATM   17  C   UNL     1      -9.135  10.577  64.706  1.00  0.00    -0.242 A  
HETATM   18  C   UNL     1      -9.205   3.037  65.675  1.00  0.00    -0.129 A  
HETATM   19  C   UNL     1     -10.091  10.101  65.590  1.00  0.00    -0.324 A  
ENDROOT
BRANCH   6  20
HETATM   20  O   UNL     1      -8.667   8.278  69.338  1.00  0.00    -0.139 OA 
BRANCH  20  21
HETATM   21  C   UNL     1      -9.691   9.051  69.826  1.00  0.00    -0.175 A  
HETATM   22  C   UNL     1     -12.555   8.752  72.073  1.00  0.00    -0.447 C  
HETATM   23  N   UNL     1     -10.529   8.545  70.740  1.00  0.00    -0.195 NA 
HETATM   24  C   UNL     1     -11.746  10.597  70.593  1.00  0.00    -0.454 A  
HETATM   25  C   UNL     1     -11.565   9.326  71.103  1.00  0.00    -0.327 A  
HETATM   26  C   UNL     1     -10.804  11.040  69.685  1.00  0.00    -0.183 A  
HETATM   27  C   UNL     1     -10.919  12.396  69.058  1.00  0.00    -0.247 C  
HETATM   28  N   UNL     1      -9.763  10.275  69.294  1.00  0.00    -0.215 NA 
ENDBRANCH  20  21
ENDBRANCH   6  20
TORSDOF 2
ENDMDL
MODEL       77
REMARK 921   NORMALIZED FREE ENERGY PREDICTED BY IDOCK:   -4.48 KCAL/MOL
REMARK 922        TOTAL FREE ENERGY PREDICTED BY IDOCK:   -5.66 KCAL/MOL
REMARK 923 INTER-LIGAND FREE ENERGY PREDICTED BY IDOCK:   -5.00 KCAL/MOL
REMARK 924 INTRA-LIGAND FREE ENERGY PREDICTED BY IDOCK:   -0.66 KCAL/MOL
REMARK 927      BINDING AFFINITY PREDICTED BY RF-SCORE:    0.00 PKD
ROOT
HETATM    1  C   UNL     1     -11.030   7.463  67.559  1.00  0.00    -0.106 C  
HETATM    2  O   UNL     1     -10.701   6.226  68.159  1.00  0.00    -0.233 OA 
HETATM    3  C   UNL     1      -9.863   6.171  69.348  1.00  0.00    -0.157 C  
HETATM    4  C   UNL     1     -10.613   6.872  70.534  1.00  0.00    -0.247 A  
HETATM    5  C   UNL     1      -9.708   4.639  69.574  1.00  0.00    -0.278 A  
HETATM    6  C   UNL     1      -8.419   6.795  69.122  1.00  0.00    -0.128 C  
HETATM    7  C   UNL     1      -7.563   6.082  68.080  1.00  0.00    -0.094 C  
HETATM    8  C   UNL     1      -9.605   3.780  68.450  1.00  0.00    -0.172 A  
HETATM    9  C   UNL     1     -12.019   6.909  70.589  1.00  0.00    -0.400 A  
HETATM   10  C   UNL     1      -9.255   2.690  70.970  1.00  0.00    -0.199 A  
HETATM   11  O   UNL     1      -6.844   5.120  68.309  1.00  0.00    -0.053 OA 
HETATM   12  C   UNL     1     -12.694   7.674  71.552  1.00  0.00    -0.373 A  
HETATM   13  C   UNL     1      -9.290   2.427  68.580  1.00  0.00    -0.252 A  
HETATM   14  C   UNL     1      -9.554   4.054  70.840  1.00  0.00    -0.253 A  
HETATM   15  O   UNL     1      -7.598   6.644  66.840  1.00  0.00    -0.091 OA 
HETATM   16  C   UNL     1      -9.929   7.525  71.581  1.00  0.00    -0.200 A  
HETATM   17  C   UNL     1     -11.981   8.398  72.503  1.00  0.00    -0.418 A  
HETATM   18  C   UNL     1      -9.100   1.885  69.842  1.00  0.00    -0.159 A  
HETATM   19  C   UNL     1     -10.598   8.306  72.531  1.00  0.00    -0.407 A  
ENDROOT
BRANCH   6  20
HETATM   20  O   UNL     1      -8.494   8.164  68.664  1.00  0.00    -0.125 OA 
BRANCH  20  21
HETATM   21  C   UNL     1      -7.593   9.027  69.237  1.00  0.00    -0.079 A  
HETATM   22  C   UNL     1      -5.444   9.232  72.184  1.00  0.00    -0.075 C  
HETATM   23  N   UNL     1      -6.934   8.662  70.344  1.00  0.00    -0.040 NA 
HETATM   24  C   UNL     1      -5.973  10.851  70.354  1.00  0.00    -0.134 A  
HETATM   25  C   UNL     1      -6.137   9.594  70.903  1.00  0.00    -0.086 A  
HETATM   26  C   UNL     1      -6.667  11.113  69.189  1.00  0.00    -0.092 A  
HETATM   27  C   UNL     1      -6.573  12.453  68.524  1.00  0.00    -0.073 C  
HETATM   28  N   UNL     1      -7.482  10.204  68.613  1.00  0.00    -0.081 NA 
ENDBRANCH  20  21
ENDBRANCH   6  20
TORSDOF 2
ENDMDL
MODEL       78
REMARK 921   NORMALIZED FREE ENERGY PREDICTED BY IDOCK:   -4.42 KCAL/MOL
REMARK 922        TOTAL FREE ENERGY PREDICTED BY IDOCK:   -5.60 KCAL/MOL
REMARK 923 INTER-LIGAND FREE ENERGY PREDICTED BY IDOCK:   -5.18 KCAL/MOL
REMARK 924 INTRA-LIGAND FREE ENERGY PREDICTED BY IDOCK:   -0.41 KCAL/MOL
REMARK 927      BINDING AFFINITY PREDICTED BY RF-SCORE:    0.00 PKD
ROOT
HETATM    1  C   UNL     1     -10.959   6.861  67.361  1.00  0.00    -0.304 C  
HETATM    2  O   UNL     1     -10.805   8.265  67.407  1.00  0.00    -0.219 OA 
HETATM    3  C   UNL     1      -9.793   8.880  68.254  1.00  0.00    -0.167 C  
HETATM    4  C   UNL     1      -8.373   8.456  67.741  1.00  0.00    -0.130 A  
HETATM    5  C   UNL     1     -10.065  10.399  68.047  1.00  0.00    -0.189 A  
HETATM    6  C   UNL     1      -9.981   8.541  69.795  1.00  0.00    -0.191 C  
HETATM    7  C   UNL     1     -11.280   9.046  70.415  1.00  0.00    -0.241 C  
HETATM    8  C   UNL     1     -11.401  10.849  67.897  1.00  0.00    -0.380 A  
HETATM    9  C   UNL     1      -8.150   8.139  66.388  1.00  0.00    -0.106 A  
HETATM   10  C   UNL     1      -9.390  12.743  68.075  1.00  0.00    -0.213 A  
HETATM   11  O   UNL     1     -11.439  10.161  70.891  1.00  0.00    -0.327 OA 
HETATM   12  C   UNL     1      -6.929   7.600  65.954  1.00  0.00    -0.061 A  
HETATM   13  C   UNL     1     -11.726  12.206  67.883  1.00  0.00    -0.403 A  
HETATM   14  C   UNL     1      -9.063  11.379  68.106  1.00  0.00    -0.174 A  
HETATM   15  O   UNL     1     -12.278   8.120  70.466  1.00  0.00     0.005 OA 
HETATM   16  C   UNL     1      -7.261   8.338  68.602  1.00  0.00    -0.087 A  
HETATM   17  C   UNL     1      -5.890   7.392  66.856  1.00  0.00    -0.034 A  
HETATM   18  C   UNL     1     -10.719  13.154  67.988  1.00  0.00    -0.248 A  
HETATM   19  C   UNL     1      -6.050   7.783  68.177  1.00  0.00    -0.041 A  
ENDROOT
BRANCH   6  20
HETATM   20  O   UNL     1      -9.988   7.116  70.032  1.00  0.00    -0.178 OA 
BRANCH  20  21
HETATM   21  C   UNL     1      -9.709   6.731  71.320  1.00  0.00    -0.172 A  
HETATM   22  C   UNL     1     -10.929   4.372  73.829  1.00  0.00    -0.357 C  
HETATM   23  N   UNL     1     -10.388   5.718  71.873  1.00  0.00    -0.208 NA 
HETATM   24  C   UNL     1      -9.189   6.166  73.891  1.00  0.00    -0.136 A  
HETATM   25  C   UNL     1     -10.128   5.456  73.169  1.00  0.00    -0.181 A  
HETATM   26  C   UNL     1      -8.515   7.166  73.217  1.00  0.00    -0.122 A  
HETATM   27  C   UNL     1      -7.489   8.007  73.915  1.00  0.00    -0.207 C  
HETATM   28  N   UNL     1      -8.763   7.457  71.923  1.00  0.00    -0.114 NA 
ENDBRANCH  20  21
ENDBRANCH   6  20
TORSDOF 2
ENDMDL
MODEL       79
REMARK 921   NORMALIZED FREE ENERGY PREDICTED BY IDOCK:   -4.37 KCAL/MOL
REMARK 922        TOTAL FREE ENERGY PREDICTED BY IDOCK:   -5.53 KCAL/MOL
REMARK 923 INTER-LIGAND FREE ENERGY PREDICTED BY IDOCK:   -5.46 KCAL/MOL
REMARK 924 INTRA-LIGAND FREE ENERGY PREDICTED BY IDOCK:   -0.07 KCAL/MOL
REMARK 927      BINDING AFFINITY PREDICTED BY RF-SCORE:    0.00 PKD
ROOT
HETATM    1  C   UNL     1     -11.344   6.066  69.053  1.00  0.00    -0.071 C  
HETATM    2  O   UNL     1     -10.696   6.110  70.309  1.00  0.00    -0.243 OA 
HETATM    3  C   UNL     1     -10.027   7.320  70.764  1.00  0.00    -0.186 C  
HETATM    4  C   UNL     1     -11.095   8.451  70.957  1.00  0.00    -0.298 A  
HETATM    5  C   UNL     1      -9.402   6.864  72.115  1.00  0.00    -0.147 A  
HETATM    6  C   UNL     1      -8.854   7.784  69.798  1.00  0.00    -0.139 C  
HETATM    7  C   UNL     1      -7.698   6.798  69.664  1.00  0.00    -0.110 C  
HETATM    8  C   UNL     1      -8.895   5.545  72.235  1.00  0.00    -0.132 A  
HETATM    9  C   UNL     1     -12.432   8.147  71.279  1.00  0.00    -0.269 A  
HETATM   10  C   UNL     1      -8.493   7.300  74.336  1.00  0.00    -0.238 A  
HETATM   11  O   UNL     1      -6.733   6.749  70.414  1.00  0.00    -0.053 OA 
HETATM   12  C   UNL     1     -13.426   9.137  71.288  1.00  0.00    -0.283 A  
HETATM   13  C   UNL     1      -8.169   5.131  73.351  1.00  0.00    -0.111 A  
HETATM   14  C   UNL     1      -9.209   7.724  73.208  1.00  0.00    -0.318 A  
HETATM   15  O   UNL     1      -7.776   5.982  68.577  1.00  0.00    -0.092 OA 
HETATM   16  C   UNL     1     -10.789   9.818  70.788  1.00  0.00    -0.403 A  
HETATM   17  C   UNL     1     -13.105  10.462  71.005  1.00  0.00    -0.450 A  
HETATM   18  C   UNL     1      -7.955   6.016  74.398  1.00  0.00    -0.105 A  
HETATM   19  C   UNL     1     -11.781  10.805  70.776  1.00  0.00    -0.400 A  
ENDROOT
BRANCH   6  20
HETATM   20  O   UNL     1      -9.324   7.989  68.447  1.00  0.00    -0.139 OA 
BRANCH  20  21
HETATM   21  C   UNL     1      -9.084   9.234  67.921  1.00  0.00    -0.127 A  
HETATM   22  C   UNL     1      -6.324  11.146  66.482  1.00  0.00    -0.132 C  
HETATM   23  N   UNL     1      -7.880   9.518  67.407  1.00  0.00    -0.102 NA 
HETATM   24  C   UNL     1      -8.680  11.744  67.063  1.00  0.00    -0.181 A  
HETATM   25  C   UNL     1      -7.687  10.787  66.996  1.00  0.00    -0.121 A  
HETATM   26  C   UNL     1      -9.898  11.338  67.574  1.00  0.00    -0.178 A  
HETATM   27  C   UNL     1     -11.036  12.305  67.707  1.00  0.00    -0.274 C  
HETATM   28  N   UNL     1     -10.117  10.078  68.004  1.00  0.00    -0.160 NA 
ENDBRANCH  20  21
ENDBRANCH   6  20
TORSDOF 2
ENDMDL
MODEL       80
REMARK 921   NORMALIZED FREE ENERGY PREDICTED BY IDOCK:   -4.36 KCAL/MOL
REMARK 922        TOTAL FREE ENERGY PREDICTED BY IDOCK:   -5.53 KCAL/MOL
REMARK 923 INTER-LIGAND FREE ENERGY PREDICTED BY IDOCK:   -5.14 KCAL/MOL
REMARK 924 INTRA-LIGAND FREE ENERGY PREDICTED BY IDOCK:   -0.39 KCAL/MOL
REMARK 927      BINDING AFFINITY PREDICTED BY RF-SCORE:    0.00 PKD
ROOT
HETATM    1  C   UNL     1      -6.413   5.553  67.823  1.00  0.00    -0.048 C  
HETATM    2  O   UNL     1      -7.149   4.860  66.835  1.00  0.00    -0.069 OA 
HETATM    3  C   UNL     1      -8.605   4.897  66.824  1.00  0.00    -0.108 C  
HETATM    4  C   UNL     1      -9.075   6.367  66.549  1.00  0.00    -0.162 A  
HETATM    5  C   UNL     1      -8.951   3.939  65.647  1.00  0.00    -0.133 A  
HETATM    6  C   UNL     1      -9.253   4.317  68.153  1.00  0.00    -0.142 C  
HETATM    7  C   UNL     1      -8.962   2.845  68.426  1.00  0.00    -0.143 C  
HETATM    8  C   UNL     1      -8.152   2.786  65.434  1.00  0.00    -0.087 A  
HETATM    9  C   UNL     1      -8.279   7.262  65.808  1.00  0.00    -0.135 A  
HETATM   10  C   UNL     1     -10.434   3.103  63.900  1.00  0.00    -0.189 A  
HETATM   11  O   UNL     1      -9.620   1.912  67.987  1.00  0.00    -0.188 OA 
HETATM   12  C   UNL     1      -8.613   8.621  65.700  1.00  0.00    -0.191 A  
HETATM   13  C   UNL     1      -8.509   1.799  64.514  1.00  0.00    -0.085 A  
HETATM   14  C   UNL     1     -10.086   4.088  64.836  1.00  0.00    -0.214 A  
HETATM   15  O   UNL     1      -7.919   2.623  69.273  1.00  0.00    -0.045 OA 
HETATM   16  C   UNL     1     -10.290   6.880  67.050  1.00  0.00    -0.348 A  
HETATM   17  C   UNL     1      -9.765   9.114  66.305  1.00  0.00    -0.344 A  
HETATM   18  C   UNL     1      -9.661   1.952  63.756  1.00  0.00    -0.126 A  
HETATM   19  C   UNL     1     -10.616   8.238  66.962  1.00  0.00    -0.328 A  
ENDROOT
BRANCH   6  20
HETATM   20  O   UNL     1      -8.776   5.011  69.328  1.00  0.00    -0.090 OA 
BRANCH  20  21
HETATM   21  C   UNL     1      -9.716   5.234  70.303  1.00  0.00    -0.195 A  
HETATM   22  C   UNL     1     -12.307   7.666  71.146  1.00  0.00    -0.293 C  
HETATM   23  N   UNL     1     -10.565   6.262  70.186  1.00  0.00    -0.227 NA 
HETATM   24  C   UNL     1     -11.405   5.664  72.342  1.00  0.00    -0.327 A  
HETATM   25  C   UNL     1     -11.396   6.476  71.225  1.00  0.00    -0.303 A  
HETATM   26  C   UNL     1     -10.517   4.607  72.347  1.00  0.00    -0.185 A  
HETATM   27  C   UNL     1     -10.434   3.678  73.521  1.00  0.00    -0.261 C  
HETATM   28  N   UNL     1      -9.665   4.375  71.327  1.00  0.00    -0.172 NA 
ENDBRANCH  20  21
ENDBRANCH   6  20
TORSDOF 2
ENDMDL
MODEL       81
REMARK 921   NORMALIZED FREE ENERGY PREDICTED BY IDOCK:   -4.36 KCAL/MOL
REMARK 922        TOTAL FREE ENERGY PREDICTED BY IDOCK:   -5.53 KCAL/MOL
REMARK 923 INTER-LIGAND FREE ENERGY PREDICTED BY IDOCK:   -5.03 KCAL/MOL
REMARK 924 INTRA-LIGAND FREE ENERGY PREDICTED BY IDOCK:   -0.50 KCAL/MOL
REMARK 927      BINDING AFFINITY PREDICTED BY RF-SCORE:    0.00 PKD
ROOT
HETATM    1  C   UNL     1      -6.795  10.850  65.984  1.00  0.00    -0.072 C  
HETATM    2  O   UNL     1      -7.786  11.713  66.505  1.00  0.00    -0.123 OA 
HETATM    3  C   UNL     1      -8.805  11.217  67.419  1.00  0.00    -0.145 C  
HETATM    4  C   UNL     1      -8.114  10.746  68.745  1.00  0.00    -0.143 A  
HETATM    5  C   UNL     1      -9.697  12.474  67.635  1.00  0.00    -0.196 A  
HETATM    6  C   UNL     1      -9.701  10.066  66.788  1.00  0.00    -0.189 C  
HETATM    7  C   UNL     1     -10.523  10.480  65.571  1.00  0.00    -0.150 C  
HETATM    8  C   UNL     1      -9.921  13.360  66.550  1.00  0.00    -0.286 A  
HETATM    9  C   UNL     1      -6.905  11.320  69.183  1.00  0.00    -0.109 A  
HETATM   10  C   UNL     1     -11.307  13.795  68.905  1.00  0.00    -0.328 A  
HETATM   11  O   UNL     1     -11.635  10.985  65.620  1.00  0.00     0.145 OA 
HETATM   12  C   UNL     1      -6.197  10.793  70.273  1.00  0.00    -0.146 A  
HETATM   13  C   UNL     1     -10.846  14.402  66.625  1.00  0.00    -0.304 A  
HETATM   14  C   UNL     1     -10.391  12.736  68.826  1.00  0.00    -0.136 A  
HETATM   15  O   UNL     1      -9.946  10.184  64.374  1.00  0.00    -0.314 OA 
HETATM   16  C   UNL     1      -8.640   9.711  69.547  1.00  0.00    -0.177 A  
HETATM   17  C   UNL     1      -6.693   9.696  70.972  1.00  0.00    -0.020 A  
HETATM   18  C   UNL     1     -11.550  14.610  67.801  1.00  0.00    -0.382 A  
HETATM   19  C   UNL     1      -7.927   9.169  70.621  1.00  0.00    -0.177 A  
ENDROOT
BRANCH   6  20
HETATM   20  O   UNL     1      -8.899   8.954  66.332  1.00  0.00    -0.138 OA 
BRANCH  20  21
HETATM   21  C   UNL     1      -9.379   7.709  66.656  1.00  0.00    -0.190 A  
HETATM   22  C   UNL     1      -9.530   4.347  65.237  1.00  0.00    -0.172 C  
HETATM   23  N   UNL     1      -9.143   6.673  65.841  1.00  0.00    -0.088 NA 
HETATM   24  C   UNL     1     -10.495   5.359  67.310  1.00  0.00    -0.274 A  
HETATM   25  C   UNL     1      -9.723   5.503  66.173  1.00  0.00    -0.123 A  
HETATM   26  C   UNL     1     -10.644   6.479  68.104  1.00  0.00    -0.251 A  
HETATM   27  C   UNL     1     -11.478   6.433  69.349  1.00  0.00    -0.374 C  
HETATM   28  N   UNL     1     -10.085   7.666  67.789  1.00  0.00    -0.174 NA 
ENDBRANCH  20  21
ENDBRANCH   6  20
TORSDOF 2
ENDMDL
MODEL       82
REMARK 921   NORMALIZED FREE ENERGY PREDICTED BY IDOCK:   -4.36 KCAL/MOL
REMARK 922        TOTAL FREE ENERGY PREDICTED BY IDOCK:   -5.52 KCAL/MOL
REMARK 923 INTER-LIGAND FREE ENERGY PREDICTED BY IDOCK:   -4.87 KCAL/MOL
REMARK 924 INTRA-LIGAND FREE ENERGY PREDICTED BY IDOCK:   -0.66 KCAL/MOL
REMARK 927      BINDING AFFINITY PREDICTED BY RF-SCORE:    0.00 PKD
ROOT
HETATM    1  C   UNL     1     -12.411   6.625  70.552  1.00  0.00    -0.023 C  
HETATM    2  O   UNL     1     -11.341   6.902  71.434  1.00  0.00    -0.249 OA 
HETATM    3  C   UNL     1     -10.070   7.404  70.934  1.00  0.00    -0.188 C  
HETATM    4  C   UNL     1     -10.294   8.823  70.305  1.00  0.00    -0.227 A  
HETATM    5  C   UNL     1      -9.205   7.463  72.227  1.00  0.00    -0.162 A  
HETATM    6  C   UNL     1      -9.371   6.415  69.905  1.00  0.00    -0.151 C  
HETATM    7  C   UNL     1      -8.986   5.054  70.477  1.00  0.00    -0.125 C  
HETATM    8  C   UNL     1      -9.365   6.457  73.214  1.00  0.00    -0.140 A  
HETATM    9  C   UNL     1     -11.327   9.666  70.756  1.00  0.00    -0.409 A  
HETATM   10  C   UNL     1      -7.332   8.306  73.543  1.00  0.00    -0.168 A  
HETATM   11  O   UNL     1      -7.934   4.811  71.051  1.00  0.00    -0.080 OA 
HETATM   12  C   UNL     1     -11.639  10.862  70.090  1.00  0.00    -0.425 A  
HETATM   13  C   UNL     1      -8.506   6.352  74.308  1.00  0.00    -0.136 A  
HETATM   14  C   UNL     1      -8.185   8.404  72.434  1.00  0.00    -0.202 A  
HETATM   15  O   UNL     1      -9.896   4.067  70.243  1.00  0.00    -0.201 OA 
HETATM   16  C   UNL     1      -9.504   9.315  69.245  1.00  0.00    -0.160 A  
HETATM   17  C   UNL     1     -10.907  11.259  68.975  1.00  0.00    -0.268 A  
HETATM   18  C   UNL     1      -7.478   7.270  74.464  1.00  0.00    -0.143 A  
HETATM   19  C   UNL     1      -9.824  10.495  68.566  1.00  0.00    -0.175 A  
ENDROOT
BRANCH   6  20
HETATM   20  O   UNL     1     -10.230   6.115  68.783  1.00  0.00    -0.156 OA 
BRANCH  20  21
HETATM   21  C   UNL     1      -9.587   5.891  67.591  1.00  0.00    -0.111 A  
HETATM   22  C   UNL     1      -6.908   7.341  65.576  1.00  0.00    -0.052 C  
HETATM   23  N   UNL     1      -8.548   6.660  67.241  1.00  0.00    -0.119 NA 
HETATM   24  C   UNL     1      -8.505   5.461  65.174  1.00  0.00    -0.150 A  
HETATM   25  C   UNL     1      -8.026   6.444  66.017  1.00  0.00    -0.115 A  
HETATM   26  C   UNL     1      -9.554   4.696  65.646  1.00  0.00    -0.182 A  
HETATM   27  C   UNL     1     -10.159   3.616  64.801  1.00  0.00    -0.133 C  
HETATM   28  N   UNL     1     -10.104   4.898  66.862  1.00  0.00    -0.216 NA 
ENDBRANCH  20  21
ENDBRANCH   6  20
TORSDOF 2
ENDMDL
MODEL       83
REMARK 921   NORMALIZED FREE ENERGY PREDICTED BY IDOCK:   -4.34 KCAL/MOL
REMARK 922        TOTAL FREE ENERGY PREDICTED BY IDOCK:   -5.50 KCAL/MOL
REMARK 923 INTER-LIGAND FREE ENERGY PREDICTED BY IDOCK:   -4.95 KCAL/MOL
REMARK 924 INTRA-LIGAND FREE ENERGY PREDICTED BY IDOCK:   -0.54 KCAL/MOL
REMARK 927      BINDING AFFINITY PREDICTED BY RF-SCORE:    0.00 PKD
ROOT
HETATM    1  C   UNL     1      -6.216   7.798  66.198  1.00  0.00    -0.045 C  
HETATM    2  O   UNL     1      -6.364   7.570  67.585  1.00  0.00    -0.049 OA 
HETATM    3  C   UNL     1      -7.626   7.844  68.258  1.00  0.00    -0.116 C  
HETATM    4  C   UNL     1      -8.725   6.879  67.693  1.00  0.00    -0.120 A  
HETATM    5  C   UNL     1      -7.281   7.537  69.745  1.00  0.00    -0.080 A  
HETATM    6  C   UNL     1      -8.072   9.365  68.149  1.00  0.00    -0.110 C  
HETATM    7  C   UNL     1      -7.125  10.366  68.802  1.00  0.00    -0.074 C  
HETATM    8  C   UNL     1      -5.993   7.864  70.240  1.00  0.00    -0.029 A  
HETATM    9  C   UNL     1      -8.391   5.613  67.179  1.00  0.00    -0.104 A  
HETATM   10  C   UNL     1      -7.891   6.945  72.032  1.00  0.00    -0.095 A  
HETATM   11  O   UNL     1      -7.161  10.694  69.980  1.00  0.00    -0.158 OA 
HETATM   12  C   UNL     1      -9.341   4.816  66.521  1.00  0.00    -0.145 A  
HETATM   13  C   UNL     1      -5.678   7.778  71.597  1.00  0.00    -0.035 A  
HETATM   14  C   UNL     1      -8.215   7.047  70.671  1.00  0.00    -0.119 A  
HETATM   15  O   UNL     1      -6.238  10.946  67.946  1.00  0.00    -0.053 OA 
HETATM   16  C   UNL     1     -10.089   7.235  67.639  1.00  0.00    -0.232 A  
HETATM   17  C   UNL     1     -10.656   5.252  66.388  1.00  0.00    -0.338 A  
HETATM   18  C   UNL     1      -6.635   7.332  72.496  1.00  0.00    -0.055 A  
HETATM   19  C   UNL     1     -11.035   6.454  66.967  1.00  0.00    -0.463 A  
ENDROOT
BRANCH   6  20
HETATM   20  O   UNL     1      -8.172   9.795  66.773  1.00  0.00    -0.119 OA 
BRANCH  20  21
HETATM   21  C   UNL     1      -9.278  10.550  66.470  1.00  0.00    -0.161 A  
HETATM   22  C   UNL     1     -10.784  12.222  63.593  1.00  0.00    -0.513 C  
HETATM   23  N   UNL     1      -9.504  10.920  65.203  1.00  0.00    -0.215 NA 
HETATM   24  C   UNL     1     -11.382  12.153  66.019  1.00  0.00    -0.410 A  
HETATM   25  C   UNL     1     -10.554  11.738  64.994  1.00  0.00    -0.288 A  
HETATM   26  C   UNL     1     -11.085  11.683  67.284  1.00  0.00    -0.290 A  
HETATM   27  C   UNL     1     -11.910  12.089  68.468  1.00  0.00    -0.369 C  
HETATM   28  N   UNL     1     -10.033  10.873  67.525  1.00  0.00    -0.172 NA 
ENDBRANCH  20  21
ENDBRANCH   6  20
TORSDOF 2
ENDMDL
MODEL       84
REMARK 921   NORMALIZED FREE ENERGY PREDICTED BY IDOCK:   -4.33 KCAL/MOL
REMARK 922        TOTAL FREE ENERGY PREDICTED BY IDOCK:   -5.49 KCAL/MOL
REMARK 923 INTER-LIGAND FREE ENERGY PREDICTED BY IDOCK:   -4.85 KCAL/MOL
REMARK 924 INTRA-LIGAND FREE ENERGY PREDICTED BY IDOCK:   -0.64 KCAL/MOL
REMARK 927      BINDING AFFINITY PREDICTED BY RF-SCORE:    0.00 PKD
ROOT
HETATM    1  C   UNL     1      -8.488   4.534  67.698  1.00  0.00    -0.103 C  
HETATM    2  O   UNL     1      -8.017   5.744  67.139  1.00  0.00    -0.101 OA 
HETATM    3  C   UNL     1      -8.087   6.991  67.886  1.00  0.00    -0.115 C  
HETATM    4  C   UNL     1      -7.163   6.883  69.147  1.00  0.00    -0.090 A  
HETATM    5  C   UNL     1      -7.555   8.027  66.852  1.00  0.00    -0.095 A  
HETATM    6  C   UNL     1      -9.571   7.396  68.284  1.00  0.00    -0.150 C  
HETATM    7  C   UNL     1     -10.507   7.661  67.109  1.00  0.00    -0.342 C  
HETATM    8  C   UNL     1      -7.877   7.866  65.481  1.00  0.00    -0.112 A  
HETATM    9  C   UNL     1      -6.027   6.051  69.151  1.00  0.00    -0.024 A  
HETATM   10  C   UNL     1      -6.542  10.164  66.254  1.00  0.00    -0.094 A  
HETATM   11  O   UNL     1     -10.626   8.738  66.542  1.00  0.00    -0.196 OA 
HETATM   12  C   UNL     1      -5.293   5.820  70.324  1.00  0.00    -0.009 A  
HETATM   13  C   UNL     1      -7.583   8.846  64.532  1.00  0.00    -0.109 A  
HETATM   14  C   UNL     1      -6.853   9.188  67.212  1.00  0.00    -0.077 A  
HETATM   15  O   UNL     1     -11.282   6.599  66.754  1.00  0.00    -0.333 OA 
HETATM   16  C   UNL     1      -7.431   7.579  70.345  1.00  0.00    -0.081 A  
HETATM   17  C   UNL     1      -5.657   6.439  71.517  1.00  0.00    -0.027 A  
HETATM   18  C   UNL     1      -6.927  10.004  64.924  1.00  0.00    -0.136 A  
HETATM   19  C   UNL     1      -6.714   7.336  71.521  1.00  0.00    -0.051 A  
ENDROOT
BRANCH   6  20
HETATM   20  O   UNL     1     -10.222   6.355  69.047  1.00  0.00    -0.162 OA 
BRANCH  20  21
HETATM   21  C   UNL     1     -10.767   6.754  70.243  1.00  0.00    -0.244 A  
HETATM   22  C   UNL     1     -12.386   9.683  71.707  1.00  0.00    -0.474 C  
HETATM   23  N   UNL     1     -11.357   7.952  70.338  1.00  0.00    -0.238 NA 
HETATM   24  C   UNL     1     -11.659   7.490  72.663  1.00  0.00    -0.331 A  
HETATM   25  C   UNL     1     -11.786   8.315  71.563  1.00  0.00    -0.292 A  
HETATM   26  C   UNL     1     -11.071   6.258  72.450  1.00  0.00    -0.270 A  
HETATM   27  C   UNL     1     -10.870   5.297  73.582  1.00  0.00    -0.347 C  
HETATM   28  N   UNL     1     -10.622   5.873  71.237  1.00  0.00    -0.242 NA 
ENDBRANCH  20  21
ENDBRANCH   6  20
TORSDOF 2
ENDMDL
MODEL       85
REMARK 921   NORMALIZED FREE ENERGY PREDICTED BY IDOCK:   -4.27 KCAL/MOL
REMARK 922        TOTAL FREE ENERGY PREDICTED BY IDOCK:   -5.43 KCAL/MOL
REMARK 923 INTER-LIGAND FREE ENERGY PREDICTED BY IDOCK:   -4.77 KCAL/MOL
REMARK 924 INTRA-LIGAND FREE ENERGY PREDICTED BY IDOCK:   -0.65 KCAL/MOL
REMARK 927      BINDING AFFINITY PREDICTED BY RF-SCORE:    0.00 PKD
ROOT
HETATM    1  C   UNL     1     -11.844   6.471  70.178  1.00  0.00    -0.264 C  
HETATM    2  O   UNL     1     -11.122   6.950  69.061  1.00  0.00    -0.205 OA 
HETATM    3  C   UNL     1      -9.677   7.123  69.122  1.00  0.00    -0.158 C  
HETATM    4  C   UNL     1      -9.004   5.720  69.315  1.00  0.00    -0.122 A  
HETATM    5  C   UNL     1      -9.359   7.742  67.730  1.00  0.00    -0.155 A  
HETATM    6  C   UNL     1      -9.220   8.149  70.246  1.00  0.00    -0.151 C  
HETATM    7  C   UNL     1      -9.716   9.579  70.057  1.00  0.00    -0.236 C  
HETATM    8  C   UNL     1     -10.277   8.655  67.151  1.00  0.00    -0.353 A  
HETATM    9  C   UNL     1      -9.615   4.545  68.840  1.00  0.00    -0.235 A  
HETATM   10  C   UNL     1      -7.854   8.245  65.877  1.00  0.00    -0.093 A  
HETATM   11  O   UNL     1      -9.148  10.432  69.389  1.00  0.00    -0.196 OA 
HETATM   12  C   UNL     1      -9.104   3.276  69.154  1.00  0.00    -0.207 A  
HETATM   13  C   UNL     1      -9.973   9.376  65.996  1.00  0.00    -0.352 A  
HETATM   14  C   UNL     1      -8.151   7.532  67.047  1.00  0.00    -0.117 A  
HETATM   15  O   UNL     1     -10.845   9.881  70.756  1.00  0.00    -0.309 OA 
HETATM   16  C   UNL     1      -7.779   5.556  69.996  1.00  0.00    -0.078 A  
HETATM   17  C   UNL     1      -7.953   3.150  69.926  1.00  0.00    -0.054 A  
HETATM   18  C   UNL     1      -8.752   9.181  65.367  1.00  0.00    -0.217 A  
HETATM   19  C   UNL     1      -7.278   4.293  70.329  1.00  0.00    -0.045 A  
ENDROOT
BRANCH   6  20
HETATM   20  O   UNL     1      -9.701   7.761  71.552  1.00  0.00    -0.160 OA 
BRANCH  20  21
HETATM   21  C   UNL     1      -8.729   7.537  72.496  1.00  0.00    -0.128 A  
HETATM   22  C   UNL     1      -5.785   9.196  73.883  1.00  0.00    -0.059 C  
HETATM   23  N   UNL     1      -7.827   8.491  72.759  1.00  0.00    -0.353 NA 
HETATM   24  C   UNL     1      -6.786   6.934  74.245  1.00  0.00    -0.086 A  
HETATM   25  C   UNL     1      -6.847   8.168  73.627  1.00  0.00    -0.122 A  
HETATM   26  C   UNL     1      -7.788   6.035  73.934  1.00  0.00    -0.098 A  
HETATM   27  C   UNL     1      -7.803   4.662  74.536  1.00  0.00    -0.095 C  
HETATM   28  N   UNL     1      -8.774   6.327  73.060  1.00  0.00    -0.125 NA 
ENDBRANCH  20  21
ENDBRANCH   6  20
TORSDOF 2
ENDMDL
MODEL       86
REMARK 921   NORMALIZED FREE ENERGY PREDICTED BY IDOCK:   -4.24 KCAL/MOL
REMARK 922        TOTAL FREE ENERGY PREDICTED BY IDOCK:   -5.39 KCAL/MOL
REMARK 923 INTER-LIGAND FREE ENERGY PREDICTED BY IDOCK:   -4.80 KCAL/MOL
REMARK 924 INTRA-LIGAND FREE ENERGY PREDICTED BY IDOCK:   -0.59 KCAL/MOL
REMARK 927      BINDING AFFINITY PREDICTED BY RF-SCORE:    0.00 PKD
ROOT
HETATM    1  C   UNL     1     -10.908   9.614  68.899  1.00  0.00    -0.174 C  
HETATM    2  O   UNL     1      -9.771  10.452  68.852  1.00  0.00    -0.179 OA 
HETATM    3  C   UNL     1      -8.954  10.538  67.649  1.00  0.00    -0.138 C  
HETATM    4  C   UNL     1      -9.812  11.157  66.493  1.00  0.00    -0.242 A  
HETATM    5  C   UNL     1      -7.802  11.483  68.099  1.00  0.00    -0.128 A  
HETATM    6  C   UNL     1      -8.324   9.142  67.225  1.00  0.00    -0.121 C  
HETATM    7  C   UNL     1      -7.359   8.533  68.237  1.00  0.00    -0.094 C  
HETATM    8  C   UNL     1      -7.311  11.395  69.426  1.00  0.00     0.012 A  
HETATM    9  C   UNL     1     -10.872  12.043  66.764  1.00  0.00    -0.307 A  
HETATM   10  C   UNL     1      -5.998  13.063  67.650  1.00  0.00    -0.145 A  
HETATM   11  O   UNL     1      -6.162   8.780  68.295  1.00  0.00    -0.052 OA 
HETATM   12  C   UNL     1     -11.747  12.469  65.753  1.00  0.00    -0.478 A  
HETATM   13  C   UNL     1      -6.170  12.085  69.840  1.00  0.00    -0.130 A  
HETATM   14  C   UNL     1      -7.134  12.358  67.227  1.00  0.00    -0.128 A  
HETATM   15  O   UNL     1      -7.920   7.611  69.067  1.00  0.00    -0.117 OA 
HETATM   16  C   UNL     1      -9.595  10.840  65.135  1.00  0.00    -0.295 A  
HETATM   17  C   UNL     1     -11.567  12.043  64.440  1.00  0.00    -0.411 A  
HETATM   18  C   UNL     1      -5.505  12.909  68.945  1.00  0.00    -0.071 A  
HETATM   19  C   UNL     1     -10.477  11.245  64.128  1.00  0.00    -0.431 A  
ENDROOT
BRANCH   6  20
HETATM   20  O   UNL     1      -9.340   8.134  67.030  1.00  0.00    -0.140 OA 
BRANCH  20  21
HETATM   21  C   UNL     1      -9.033   7.157  66.115  1.00  0.00    -0.140 A  
HETATM   22  C   UNL     1      -9.453   3.556  65.666  1.00  0.00    -0.142 C  
HETATM   23  N   UNL     1      -9.461   5.904  66.312  1.00  0.00    -0.156 NA 
HETATM   24  C   UNL     1      -8.246   5.301  64.344  1.00  0.00    -0.135 A  
HETATM   25  C   UNL     1      -9.044   4.979  65.424  1.00  0.00    -0.154 A  
HETATM   26  C   UNL     1      -7.893   6.630  64.209  1.00  0.00    -0.115 A  
HETATM   27  C   UNL     1      -7.013   7.080  63.082  1.00  0.00    -0.058 C  
HETATM   28  N   UNL     1      -8.285   7.574  65.089  1.00  0.00    -0.135 NA 
ENDBRANCH  20  21
ENDBRANCH   6  20
TORSDOF 2
ENDMDL
MODEL       87
REMARK 921   NORMALIZED FREE ENERGY PREDICTED BY IDOCK:   -4.24 KCAL/MOL
REMARK 922        TOTAL FREE ENERGY PREDICTED BY IDOCK:   -5.39 KCAL/MOL
REMARK 923 INTER-LIGAND FREE ENERGY PREDICTED BY IDOCK:   -4.73 KCAL/MOL
REMARK 924 INTRA-LIGAND FREE ENERGY PREDICTED BY IDOCK:   -0.66 KCAL/MOL
REMARK 927      BINDING AFFINITY PREDICTED BY RF-SCORE:    0.00 PKD
ROOT
HETATM    1  C   UNL     1     -10.938   7.586  73.227  1.00  0.00    -0.309 C  
HETATM    2  O   UNL     1     -10.307   6.373  72.867  1.00  0.00    -0.191 OA 
HETATM    3  C   UNL     1      -9.255   6.347  71.860  1.00  0.00    -0.149 C  
HETATM    4  C   UNL     1      -8.025   7.163  72.388  1.00  0.00    -0.102 A  
HETATM    5  C   UNL     1      -8.947   4.826  71.743  1.00  0.00    -0.154 A  
HETATM    6  C   UNL     1      -9.739   6.874  70.441  1.00  0.00    -0.172 C  
HETATM    7  C   UNL     1     -10.843   6.049  69.787  1.00  0.00    -0.363 C  
HETATM    8  C   UNL     1     -10.009   3.893  71.852  1.00  0.00    -0.238 A  
HETATM    9  C   UNL     1      -7.763   7.281  73.766  1.00  0.00    -0.128 A  
HETATM   10  C   UNL     1      -7.499   2.948  71.171  1.00  0.00    -0.033 A  
HETATM   11  O   UNL     1     -10.656   5.065  69.086  1.00  0.00    -0.121 OA 
HETATM   12  C   UNL     1      -6.766   8.142  74.250  1.00  0.00    -0.153 A  
HETATM   13  C   UNL     1      -9.832   2.535  71.583  1.00  0.00    -0.216 A  
HETATM   14  C   UNL     1      -7.679   4.315  71.424  1.00  0.00    -0.072 A  
HETATM   15  O   UNL     1     -12.101   6.532  69.986  1.00  0.00    -0.282 OA 
HETATM   16  C   UNL     1      -7.140   7.842  71.523  1.00  0.00    -0.065 A  
HETATM   17  C   UNL     1      -5.986   8.885  73.369  1.00  0.00    -0.050 A  
HETATM   18  C   UNL     1      -8.576   2.065  71.227  1.00  0.00    -0.093 A  
HETATM   19  C   UNL     1      -6.159   8.717  72.003  1.00  0.00    -0.073 A  
ENDROOT
BRANCH   6  20
HETATM   20  O   UNL     1     -10.276   8.213  70.523  1.00  0.00    -0.195 OA 
BRANCH  20  21
HETATM   21  C   UNL     1     -10.039   9.011  69.431  1.00  0.00    -0.198 A  
HETATM   22  C   UNL     1      -7.510   9.471  66.836  1.00  0.00    -0.094 C  
HETATM   23  N   UNL     1      -8.966   8.785  68.663  1.00  0.00    -0.138 NA 
HETATM   24  C   UNL     1      -9.593  10.726  67.417  1.00  0.00    -0.179 A  
HETATM   25  C   UNL     1      -8.745   9.664  67.665  1.00  0.00    -0.126 A  
HETATM   26  C   UNL     1     -10.693  10.847  68.243  1.00  0.00    -0.204 A  
HETATM   27  C   UNL     1     -11.664  11.976  68.069  1.00  0.00    -0.398 C  
HETATM   28  N   UNL     1     -10.933   9.989  69.257  1.00  0.00    -0.229 NA 
ENDBRANCH  20  21
ENDBRANCH   6  20
TORSDOF 2
ENDMDL
MODEL       88
REMARK 921   NORMALIZED FREE ENERGY PREDICTED BY IDOCK:   -4.24 KCAL/MOL
REMARK 922        TOTAL FREE ENERGY PREDICTED BY IDOCK:   -5.39 KCAL/MOL
REMARK 923 INTER-LIGAND FREE ENERGY PREDICTED BY IDOCK:   -5.43 KCAL/MOL
REMARK 924 INTRA-LIGAND FREE ENERGY PREDICTED BY IDOCK:    0.04 KCAL/MOL
REMARK 927      BINDING AFFINITY PREDICTED BY RF-SCORE:    0.00 PKD
ROOT
HETATM    1  C   UNL     1      -8.715  15.012  69.948  1.00  0.00     0.276 C  
HETATM    2  O   UNL     1      -9.017  14.230  68.810  1.00  0.00    -0.173 OA 
HETATM    3  C   UNL     1      -9.345  14.856  67.537  1.00  0.00    -0.193 C  
HETATM    4  C   UNL     1      -8.092  15.641  67.017  1.00  0.00    -0.276 A  
HETATM    5  C   UNL     1      -9.685  13.628  66.642  1.00  0.00    -0.287 A  
HETATM    6  C   UNL     1     -10.628  15.791  67.616  1.00  0.00    -0.301 C  
HETATM    7  C   UNL     1     -11.927  15.078  67.978  1.00  0.00    -0.138 C  
HETATM    8  C   UNL     1     -10.356  12.517  67.214  1.00  0.00    -0.228 A  
HETATM    9  C   UNL     1      -6.786  15.243  67.360  1.00  0.00    -0.188 A  
HETATM   10  C   UNL     1      -9.934  12.529  64.479  1.00  0.00    -0.195 A  
HETATM   11  O   UNL     1     -12.672  14.536  67.175  1.00  0.00     0.169 OA 
HETATM   12  C   UNL     1      -5.672  16.033  67.039  1.00  0.00     0.182 A  
HETATM   13  C   UNL     1     -10.843  11.467  66.435  1.00  0.00    -0.323 A  
HETATM   14  C   UNL     1      -9.459  13.594  65.257  1.00  0.00     0.314 A  
HETATM   15  O   UNL     1     -12.254  15.138  69.299  1.00  0.00    -0.262 OA 
HETATM   16  C   UNL     1      -8.202  16.795  66.213  1.00  0.00    -0.359 A  
HETATM   17  C   UNL     1      -5.831  17.226  66.340  1.00  0.00    -0.222 A  
HETATM   18  C   UNL     1     -10.644  11.481  65.063  1.00  0.00    -0.354 A  
HETATM   19  C   UNL     1      -7.096  17.596  65.908  1.00  0.00    -0.250 A  
ENDROOT
BRANCH   6  20
HETATM   20  O   UNL     1     -10.479  16.819  68.619  1.00  0.00    -0.289 OA 
BRANCH  20  21
HETATM   21  C   UNL     1     -10.045  18.037  68.156  1.00  0.00    -0.372 A  
HETATM   22  C   UNL     1     -10.773  20.390  65.458  1.00  0.00     0.098 C  
HETATM   23  N   UNL     1     -10.669  18.615  67.122  1.00  0.00    -0.413 NA 
HETATM   24  C   UNL     1      -9.018  20.339  67.237  1.00  0.00    -0.472 A  
HETATM   25  C   UNL     1     -10.132  19.762  66.661  1.00  0.00    -0.461 A  
HETATM   26  C   UNL     1      -8.473  19.683  68.324  1.00  0.00    -0.316 A  
HETATM   27  C   UNL     1      -7.251  20.216  69.010  1.00  0.00    -0.115 C  
HETATM   28  N   UNL     1      -8.982  18.527  68.800  1.00  0.00    -0.284 NA 
ENDBRANCH  20  21
ENDBRANCH   6  20
TORSDOF 2
ENDMDL
MODEL       89
REMARK 921   NORMALIZED FREE ENERGY PREDICTED BY IDOCK:   -4.23 KCAL/MOL
REMARK 922        TOTAL FREE ENERGY PREDICTED BY IDOCK:   -5.39 KCAL/MOL
REMARK 923 INTER-LIGAND FREE ENERGY PREDICTED BY IDOCK:   -5.08 KCAL/MOL
REMARK 924 INTRA-LIGAND FREE ENERGY PREDICTED BY IDOCK:   -0.30 KCAL/MOL
REMARK 927      BINDING AFFINITY PREDICTED BY RF-SCORE:    0.00 PKD
ROOT
HETATM    1  C   UNL     1     -11.510  11.971  67.915  1.00  0.00    -0.330 C  
HETATM    2  O   UNL     1     -10.138  12.305  67.971  1.00  0.00    -0.194 OA 
HETATM    3  C   UNL     1      -9.121  11.377  67.497  1.00  0.00    -0.157 C  
HETATM    4  C   UNL     1      -9.300  11.169  65.953  1.00  0.00    -0.235 A  
HETATM    5  C   UNL     1      -7.801  12.126  67.841  1.00  0.00    -0.147 A  
HETATM    6  C   UNL     1      -9.132   9.992  68.276  1.00  0.00    -0.122 C  
HETATM    7  C   UNL     1      -8.823  10.086  69.767  1.00  0.00    -0.183 C  
HETATM    8  C   UNL     1      -7.729  12.892  69.033  1.00  0.00     0.200 A  
HETATM    9  C   UNL     1      -9.858  12.175  65.141  1.00  0.00    -0.200 A  
HETATM   10  C   UNL     1      -5.422  12.572  67.538  1.00  0.00    -0.123 A  
HETATM   11  O   UNL     1      -7.700  10.071  70.249  1.00  0.00    -0.172 OA 
HETATM   12  C   UNL     1     -10.174  11.936  63.795  1.00  0.00    -0.442 A  
HETATM   13  C   UNL     1      -6.530  13.442  69.487  1.00  0.00    -0.083 A  
HETATM   14  C   UNL     1      -6.623  12.004  67.088  1.00  0.00    -0.143 A  
HETATM   15  O   UNL     1      -9.924  10.127  70.569  1.00  0.00    -0.092 OA 
HETATM   16  C   UNL     1      -8.948   9.966  65.305  1.00  0.00    -0.228 A  
HETATM   17  C   UNL     1      -9.915  10.696  63.218  1.00  0.00    -0.314 A  
HETATM   18  C   UNL     1      -5.372  13.268  68.745  1.00  0.00    -0.074 A  
HETATM   19  C   UNL     1      -9.281   9.718  63.969  1.00  0.00    -0.267 A  
ENDROOT
BRANCH   6  20
HETATM   20  O   UNL     1     -10.423   9.348  68.206  1.00  0.00    -0.204 OA 
BRANCH  20  21
HETATM   21  C   UNL     1     -10.403   7.977  68.257  1.00  0.00    -0.197 A  
HETATM   22  C   UNL     1     -10.719   5.294  70.717  1.00  0.00    -0.196 C  
HETATM   23  N   UNL     1     -10.648   7.351  69.416  1.00  0.00    -0.228 NA 
HETATM   24  C   UNL     1     -10.184   5.303  68.275  1.00  0.00    -0.200 A  
HETATM   25  C   UNL     1     -10.518   6.009  69.413  1.00  0.00    -0.267 A  
HETATM   26  C   UNL     1      -9.990   6.039  67.122  1.00  0.00    -0.156 A  
HETATM   27  C   UNL     1      -9.606   5.370  65.838  1.00  0.00    -0.116 C  
HETATM   28  N   UNL     1     -10.101   7.384  67.098  1.00  0.00    -0.217 NA 
ENDBRANCH  20  21
ENDBRANCH   6  20
TORSDOF 2
ENDMDL
MODEL       90
REMARK 921   NORMALIZED FREE ENERGY PREDICTED BY IDOCK:   -4.18 KCAL/MOL
REMARK 922        TOTAL FREE ENERGY PREDICTED BY IDOCK:   -5.33 KCAL/MOL
REMARK 923 INTER-LIGAND FREE ENERGY PREDICTED BY IDOCK:   -4.67 KCAL/MOL
REMARK 924 INTRA-LIGAND FREE ENERGY PREDICTED BY IDOCK:   -0.66 KCAL/MOL
REMARK 927      BINDING AFFINITY PREDICTED BY RF-SCORE:    0.00 PKD
ROOT
HETATM    1  C   UNL     1     -10.499   9.728  67.087  1.00  0.00    -0.250 C  
HETATM    2  O   UNL     1     -10.547   9.395  68.460  1.00  0.00    -0.213 OA 
HETATM    3  C   UNL     1      -9.474   8.634  69.084  1.00  0.00    -0.157 C  
HETATM    4  C   UNL     1      -8.157   9.484  69.044  1.00  0.00    -0.101 A  
HETATM    5  C   UNL     1     -10.006   8.440  70.534  1.00  0.00    -0.205 A  
HETATM    6  C   UNL     1      -9.264   7.202  68.429  1.00  0.00    -0.133 C  
HETATM    7  C   UNL     1     -10.453   6.255  68.549  1.00  0.00    -0.229 C  
HETATM    8  C   UNL     1     -11.394   8.234  70.742  1.00  0.00    -0.285 A  
HETATM    9  C   UNL     1      -8.196  10.891  69.039  1.00  0.00    -0.126 A  
HETATM   10  C   UNL     1      -9.695   8.009  72.915  1.00  0.00    -0.353 A  
HETATM   11  O   UNL     1     -10.665   5.518  69.502  1.00  0.00    -0.310 OA 
HETATM   12  C   UNL     1      -7.036  11.655  68.835  1.00  0.00    -0.109 A  
HETATM   13  C   UNL     1     -11.910   7.880  71.989  1.00  0.00    -0.364 A  
HETATM   14  C   UNL     1      -9.171   8.348  71.659  1.00  0.00    -0.271 A  
HETATM   15  O   UNL     1     -11.267   6.230  67.457  1.00  0.00    -0.328 OA 
HETATM   16  C   UNL     1      -6.877   8.894  68.980  1.00  0.00    -0.059 A  
HETATM   17  C   UNL     1      -5.803  11.032  68.662  1.00  0.00    -0.043 A  
HETATM   18  C   UNL     1     -11.055   7.753  73.074  1.00  0.00    -0.419 A  
HETATM   19  C   UNL     1      -5.722   9.650  68.756  1.00  0.00    -0.039 A  
ENDROOT
BRANCH   6  20
HETATM   20  O   UNL     1      -9.008   7.296  67.010  1.00  0.00    -0.123 OA 
BRANCH  20  21
HETATM   21  C   UNL     1      -8.149   6.353  66.502  1.00  0.00    -0.111 A  
HETATM   22  C   UNL     1      -5.287   4.353  67.574  1.00  0.00    -0.012 C  
HETATM   23  N   UNL     1      -7.234   5.788  67.300  1.00  0.00    -0.074 NA 
HETATM   24  C   UNL     1      -6.425   4.639  65.367  1.00  0.00    -0.036 A  
HETATM   25  C   UNL     1      -6.365   4.942  66.713  1.00  0.00    -0.040 A  
HETATM   26  C   UNL     1      -7.431   5.245  64.640  1.00  0.00    -0.069 A  
HETATM   27  C   UNL     1      -7.571   4.997  63.168  1.00  0.00    -0.064 C  
HETATM   28  N   UNL     1      -8.308   6.105  65.198  1.00  0.00    -0.143 NA 
ENDBRANCH  20  21
ENDBRANCH   6  20
TORSDOF 2
ENDMDL
MODEL       91
REMARK 921   NORMALIZED FREE ENERGY PREDICTED BY IDOCK:   -4.17 KCAL/MOL
REMARK 922        TOTAL FREE ENERGY PREDICTED BY IDOCK:   -5.31 KCAL/MOL
REMARK 923 INTER-LIGAND FREE ENERGY PREDICTED BY IDOCK:   -4.75 KCAL/MOL
REMARK 924 INTRA-LIGAND FREE ENERGY PREDICTED BY IDOCK:   -0.56 KCAL/MOL
REMARK 927      BINDING AFFINITY PREDICTED BY RF-SCORE:    0.00 PKD
ROOT
HETATM    1  C   UNL     1      -6.964   5.076  68.299  1.00  0.00    -0.061 C  
HETATM    2  O   UNL     1      -7.298   6.289  67.655  1.00  0.00    -0.080 OA 
HETATM    3  C   UNL     1      -8.178   7.257  68.294  1.00  0.00    -0.125 C  
HETATM    4  C   UNL     1      -7.481   7.804  69.587  1.00  0.00    -0.090 A  
HETATM    5  C   UNL     1      -8.320   8.351  67.195  1.00  0.00    -0.122 A  
HETATM    6  C   UNL     1      -9.621   6.672  68.612  1.00  0.00    -0.130 C  
HETATM    7  C   UNL     1     -10.429   6.246  67.390  1.00  0.00    -0.248 C  
HETATM    8  C   UNL     1      -8.371   7.961  65.832  1.00  0.00    -0.134 A  
HETATM    9  C   UNL     1      -6.078   7.856  69.695  1.00  0.00    -0.033 A  
HETATM   10  C   UNL     1      -8.798  10.624  66.452  1.00  0.00    -0.164 A  
HETATM   11  O   UNL     1     -11.143   6.990  66.732  1.00  0.00    -0.289 OA 
HETATM   12  C   UNL     1      -5.449   8.185  70.905  1.00  0.00    -0.029 A  
HETATM   13  C   UNL     1      -8.672   8.868  64.815  1.00  0.00    -0.162 A  
HETATM   14  C   UNL     1      -8.512   9.712  67.478  1.00  0.00    -0.125 A  
HETATM   15  O   UNL     1     -10.356   4.917  67.101  1.00  0.00    -0.189 OA 
HETATM   16  C   UNL     1      -8.211   8.238  70.714  1.00  0.00    -0.115 A  
HETATM   17  C   UNL     1      -6.205   8.499  72.031  1.00  0.00    -0.069 A  
HETATM   18  C   UNL     1      -8.900  10.199  65.128  1.00  0.00    -0.207 A  
HETATM   19  C   UNL     1      -7.588   8.547  71.928  1.00  0.00    -0.139 A  
ENDROOT
BRANCH   6  20
HETATM   20  O   UNL     1      -9.548   5.489  69.438  1.00  0.00    -0.133 OA 
BRANCH  20  21
HETATM   21  C   UNL     1     -10.289   5.530  70.593  1.00  0.00    -0.262 A  
HETATM   22  C   UNL     1     -10.663   3.660  73.708  1.00  0.00    -0.306 C  
HETATM   23  N   UNL     1     -10.046   4.647  71.570  1.00  0.00    -0.196 NA 
HETATM   24  C   UNL     1     -11.900   5.603  72.737  1.00  0.00    -0.164 A  
HETATM   25  C   UNL     1     -10.873   4.685  72.634  1.00  0.00    -0.148 A  
HETATM   26  C   UNL     1     -12.041   6.495  71.692  1.00  0.00    -0.328 A  
HETATM   27  C   UNL     1     -13.137   7.519  71.698  1.00  0.00    -0.401 C  
HETATM   28  N   UNL     1     -11.236   6.473  70.610  1.00  0.00    -0.305 NA 
ENDBRANCH  20  21
ENDBRANCH   6  20
TORSDOF 2
ENDMDL
MODEL       92
REMARK 921   NORMALIZED FREE ENERGY PREDICTED BY IDOCK:   -4.15 KCAL/MOL
REMARK 922        TOTAL FREE ENERGY PREDICTED BY IDOCK:   -5.29 KCAL/MOL
REMARK 923 INTER-LIGAND FREE ENERGY PREDICTED BY IDOCK:   -4.86 KCAL/MOL
REMARK 924 INTRA-LIGAND FREE ENERGY PREDICTED BY IDOCK:   -0.43 KCAL/MOL
REMARK 927      BINDING AFFINITY PREDICTED BY RF-SCORE:    0.00 PKD
ROOT
HETATM    1  C   UNL     1     -12.128  13.516  67.255  1.00  0.00    -0.323 C  
HETATM    2  O   UNL     1     -12.294  13.970  68.583  1.00  0.00    -0.271 OA 
HETATM    3  C   UNL     1     -11.272  13.725  69.590  1.00  0.00    -0.115 C  
HETATM    4  C   UNL     1      -9.965  14.492  69.188  1.00  0.00    -0.114 A  
HETATM    5  C   UNL     1     -11.927  14.311  70.876  1.00  0.00    -0.389 A  
HETATM    6  C   UNL     1     -10.991  12.179  69.828  1.00  0.00     0.244 C  
HETATM    7  C   UNL     1     -12.177  11.381  70.360  1.00  0.00    -0.362 C  
HETATM    8  C   UNL     1     -13.325  14.172  71.066  1.00  0.00    -0.288 A  
HETATM    9  C   UNL     1     -10.017  15.671  68.421  1.00  0.00    -0.210 A  
HETATM   10  C   UNL     1     -11.821  15.245  73.126  1.00  0.00    -0.498 A  
HETATM   11  O   UNL     1     -12.464  11.261  71.542  1.00  0.00    -0.312 OA 
HETATM   12  C   UNL     1      -8.851  16.269  67.917  1.00  0.00    -0.183 A  
HETATM   13  C   UNL     1     -13.945  14.516  72.268  1.00  0.00    -0.600 A  
HETATM   14  C   UNL     1     -11.193  14.884  71.925  1.00  0.00     0.025 A  
HETATM   15  O   UNL     1     -12.892  10.728  69.401  1.00  0.00    -0.182 OA 
HETATM   16  C   UNL     1      -8.678  14.032  69.540  1.00  0.00     0.777 A  
HETATM   17  C   UNL     1      -7.602  15.720  68.193  1.00  0.00    -0.128 A  
HETATM   18  C   UNL     1     -13.188  15.039  73.305  1.00  0.00    -0.537 A  
HETATM   19  C   UNL     1      -7.515  14.612  69.024  1.00  0.00    -0.136 A  
ENDROOT
BRANCH   6  20
HETATM   20  O   UNL     1     -10.613  11.510  68.605  1.00  0.00    -0.194 OA 
BRANCH  20  21
HETATM   21  C   UNL     1      -9.517  10.687  68.697  1.00  0.00    -0.176 A  
HETATM   22  C   UNL     1      -6.742   9.532  66.623  1.00  0.00    -0.072 C  
HETATM   23  N   UNL     1      -8.665  10.597  67.668  1.00  0.00    -0.121 NA 
HETATM   24  C   UNL     1      -7.500   8.934  68.929  1.00  0.00    -0.082 A  
HETATM   25  C   UNL     1      -7.667   9.701  67.792  1.00  0.00    -0.094 A  
HETATM   26  C   UNL     1      -8.410   9.132  69.949  1.00  0.00    -0.144 A  
HETATM   27  C   UNL     1      -8.328   8.337  71.217  1.00  0.00    -0.156 C  
HETATM   28  N   UNL     1      -9.427  10.013  69.848  1.00  0.00    -0.215 NA 
ENDBRANCH  20  21
ENDBRANCH   6  20
TORSDOF 2
ENDMDL
MODEL       93
REMARK 921   NORMALIZED FREE ENERGY PREDICTED BY IDOCK:   -4.12 KCAL/MOL
REMARK 922        TOTAL FREE ENERGY PREDICTED BY IDOCK:   -5.26 KCAL/MOL
REMARK 923 INTER-LIGAND FREE ENERGY PREDICTED BY IDOCK:   -4.69 KCAL/MOL
REMARK 924 INTRA-LIGAND FREE ENERGY PREDICTED BY IDOCK:   -0.57 KCAL/MOL
REMARK 927      BINDING AFFINITY PREDICTED BY RF-SCORE:    0.00 PKD
ROOT
HETATM    1  C   UNL     1      -6.778   6.894  69.597  1.00  0.00    -0.050 C  
HETATM    2  O   UNL     1      -7.468   6.389  68.471  1.00  0.00    -0.084 OA 
HETATM    3  C   UNL     1      -8.688   5.610  68.629  1.00  0.00    -0.106 C  
HETATM    4  C   UNL     1      -9.797   6.522  69.257  1.00  0.00    -0.161 A  
HETATM    5  C   UNL     1      -9.017   5.208  67.162  1.00  0.00    -0.112 A  
HETATM    6  C   UNL     1      -8.475   4.284  69.478  1.00  0.00    -0.071 C  
HETATM    7  C   UNL     1      -7.513   3.271  68.865  1.00  0.00    -0.049 C  
HETATM    8  C   UNL     1      -7.955   4.908  66.270  1.00  0.00    -0.107 A  
HETATM    9  C   UNL     1      -9.799   7.916  69.054  1.00  0.00    -0.171 A  
HETATM   10  C   UNL     1     -10.551   4.497  65.403  1.00  0.00    -0.195 A  
HETATM   11  O   UNL     1      -7.830   2.411  68.055  1.00  0.00    -0.058 OA 
HETATM   12  C   UNL     1     -10.686   8.755  69.745  1.00  0.00    -0.220 A  
HETATM   13  C   UNL     1      -8.183   4.375  65.001  1.00  0.00    -0.104 A  
HETATM   14  C   UNL     1     -10.323   5.017  66.686  1.00  0.00    -0.312 A  
HETATM   15  O   UNL     1      -6.239   3.343  69.340  1.00  0.00    -0.027 OA 
HETATM   16  C   UNL     1     -10.825   6.010  70.077  1.00  0.00    -0.429 A  
HETATM   17  C   UNL     1     -11.614   8.221  70.635  1.00  0.00    -0.199 A  
HETATM   18  C   UNL     1      -9.484   4.156  64.574  1.00  0.00    -0.165 A  
HETATM   19  C   UNL     1     -11.697   6.845  70.783  1.00  0.00    -0.417 A  
ENDROOT
BRANCH   6  20
HETATM   20  O   UNL     1      -7.928   4.568  70.785  1.00  0.00    -0.066 OA 
BRANCH  20  21
HETATM   21  C   UNL     1      -8.779   4.351  71.841  1.00  0.00    -0.116 A  
HETATM   22  C   UNL     1     -10.991   1.741  73.120  1.00  0.00    -0.260 C  
HETATM   23  N   UNL     1      -9.370   3.158  71.983  1.00  0.00    -0.114 NA 
HETATM   24  C   UNL     1     -10.538   4.089  73.849  1.00  0.00    -0.293 A  
HETATM   25  C   UNL     1     -10.264   3.046  72.986  1.00  0.00    -0.149 A  
HETATM   26  C   UNL     1      -9.845   5.265  73.640  1.00  0.00    -0.161 A  
HETATM   27  C   UNL     1     -10.083   6.463  74.510  1.00  0.00    -0.358 C  
HETATM   28  N   UNL     1      -8.954   5.409  72.637  1.00  0.00    -0.132 NA 
ENDBRANCH  20  21
ENDBRANCH   6  20
TORSDOF 2
ENDMDL
MODEL       94
REMARK 921   NORMALIZED FREE ENERGY PREDICTED BY IDOCK:   -4.11 KCAL/MOL
REMARK 922        TOTAL FREE ENERGY PREDICTED BY IDOCK:   -5.24 KCAL/MOL
REMARK 923 INTER-LIGAND FREE ENERGY PREDICTED BY IDOCK:   -4.55 KCAL/MOL
REMARK 924 INTRA-LIGAND FREE ENERGY PREDICTED BY IDOCK:   -0.69 KCAL/MOL
REMARK 927      BINDING AFFINITY PREDICTED BY RF-SCORE:    0.00 PKD
ROOT
HETATM    1  C   UNL     1     -10.998  10.308  66.955  1.00  0.00    -0.119 C  
HETATM    2  O   UNL     1     -10.831   9.903  68.299  1.00  0.00    -0.239 OA 
HETATM    3  C   UNL     1      -9.619   9.220  68.729  1.00  0.00    -0.154 C  
HETATM    4  C   UNL     1      -8.402  10.196  68.573  1.00  0.00    -0.116 A  
HETATM    5  C   UNL     1      -9.931   8.901  70.221  1.00  0.00    -0.214 A  
HETATM    6  C   UNL     1      -9.371   7.850  67.963  1.00  0.00    -0.145 C  
HETATM    7  C   UNL     1     -10.443   6.786  68.176  1.00  0.00    -0.211 C  
HETATM    8  C   UNL     1     -11.253   8.550  70.593  1.00  0.00    -0.278 A  
HETATM    9  C   UNL     1      -8.568  11.591  68.661  1.00  0.00    -0.109 A  
HETATM   10  C   UNL     1      -9.263   8.383  72.509  1.00  0.00    -0.338 A  
HETATM   11  O   UNL     1     -10.456   5.985  69.100  1.00  0.00    -0.202 OA 
HETATM   12  C   UNL     1      -7.519  12.473  68.358  1.00  0.00    -0.127 A  
HETATM   13  C   UNL     1     -11.562   8.085  71.872  1.00  0.00    -0.348 A  
HETATM   14  C   UNL     1      -8.947   8.835  71.220  1.00  0.00    -0.295 A  
HETATM   15  O   UNL     1     -11.391   6.737  67.200  1.00  0.00    -0.330 OA 
HETATM   16  C   UNL     1      -7.094   9.738  68.306  1.00  0.00    -0.077 A  
HETATM   17  C   UNL     1      -6.270  11.983  67.987  1.00  0.00    -0.058 A  
HETATM   18  C   UNL     1     -10.561   7.988  72.827  1.00  0.00    -0.420 A  
HETATM   19  C   UNL     1      -6.052  10.613  67.983  1.00  0.00    -0.046 A  
ENDROOT
BRANCH   6  20
HETATM   20  O   UNL     1      -9.318   8.040  66.532  1.00  0.00    -0.180 OA 
BRANCH  20  21
HETATM   21  C   UNL     1      -8.128   7.703  65.935  1.00  0.00    -0.122 A  
HETATM   22  C   UNL     1      -5.449   5.247  66.297  1.00  0.00    -0.013 C  
HETATM   23  N   UNL     1      -7.456   6.625  66.357  1.00  0.00    -0.083 NA 
HETATM   24  C   UNL     1      -5.743   7.229  64.803  1.00  0.00    -0.037 A  
HETATM   25  C   UNL     1      -6.252   6.409  65.790  1.00  0.00    -0.038 A  
HETATM   26  C   UNL     1      -6.534   8.293  64.412  1.00  0.00    -0.066 A  
HETATM   27  C   UNL     1      -6.065   9.253  63.361  1.00  0.00    -0.090 C  
HETATM   28  N   UNL     1      -7.737   8.540  64.969  1.00  0.00    -0.096 NA 
ENDBRANCH  20  21
ENDBRANCH   6  20
TORSDOF 2
ENDMDL
MODEL       95
REMARK 921   NORMALIZED FREE ENERGY PREDICTED BY IDOCK:   -4.10 KCAL/MOL
REMARK 922        TOTAL FREE ENERGY PREDICTED BY IDOCK:   -5.24 KCAL/MOL
REMARK 923 INTER-LIGAND FREE ENERGY PREDICTED BY IDOCK:   -4.74 KCAL/MOL
REMARK 924 INTRA-LIGAND FREE ENERGY PREDICTED BY IDOCK:   -0.50 KCAL/MOL
REMARK 927      BINDING AFFINITY PREDICTED BY RF-SCORE:    0.00 PKD
ROOT
HETATM    1  C   UNL     1     -10.758   6.493  67.149  1.00  0.00    -0.368 C  
HETATM    2  O   UNL     1      -9.656   6.064  67.923  1.00  0.00    -0.115 OA 
HETATM    3  C   UNL     1      -8.952   6.989  68.800  1.00  0.00    -0.131 C  
HETATM    4  C   UNL     1      -9.928   7.461  69.932  1.00  0.00    -0.188 A  
HETATM    5  C   UNL     1      -7.793   6.107  69.350  1.00  0.00    -0.100 A  
HETATM    6  C   UNL     1      -8.320   8.223  68.023  1.00  0.00    -0.129 C  
HETATM    7  C   UNL     1      -7.251   7.863  66.996  1.00  0.00    -0.090 C  
HETATM    8  C   UNL     1      -7.184   5.152  68.497  1.00  0.00    -0.062 A  
HETATM    9  C   UNL     1     -10.985   6.642  70.373  1.00  0.00    -0.341 A  
HETATM   10  C   UNL     1      -6.085   5.562  71.004  1.00  0.00    -0.029 A  
HETATM   11  O   UNL     1      -6.062   7.724  67.247  1.00  0.00    -0.046 OA 
HETATM   12  C   UNL     1     -11.959   7.121  71.263  1.00  0.00    -0.374 A  
HETATM   13  C   UNL     1      -6.033   4.456  68.869  1.00  0.00    -0.026 A  
HETATM   14  C   UNL     1      -7.232   6.274  70.626  1.00  0.00    -0.074 A  
HETATM   15  O   UNL     1      -7.708   7.763  65.718  1.00  0.00    -0.090 OA 
HETATM   16  C   UNL     1      -9.822   8.728  70.543  1.00  0.00    -0.224 A  
HETATM   17  C   UNL     1     -11.884   8.419  71.759  1.00  0.00    -0.374 A  
HETATM   18  C   UNL     1      -5.474   4.674  70.120  1.00  0.00    -0.008 A  
HETATM   19  C   UNL     1     -10.802   9.216  71.415  1.00  0.00    -0.419 A  
ENDROOT
BRANCH   6  20
HETATM   20  O   UNL     1      -9.318   8.953  67.277  1.00  0.00    -0.135 OA 
BRANCH  20  21
HETATM   21  C   UNL     1      -9.057  10.288  67.092  1.00  0.00    -0.142 A  
HETATM   22  C   UNL     1      -7.085  12.960  68.613  1.00  0.00    -0.103 C  
HETATM   23  N   UNL     1      -8.164  10.906  67.875  1.00  0.00    -0.112 NA 
HETATM   24  C   UNL     1      -8.741  12.930  66.741  1.00  0.00    -0.112 A  
HETATM   25  C   UNL     1      -8.028  12.235  67.699  1.00  0.00    -0.161 A  
HETATM   26  C   UNL     1      -9.608  12.192  65.959  1.00  0.00    -0.231 A  
HETATM   27  C   UNL     1     -10.442  12.854  64.904  1.00  0.00    -0.351 C  
HETATM   28  N   UNL     1      -9.773  10.863  66.120  1.00  0.00    -0.202 NA 
ENDBRANCH  20  21
ENDBRANCH   6  20
TORSDOF 2
ENDMDL
MODEL       96
REMARK 921   NORMALIZED FREE ENERGY PREDICTED BY IDOCK:   -4.08 KCAL/MOL
REMARK 922        TOTAL FREE ENERGY PREDICTED BY IDOCK:   -5.22 KCAL/MOL
REMARK 923 INTER-LIGAND FREE ENERGY PREDICTED BY IDOCK:   -4.59 KCAL/MOL
REMARK 924 INTRA-LIGAND FREE ENERGY PREDICTED BY IDOCK:   -0.63 KCAL/MOL
REMARK 927      BINDING AFFINITY PREDICTED BY RF-SCORE:    0.00 PKD
ROOT
HETATM    1  C   UNL     1      -8.014   5.930  68.131  1.00  0.00    -0.109 C  
HETATM    2  O   UNL     1      -7.300   7.147  68.053  1.00  0.00    -0.091 OA 
HETATM    3  C   UNL     1      -7.659   8.280  68.893  1.00  0.00    -0.093 C  
HETATM    4  C   UNL     1      -7.411   7.901  70.394  1.00  0.00    -0.068 A  
HETATM    5  C   UNL     1      -6.681   9.384  68.395  1.00  0.00    -0.058 A  
HETATM    6  C   UNL     1      -9.147   8.783  68.657  1.00  0.00    -0.141 C  
HETATM    7  C   UNL     1      -9.439   9.307  67.254  1.00  0.00    -0.144 C  
HETATM    8  C   UNL     1      -6.351   9.449  67.017  1.00  0.00    -0.066 A  
HETATM    9  C   UNL     1      -6.430   6.959  70.756  1.00  0.00    -0.048 A  
HETATM   10  C   UNL     1      -5.434  11.462  68.680  1.00  0.00    -0.042 A  
HETATM   11  O   UNL     1      -9.251  10.458  66.886  1.00  0.00    -0.149 OA 
HETATM   12  C   UNL     1      -6.315   6.492  72.075  1.00  0.00    -0.049 A  
HETATM   13  C   UNL     1      -5.625  10.512  66.479  1.00  0.00    -0.063 A  
HETATM   14  C   UNL     1      -6.178  10.403  69.220  1.00  0.00    -0.046 A  
HETATM   15  O   UNL     1     -10.005   8.393  66.418  1.00  0.00    -0.263 OA 
HETATM   16  C   UNL     1      -8.169   8.451  71.449  1.00  0.00    -0.172 A  
HETATM   17  C   UNL     1      -7.159   6.977  73.070  1.00  0.00    -0.073 A  
HETATM   18  C   UNL     1      -5.179  11.528  67.312  1.00  0.00    -0.071 A  
HETATM   19  C   UNL     1      -8.072   7.974  72.760  1.00  0.00    -0.205 A  
ENDROOT
BRANCH   6  20
HETATM   20  O   UNL     1     -10.108   7.724  68.863  1.00  0.00    -0.185 OA 
BRANCH  20  21
HETATM   21  C   UNL     1     -10.906   7.859  69.973  1.00  0.00    -0.238 A  
HETATM   22  C   UNL     1     -12.849  10.433  71.688  1.00  0.00    -0.579 C  
HETATM   23  N   UNL     1     -11.521   9.024  70.212  1.00  0.00    -0.185 NA 
HETATM   24  C   UNL     1     -12.312   8.057  72.249  1.00  0.00    -0.336 A  
HETATM   25  C   UNL     1     -12.210   9.114  71.367  1.00  0.00    -0.335 A  
HETATM   26  C   UNL     1     -11.673   6.886  71.890  1.00  0.00    -0.299 A  
HETATM   27  C   UNL     1     -11.706   5.686  72.788  1.00  0.00    -0.233 C  
HETATM   28  N   UNL     1     -10.966   6.771  70.747  1.00  0.00    -0.248 NA 
ENDBRANCH  20  21
ENDBRANCH   6  20
TORSDOF 2
ENDMDL
MODEL       97
REMARK 921   NORMALIZED FREE ENERGY PREDICTED BY IDOCK:   -4.04 KCAL/MOL
REMARK 922        TOTAL FREE ENERGY PREDICTED BY IDOCK:   -5.17 KCAL/MOL
REMARK 923 INTER-LIGAND FREE ENERGY PREDICTED BY IDOCK:   -4.59 KCAL/MOL
REMARK 924 INTRA-LIGAND FREE ENERGY PREDICTED BY IDOCK:   -0.58 KCAL/MOL
REMARK 927      BINDING AFFINITY PREDICTED BY RF-SCORE:    0.00 PKD
ROOT
HETATM    1  C   UNL     1     -10.568   9.832  67.483  1.00  0.00    -0.275 C  
HETATM    2  O   UNL     1     -10.480   9.450  68.841  1.00  0.00    -0.208 OA 
HETATM    3  C   UNL     1      -9.381   8.623  69.316  1.00  0.00    -0.153 C  
HETATM    4  C   UNL     1      -8.039   9.419  69.158  1.00  0.00    -0.107 A  
HETATM    5  C   UNL     1      -9.758   8.395  70.810  1.00  0.00    -0.207 A  
HETATM    6  C   UNL     1      -9.308   7.209  68.595  1.00  0.00    -0.134 C  
HETATM    7  C   UNL     1     -10.518   6.307  68.815  1.00  0.00    -0.233 C  
HETATM    8  C   UNL     1     -11.122   8.238  71.164  1.00  0.00    -0.289 A  
HETATM    9  C   UNL     1      -8.015  10.825  69.204  1.00  0.00    -0.135 A  
HETATM   10  C   UNL     1      -9.207   7.862  73.125  1.00  0.00    -0.331 A  
HETATM   11  O   UNL     1     -10.657   5.544  69.761  1.00  0.00    -0.297 OA 
HETATM   12  C   UNL     1      -6.851  11.548  68.898  1.00  0.00    -0.095 A  
HETATM   13  C   UNL     1     -11.514   7.859  72.448  1.00  0.00    -0.433 A  
HETATM   14  C   UNL     1      -8.810   8.227  71.830  1.00  0.00    -0.238 A  
HETATM   15  O   UNL     1     -11.448   6.357  67.821  1.00  0.00    -0.146 OA 
HETATM   16  C   UNL     1      -6.802   8.779  68.932  1.00  0.00    -0.061 A  
HETATM   17  C   UNL     1      -5.674  10.882  68.568  1.00  0.00    -0.043 A  
HETATM   18  C   UNL     1     -10.552   7.657  73.426  1.00  0.00    -0.353 A  
HETATM   19  C   UNL     1      -5.645   9.495  68.606  1.00  0.00    -0.040 A  
ENDROOT
BRANCH   6  20
HETATM   20  O   UNL     1      -9.206   7.345  67.160  1.00  0.00    -0.128 OA 
BRANCH  20  21
HETATM   21  C   UNL     1      -8.456   6.384  66.528  1.00  0.00    -0.118 A  
HETATM   22  C   UNL     1      -8.158   4.828  63.237  1.00  0.00    -0.096 C  
HETATM   23  N   UNL     1      -8.628   6.161  65.219  1.00  0.00    -0.119 NA 
HETATM   24  C   UNL     1      -7.049   4.380  65.432  1.00  0.00    -0.067 A  
HETATM   25  C   UNL     1      -7.928   5.141  64.686  1.00  0.00    -0.102 A  
HETATM   26  C   UNL     1      -6.915   4.717  66.765  1.00  0.00    -0.060 A  
HETATM   27  C   UNL     1      -6.002   3.941  67.666  1.00  0.00    -0.027 C  
HETATM   28  N   UNL     1      -7.613   5.725  67.328  1.00  0.00    -0.095 NA 
ENDBRANCH  20  21
ENDBRANCH   6  20
TORSDOF 2
ENDMDL
MODEL       98
REMARK 921   NORMALIZED FREE ENERGY PREDICTED BY IDOCK:   -4.00 KCAL/MOL
REMARK 922        TOTAL FREE ENERGY PREDICTED BY IDOCK:   -5.12 KCAL/MOL
REMARK 923 INTER-LIGAND FREE ENERGY PREDICTED BY IDOCK:   -4.49 KCAL/MOL
REMARK 924 INTRA-LIGAND FREE ENERGY PREDICTED BY IDOCK:   -0.63 KCAL/MOL
REMARK 927      BINDING AFFINITY PREDICTED BY RF-SCORE:    0.00 PKD
ROOT
HETATM    1  C   UNL     1     -10.499   9.203  69.731  1.00  0.00    -0.223 C  
HETATM    2  O   UNL     1      -9.859   7.952  69.892  1.00  0.00    -0.179 OA 
HETATM    3  C   UNL     1      -8.762   7.556  69.021  1.00  0.00    -0.136 C  
HETATM    4  C   UNL     1      -7.552   8.525  69.253  1.00  0.00    -0.095 A  
HETATM    5  C   UNL     1      -8.459   6.109  69.508  1.00  0.00    -0.120 A  
HETATM    6  C   UNL     1      -9.174   7.495  67.488  1.00  0.00    -0.128 C  
HETATM    7  C   UNL     1     -10.252   6.470  67.148  1.00  0.00    -0.198 C  
HETATM    8  C   UNL     1      -9.532   5.276  69.917  1.00  0.00    -0.211 A  
HETATM    9  C   UNL     1      -7.355   9.164  70.492  1.00  0.00    -0.104 A  
HETATM   10  C   UNL     1      -6.998   4.172  69.765  1.00  0.00    -0.042 A  
HETATM   11  O   UNL     1     -10.039   5.295  66.886  1.00  0.00    -0.173 OA 
HETATM   12  C   UNL     1      -6.376  10.157  70.656  1.00  0.00    -0.093 A  
HETATM   13  C   UNL     1      -9.351   3.921  70.196  1.00  0.00    -0.241 A  
HETATM   14  C   UNL     1      -7.181   5.530  69.468  1.00  0.00    -0.065 A  
HETATM   15  O   UNL     1     -11.514   6.977  67.089  1.00  0.00    -0.087 OA 
HETATM   16  C   UNL     1      -6.623   8.833  68.236  1.00  0.00    -0.060 A  
HETATM   17  C   UNL     1      -5.550  10.515  69.594  1.00  0.00    -0.039 A  
HETATM   18  C   UNL     1      -8.083   3.365  70.105  1.00  0.00    -0.057 A  
HETATM   19  C   UNL     1      -5.660   9.837  68.389  1.00  0.00    -0.043 A  
ENDROOT
BRANCH   6  20
HETATM   20  O   UNL     1      -9.706   8.756  67.026  1.00  0.00    -0.167 OA 
BRANCH  20  21
HETATM   21  C   UNL     1      -9.377   9.099  65.738  1.00  0.00    -0.245 A  
HETATM   22  C   UNL     1      -6.953   8.184  63.164  1.00  0.00    -0.086 C  
HETATM   23  N   UNL     1      -8.413   8.427  65.097  1.00  0.00    -0.173 NA 
HETATM   24  C   UNL     1      -8.714   9.954  63.283  1.00  0.00    -0.227 A  
HETATM   25  C   UNL     1      -8.079   8.878  63.871  1.00  0.00    -0.163 A  
HETATM   26  C   UNL     1      -9.722  10.554  64.013  1.00  0.00    -0.323 A  
HETATM   27  C   UNL     1     -10.460  11.741  63.472  1.00  0.00    -0.500 C  
HETATM   28  N   UNL     1     -10.070  10.131  65.246  1.00  0.00    -0.314 NA 
ENDBRANCH  20  21
ENDBRANCH   6  20
TORSDOF 2
ENDMDL
MODEL       99
REMARK 921   NORMALIZED FREE ENERGY PREDICTED BY IDOCK:   -3.96 KCAL/MOL
REMARK 922        TOTAL FREE ENERGY PREDICTED BY IDOCK:   -5.08 KCAL/MOL
REMARK 923 INTER-LIGAND FREE ENERGY PREDICTED BY IDOCK:   -4.46 KCAL/MOL
REMARK 924 INTRA-LIGAND FREE ENERGY PREDICTED BY IDOCK:   -0.61 KCAL/MOL
REMARK 927      BINDING AFFINITY PREDICTED BY RF-SCORE:    0.00 PKD
ROOT
HETATM    1  C   UNL     1     -11.605   6.550  70.171  1.00  0.00    -0.402 C  
HETATM    2  O   UNL     1     -10.409   7.075  70.711  1.00  0.00    -0.205 OA 
HETATM    3  C   UNL     1      -9.386   7.648  69.848  1.00  0.00    -0.150 C  
HETATM    4  C   UNL     1      -9.966   8.925  69.148  1.00  0.00    -0.192 A  
HETATM    5  C   UNL     1      -8.254   7.994  70.860  1.00  0.00    -0.103 A  
HETATM    6  C   UNL     1      -8.814   6.611  68.788  1.00  0.00    -0.126 C  
HETATM    7  C   UNL     1      -8.103   5.401  69.386  1.00  0.00    -0.093 C  
HETATM    8  C   UNL     1      -8.019   7.129  71.959  1.00  0.00    -0.092 A  
HETATM    9  C   UNL     1     -10.975   9.696  69.755  1.00  0.00    -0.266 A  
HETATM   10  C   UNL     1      -6.269   9.233  71.547  1.00  0.00    -0.046 A  
HETATM   11  O   UNL     1      -6.919   5.369  69.692  1.00  0.00    -0.057 OA 
HETATM   12  C   UNL     1     -11.614  10.738  69.066  1.00  0.00    -0.370 A  
HETATM   13  C   UNL     1      -6.915   7.283  72.798  1.00  0.00    -0.068 A  
HETATM   14  C   UNL     1      -7.368   9.069  70.692  1.00  0.00    -0.099 A  
HETATM   15  O   UNL     1      -8.882   4.291  69.505  1.00  0.00    -0.082 OA 
HETATM   16  C   UNL     1      -9.538   9.349  67.872  1.00  0.00    -0.155 A  
HETATM   17  C   UNL     1     -11.241  11.055  67.763  1.00  0.00    -0.374 A  
HETATM   18  C   UNL     1      -6.031   8.330  72.582  1.00  0.00    -0.065 A  
HETATM   19  C   UNL     1     -10.186  10.374  67.174  1.00  0.00    -0.271 A  
ENDROOT
BRANCH   6  20
HETATM   20  O   UNL     1      -9.863   6.054  67.966  1.00  0.00    -0.116 OA 
BRANCH  20  21
HETATM   21  C   UNL     1      -9.493   5.717  66.687  1.00  0.00    -0.147 A  
HETATM   22  C   UNL     1      -9.932   2.977  64.311  1.00  0.00    -0.125 C  
HETATM   23  N   UNL     1      -9.958   4.588  66.137  1.00  0.00    -0.227 NA 
HETATM   24  C   UNL     1      -8.584   5.081  64.244  1.00  0.00    -0.130 A  
HETATM   25  C   UNL     1      -9.480   4.273  64.917  1.00  0.00    -0.169 A  
HETATM   26  C   UNL     1      -8.197   6.243  64.883  1.00  0.00    -0.119 A  
HETATM   27  C   UNL     1      -7.214   7.178  64.247  1.00  0.00    -0.072 C  
HETATM   28  N   UNL     1      -8.650   6.578  66.110  1.00  0.00    -0.140 NA 
ENDBRANCH  20  21
ENDBRANCH   6  20
TORSDOF 2
ENDMDL
MODEL      100
REMARK 921   NORMALIZED FREE ENERGY PREDICTED BY IDOCK:   -3.95 KCAL/MOL
REMARK 922        TOTAL FREE ENERGY PREDICTED BY IDOCK:   -5.07 KCAL/MOL
REMARK 923 INTER-LIGAND FREE ENERGY PREDICTED BY IDOCK:   -4.48 KCAL/MOL
REMARK 924 INTRA-LIGAND FREE ENERGY PREDICTED BY IDOCK:   -0.59 KCAL/MOL
REMARK 927      BINDING AFFINITY PREDICTED BY RF-SCORE:    0.00 PKD
ROOT
HETATM    1  C   UNL     1     -11.208  10.016  68.688  1.00  0.00    -0.121 C  
HETATM    2  O   UNL     1     -10.460   9.672  69.836  1.00  0.00    -0.217 OA 
HETATM    3  C   UNL     1      -9.197   8.956  69.720  1.00  0.00    -0.165 C  
HETATM    4  C   UNL     1      -8.164   9.865  68.969  1.00  0.00    -0.124 A  
HETATM    5  C   UNL     1      -8.807   8.728  71.210  1.00  0.00    -0.288 A  
HETATM    6  C   UNL     1      -9.347   7.540  69.016  1.00  0.00    -0.146 C  
HETATM    7  C   UNL     1     -10.227   6.539  69.758  1.00  0.00    -0.187 C  
HETATM    8  C   UNL     1      -9.825   8.458  72.159  1.00  0.00    -0.372 A  
HETATM    9  C   UNL     1      -8.245  11.269  69.030  1.00  0.00    -0.026 A  
HETATM   10  C   UNL     1      -7.188   8.295  72.982  1.00  0.00    -0.143 A  
HETATM   11  O   UNL     1      -9.837   5.787  70.640  1.00  0.00    -0.175 OA 
HETATM   12  C   UNL     1      -7.430  12.085  68.230  1.00  0.00    -0.106 A  
HETATM   13  C   UNL     1      -9.533   8.073  73.468  1.00  0.00    -0.248 A  
HETATM   14  C   UNL     1      -7.480   8.666  71.661  1.00  0.00    -0.121 A  
HETATM   15  O   UNL     1     -11.515   6.485  69.318  1.00  0.00    -0.340 OA 
HETATM   16  C   UNL     1      -7.126   9.334  68.173  1.00  0.00    -0.077 A  
HETATM   17  C   UNL     1      -6.493  11.519  67.371  1.00  0.00    -0.094 A  
HETATM   18  C   UNL     1      -8.210   7.977  73.875  1.00  0.00    -0.306 A  
HETATM   19  C   UNL     1      -6.326  10.142  67.359  1.00  0.00    -0.066 A  
ENDROOT
BRANCH   6  20
HETATM   20  O   UNL     1      -9.943   7.654  67.705  1.00  0.00    -0.154 OA 
BRANCH  20  21
HETATM   21  C   UNL     1      -9.279   7.002  66.696  1.00  0.00    -0.158 A  
HETATM   22  C   UNL     1      -8.289   3.608  65.777  1.00  0.00    -0.106 C  
HETATM   23  N   UNL     1      -9.198   5.665  66.709  1.00  0.00    -0.125 NA 
HETATM   24  C   UNL     1      -7.827   5.844  64.759  1.00  0.00    -0.113 A  
HETATM   25  C   UNL     1      -8.452   5.099  65.740  1.00  0.00    -0.124 A  
HETATM   26  C   UNL     1      -8.006   7.213  64.813  1.00  0.00    -0.122 A  
HETATM   27  C   UNL     1      -7.355   8.113  63.807  1.00  0.00    -0.101 C  
HETATM   28  N   UNL     1      -8.737   7.808  65.778  1.00  0.00    -0.154 NA 
ENDBRANCH  20  21
ENDBRANCH   6  20
TORSDOF 2
ENDMDL
MODEL      101
REMARK 921   NORMALIZED FREE ENERGY PREDICTED BY IDOCK:   -3.93 KCAL/MOL
REMARK 922        TOTAL FREE ENERGY PREDICTED BY IDOCK:   -5.05 KCAL/MOL
REMARK 923 INTER-LIGAND FREE ENERGY PREDICTED BY IDOCK:   -4.53 KCAL/MOL
REMARK 924 INTRA-LIGAND FREE ENERGY PREDICTED BY IDOCK:   -0.53 KCAL/MOL
REMARK 927      BINDING AFFINITY PREDICTED BY RF-SCORE:    0.00 PKD
ROOT
HETATM    1  C   UNL     1     -10.996   7.716  72.956  1.00  0.00    -0.400 C  
HETATM    2  O   UNL     1     -10.413   6.430  72.890  1.00  0.00    -0.199 OA 
HETATM    3  C   UNL     1      -9.225   6.188  72.085  1.00  0.00    -0.141 C  
HETATM    4  C   UNL     1      -8.030   7.011  72.679  1.00  0.00    -0.106 A  
HETATM    5  C   UNL     1      -9.021   4.653  72.250  1.00  0.00    -0.140 A  
HETATM    6  C   UNL     1      -9.442   6.504  70.543  1.00  0.00    -0.166 C  
HETATM    7  C   UNL     1     -10.493   5.644  69.848  1.00  0.00    -0.308 C  
HETATM    8  C   UNL     1     -10.157   3.807  72.322  1.00  0.00    -0.228 A  
HETATM    9  C   UNL     1      -7.975   7.336  74.048  1.00  0.00    -0.148 A  
HETATM   10  C   UNL     1      -7.652   2.634  72.211  1.00  0.00    -0.052 A  
HETATM   11  O   UNL     1     -10.277   4.552  69.344  1.00  0.00    -0.148 OA 
HETATM   12  C   UNL     1      -7.001   8.210  74.554  1.00  0.00    -0.191 A  
HETATM   13  C   UNL     1     -10.045   2.416  72.293  1.00  0.00    -0.225 A  
HETATM   14  C   UNL     1      -7.762   4.032  72.224  1.00  0.00    -0.079 A  
HETATM   15  O   UNL     1     -11.725   6.218  69.764  1.00  0.00    -0.403 OA 
HETATM   16  C   UNL     1      -6.973   7.496  71.879  1.00  0.00    -0.062 A  
HETATM   17  C   UNL     1      -6.040   8.759  73.711  1.00  0.00    -0.096 A  
HETATM   18  C   UNL     1      -8.790   1.830  72.222  1.00  0.00    -0.091 A  
HETATM   19  C   UNL     1      -6.013   8.384  72.376  1.00  0.00    -0.064 A  
ENDROOT
BRANCH   6  20
HETATM   20  O   UNL     1      -9.880   7.865  70.334  1.00  0.00    -0.183 OA 
BRANCH  20  21
HETATM   21  C   UNL     1      -9.367   8.485  69.221  1.00  0.00    -0.154 A  
HETATM   22  C   UNL     1      -9.847  11.549  67.292  1.00  0.00    -0.208 C  
HETATM   23  N   UNL     1      -9.799   9.706  68.882  1.00  0.00    -0.169 NA 
HETATM   24  C   UNL     1      -8.408   9.534  66.946  1.00  0.00    -0.116 A  
HETATM   25  C   UNL     1      -9.322  10.213  67.728  1.00  0.00    -0.141 A  
HETATM   26  C   UNL     1      -7.996   8.299  67.405  1.00  0.00    -0.106 A  
HETATM   27  C   UNL     1      -7.022   7.473  66.621  1.00  0.00    -0.074 C  
HETATM   28  N   UNL     1      -8.466   7.761  68.550  1.00  0.00    -0.128 NA 
ENDBRANCH  20  21
ENDBRANCH   6  20
TORSDOF 2
ENDMDL
MODEL      102
REMARK 921   NORMALIZED FREE ENERGY PREDICTED BY IDOCK:   -3.91 KCAL/MOL
REMARK 922        TOTAL FREE ENERGY PREDICTED BY IDOCK:   -5.02 KCAL/MOL
REMARK 923 INTER-LIGAND FREE ENERGY PREDICTED BY IDOCK:   -4.60 KCAL/MOL
REMARK 924 INTRA-LIGAND FREE ENERGY PREDICTED BY IDOCK:   -0.42 KCAL/MOL
REMARK 927      BINDING AFFINITY PREDICTED BY RF-SCORE:    0.00 PKD
ROOT
HETATM    1  C   UNL     1      -6.665   9.005  65.522  1.00  0.00    -0.072 C  
HETATM    2  O   UNL     1      -6.564   8.871  66.925  1.00  0.00    -0.060 OA 
HETATM    3  C   UNL     1      -7.729   9.048  67.779  1.00  0.00    -0.097 C  
HETATM    4  C   UNL     1      -8.771   7.922  67.460  1.00  0.00    -0.125 A  
HETATM    5  C   UNL     1      -7.120   8.901  69.205  1.00  0.00    -0.063 A  
HETATM    6  C   UNL     1      -8.377  10.494  67.656  1.00  0.00    -0.114 C  
HETATM    7  C   UNL     1      -7.474  11.646  68.085  1.00  0.00    -0.103 C  
HETATM    8  C   UNL     1      -5.822   9.412  69.461  1.00  0.00    -0.033 A  
HETATM    9  C   UNL     1      -8.364   6.666  66.972  1.00  0.00    -0.113 A  
HETATM   10  C   UNL     1      -7.286   8.423  71.591  1.00  0.00    -0.099 A  
HETATM   11  O   UNL     1      -7.367  12.058  69.232  1.00  0.00    -0.016 OA 
HETATM   12  C   UNL     1      -9.296   5.715  66.528  1.00  0.00    -0.159 A  
HETATM   13  C   UNL     1      -5.291   9.470  70.750  1.00  0.00    -0.045 A  
HETATM   14  C   UNL     1      -7.828   8.379  70.298  1.00  0.00    -0.096 A  
HETATM   15  O   UNL     1      -6.813  12.256  67.062  1.00  0.00    -0.125 OA 
HETATM   16  C   UNL     1     -10.162   8.112  67.611  1.00  0.00    -0.296 A  
HETATM   17  C   UNL     1     -10.660   5.984  66.588  1.00  0.00    -0.312 A  
HETATM   18  C   UNL     1      -6.032   8.987  71.818  1.00  0.00    -0.077 A  
HETATM   19  C   UNL     1     -11.093   7.176  67.150  1.00  0.00    -0.220 A  
ENDROOT
BRANCH   6  20
HETATM   20  O   UNL     1      -8.744  10.801  66.293  1.00  0.00    -0.157 OA 
BRANCH  20  21
HETATM   21  C   UNL     1      -9.848  11.605  66.147  1.00  0.00    -0.223 A  
HETATM   22  C   UNL     1     -12.391  13.217  68.213  1.00  0.00     0.110 C  
HETATM   23  N   UNL     1     -10.490  12.057  67.231  1.00  0.00    -0.215 NA 
HETATM   24  C   UNL     1     -12.079  13.038  65.740  1.00  0.00    -0.510 A  
HETATM   25  C   UNL     1     -11.618  12.761  67.012  1.00  0.00    -0.360 A  
HETATM   26  C   UNL     1     -11.322  12.559  64.688  1.00  0.00    -0.318 A  
HETATM   27  C   UNL     1     -11.746  12.789  63.269  1.00  0.00    -0.444 C  
HETATM   28  N   UNL     1     -10.195  11.841  64.878  1.00  0.00    -0.263 NA 
ENDBRANCH  20  21
ENDBRANCH   6  20
TORSDOF 2
ENDMDL
MODEL      103
REMARK 921   NORMALIZED FREE ENERGY PREDICTED BY IDOCK:   -3.91 KCAL/MOL
REMARK 922        TOTAL FREE ENERGY PREDICTED BY IDOCK:   -5.02 KCAL/MOL
REMARK 923 INTER-LIGAND FREE ENERGY PREDICTED BY IDOCK:   -4.59 KCAL/MOL
REMARK 924 INTRA-LIGAND FREE ENERGY PREDICTED BY IDOCK:   -0.43 KCAL/MOL
REMARK 927      BINDING AFFINITY PREDICTED BY RF-SCORE:    0.00 PKD
ROOT
HETATM    1  C   UNL     1     -11.656   8.460  70.791  1.00  0.00    -0.232 C  
HETATM    2  O   UNL     1     -10.446   8.602  71.509  1.00  0.00    -0.227 OA 
HETATM    3  C   UNL     1      -9.189   8.111  70.963  1.00  0.00    -0.152 C  
HETATM    4  C   UNL     1      -8.846   8.922  69.665  1.00  0.00    -0.142 A  
HETATM    5  C   UNL     1      -8.190   8.401  72.120  1.00  0.00    -0.207 A  
HETATM    6  C   UNL     1      -9.199   6.547  70.686  1.00  0.00    -0.162 C  
HETATM    7  C   UNL     1      -9.386   5.673  71.923  1.00  0.00    -0.144 C  
HETATM    8  C   UNL     1      -8.621   8.252  73.463  1.00  0.00    -0.269 A  
HETATM    9  C   UNL     1      -9.291  10.246  69.492  1.00  0.00    -0.200 A  
HETATM   10  C   UNL     1      -5.947   8.793  72.997  1.00  0.00    -0.077 A  
HETATM   11  O   UNL     1      -8.480   5.292  72.651  1.00  0.00    -0.116 OA 
HETATM   12  C   UNL     1      -9.132  10.919  68.271  1.00  0.00    -0.158 A  
HETATM   13  C   UNL     1      -7.734   8.324  74.537  1.00  0.00    -0.298 A  
HETATM   14  C   UNL     1      -6.835   8.704  71.915  1.00  0.00    -0.088 A  
HETATM   15  O   UNL     1     -10.669   5.272  72.142  1.00  0.00    -0.219 OA 
HETATM   16  C   UNL     1      -8.109   8.367  68.598  1.00  0.00    -0.122 A  
HETATM   17  C   UNL     1      -8.498  10.295  67.200  1.00  0.00    -0.125 A  
HETATM   18  C   UNL     1      -6.391   8.581  74.301  1.00  0.00    -0.151 A  
HETATM   19  C   UNL     1      -7.966   9.025  67.372  1.00  0.00    -0.100 A  
ENDROOT
BRANCH   6  20
HETATM   20  O   UNL     1     -10.275   6.167  69.800  1.00  0.00    -0.173 OA 
BRANCH  20  21
HETATM   21  C   UNL     1      -9.968   5.193  68.883  1.00  0.00    -0.175 A  
HETATM   22  C   UNL     1      -9.352   1.594  68.769  1.00  0.00    -0.219 C  
HETATM   23  N   UNL     1      -9.901   3.913  69.270  1.00  0.00    -0.073 NA 
HETATM   24  C   UNL     1      -9.209   3.395  67.041  1.00  0.00    -0.208 A  
HETATM   25  C   UNL     1      -9.503   3.023  68.339  1.00  0.00    -0.146 A  
HETATM   26  C   UNL     1      -9.347   4.735  66.734  1.00  0.00    -0.143 A  
HETATM   27  C   UNL     1      -9.035   5.244  65.359  1.00  0.00    -0.147 C  
HETATM   28  N   UNL     1      -9.733   5.649  67.649  1.00  0.00    -0.118 NA 
ENDBRANCH  20  21
ENDBRANCH   6  20
TORSDOF 2
ENDMDL
MODEL      104
REMARK 921   NORMALIZED FREE ENERGY PREDICTED BY IDOCK:   -3.90 KCAL/MOL
REMARK 922        TOTAL FREE ENERGY PREDICTED BY IDOCK:   -5.02 KCAL/MOL
REMARK 923 INTER-LIGAND FREE ENERGY PREDICTED BY IDOCK:   -4.37 KCAL/MOL
REMARK 924 INTRA-LIGAND FREE ENERGY PREDICTED BY IDOCK:   -0.64 KCAL/MOL
REMARK 927      BINDING AFFINITY PREDICTED BY RF-SCORE:    0.00 PKD
ROOT
HETATM    1  C   UNL     1     -11.421   8.506  70.484  1.00  0.00    -0.182 C  
HETATM    2  O   UNL     1     -10.226   8.995  69.908  1.00  0.00    -0.188 OA 
HETATM    3  C   UNL     1      -9.102   8.107  69.650  1.00  0.00    -0.151 C  
HETATM    4  C   UNL     1      -9.524   7.050  68.573  1.00  0.00    -0.134 A  
HETATM    5  C   UNL     1      -8.019   9.090  69.118  1.00  0.00    -0.101 A  
HETATM    6  C   UNL     1      -8.545   7.410  70.965  1.00  0.00    -0.134 C  
HETATM    7  C   UNL     1      -7.980   8.363  72.013  1.00  0.00    -0.135 C  
HETATM    8  C   UNL     1      -7.933  10.393  69.672  1.00  0.00    -0.129 A  
HETATM    9  C   UNL     1     -10.506   7.342  67.607  1.00  0.00    -0.310 A  
HETATM   10  C   UNL     1      -5.990   9.605  67.865  1.00  0.00    -0.051 A  
HETATM   11  O   UNL     1      -6.828   8.771  72.035  1.00  0.00    -0.168 OA 
HETATM   12  C   UNL     1     -11.007   6.351  66.749  1.00  0.00    -0.321 A  
HETATM   13  C   UNL     1      -6.881  11.258  69.367  1.00  0.00    -0.121 A  
HETATM   14  C   UNL     1      -7.037   8.728  68.183  1.00  0.00    -0.078 A  
HETATM   15  O   UNL     1      -8.855   8.697  73.002  1.00  0.00    -0.355 OA 
HETATM   16  C   UNL     1      -8.974   5.751  68.531  1.00  0.00    -0.112 A  
HETATM   17  C   UNL     1     -10.518   5.050  66.814  1.00  0.00    -0.273 A  
HETATM   18  C   UNL     1      -5.900  10.856  68.472  1.00  0.00    -0.043 A  
HETATM   19  C   UNL     1      -9.485   4.755  67.691  1.00  0.00    -0.176 A  
ENDROOT
BRANCH   6  20
HETATM   20  O   UNL     1      -9.577   6.671  71.656  1.00  0.00    -0.163 OA 
BRANCH  20  21
HETATM   21  C   UNL     1      -9.241   5.391  72.023  1.00  0.00    -0.137 A  
HETATM   22  C   UNL     1      -6.478   3.034  71.628  1.00  0.00    -0.015 C  
HETATM   23  N   UNL     1      -8.029   4.908  71.718  1.00  0.00    -0.106 NA 
HETATM   24  C   UNL     1      -8.749   2.830  72.652  1.00  0.00    -0.085 A  
HETATM   25  C   UNL     1      -7.803   3.616  72.025  1.00  0.00    -0.059 A  
HETATM   26  C   UNL     1      -9.952   3.435  72.959  1.00  0.00    -0.143 A  
HETATM   27  C   UNL     1     -11.053   2.663  73.624  1.00  0.00    -0.319 C  
HETATM   28  N   UNL     1     -10.212   4.723  72.653  1.00  0.00    -0.183 NA 
ENDBRANCH  20  21
ENDBRANCH   6  20
TORSDOF 2
ENDMDL
MODEL      105
REMARK 921   NORMALIZED FREE ENERGY PREDICTED BY IDOCK:   -3.90 KCAL/MOL
REMARK 922        TOTAL FREE ENERGY PREDICTED BY IDOCK:   -5.01 KCAL/MOL
REMARK 923 INTER-LIGAND FREE ENERGY PREDICTED BY IDOCK:   -5.17 KCAL/MOL
REMARK 924 INTRA-LIGAND FREE ENERGY PREDICTED BY IDOCK:    0.16 KCAL/MOL
REMARK 927      BINDING AFFINITY PREDICTED BY RF-SCORE:    0.00 PKD
ROOT
HETATM    1  C   UNL     1     -11.762  16.203  66.790  1.00  0.00     0.830 C  
HETATM    2  O   UNL     1     -11.160  14.939  66.991  1.00  0.00    -0.323 OA 
HETATM    3  C   UNL     1     -10.287  14.699  68.130  1.00  0.00    -0.230 C  
HETATM    4  C   UNL     1     -11.124  14.827  69.450  1.00  0.00    -0.302 A  
HETATM    5  C   UNL     1      -9.806  13.240  67.877  1.00  0.00    -0.234 A  
HETATM    6  C   UNL     1      -9.015  15.652  68.152  1.00  0.00    -0.179 C  
HETATM    7  C   UNL     1      -8.066  15.490  66.969  1.00  0.00    -0.237 C  
HETATM    8  C   UNL     1      -9.566  12.810  66.548  1.00  0.00    -0.257 A  
HETATM    9  C   UNL     1     -12.503  14.549  69.470  1.00  0.00    -0.162 A  
HETATM   10  C   UNL     1      -8.904  11.098  68.619  1.00  0.00    -0.155 A  
HETATM   11  O   UNL     1      -7.154  14.678  66.912  1.00  0.00     0.004 OA 
HETATM   12  C   UNL     1     -13.289  14.820  70.601  1.00  0.00    -0.216 A  
HETATM   13  C   UNL     1      -8.970  11.581  66.264  1.00  0.00    -0.199 A  
HETATM   14  C   UNL     1      -9.488  12.341  68.907  1.00  0.00     0.199 A  
HETATM   15  O   UNL     1      -8.263  16.385  65.961  1.00  0.00    -0.295 OA 
HETATM   16  C   UNL     1     -10.555  15.256  70.668  1.00  0.00    -0.135 A  
HETATM   17  C   UNL     1     -12.710  15.350  71.750  1.00  0.00    -0.467 A  
HETATM   18  C   UNL     1      -8.625  10.730  67.304  1.00  0.00    -0.130 A  
HETATM   19  C   UNL     1     -11.338  15.547  71.791  1.00  0.00    -0.463 A  
ENDROOT
BRANCH   6  20
HETATM   20  O   UNL     1      -9.391  17.046  68.136  1.00  0.00    -0.241 OA 
BRANCH  20  21
HETATM   21  C   UNL     1      -8.361  17.937  68.307  1.00  0.00    -0.284 A  
HETATM   22  C   UNL     1      -7.005  20.937  66.724  1.00  0.00    -0.320 C  
HETATM   23  N   UNL     1      -8.261  19.001  67.500  1.00  0.00    -0.273 NA 
HETATM   24  C   UNL     1      -6.223  19.526  68.633  1.00  0.00    -0.278 A  
HETATM   25  C   UNL     1      -7.174  19.781  67.664  1.00  0.00    -0.260 A  
HETATM   26  C   UNL     1      -6.440  18.425  69.440  1.00  0.00    -0.239 A  
HETATM   27  C   UNL     1      -5.458  18.051  70.509  1.00  0.00    -0.243 C  
HETATM   28  N   UNL     1      -7.513  17.621  69.290  1.00  0.00    -0.075 NA 
ENDBRANCH  20  21
ENDBRANCH   6  20
TORSDOF 2
ENDMDL
MODEL      106
REMARK 921   NORMALIZED FREE ENERGY PREDICTED BY IDOCK:   -3.88 KCAL/MOL
REMARK 922        TOTAL FREE ENERGY PREDICTED BY IDOCK:   -4.99 KCAL/MOL
REMARK 923 INTER-LIGAND FREE ENERGY PREDICTED BY IDOCK:   -5.10 KCAL/MOL
REMARK 924 INTRA-LIGAND FREE ENERGY PREDICTED BY IDOCK:    0.12 KCAL/MOL
REMARK 927      BINDING AFFINITY PREDICTED BY RF-SCORE:    0.00 PKD
ROOT
HETATM    1  C   UNL     1     -11.432  14.922  69.626  1.00  0.00    -0.294 C  
HETATM    2  O   UNL     1     -10.030  15.075  69.726  1.00  0.00    -0.165 OA 
HETATM    3  C   UNL     1      -9.197  15.138  68.534  1.00  0.00    -0.192 C  
HETATM    4  C   UNL     1      -9.566  16.427  67.722  1.00  0.00    -0.231 A  
HETATM    5  C   UNL     1      -7.763  15.211  69.135  1.00  0.00    -0.195 A  
HETATM    6  C   UNL     1      -9.300  13.833  67.633  1.00  0.00    -0.213 C  
HETATM    7  C   UNL     1      -8.823  12.547  68.302  1.00  0.00    -0.171 C  
HETATM    8  C   UNL     1      -7.467  14.477  70.312  1.00  0.00     0.568 A  
HETATM    9  C   UNL     1     -10.075  17.573  68.362  1.00  0.00    -0.358 A  
HETATM   10  C   UNL     1      -5.393  15.777  69.020  1.00  0.00    -0.103 A  
HETATM   11  O   UNL     1      -7.665  12.154  68.312  1.00  0.00    -0.120 OA 
HETATM   12  C   UNL     1     -10.562  18.666  67.628  1.00  0.00    -0.458 A  
HETATM   13  C   UNL     1      -6.166  14.359  70.802  1.00  0.00    -0.116 A  
HETATM   14  C   UNL     1      -6.698  15.883  68.517  1.00  0.00    -0.123 A  
HETATM   15  O   UNL     1      -9.817  11.798  68.856  1.00  0.00    -0.131 OA 
HETATM   16  C   UNL     1      -9.441  16.500  66.318  1.00  0.00    -0.339 A  
HETATM   17  C   UNL     1     -10.526  18.653  66.237  1.00  0.00    -0.468 A  
HETATM   18  C   UNL     1      -5.125  14.998  70.145  1.00  0.00    -0.102 A  
HETATM   19  C   UNL     1      -9.944  17.578  65.582  1.00  0.00     0.072 A  
ENDROOT
BRANCH   6  20
HETATM   20  O   UNL     1     -10.662  13.561  67.239  1.00  0.00    -0.264 OA 
BRANCH  20  21
HETATM   21  C   UNL     1     -10.811  12.916  66.036  1.00  0.00    -0.279 A  
HETATM   22  C   UNL     1     -13.381  12.331  63.507  1.00  0.00     0.462 C  
HETATM   23  N   UNL     1     -11.964  13.020  65.363  1.00  0.00    -0.387 NA 
HETATM   24  C   UNL     1     -11.043  11.489  63.775  1.00  0.00    -0.471 A  
HETATM   25  C   UNL     1     -12.072  12.285  64.238  1.00  0.00    -0.412 A  
HETATM   26  C   UNL     1      -9.881  11.482  64.522  1.00  0.00    -0.241 A  
HETATM   27  C   UNL     1      -8.711  10.637  64.116  1.00  0.00    -0.137 C  
HETATM   28  N   UNL     1      -9.748  12.198  65.658  1.00  0.00    -0.234 NA 
ENDBRANCH  20  21
ENDBRANCH   6  20
TORSDOF 2
ENDMDL
MODEL      107
REMARK 921   NORMALIZED FREE ENERGY PREDICTED BY IDOCK:   -3.83 KCAL/MOL
REMARK 922        TOTAL FREE ENERGY PREDICTED BY IDOCK:   -4.93 KCAL/MOL
REMARK 923 INTER-LIGAND FREE ENERGY PREDICTED BY IDOCK:   -4.28 KCAL/MOL
REMARK 924 INTRA-LIGAND FREE ENERGY PREDICTED BY IDOCK:   -0.65 KCAL/MOL
REMARK 927      BINDING AFFINITY PREDICTED BY RF-SCORE:    0.00 PKD
ROOT
HETATM    1  C   UNL     1     -11.609   7.553  70.210  1.00  0.00    -0.091 C  
HETATM    2  O   UNL     1     -10.700   8.370  69.500  1.00  0.00    -0.227 OA 
HETATM    3  C   UNL     1      -9.360   7.898  69.181  1.00  0.00    -0.154 C  
HETATM    4  C   UNL     1      -9.470   6.678  68.202  1.00  0.00    -0.115 A  
HETATM    5  C   UNL     1      -8.722   9.144  68.501  1.00  0.00    -0.129 A  
HETATM    6  C   UNL     1      -8.505   7.535  70.470  1.00  0.00    -0.133 C  
HETATM    7  C   UNL     1      -8.227   8.703  71.412  1.00  0.00    -0.160 C  
HETATM    8  C   UNL     1      -9.050  10.438  68.979  1.00  0.00    -0.193 A  
HETATM    9  C   UNL     1     -10.559   6.545  67.321  1.00  0.00    -0.383 A  
HETATM   10  C   UNL     1      -7.090  10.214  67.037  1.00  0.00    -0.090 A  
HETATM   11  O   UNL     1      -7.287   9.477  71.304  1.00  0.00    -0.331 OA 
HETATM   12  C   UNL     1     -10.750   5.378  66.564  1.00  0.00    -0.309 A  
HETATM   13  C   UNL     1      -8.384  11.581  68.533  1.00  0.00    -0.146 A  
HETATM   14  C   UNL     1      -7.746   9.062  67.496  1.00  0.00    -0.096 A  
HETATM   15  O   UNL     1      -9.090   8.798  72.461  1.00  0.00    -0.367 OA 
HETATM   16  C   UNL     1      -8.512   5.643  68.172  1.00  0.00    -0.098 A  
HETATM   17  C   UNL     1      -9.841   4.328  66.646  1.00  0.00    -0.236 A  
HETATM   18  C   UNL     1      -7.392  11.465  67.571  1.00  0.00    -0.112 A  
HETATM   19  C   UNL     1      -8.709   4.470  67.435  1.00  0.00    -0.107 A  
ENDROOT
BRANCH   6  20
HETATM   20  O   UNL     1      -9.167   6.548  71.291  1.00  0.00    -0.155 OA 
BRANCH  20  21
HETATM   21  C   UNL     1      -8.484   5.369  71.462  1.00  0.00    -0.127 A  
HETATM   22  C   UNL     1      -5.148   4.215  72.401  1.00  0.00     0.000 C  
HETATM   23  N   UNL     1      -7.223   5.391  71.913  1.00  0.00    -0.084 NA 
HETATM   24  C   UNL     1      -7.196   3.020  71.612  1.00  0.00    -0.039 A  
HETATM   25  C   UNL     1      -6.584   4.206  71.967  1.00  0.00    -0.022 A  
HETATM   26  C   UNL     1      -8.511   3.102  71.198  1.00  0.00    -0.066 A  
HETATM   27  C   UNL     1      -9.261   1.875  70.772  1.00  0.00    -0.177 C  
HETATM   28  N   UNL     1      -9.173   4.276  71.122  1.00  0.00    -0.130 NA 
ENDBRANCH  20  21
ENDBRANCH   6  20
TORSDOF 2
ENDMDL
MODEL      108
REMARK 921   NORMALIZED FREE ENERGY PREDICTED BY IDOCK:   -3.80 KCAL/MOL
REMARK 922        TOTAL FREE ENERGY PREDICTED BY IDOCK:   -4.90 KCAL/MOL
REMARK 923 INTER-LIGAND FREE ENERGY PREDICTED BY IDOCK:   -4.26 KCAL/MOL
REMARK 924 INTRA-LIGAND FREE ENERGY PREDICTED BY IDOCK:   -0.64 KCAL/MOL
REMARK 927      BINDING AFFINITY PREDICTED BY RF-SCORE:    0.00 PKD
ROOT
HETATM    1  C   UNL     1     -10.402   9.145  68.018  1.00  0.00    -0.222 C  
HETATM    2  O   UNL     1      -9.784   8.947  69.273  1.00  0.00    -0.161 OA 
HETATM    3  C   UNL     1      -8.821   7.873  69.472  1.00  0.00    -0.142 C  
HETATM    4  C   UNL     1      -7.563   8.144  68.576  1.00  0.00    -0.104 A  
HETATM    5  C   UNL     1      -8.499   7.994  70.990  1.00  0.00    -0.134 A  
HETATM    6  C   UNL     1      -9.431   6.431  69.200  1.00  0.00    -0.134 C  
HETATM    7  C   UNL     1     -10.573   6.027  70.126  1.00  0.00    -0.276 C  
HETATM    8  C   UNL     1      -9.533   8.353  71.892  1.00  0.00    -0.323 A  
HETATM    9  C   UNL     1      -7.188   9.454  68.221  1.00  0.00    -0.077 A  
HETATM   10  C   UNL     1      -7.075   7.632  72.937  1.00  0.00    -0.086 A  
HETATM   11  O   UNL     1     -10.430   5.493  71.217  1.00  0.00    -0.225 OA 
HETATM   12  C   UNL     1      -6.168   9.695  67.287  1.00  0.00    -0.067 A  
HETATM   13  C   UNL     1      -9.357   8.308  73.275  1.00  0.00    -0.244 A  
HETATM   14  C   UNL     1      -7.254   7.660  71.547  1.00  0.00    -0.063 A  
HETATM   15  O   UNL     1     -11.817   6.247  69.618  1.00  0.00    -0.290 OA 
HETATM   16  C   UNL     1      -6.766   7.103  68.055  1.00  0.00    -0.061 A  
HETATM   17  C   UNL     1      -5.477   8.634  66.708  1.00  0.00    -0.040 A  
HETATM   18  C   UNL     1      -8.129   7.932  73.798  1.00  0.00    -0.256 A  
HETATM   19  C   UNL     1      -5.762   7.338  67.109  1.00  0.00    -0.029 A  
ENDROOT
BRANCH   6  20
HETATM   20  O   UNL     1      -9.981   6.327  67.868  1.00  0.00    -0.123 OA 
BRANCH  20  21
HETATM   21  C   UNL     1      -9.642   5.189  67.178  1.00  0.00    -0.146 A  
HETATM   22  C   UNL     1      -7.192   2.485  67.332  1.00  0.00    -0.053 C  
HETATM   23  N   UNL     1      -8.670   4.394  67.642  1.00  0.00    -0.103 NA 
HETATM   24  C   UNL     1      -8.960   3.079  65.668  1.00  0.00    -0.146 A  
HETATM   25  C   UNL     1      -8.327   3.348  66.865  1.00  0.00    -0.100 A  
HETATM   26  C   UNL     1      -9.977   3.937  65.298  1.00  0.00    -0.154 A  
HETATM   27  C   UNL     1     -10.715   3.744  64.008  1.00  0.00    -0.256 C  
HETATM   28  N   UNL     1     -10.334   5.000  66.050  1.00  0.00    -0.248 NA 
ENDBRANCH  20  21
ENDBRANCH   6  20
TORSDOF 2
ENDMDL
MODEL      109
REMARK 921   NORMALIZED FREE ENERGY PREDICTED BY IDOCK:   -3.72 KCAL/MOL
REMARK 922        TOTAL FREE ENERGY PREDICTED BY IDOCK:   -4.81 KCAL/MOL
REMARK 923 INTER-LIGAND FREE ENERGY PREDICTED BY IDOCK:   -4.25 KCAL/MOL
REMARK 924 INTRA-LIGAND FREE ENERGY PREDICTED BY IDOCK:   -0.57 KCAL/MOL
REMARK 927      BINDING AFFINITY PREDICTED BY RF-SCORE:    0.00 PKD
ROOT
HETATM    1  C   UNL     1     -10.224   7.359  70.513  1.00  0.00    -0.193 C  
HETATM    2  O   UNL     1      -9.239   6.581  69.864  1.00  0.00    -0.148 OA 
HETATM    3  C   UNL     1      -8.501   7.107  68.725  1.00  0.00    -0.126 C  
HETATM    4  C   UNL     1      -7.635   8.326  69.196  1.00  0.00    -0.088 A  
HETATM    5  C   UNL     1      -7.625   5.890  68.306  1.00  0.00    -0.090 A  
HETATM    6  C   UNL     1      -9.438   7.497  67.502  1.00  0.00    -0.139 C  
HETATM    7  C   UNL     1     -10.214   6.336  66.886  1.00  0.00    -0.209 C  
HETATM    8  C   UNL     1      -8.163   4.581  68.410  1.00  0.00    -0.086 A  
HETATM    9  C   UNL     1      -7.168   8.421  70.521  1.00  0.00    -0.042 A  
HETATM   10  C   UNL     1      -5.684   4.890  67.218  1.00  0.00    -0.017 A  
HETATM   11  O   UNL     1      -9.786   5.599  66.009  1.00  0.00    -0.120 OA 
HETATM   12  C   UNL     1      -6.538   9.583  70.994  1.00  0.00    -0.061 A  
HETATM   13  C   UNL     1      -7.502   3.467  67.892  1.00  0.00    -0.061 A  
HETATM   14  C   UNL     1      -6.355   6.014  67.724  1.00  0.00    -0.037 A  
HETATM   15  O   UNL     1     -11.489   6.202  67.347  1.00  0.00    -0.035 OA 
HETATM   16  C   UNL     1      -7.306   9.398  68.340  1.00  0.00    -0.077 A  
HETATM   17  C   UNL     1      -6.332  10.667  70.146  1.00  0.00    -0.139 A  
HETATM   18  C   UNL     1      -6.266   3.626  67.281  1.00  0.00    -0.036 A  
HETATM   19  C   UNL     1      -6.697  10.566  68.812  1.00  0.00    -0.054 A  
ENDROOT
BRANCH   6  20
HETATM   20  O   UNL     1     -10.449   8.454  67.887  1.00  0.00    -0.219 OA 
BRANCH  20  21
HETATM   21  C   UNL     1     -10.425   9.645  67.204  1.00  0.00    -0.249 A  
HETATM   22  C   UNL     1     -11.205  13.169  67.760  1.00  0.00    -0.308 C  
HETATM   23  N   UNL     1     -10.739  10.781  67.839  1.00  0.00    -0.219 NA 
HETATM   24  C   UNL     1     -10.494  11.888  65.735  1.00  0.00    -0.295 A  
HETATM   25  C   UNL     1     -10.786  11.897  67.085  1.00  0.00    -0.255 A  
HETATM   26  C   UNL     1     -10.143  10.671  65.185  1.00  0.00    -0.307 A  
HETATM   27  C   UNL     1      -9.826  10.550  63.725  1.00  0.00    -0.363 C  
HETATM   28  N   UNL     1     -10.100   9.535  65.913  1.00  0.00    -0.273 NA 
ENDBRANCH  20  21
ENDBRANCH   6  20
TORSDOF 2
ENDMDL
MODEL      110
REMARK 921   NORMALIZED FREE ENERGY PREDICTED BY IDOCK:   -3.72 KCAL/MOL
REMARK 922        TOTAL FREE ENERGY PREDICTED BY IDOCK:   -4.81 KCAL/MOL
REMARK 923 INTER-LIGAND FREE ENERGY PREDICTED BY IDOCK:   -4.96 KCAL/MOL
REMARK 924 INTRA-LIGAND FREE ENERGY PREDICTED BY IDOCK:    0.15 KCAL/MOL
REMARK 927      BINDING AFFINITY PREDICTED BY RF-SCORE:    0.00 PKD
ROOT
HETATM    1  C   UNL     1      -9.607  15.738  65.770  1.00  0.00    -0.320 C  
HETATM    2  O   UNL     1      -8.960  14.630  66.363  1.00  0.00    -0.244 OA 
HETATM    3  C   UNL     1      -8.570  14.654  67.766  1.00  0.00    -0.173 C  
HETATM    4  C   UNL     1      -9.860  14.737  68.652  1.00  0.00    -0.225 A  
HETATM    5  C   UNL     1      -7.830  13.293  67.927  1.00  0.00    -0.152 A  
HETATM    6  C   UNL     1      -7.551  15.824  68.109  1.00  0.00    -0.124 C  
HETATM    7  C   UNL     1      -6.206  15.741  67.393  1.00  0.00    -0.109 C  
HETATM    8  C   UNL     1      -7.039  12.804  66.857  1.00  0.00     0.312 A  
HETATM    9  C   UNL     1     -11.087  14.210  68.207  1.00  0.00    -0.274 A  
HETATM   10  C   UNL     1      -6.997  11.427  69.258  1.00  0.00    -0.115 A  
HETATM   11  O   UNL     1      -5.239  15.110  67.797  1.00  0.00    -0.217 OA 
HETATM   12  C   UNL     1     -12.278  14.426  68.918  1.00  0.00    -0.214 A  
HETATM   13  C   UNL     1      -6.215  11.686  66.999  1.00  0.00    -0.144 A  
HETATM   14  C   UNL     1      -7.813  12.559  69.123  1.00  0.00     0.366 A  
HETATM   15  O   UNL     1      -6.122  16.495  66.262  1.00  0.00    -0.124 OA 
HETATM   16  C   UNL     1      -9.872  15.365  69.916  1.00  0.00    -0.191 A  
HETATM   17  C   UNL     1     -12.267  15.150  70.107  1.00  0.00    -0.395 A  
HETATM   18  C   UNL     1      -6.183  11.006  68.207  1.00  0.00    -0.049 A  
HETATM   19  C   UNL     1     -11.059  15.601  70.617  1.00  0.00    -0.382 A  
ENDROOT
BRANCH   6  20
HETATM   20  O   UNL     1      -8.082  17.118  67.748  1.00  0.00    -0.187 OA 
BRANCH  20  21
HETATM   21  C   UNL     1      -7.344  18.197  68.169  1.00  0.00    -0.251 A  
HETATM   22  C   UNL     1      -5.854  19.503  71.237  1.00  0.00    -0.148 C  
HETATM   23  N   UNL     1      -6.916  18.256  69.436  1.00  0.00    -0.149 NA 
HETATM   24  C   UNL     1      -6.043  20.420  68.920  1.00  0.00    -0.372 A  
HETATM   25  C   UNL     1      -6.279  19.385  69.804  1.00  0.00    -0.280 A  
HETATM   26  C   UNL     1      -6.491  20.243  67.625  1.00  0.00    -0.244 A  
HETATM   27  C   UNL     1      -6.302  21.314  66.593  1.00  0.00    -0.349 C  
HETATM   28  N   UNL     1      -7.142  19.128  67.232  1.00  0.00    -0.211 NA 
ENDBRANCH  20  21
ENDBRANCH   6  20
TORSDOF 2
ENDMDL
MODEL      111
REMARK 921   NORMALIZED FREE ENERGY PREDICTED BY IDOCK:   -3.71 KCAL/MOL
REMARK 922        TOTAL FREE ENERGY PREDICTED BY IDOCK:   -4.80 KCAL/MOL
REMARK 923 INTER-LIGAND FREE ENERGY PREDICTED BY IDOCK:   -4.32 KCAL/MOL
REMARK 924 INTRA-LIGAND FREE ENERGY PREDICTED BY IDOCK:   -0.48 KCAL/MOL
REMARK 927      BINDING AFFINITY PREDICTED BY RF-SCORE:    0.00 PKD
ROOT
HETATM    1  C   UNL     1     -11.751   6.623  70.008  1.00  0.00    -0.317 C  
HETATM    2  O   UNL     1     -11.210   5.851  68.955  1.00  0.00    -0.315 OA 
HETATM    3  C   UNL     1      -9.771   5.770  68.750  1.00  0.00    -0.132 C  
HETATM    4  C   UNL     1      -9.118   5.062  69.986  1.00  0.00    -0.166 A  
HETATM    5  C   UNL     1      -9.668   4.910  67.456  1.00  0.00    -0.198 A  
HETATM    6  C   UNL     1      -9.102   7.184  68.468  1.00  0.00    -0.132 C  
HETATM    7  C   UNL     1      -9.579   7.883  67.198  1.00  0.00    -0.171 C  
HETATM    8  C   UNL     1     -10.641   5.072  66.437  1.00  0.00    -0.317 A  
HETATM    9  C   UNL     1      -9.836   4.126  70.755  1.00  0.00    -0.248 A  
HETATM   10  C   UNL     1      -8.477   3.422  65.934  1.00  0.00    -0.110 A  
HETATM   11  O   UNL     1      -9.102   7.708  66.085  1.00  0.00    -0.173 OA 
HETATM   12  C   UNL     1      -9.319   3.615  71.956  1.00  0.00    -0.183 A  
HETATM   13  C   UNL     1     -10.510   4.465  65.187  1.00  0.00    -0.184 A  
HETATM   14  C   UNL     1      -8.597   4.045  67.185  1.00  0.00    -0.104 A  
HETATM   15  O   UNL     1     -10.566   8.800  67.396  1.00  0.00    -0.279 OA 
HETATM   16  C   UNL     1      -7.803   5.343  70.413  1.00  0.00    -0.088 A  
HETATM   17  C   UNL     1      -8.060   4.004  72.404  1.00  0.00    -0.086 A  
HETATM   18  C   UNL     1      -9.418   3.650  64.932  1.00  0.00    -0.161 A  
HETATM   19  C   UNL     1      -7.293   4.852  71.620  1.00  0.00    -0.074 A  
ENDROOT
BRANCH   6  20
HETATM   20  O   UNL     1      -9.372   8.124  69.531  1.00  0.00    -0.155 OA 
BRANCH  20  21
HETATM   21  C   UNL     1      -8.310   8.909  69.907  1.00  0.00    -0.128 A  
HETATM   22  C   UNL     1      -6.412  11.775  68.674  1.00  0.00    -0.060 C  
HETATM   23  N   UNL     1      -7.965   9.965  69.159  1.00  0.00    -0.102 NA 
HETATM   24  C   UNL     1      -6.127  10.278  70.655  1.00  0.00    -0.103 A  
HETATM   25  C   UNL     1      -6.857  10.633  69.537  1.00  0.00    -0.109 A  
HETATM   26  C   UNL     1      -6.590   9.197  71.380  1.00  0.00    -0.059 A  
HETATM   27  C   UNL     1      -5.858   8.719  72.598  1.00  0.00    -0.079 C  
HETATM   28  N   UNL     1      -7.689   8.502  71.019  1.00  0.00    -0.086 NA 
ENDBRANCH  20  21
ENDBRANCH   6  20
TORSDOF 2
ENDMDL
MODEL      112
REMARK 921   NORMALIZED FREE ENERGY PREDICTED BY IDOCK:   -3.68 KCAL/MOL
REMARK 922        TOTAL FREE ENERGY PREDICTED BY IDOCK:   -4.77 KCAL/MOL
REMARK 923 INTER-LIGAND FREE ENERGY PREDICTED BY IDOCK:   -4.20 KCAL/MOL
REMARK 924 INTRA-LIGAND FREE ENERGY PREDICTED BY IDOCK:   -0.57 KCAL/MOL
REMARK 927      BINDING AFFINITY PREDICTED BY RF-SCORE:    0.00 PKD
ROOT
HETATM    1  C   UNL     1     -10.990   8.712  70.963  1.00  0.00    -0.260 C  
HETATM    2  O   UNL     1      -9.785   9.118  70.345  1.00  0.00    -0.188 OA 
HETATM    3  C   UNL     1      -8.763   8.145  69.988  1.00  0.00    -0.131 C  
HETATM    4  C   UNL     1      -9.335   7.184  68.889  1.00  0.00    -0.139 A  
HETATM    5  C   UNL     1      -7.621   9.051  69.440  1.00  0.00    -0.078 A  
HETATM    6  C   UNL     1      -8.208   7.337  71.238  1.00  0.00    -0.106 C  
HETATM    7  C   UNL     1      -7.504   8.183  72.295  1.00  0.00    -0.114 C  
HETATM    8  C   UNL     1      -7.386  10.312  70.045  1.00  0.00    -0.157 A  
HETATM    9  C   UNL     1     -10.333   7.611  67.993  1.00  0.00    -0.257 A  
HETATM   10  C   UNL     1      -5.619   9.440  68.102  1.00  0.00    -0.037 A  
HETATM   11  O   UNL     1      -6.319   8.484  72.271  1.00  0.00    -0.066 OA 
HETATM   12  C   UNL     1     -10.967   6.712  67.121  1.00  0.00    -0.478 A  
HETATM   13  C   UNL     1      -6.276  11.092  69.721  1.00  0.00    -0.119 A  
HETATM   14  C   UNL     1      -6.726   8.647  68.438  1.00  0.00    -0.064 A  
HETATM   15  O   UNL     1      -8.294   8.547  73.343  1.00  0.00    -0.374 OA 
HETATM   16  C   UNL     1      -8.912   5.844  68.761  1.00  0.00    -0.117 A  
HETATM   17  C   UNL     1     -10.599   5.370  67.102  1.00  0.00    -0.274 A  
HETATM   18  C   UNL     1      -5.383  10.647  68.757  1.00  0.00    -0.041 A  
HETATM   19  C   UNL     1      -9.555   4.941  67.908  1.00  0.00    -0.186 A  
ENDROOT
BRANCH   6  20
HETATM   20  O   UNL     1      -9.268   6.662  71.951  1.00  0.00    -0.148 OA 
BRANCH  20  21
HETATM   21  C   UNL     1      -9.032   5.342  72.246  1.00  0.00    -0.129 A  
HETATM   22  C   UNL     1     -10.617   2.582  74.040  1.00  0.00    -0.238 C  
HETATM   23  N   UNL     1      -9.959   4.632  72.903  1.00  0.00    -0.146 NA 
HETATM   24  C   UNL     1      -8.402   2.818  72.905  1.00  0.00    -0.071 A  
HETATM   25  C   UNL     1      -9.622   3.372  73.241  1.00  0.00    -0.109 A  
HETATM   26  C   UNL     1      -7.533   3.622  72.193  1.00  0.00    -0.057 A  
HETATM   27  C   UNL     1      -6.176   3.123  71.795  1.00  0.00    -0.014 C  
HETATM   28  N   UNL     1      -7.838   4.891  71.851  1.00  0.00    -0.105 NA 
ENDBRANCH  20  21
ENDBRANCH   6  20
TORSDOF 2
ENDMDL
MODEL      113
REMARK 921   NORMALIZED FREE ENERGY PREDICTED BY IDOCK:   -3.62 KCAL/MOL
REMARK 922        TOTAL FREE ENERGY PREDICTED BY IDOCK:   -4.70 KCAL/MOL
REMARK 923 INTER-LIGAND FREE ENERGY PREDICTED BY IDOCK:   -4.11 KCAL/MOL
REMARK 924 INTRA-LIGAND FREE ENERGY PREDICTED BY IDOCK:   -0.60 KCAL/MOL
REMARK 927      BINDING AFFINITY PREDICTED BY RF-SCORE:    0.00 PKD
ROOT
HETATM    1  C   UNL     1     -10.989  10.070  67.147  1.00  0.00    -0.107 C  
HETATM    2  O   UNL     1     -10.290   8.849  67.007  1.00  0.00    -0.252 OA 
HETATM    3  C   UNL     1      -9.146   8.540  67.853  1.00  0.00    -0.140 C  
HETATM    4  C   UNL     1      -9.628   8.423  69.340  1.00  0.00    -0.170 A  
HETATM    5  C   UNL     1      -8.669   7.174  67.279  1.00  0.00    -0.120 A  
HETATM    6  C   UNL     1      -7.962   9.589  67.705  1.00  0.00    -0.099 C  
HETATM    7  C   UNL     1      -7.335   9.666  66.316  1.00  0.00    -0.094 C  
HETATM    8  C   UNL     1      -8.750   6.942  65.883  1.00  0.00    -0.146 A  
HETATM    9  C   UNL     1     -10.942   8.025  69.653  1.00  0.00    -0.106 A  
HETATM   10  C   UNL     1      -7.498   5.041  67.457  1.00  0.00    -0.083 A  
HETATM   11  O   UNL     1      -6.425   8.950  65.922  1.00  0.00    -0.056 OA 
HETATM   12  C   UNL     1     -11.429   8.078  70.968  1.00  0.00    -0.300 A  
HETATM   13  C   UNL     1      -8.181   5.816  65.286  1.00  0.00    -0.139 A  
HETATM   14  C   UNL     1      -8.054   6.180  68.057  1.00  0.00    -0.114 A  
HETATM   15  O   UNL     1      -7.827  10.663  65.530  1.00  0.00    -0.154 OA 
HETATM   16  C   UNL     1      -8.794   8.738  70.434  1.00  0.00    -0.185 A  
HETATM   17  C   UNL     1     -10.608   8.503  72.008  1.00  0.00    -0.408 A  
HETATM   18  C   UNL     1      -7.541   4.872  66.074  1.00  0.00    -0.090 A  
HETATM   19  C   UNL     1      -9.282   8.813  71.743  1.00  0.00    -0.332 A  
ENDROOT
BRANCH   6  20
HETATM   20  O   UNL     1      -8.402  10.936  67.986  1.00  0.00    -0.116 OA 
BRANCH  20  21
HETATM   21  C   UNL     1      -7.459  11.760  68.548  1.00  0.00    -0.110 A  
HETATM   22  C   UNL     1      -5.851  14.975  67.895  1.00  0.00    -0.154 C  
HETATM   23  N   UNL     1      -7.204  12.953  67.994  1.00  0.00    -0.101 NA 
HETATM   24  C   UNL     1      -5.489  13.220  69.638  1.00  0.00    -0.094 A  
HETATM   25  C   UNL     1      -6.201  13.668  68.542  1.00  0.00    -0.091 A  
HETATM   26  C   UNL     1      -5.857  11.994  70.157  1.00  0.00    -0.162 A  
HETATM   27  C   UNL     1      -5.135  11.410  71.334  1.00  0.00    -0.063 C  
HETATM   28  N   UNL     1      -6.849  11.251  69.622  1.00  0.00    -0.122 NA 
ENDBRANCH  20  21
ENDBRANCH   6  20
TORSDOF 2
ENDMDL
MODEL      114
REMARK 921   NORMALIZED FREE ENERGY PREDICTED BY IDOCK:   -3.62 KCAL/MOL
REMARK 922        TOTAL FREE ENERGY PREDICTED BY IDOCK:   -4.70 KCAL/MOL
REMARK 923 INTER-LIGAND FREE ENERGY PREDICTED BY IDOCK:   -4.19 KCAL/MOL
REMARK 924 INTRA-LIGAND FREE ENERGY PREDICTED BY IDOCK:   -0.51 KCAL/MOL
REMARK 927      BINDING AFFINITY PREDICTED BY RF-SCORE:    0.00 PKD
ROOT
HETATM    1  C   UNL     1      -8.762   7.566  70.785  1.00  0.00    -0.140 C  
HETATM    2  O   UNL     1      -8.462   6.689  69.717  1.00  0.00    -0.129 OA 
HETATM    3  C   UNL     1      -8.425   7.169  68.343  1.00  0.00    -0.124 C  
HETATM    4  C   UNL     1      -7.257   8.205  68.197  1.00  0.00    -0.094 A  
HETATM    5  C   UNL     1      -8.156   5.861  67.543  1.00  0.00    -0.102 A  
HETATM    6  C   UNL     1      -9.809   7.780  67.859  1.00  0.00    -0.160 C  
HETATM    7  C   UNL     1     -10.976   6.798  67.834  1.00  0.00    -0.227 C  
HETATM    8  C   UNL     1      -8.748   4.648  67.978  1.00  0.00    -0.112 A  
HETATM    9  C   UNL     1      -6.114   8.138  69.017  1.00  0.00    -0.039 A  
HETATM   10  C   UNL     1      -7.371   4.648  65.578  1.00  0.00    -0.076 A  
HETATM   11  O   UNL     1     -11.250   6.065  66.895  1.00  0.00    -0.240 OA 
HETATM   12  C   UNL     1      -5.145   9.153  69.007  1.00  0.00    -0.037 A  
HETATM   13  C   UNL     1      -8.692   3.482  67.214  1.00  0.00    -0.131 A  
HETATM   14  C   UNL     1      -7.440   5.826  66.337  1.00  0.00    -0.086 A  
HETATM   15  O   UNL     1     -11.767   6.834  68.942  1.00  0.00     0.057 OA 
HETATM   16  C   UNL     1      -7.299   9.268  67.270  1.00  0.00    -0.091 A  
HETATM   17  C   UNL     1      -5.279  10.247  68.156  1.00  0.00    -0.034 A  
HETATM   18  C   UNL     1      -8.014   3.488  66.004  1.00  0.00    -0.092 A  
HETATM   19  C   UNL     1      -6.346  10.292  67.271  1.00  0.00    -0.066 A  
ENDROOT
BRANCH   6  20
HETATM   20  O   UNL     1     -10.249   8.855  68.719  1.00  0.00    -0.196 OA 
BRANCH  20  21
HETATM   21  C   UNL     1     -10.477  10.056  68.093  1.00  0.00    -0.211 A  
HETATM   22  C   UNL     1     -10.138  11.557  64.780  1.00  0.00    -0.316 C  
HETATM   23  N   UNL     1     -10.275  10.166  66.773  1.00  0.00    -0.221 NA 
HETATM   24  C   UNL     1     -10.803  12.486  67.004  1.00  0.00    -0.287 A  
HETATM   25  C   UNL     1     -10.427  11.396  66.243  1.00  0.00    -0.255 A  
HETATM   26  C   UNL     1     -11.025  12.257  68.348  1.00  0.00    -0.236 A  
HETATM   27  C   UNL     1     -11.418  13.377  69.264  1.00  0.00    -0.345 C  
HETATM   28  N   UNL     1     -10.869  11.039  68.908  1.00  0.00    -0.202 NA 
ENDBRANCH  20  21
ENDBRANCH   6  20
TORSDOF 2
ENDMDL
MODEL      115
REMARK 921   NORMALIZED FREE ENERGY PREDICTED BY IDOCK:   -3.62 KCAL/MOL
REMARK 922        TOTAL FREE ENERGY PREDICTED BY IDOCK:   -4.70 KCAL/MOL
REMARK 923 INTER-LIGAND FREE ENERGY PREDICTED BY IDOCK:   -4.09 KCAL/MOL
REMARK 924 INTRA-LIGAND FREE ENERGY PREDICTED BY IDOCK:   -0.61 KCAL/MOL
REMARK 927      BINDING AFFINITY PREDICTED BY RF-SCORE:    0.00 PKD
ROOT
HETATM    1  C   UNL     1      -9.812  15.110  70.694  1.00  0.00     0.763 C  
HETATM    2  O   UNL     1     -10.208  15.422  69.374  1.00  0.00    -0.230 OA 
HETATM    3  C   UNL     1      -9.747  14.624  68.246  1.00  0.00    -0.215 C  
HETATM    4  C   UNL     1     -10.324  13.172  68.380  1.00  0.00    -0.257 A  
HETATM    5  C   UNL     1     -10.351  15.388  67.031  1.00  0.00    -0.280 A  
HETATM    6  C   UNL     1      -8.165  14.612  68.097  1.00  0.00    -0.142 C  
HETATM    7  C   UNL     1      -7.531  15.972  67.821  1.00  0.00    -0.136 C  
HETATM    8  C   UNL     1     -10.421  16.804  67.068  1.00  0.00    -0.285 A  
HETATM    9  C   UNL     1     -11.540  12.927  69.046  1.00  0.00    -0.372 A  
HETATM   10  C   UNL     1     -11.123  15.516  64.721  1.00  0.00    -0.421 A  
HETATM   11  O   UNL     1      -7.389  16.462  66.710  1.00  0.00    -0.208 OA 
HETATM   12  C   UNL     1     -11.977  11.621  69.314  1.00  0.00    -0.382 A  
HETATM   13  C   UNL     1     -10.786  17.555  65.950  1.00  0.00    -0.119 A  
HETATM   14  C   UNL     1     -10.740  14.760  65.838  1.00  0.00    -0.320 A  
HETATM   15  O   UNL     1      -7.056  16.608  68.927  1.00  0.00    -0.180 OA 
HETATM   16  C   UNL     1      -9.648  12.040  67.876  1.00  0.00    -0.196 A  
HETATM   17  C   UNL     1     -11.224  10.526  68.899  1.00  0.00    -0.323 A  
HETATM   18  C   UNL     1     -11.123  16.909  64.770  1.00  0.00     0.094 A  
HETATM   19  C   UNL     1     -10.070  10.737  68.159  1.00  0.00    -0.183 A  
ENDROOT
BRANCH   6  20
HETATM   20  O   UNL     1      -7.519  14.141  69.300  1.00  0.00    -0.087 OA 
BRANCH  20  21
HETATM   21  C   UNL     1      -6.699  13.051  69.141  1.00  0.00    -0.087 A  
HETATM   22  C   UNL     1      -5.188  11.095  66.451  1.00  0.00    -0.125 C  
HETATM   23  N   UNL     1      -6.305  12.689  67.913  1.00  0.00    -0.095 NA 
HETATM   24  C   UNL     1      -5.226  10.818  68.936  1.00  0.00    -0.041 A  
HETATM   25  C   UNL     1      -5.580  11.557  67.824  1.00  0.00    -0.049 A  
HETATM   26  C   UNL     1      -5.650  11.298  70.159  1.00  0.00    -0.109 A  
HETATM   27  C   UNL     1      -5.335  10.560  71.425  1.00  0.00    -0.042 C  
HETATM   28  N   UNL     1      -6.387  12.422  70.278  1.00  0.00    -0.059 NA 
ENDBRANCH  20  21
ENDBRANCH   6  20
TORSDOF 2
ENDMDL
MODEL      116
REMARK 921   NORMALIZED FREE ENERGY PREDICTED BY IDOCK:   -3.62 KCAL/MOL
REMARK 922        TOTAL FREE ENERGY PREDICTED BY IDOCK:   -4.70 KCAL/MOL
REMARK 923 INTER-LIGAND FREE ENERGY PREDICTED BY IDOCK:   -4.26 KCAL/MOL
REMARK 924 INTRA-LIGAND FREE ENERGY PREDICTED BY IDOCK:   -0.44 KCAL/MOL
REMARK 927      BINDING AFFINITY PREDICTED BY RF-SCORE:    0.00 PKD
ROOT
HETATM    1  C   UNL     1     -11.660   6.761  69.664  1.00  0.00    -0.176 C  
HETATM    2  O   UNL     1     -11.366   7.734  68.681  1.00  0.00     0.355 OA 
HETATM    3  C   UNL     1     -10.023   7.864  68.134  1.00  0.00    -0.180 C  
HETATM    4  C   UNL     1      -9.662   6.553  67.354  1.00  0.00    -0.150 A  
HETATM    5  C   UNL     1     -10.168   9.091  67.188  1.00  0.00    -0.334 A  
HETATM    6  C   UNL     1      -8.932   8.205  69.238  1.00  0.00    -0.148 C  
HETATM    7  C   UNL     1      -9.129   9.539  69.951  1.00  0.00    -0.216 C  
HETATM    8  C   UNL     1     -11.012  10.165  67.570  1.00  0.00    -0.319 A  
HETATM    9  C   UNL     1     -10.659   5.761  66.755  1.00  0.00    -0.373 A  
HETATM   10  C   UNL     1      -9.475  10.453  65.287  1.00  0.00    -0.290 A  
HETATM   11  O   UNL     1      -8.705  10.613  69.550  1.00  0.00    -0.096 OA 
HETATM   12  C   UNL     1     -10.363   4.505  66.202  1.00  0.00    -0.258 A  
HETATM   13  C   UNL     1     -11.051  11.365  66.858  1.00  0.00    -0.356 A  
HETATM   14  C   UNL     1      -9.422   9.253  66.011  1.00  0.00    -0.311 A  
HETATM   15  O   UNL     1      -9.777   9.449  71.146  1.00  0.00    -0.270 OA 
HETATM   16  C   UNL     1      -8.337   6.082  67.237  1.00  0.00    -0.105 A  
HETATM   17  C   UNL     1      -9.057   4.023  66.206  1.00  0.00    -0.139 A  
HETATM   18  C   UNL     1     -10.269  11.513  65.722  1.00  0.00    -0.293 A  
HETATM   19  C   UNL     1      -8.040   4.823  66.705  1.00  0.00    -0.107 A  
ENDROOT
BRANCH   6  20
HETATM   20  O   UNL     1      -8.914   7.220  70.295  1.00  0.00    -0.150 OA 
BRANCH  20  21
HETATM   21  C   UNL     1      -7.667   6.838  70.725  1.00  0.00    -0.093 A  
HETATM   22  C   UNL     1      -5.199   7.785  73.245  1.00  0.00    -0.041 C  
HETATM   23  N   UNL     1      -7.120   7.436  71.791  1.00  0.00    -0.062 NA 
HETATM   24  C   UNL     1      -5.167   6.121  71.380  1.00  0.00    -0.018 A  
HETATM   25  C   UNL     1      -5.858   7.077  72.098  1.00  0.00    -0.038 A  
HETATM   26  C   UNL     1      -5.836   5.537  70.322  1.00  0.00    -0.021 A  
HETATM   27  C   UNL     1      -5.168   4.501  69.469  1.00  0.00    -0.004 C  
HETATM   28  N   UNL     1      -7.095   5.884  69.984  1.00  0.00    -0.069 NA 
ENDBRANCH  20  21
ENDBRANCH   6  20
TORSDOF 2
ENDMDL
MODEL      117
REMARK 921   NORMALIZED FREE ENERGY PREDICTED BY IDOCK:   -3.58 KCAL/MOL
REMARK 922        TOTAL FREE ENERGY PREDICTED BY IDOCK:   -4.66 KCAL/MOL
REMARK 923 INTER-LIGAND FREE ENERGY PREDICTED BY IDOCK:   -4.28 KCAL/MOL
REMARK 924 INTRA-LIGAND FREE ENERGY PREDICTED BY IDOCK:   -0.37 KCAL/MOL
REMARK 927      BINDING AFFINITY PREDICTED BY RF-SCORE:    0.00 PKD
ROOT
HETATM    1  C   UNL     1     -10.937   9.062  66.927  1.00  0.00     0.269 C  
HETATM    2  O   UNL     1      -9.793   8.569  66.259  1.00  0.00    -0.254 OA 
HETATM    3  C   UNL     1      -8.572   9.359  66.183  1.00  0.00    -0.136 C  
HETATM    4  C   UNL     1      -7.997   9.549  67.629  1.00  0.00    -0.106 A  
HETATM    5  C   UNL     1      -7.655   8.467  65.296  1.00  0.00    -0.089 A  
HETATM    6  C   UNL     1      -8.778  10.754  65.450  1.00  0.00    -0.181 C  
HETATM    7  C   UNL     1      -9.202  10.660  63.988  1.00  0.00    -0.239 C  
HETATM    8  C   UNL     1      -8.228   7.727  64.230  1.00  0.00    -0.030 A  
HETATM    9  C   UNL     1      -8.232   8.597  68.639  1.00  0.00    -0.121 A  
HETATM   10  C   UNL     1      -5.473   7.735  64.488  1.00  0.00    -0.033 A  
HETATM   11  O   UNL     1      -8.432  10.554  63.044  1.00  0.00    -0.166 OA 
HETATM   12  C   UNL     1      -7.864   8.838  69.972  1.00  0.00    -0.094 A  
HETATM   13  C   UNL     1      -7.445   7.051  63.295  1.00  0.00    -0.092 A  
HETATM   14  C   UNL     1      -6.258   8.430  65.420  1.00  0.00    -0.045 A  
HETATM   15  O   UNL     1     -10.544  10.770  63.782  1.00  0.00    -0.287 OA 
HETATM   16  C   UNL     1      -7.249  10.685  68.003  1.00  0.00    -0.087 A  
HETATM   17  C   UNL     1      -7.227  10.024  70.324  1.00  0.00    -0.155 A  
HETATM   18  C   UNL     1      -6.063   7.068  63.417  1.00  0.00    -0.044 A  
HETATM   19  C   UNL     1      -6.899  10.939  69.334  1.00  0.00    -0.114 A  
ENDROOT
BRANCH   6  20
HETATM   20  O   UNL     1      -9.809  11.544  66.083  1.00  0.00    -0.207 OA 
BRANCH  20  21
HETATM   21  C   UNL     1      -9.631  12.904  66.021  1.00  0.00    -0.165 A  
HETATM   22  C   UNL     1      -7.591  15.503  67.578  1.00  0.00    -0.201 C  
HETATM   23  N   UNL     1      -8.670  13.483  66.751  1.00  0.00    -0.145 NA 
HETATM   24  C   UNL     1      -9.477  15.581  65.939  1.00  0.00    -0.377 A  
HETATM   25  C   UNL     1      -8.615  14.829  66.713  1.00  0.00    -0.193 A  
HETATM   26  C   UNL     1     -10.408  14.885  65.193  1.00  0.00    -0.401 A  
HETATM   27  C   UNL     1     -11.402  15.607  64.335  1.00  0.00    -0.272 C  
HETATM   28  N   UNL     1     -10.494  13.538  65.221  1.00  0.00    -0.320 NA 
ENDBRANCH  20  21
ENDBRANCH   6  20
TORSDOF 2
ENDMDL
MODEL      118
REMARK 921   NORMALIZED FREE ENERGY PREDICTED BY IDOCK:   -3.46 KCAL/MOL
REMARK 922        TOTAL FREE ENERGY PREDICTED BY IDOCK:   -4.52 KCAL/MOL
REMARK 923 INTER-LIGAND FREE ENERGY PREDICTED BY IDOCK:   -3.90 KCAL/MOL
REMARK 924 INTRA-LIGAND FREE ENERGY PREDICTED BY IDOCK:   -0.62 KCAL/MOL
REMARK 927      BINDING AFFINITY PREDICTED BY RF-SCORE:    0.00 PKD
ROOT
HETATM    1  C   UNL     1      -6.556  10.037  70.013  1.00  0.00    -0.102 C  
HETATM    2  O   UNL     1      -7.687  10.743  69.542  1.00  0.00    -0.139 OA 
HETATM    3  C   UNL     1      -8.622  10.123  68.615  1.00  0.00    -0.123 C  
HETATM    4  C   UNL     1      -9.318   8.911  69.325  1.00  0.00    -0.149 A  
HETATM    5  C   UNL     1      -9.617  11.285  68.322  1.00  0.00    -0.193 A  
HETATM    6  C   UNL     1      -7.944   9.685  67.246  1.00  0.00    -0.106 C  
HETATM    7  C   UNL     1      -7.363  10.826  66.417  1.00  0.00    -0.142 C  
HETATM    8  C   UNL     1      -9.126  12.612  68.237  1.00  0.00    -0.181 A  
HETATM    9  C   UNL     1      -9.495   8.887  70.722  1.00  0.00    -0.280 A  
HETATM   10  C   UNL     1     -11.783  12.153  67.611  1.00  0.00    -0.386 A  
HETATM   11  O   UNL     1      -7.995  11.492  65.609  1.00  0.00     0.216 OA 
HETATM   12  C   UNL     1      -9.963   7.739  71.380  1.00  0.00    -0.207 A  
HETATM   13  C   UNL     1      -9.928  13.671  67.807  1.00  0.00    -0.235 A  
HETATM   14  C   UNL     1     -10.974  11.085  68.027  1.00  0.00    -0.312 A  
HETATM   15  O   UNL     1      -6.028  11.028  66.592  1.00  0.00    -0.085 OA 
HETATM   16  C   UNL     1      -9.771   7.777  68.618  1.00  0.00    -0.159 A  
HETATM   17  C   UNL     1     -10.294   6.597  70.657  1.00  0.00    -0.233 A  
HETATM   18  C   UNL     1     -11.255  13.436  67.480  1.00  0.00    -0.309 A  
HETATM   19  C   UNL     1     -10.219   6.624  69.272  1.00  0.00    -0.206 A  
ENDROOT
BRANCH   6  20
HETATM   20  O   UNL     1      -6.834   8.785  67.464  1.00  0.00    -0.069 OA 
BRANCH  20  21
HETATM   21  C   UNL     1      -6.867   7.622  66.734  1.00  0.00    -0.067 A  
HETATM   22  C   UNL     1      -7.029   6.546  63.248  1.00  0.00    -0.051 C  
HETATM   23  N   UNL     1      -6.847   7.676  65.396  1.00  0.00    -0.045 NA 
HETATM   24  C   UNL     1      -7.088   5.298  65.413  1.00  0.00    -0.066 A  
HETATM   25  C   UNL     1      -6.976   6.502  64.746  1.00  0.00    -0.055 A  
HETATM   26  C   UNL     1      -7.058   5.348  66.793  1.00  0.00    -0.069 A  
HETATM   27  C   UNL     1      -7.192   4.099  67.610  1.00  0.00    -0.067 C  
HETATM   28  N   UNL     1      -6.942   6.509  67.470  1.00  0.00    -0.076 NA 
ENDBRANCH  20  21
ENDBRANCH   6  20
TORSDOF 2
ENDMDL
MODEL      119
REMARK 921   NORMALIZED FREE ENERGY PREDICTED BY IDOCK:   -3.41 KCAL/MOL
REMARK 922        TOTAL FREE ENERGY PREDICTED BY IDOCK:   -4.46 KCAL/MOL
REMARK 923 INTER-LIGAND FREE ENERGY PREDICTED BY IDOCK:   -3.88 KCAL/MOL
REMARK 924 INTRA-LIGAND FREE ENERGY PREDICTED BY IDOCK:   -0.58 KCAL/MOL
REMARK 927      BINDING AFFINITY PREDICTED BY RF-SCORE:    0.00 PKD
ROOT
HETATM    1  C   UNL     1     -11.309   6.262  69.345  1.00  0.00    -0.378 C  
HETATM    2  O   UNL     1     -10.262   5.345  69.593  1.00  0.00    -0.226 OA 
HETATM    3  C   UNL     1      -8.911   5.608  69.120  1.00  0.00    -0.110 C  
HETATM    4  C   UNL     1      -8.353   6.879  69.849  1.00  0.00    -0.139 A  
HETATM    5  C   UNL     1      -8.156   4.311  69.537  1.00  0.00    -0.062 A  
HETATM    6  C   UNL     1      -8.822   5.755  67.540  1.00  0.00    -0.106 C  
HETATM    7  C   UNL     1      -9.212   4.510  66.751  1.00  0.00    -0.132 C  
HETATM    8  C   UNL     1      -8.829   3.065  69.467  1.00  0.00    -0.147 A  
HETATM    9  C   UNL     1      -8.797   7.236  71.136  1.00  0.00    -0.140 A  
HETATM   10  C   UNL     1      -6.132   3.067  70.090  1.00  0.00    -0.023 A  
HETATM   11  O   UNL     1      -8.449   3.598  66.465  1.00  0.00    -0.103 OA 
HETATM   12  C   UNL     1      -8.430   8.457  71.724  1.00  0.00    -0.220 A  
HETATM   13  C   UNL     1      -8.162   1.853  69.656  1.00  0.00    -0.065 A  
HETATM   14  C   UNL     1      -6.796   4.285  69.883  1.00  0.00    -0.041 A  
HETATM   15  O   UNL     1     -10.501   4.502  66.311  1.00  0.00    -0.259 OA 
HETATM   16  C   UNL     1      -7.412   7.743  69.250  1.00  0.00    -0.093 A  
HETATM   17  C   UNL     1      -7.587   9.337  71.053  1.00  0.00    -0.091 A  
HETATM   18  C   UNL     1      -6.808   1.855  69.954  1.00  0.00    -0.033 A  
HETATM   19  C   UNL     1      -7.060   8.969  69.824  1.00  0.00    -0.055 A  
ENDROOT
BRANCH   6  20
HETATM   20  O   UNL     1      -9.699   6.793  67.050  1.00  0.00    -0.142 OA 
BRANCH  20  21
HETATM   21  C   UNL     1      -9.081   7.823  66.385  1.00  0.00    -0.175 A  
HETATM   22  C   UNL     1      -5.830   8.614  64.920  1.00  0.00    -0.059 C  
HETATM   23  N   UNL     1      -7.831   7.665  65.930  1.00  0.00    -0.098 NA 
HETATM   24  C   UNL     1      -7.918   9.951  65.237  1.00  0.00    -0.137 A  
HETATM   25  C   UNL     1      -7.254   8.748  65.371  1.00  0.00    -0.084 A  
HETATM   26  C   UNL     1      -9.218   9.997  65.703  1.00  0.00    -0.186 A  
HETATM   27  C   UNL     1     -10.019  11.261  65.622  1.00  0.00    -0.292 C  
HETATM   28  N   UNL     1      -9.817   8.933  66.278  1.00  0.00    -0.282 NA 
ENDBRANCH  20  21
ENDBRANCH   6  20
TORSDOF 2
ENDMDL
MODEL      120
REMARK 921   NORMALIZED FREE ENERGY PREDICTED BY IDOCK:   -3.39 KCAL/MOL
REMARK 922        TOTAL FREE ENERGY PREDICTED BY IDOCK:   -4.44 KCAL/MOL
REMARK 923 INTER-LIGAND FREE ENERGY PREDICTED BY IDOCK:   -3.86 KCAL/MOL
REMARK 924 INTRA-LIGAND FREE ENERGY PREDICTED BY IDOCK:   -0.58 KCAL/MOL
REMARK 927      BINDING AFFINITY PREDICTED BY RF-SCORE:    0.00 PKD
ROOT
HETATM    1  C   UNL     1      -9.424  12.647  65.661  1.00  0.00     0.025 C  
HETATM    2  O   UNL     1      -9.948  13.441  66.706  1.00  0.00    -0.251 OA 
HETATM    3  C   UNL     1      -9.557  13.209  68.089  1.00  0.00    -0.227 C  
HETATM    4  C   UNL     1      -8.027  13.510  68.244  1.00  0.00    -0.147 A  
HETATM    5  C   UNL     1     -10.440  14.235  68.859  1.00  0.00    -0.241 A  
HETATM    6  C   UNL     1      -9.920  11.749  68.602  1.00  0.00    -0.172 C  
HETATM    7  C   UNL     1     -11.409  11.421  68.620  1.00  0.00    -0.265 C  
HETATM    8  C   UNL     1     -11.758  14.494  68.405  1.00  0.00    -0.367 A  
HETATM    9  C   UNL     1      -7.377  14.439  67.410  1.00  0.00    -0.167 A  
HETATM   10  C   UNL     1     -10.944  15.639  70.789  1.00  0.00    -0.343 A  
HETATM   11  O   UNL     1     -12.167  11.671  69.547  1.00  0.00    -0.271 OA 
HETATM   12  C   UNL     1      -5.982  14.590  67.431  1.00  0.00     0.253 A  
HETATM   13  C   UNL     1     -12.657  15.263  69.144  1.00  0.00     0.176 A  
HETATM   14  C   UNL     1     -10.044  14.852  70.056  1.00  0.00     0.091 A  
HETATM   15  O   UNL     1     -11.851  10.748  67.522  1.00  0.00    -0.451 OA 
HETATM   16  C   UNL     1      -7.218  12.850  69.194  1.00  0.00     0.087 A  
HETATM   17  C   UNL     1      -5.203  13.838  68.306  1.00  0.00    -0.109 A  
HETATM   18  C   UNL     1     -12.252  15.825  70.346  1.00  0.00    -0.388 A  
HETATM   19  C   UNL     1      -5.825  12.983  69.203  1.00  0.00    -0.081 A  
ENDROOT
BRANCH   6  20
HETATM   20  O   UNL     1      -9.326  10.728  67.771  1.00  0.00    -0.149 OA 
BRANCH  20  21
HETATM   21  C   UNL     1      -8.679   9.721  68.444  1.00  0.00    -0.120 A  
HETATM   22  C   UNL     1      -8.630   8.198  71.763  1.00  0.00    -0.191 C  
HETATM   23  N   UNL     1      -9.035   9.427  69.701  1.00  0.00    -0.160 NA 
HETATM   24  C   UNL     1      -7.244   7.843  69.714  1.00  0.00    -0.066 A  
HETATM   25  C   UNL     1      -8.295   8.493  70.332  1.00  0.00    -0.124 A  
HETATM   26  C   UNL     1      -6.984   8.193  68.403  1.00  0.00    -0.073 A  
HETATM   27  C   UNL     1      -5.854   7.560  67.649  1.00  0.00    -0.036 C  
HETATM   28  N   UNL     1      -7.700   9.132  67.750  1.00  0.00    -0.092 NA 
ENDBRANCH  20  21
ENDBRANCH   6  20
TORSDOF 2
ENDMDL
MODEL      121
REMARK 921   NORMALIZED FREE ENERGY PREDICTED BY IDOCK:   -3.38 KCAL/MOL
REMARK 922        TOTAL FREE ENERGY PREDICTED BY IDOCK:   -4.43 KCAL/MOL
REMARK 923 INTER-LIGAND FREE ENERGY PREDICTED BY IDOCK:   -4.02 KCAL/MOL
REMARK 924 INTRA-LIGAND FREE ENERGY PREDICTED BY IDOCK:   -0.41 KCAL/MOL
REMARK 927      BINDING AFFINITY PREDICTED BY RF-SCORE:    0.00 PKD
ROOT
HETATM    1  C   UNL     1      -5.334   7.054  68.299  1.00  0.00    -0.020 C  
HETATM    2  O   UNL     1      -5.948   5.918  67.723  1.00  0.00    -0.016 OA 
HETATM    3  C   UNL     1      -7.398   5.799  67.667  1.00  0.00    -0.077 C  
HETATM    4  C   UNL     1      -7.966   6.929  66.741  1.00  0.00    -0.108 A  
HETATM    5  C   UNL     1      -7.590   4.382  67.053  1.00  0.00    -0.085 A  
HETATM    6  C   UNL     1      -8.080   5.823  69.102  1.00  0.00    -0.101 C  
HETATM    7  C   UNL     1      -7.690   4.671  70.023  1.00  0.00    -0.054 C  
HETATM    8  C   UNL     1      -6.689   3.345  67.406  1.00  0.00    -0.045 A  
HETATM    9  C   UNL     1      -7.200   7.466  65.689  1.00  0.00    -0.066 A  
HETATM   10  C   UNL     1      -8.887   2.701  65.852  1.00  0.00    -0.135 A  
HETATM   11  O   UNL     1      -8.241   3.580  70.047  1.00  0.00    -0.052 OA 
HETATM   12  C   UNL     1      -7.635   8.587  64.965  1.00  0.00    -0.093 A  
HETATM   13  C   UNL     1      -6.906   2.018  67.032  1.00  0.00    -0.039 A  
HETATM   14  C   UNL     1      -8.680   4.032  66.240  1.00  0.00    -0.116 A  
HETATM   15  O   UNL     1      -6.689   4.964  70.899  1.00  0.00    -0.033 OA 
HETATM   16  C   UNL     1      -9.249   7.488  66.928  1.00  0.00    -0.181 A  
HETATM   17  C   UNL     1      -8.860   9.182  65.254  1.00  0.00    -0.240 A  
HETATM   18  C   UNL     1      -8.016   1.694  66.266  1.00  0.00    -0.073 A  
HETATM   19  C   UNL     1      -9.677   8.618  66.223  1.00  0.00    -0.322 A  
ENDROOT
BRANCH   6  20
HETATM   20  O   UNL     1      -7.737   7.018  69.838  1.00  0.00    -0.103 OA 
BRANCH  20  21
HETATM   21  C   UNL     1      -8.786   7.652  70.456  1.00  0.00    -0.138 A  
HETATM   22  C   UNL     1     -10.886  10.606  70.003  1.00  0.00    -0.280 C  
HETATM   23  N   UNL     1      -9.340   8.730  69.885  1.00  0.00    -0.158 NA 
HETATM   24  C   UNL     1     -10.725   8.902  71.825  1.00  0.00    -0.432 A  
HETATM   25  C   UNL     1     -10.301   9.357  70.591  1.00  0.00    -0.284 A  
HETATM   26  C   UNL     1     -10.117   7.760  72.307  1.00  0.00    -0.220 A  
HETATM   27  C   UNL     1     -10.491   7.196  73.644  1.00  0.00    -0.412 C  
HETATM   28  N   UNL     1      -9.143   7.118  71.627  1.00  0.00    -0.137 NA 
ENDBRANCH  20  21
ENDBRANCH   6  20
TORSDOF 2
ENDMDL
MODEL      122
REMARK 921   NORMALIZED FREE ENERGY PREDICTED BY IDOCK:   -3.24 KCAL/MOL
REMARK 922        TOTAL FREE ENERGY PREDICTED BY IDOCK:   -4.27 KCAL/MOL
REMARK 923 INTER-LIGAND FREE ENERGY PREDICTED BY IDOCK:   -4.38 KCAL/MOL
REMARK 924 INTRA-LIGAND FREE ENERGY PREDICTED BY IDOCK:    0.11 KCAL/MOL
REMARK 927      BINDING AFFINITY PREDICTED BY RF-SCORE:    0.00 PKD
ROOT
HETATM    1  C   UNL     1      -6.880  11.876  66.915  1.00  0.00    -0.075 C  
HETATM    2  O   UNL     1      -8.114  11.540  67.518  1.00  0.00    -0.126 OA 
HETATM    3  C   UNL     1      -9.345  12.209  67.126  1.00  0.00    -0.193 C  
HETATM    4  C   UNL     1      -9.658  11.865  65.629  1.00  0.00    -0.221 A  
HETATM    5  C   UNL     1     -10.386  11.588  68.103  1.00  0.00    -0.211 A  
HETATM    6  C   UNL     1      -9.304  13.780  67.367  1.00  0.00    -0.226 C  
HETATM    7  C   UNL     1      -9.145  14.207  68.823  1.00  0.00    -0.071 C  
HETATM    8  C   UNL     1      -9.996  11.289  69.434  1.00  0.00     0.134 A  
HETATM    9  C   UNL     1      -9.227  10.656  65.052  1.00  0.00    -0.245 A  
HETATM   10  C   UNL     1     -12.661  10.990  68.750  1.00  0.00     0.776 A  
HETATM   11  O   UNL     1     -10.068  14.356  69.611  1.00  0.00     0.058 OA 
HETATM   12  C   UNL     1      -9.356  10.414  63.676  1.00  0.00    -0.329 A  
HETATM   13  C   UNL     1     -10.918  10.898  70.405  1.00  0.00     0.060 A  
HETATM   14  C   UNL     1     -11.738  11.400  67.777  1.00  0.00    -0.279 A  
HETATM   15  O   UNL     1      -7.864  14.486  69.192  1.00  0.00    -0.134 OA 
HETATM   16  C   UNL     1     -10.353  12.751  64.778  1.00  0.00    -0.345 A  
HETATM   17  C   UNL     1      -9.947  11.363  62.846  1.00  0.00    -0.278 A  
HETATM   18  C   UNL     1     -12.256  10.762  70.064  1.00  0.00    -0.409 A  
HETATM   19  C   UNL     1     -10.465  12.523  63.402  1.00  0.00    -0.253 A  
ENDROOT
BRANCH   6  20
HETATM   20  O   UNL     1      -8.195  14.397  66.677  1.00  0.00     0.003 OA 
BRANCH  20  21
HETATM   21  C   UNL     1      -8.205  15.770  66.655  1.00  0.00    -0.270 A  
HETATM   22  C   UNL     1     -10.604  18.522  66.767  1.00  0.00    -0.395 C  
HETATM   23  N   UNL     1      -9.362  16.429  66.803  1.00  0.00    -0.233 NA 
HETATM   24  C   UNL     1      -8.127  18.443  66.441  1.00  0.00    -0.285 A  
HETATM   25  C   UNL     1      -9.310  17.770  66.676  1.00  0.00    -0.287 A  
HETATM   26  C   UNL     1      -6.984  17.674  66.344  1.00  0.00    -0.265 A  
HETATM   27  C   UNL     1      -5.653  18.306  66.070  1.00  0.00    -0.212 C  
HETATM   28  N   UNL     1      -7.008  16.329  66.454  1.00  0.00    -0.075 NA 
ENDBRANCH  20  21
ENDBRANCH   6  20
TORSDOF 2
ENDMDL
MODEL      123
REMARK 921   NORMALIZED FREE ENERGY PREDICTED BY IDOCK:   -3.13 KCAL/MOL
REMARK 922        TOTAL FREE ENERGY PREDICTED BY IDOCK:   -4.15 KCAL/MOL
REMARK 923 INTER-LIGAND FREE ENERGY PREDICTED BY IDOCK:   -3.58 KCAL/MOL
REMARK 924 INTRA-LIGAND FREE ENERGY PREDICTED BY IDOCK:   -0.57 KCAL/MOL
REMARK 927      BINDING AFFINITY PREDICTED BY RF-SCORE:    0.00 PKD
ROOT
HETATM    1  C   UNL     1     -10.346   8.057  67.737  1.00  0.00    -0.231 C  
HETATM    2  O   UNL     1      -9.251   7.843  66.869  1.00  0.00    -0.140 OA 
HETATM    3  C   UNL     1      -8.157   8.800  66.794  1.00  0.00    -0.104 C  
HETATM    4  C   UNL     1      -7.419   8.841  68.176  1.00  0.00    -0.092 A  
HETATM    5  C   UNL     1      -7.266   8.198  65.668  1.00  0.00    -0.071 A  
HETATM    6  C   UNL     1      -8.628  10.249  66.342  1.00  0.00    -0.133 C  
HETATM    7  C   UNL     1      -9.231  10.326  64.943  1.00  0.00    -0.227 C  
HETATM    8  C   UNL     1      -7.883   7.561  64.562  1.00  0.00    -0.130 A  
HETATM    9  C   UNL     1      -7.398   7.719  69.026  1.00  0.00    -0.089 A  
HETATM   10  C   UNL     1      -5.140   7.921  64.505  1.00  0.00    -0.029 A  
HETATM   11  O   UNL     1      -8.588  10.480  63.914  1.00  0.00    -0.171 OA 
HETATM   12  C   UNL     1      -6.886   7.798  70.331  1.00  0.00    -0.046 A  
HETATM   13  C   UNL     1      -7.157   7.158  63.441  1.00  0.00    -0.066 A  
HETATM   14  C   UNL     1      -5.871   8.342  65.626  1.00  0.00    -0.044 A  
HETATM   15  O   UNL     1     -10.591  10.275  64.911  1.00  0.00    -0.111 OA 
HETATM   16  C   UNL     1      -6.771   9.999  68.655  1.00  0.00    -0.053 A  
HETATM   17  C   UNL     1      -6.356   8.992  70.809  1.00  0.00    -0.055 A  
HETATM   18  C   UNL     1      -5.784   7.352  63.407  1.00  0.00    -0.045 A  
HETATM   19  C   UNL     1      -6.279  10.088  69.962  1.00  0.00    -0.068 A  
ENDROOT
BRANCH   6  20
HETATM   20  O   UNL     1      -9.652  10.775  67.215  1.00  0.00    -0.158 OA 
BRANCH  20  21
HETATM   21  C   UNL     1      -9.601  12.130  67.434  1.00  0.00    -0.177 A  
HETATM   22  C   UNL     1     -11.689  15.089  66.961  1.00  0.00    -0.199 C  
HETATM   23  N   UNL     1     -10.674  12.886  67.170  1.00  0.00    -0.251 NA 
HETATM   24  C   UNL     1      -9.339  14.780  67.754  1.00  0.00    -0.199 A  
HETATM   25  C   UNL     1     -10.522  14.217  67.319  1.00  0.00    -0.269 A  
HETATM   26  C   UNL     1      -8.305  13.909  68.037  1.00  0.00    -0.166 A  
HETATM   27  C   UNL     1      -6.973  14.420  68.498  1.00  0.00    -0.100 C  
HETATM   28  N   UNL     1      -8.424  12.574  67.886  1.00  0.00    -0.161 NA 
ENDBRANCH  20  21
ENDBRANCH   6  20
TORSDOF 2
ENDMDL
MODEL      124
REMARK 921   NORMALIZED FREE ENERGY PREDICTED BY IDOCK:   -3.13 KCAL/MOL
REMARK 922        TOTAL FREE ENERGY PREDICTED BY IDOCK:   -4.15 KCAL/MOL
REMARK 923 INTER-LIGAND FREE ENERGY PREDICTED BY IDOCK:   -3.66 KCAL/MOL
REMARK 924 INTRA-LIGAND FREE ENERGY PREDICTED BY IDOCK:   -0.49 KCAL/MOL
REMARK 927      BINDING AFFINITY PREDICTED BY RF-SCORE:    0.00 PKD
ROOT
HETATM    1  C   UNL     1     -11.283  11.076  66.365  1.00  0.00     0.033 C  
HETATM    2  O   UNL     1     -11.077  12.283  67.072  1.00  0.00    -0.258 OA 
HETATM    3  C   UNL     1     -10.285  12.309  68.293  1.00  0.00    -0.220 C  
HETATM    4  C   UNL     1      -8.805  11.925  67.948  1.00  0.00    -0.172 A  
HETATM    5  C   UNL     1     -10.419  13.793  68.744  1.00  0.00    -0.224 A  
HETATM    6  C   UNL     1     -10.876  11.379  69.439  1.00  0.00    -0.162 C  
HETATM    7  C   UNL     1     -12.264  11.770  69.937  1.00  0.00    -0.223 C  
HETATM    8  C   UNL     1     -11.649  14.470  68.542  1.00  0.00    -0.344 A  
HETATM    9  C   UNL     1      -8.260  12.184  66.676  1.00  0.00    -0.017 A  
HETATM   10  C   UNL     1      -9.659  15.761  69.967  1.00  0.00     0.116 A  
HETATM   11  O   UNL     1     -12.483  12.586  70.822  1.00  0.00    -0.350 OA 
HETATM   12  C   UNL     1      -6.997  11.696  66.307  1.00  0.00     0.243 A  
HETATM   13  C   UNL     1     -11.893  15.735  69.077  1.00  0.00    -0.367 A  
HETATM   14  C   UNL     1      -9.418  14.482  69.444  1.00  0.00     0.160 A  
HETATM   15  O   UNL     1     -13.286  11.082  69.357  1.00  0.00     0.285 OA 
HETATM   16  C   UNL     1      -7.956  11.278  68.871  1.00  0.00    -0.104 A  
HETATM   17  C   UNL     1      -6.234  10.962  67.210  1.00  0.00    -0.064 A  
HETATM   18  C   UNL     1     -10.899  16.375  69.803  1.00  0.00    -0.343 A  
HETATM   19  C   UNL     1      -6.705  10.772  68.501  1.00  0.00    -0.057 A  
ENDROOT
BRANCH   6  20
HETATM   20  O   UNL     1     -11.014  10.010  68.999  1.00  0.00    -0.223 OA 
BRANCH  20  21
HETATM   21  C   UNL     1     -10.719   9.056  69.941  1.00  0.00    -0.229 A  
HETATM   22  C   UNL     1      -7.808   7.649  71.639  1.00  0.00    -0.089 C  
HETATM   23  N   UNL     1      -9.457   8.902  70.359  1.00  0.00    -0.181 NA 
HETATM   24  C   UNL     1     -10.237   7.059  71.667  1.00  0.00    -0.208 A  
HETATM   25  C   UNL     1      -9.227   7.885  71.213  1.00  0.00    -0.146 A  
HETATM   26  C   UNL     1     -11.511   7.327  71.205  1.00  0.00    -0.283 A  
HETATM   27  C   UNL     1     -12.674   6.478  71.622  1.00  0.00    -0.159 C  
HETATM   28  N   UNL     1     -11.769   8.331  70.340  1.00  0.00    -0.075 NA 
ENDBRANCH  20  21
ENDBRANCH   6  20
TORSDOF 2
ENDMDL
MODEL      125
REMARK 921   NORMALIZED FREE ENERGY PREDICTED BY IDOCK:   -3.03 KCAL/MOL
REMARK 922        TOTAL FREE ENERGY PREDICTED BY IDOCK:   -4.04 KCAL/MOL
REMARK 923 INTER-LIGAND FREE ENERGY PREDICTED BY IDOCK:   -3.43 KCAL/MOL
REMARK 924 INTRA-LIGAND FREE ENERGY PREDICTED BY IDOCK:   -0.61 KCAL/MOL
REMARK 927      BINDING AFFINITY PREDICTED BY RF-SCORE:    0.00 PKD
ROOT
HETATM    1  C   UNL     1      -6.736   6.965  68.231  1.00  0.00    -0.068 C  
HETATM    2  O   UNL     1      -7.558   6.396  67.231  1.00  0.00    -0.093 OA 
HETATM    3  C   UNL     1      -8.605   5.445  67.575  1.00  0.00    -0.108 C  
HETATM    4  C   UNL     1      -9.684   6.170  68.452  1.00  0.00    -0.133 A  
HETATM    5  C   UNL     1      -9.158   5.040  66.177  1.00  0.00    -0.138 A  
HETATM    6  C   UNL     1      -8.050   4.141  68.294  1.00  0.00    -0.081 C  
HETATM    7  C   UNL     1      -7.098   3.295  67.454  1.00  0.00    -0.058 C  
HETATM    8  C   UNL     1      -8.261   4.923  65.085  1.00  0.00    -0.124 A  
HETATM    9  C   UNL     1      -9.916   7.553  68.330  1.00  0.00    -0.185 A  
HETATM   10  C   UNL     1     -10.895   4.164  64.706  1.00  0.00    -0.118 A  
HETATM   11  O   UNL     1      -7.447   2.421  66.673  1.00  0.00    -0.067 OA 
HETATM   12  C   UNL     1     -10.756   8.236  69.223  1.00  0.00    -0.140 A  
HETATM   13  C   UNL     1      -8.658   4.397  63.855  1.00  0.00    -0.122 A  
HETATM   14  C   UNL     1     -10.493   4.676  65.949  1.00  0.00    -0.305 A  
HETATM   15  O   UNL     1      -5.778   3.538  67.681  1.00  0.00    -0.020 OA 
HETATM   16  C   UNL     1     -10.451   5.491  69.423  1.00  0.00    -0.360 A  
HETATM   17  C   UNL     1     -11.410   7.549  70.242  1.00  0.00    -0.219 A  
HETATM   18  C   UNL     1      -9.975   4.003  63.671  1.00  0.00    -0.144 A  
HETATM   19  C   UNL     1     -11.273   6.171  70.327  1.00  0.00    -0.439 A  
ENDROOT
BRANCH   6  20
HETATM   20  O   UNL     1      -7.302   4.465  69.486  1.00  0.00    -0.050 OA 
BRANCH  20  21
HETATM   21  C   UNL     1      -7.428   3.573  70.522  1.00  0.00    -0.041 A  
HETATM   22  C   UNL     1      -5.316   1.785  72.907  1.00  0.00     0.000 C  
HETATM   23  N   UNL     1      -6.345   3.209  71.221  1.00  0.00    -0.018 NA 
HETATM   24  C   UNL     1      -7.767   1.710  72.423  1.00  0.00    -0.044 A  
HETATM   25  C   UNL     1      -6.528   2.260  72.161  1.00  0.00    -0.014 A  
HETATM   26  C   UNL     1      -8.826   2.184  71.673  1.00  0.00    -0.073 A  
HETATM   27  C   UNL     1     -10.209   1.638  71.866  1.00  0.00    -0.197 C  
HETATM   28  N   UNL     1      -8.671   3.124  70.717  1.00  0.00    -0.071 NA 
ENDBRANCH  20  21
ENDBRANCH   6  20
TORSDOF 2
ENDMDL
MODEL      126
REMARK 921   NORMALIZED FREE ENERGY PREDICTED BY IDOCK:   -3.01 KCAL/MOL
REMARK 922        TOTAL FREE ENERGY PREDICTED BY IDOCK:   -4.01 KCAL/MOL
REMARK 923 INTER-LIGAND FREE ENERGY PREDICTED BY IDOCK:   -4.23 KCAL/MOL
REMARK 924 INTRA-LIGAND FREE ENERGY PREDICTED BY IDOCK:    0.21 KCAL/MOL
REMARK 927      BINDING AFFINITY PREDICTED BY RF-SCORE:    0.00 PKD
ROOT
HETATM    1  C   UNL     1     -10.691   7.167  71.971  1.00  0.00    -0.214 C  
HETATM    2  O   UNL     1      -9.519   7.955  71.932  1.00  0.00    -0.152 OA 
HETATM    3  C   UNL     1      -8.911   8.329  70.663  1.00  0.00    -0.151 C  
HETATM    4  C   UNL     1      -9.902   9.255  69.877  1.00  0.00    -0.219 A  
HETATM    5  C   UNL     1      -7.632   9.090  71.120  1.00  0.00    -0.130 A  
HETATM    6  C   UNL     1      -8.468   7.077  69.792  1.00  0.00    -0.137 C  
HETATM    7  C   UNL     1      -7.395   6.196  70.424  1.00  0.00    -0.089 C  
HETATM    8  C   UNL     1      -6.933   8.642  72.271  1.00  0.00    -0.052 A  
HETATM    9  C   UNL     1     -10.831  10.070  70.551  1.00  0.00    -0.380 A  
HETATM   10  C   UNL     1      -5.815  10.679  70.767  1.00  0.00    -0.084 A  
HETATM   11  O   UNL     1      -6.191   6.383  70.325  1.00  0.00    -0.033 OA 
HETATM   12  C   UNL     1     -11.829  10.772  69.857  1.00  0.00    -0.413 A  
HETATM   13  C   UNL     1      -5.691   9.166  72.631  1.00  0.00    -0.030 A  
HETATM   14  C   UNL     1      -7.056  10.143  70.393  1.00  0.00    -0.099 A  
HETATM   15  O   UNL     1      -7.878   5.105  71.082  1.00  0.00    -0.096 OA 
HETATM   16  C   UNL     1      -9.940   9.299  68.467  1.00  0.00    -0.193 A  
HETATM   17  C   UNL     1     -11.905  10.701  68.469  1.00  0.00    -0.087 A  
HETATM   18  C   UNL     1      -5.125  10.176  71.868  1.00  0.00    -0.059 A  
HETATM   19  C   UNL     1     -10.945   9.981  67.772  1.00  0.00    -0.310 A  
ENDROOT
BRANCH   6  20
HETATM   20  O   UNL     1      -9.575   6.185  69.536  1.00  0.00    -0.141 OA 
BRANCH  20  21
HETATM   21  C   UNL     1      -9.320   5.167  68.650  1.00  0.00    -0.125 A  
HETATM   22  C   UNL     1      -9.316   1.515  68.559  1.00  0.00    -0.231 C  
HETATM   23  N   UNL     1      -9.524   3.897  69.022  1.00  0.00    -0.173 NA 
HETATM   24  C   UNL     1      -8.642   3.255  66.895  1.00  0.00    -0.120 A  
HETATM   25  C   UNL     1      -9.163   2.947  68.136  1.00  0.00    -0.196 A  
HETATM   26  C   UNL     1      -8.509   4.596  66.594  1.00  0.00    -0.105 A  
HETATM   27  C   UNL     1      -7.936   5.037  65.281  1.00  0.00    -0.102 C  
HETATM   28  N   UNL     1      -8.850   5.569  67.466  1.00  0.00    -0.107 NA 
ENDBRANCH  20  21
ENDBRANCH   6  20
TORSDOF 2
ENDMDL
MODEL      127
REMARK 921   NORMALIZED FREE ENERGY PREDICTED BY IDOCK:   -2.97 KCAL/MOL
REMARK 922        TOTAL FREE ENERGY PREDICTED BY IDOCK:   -3.98 KCAL/MOL
REMARK 923 INTER-LIGAND FREE ENERGY PREDICTED BY IDOCK:   -3.49 KCAL/MOL
REMARK 924 INTRA-LIGAND FREE ENERGY PREDICTED BY IDOCK:   -0.48 KCAL/MOL
REMARK 927      BINDING AFFINITY PREDICTED BY RF-SCORE:    0.00 PKD
ROOT
HETATM    1  C   UNL     1     -10.792   9.220  66.672  1.00  0.00     0.148 C  
HETATM    2  O   UNL     1      -9.705   9.156  67.573  1.00  0.00    -0.148 OA 
HETATM    3  C   UNL     1      -9.373  10.288  68.426  1.00  0.00    -0.143 C  
HETATM    4  C   UNL     1     -10.555  10.538  69.425  1.00  0.00    -0.269 A  
HETATM    5  C   UNL     1      -8.086   9.792  69.149  1.00  0.00    -0.107 A  
HETATM    6  C   UNL     1      -9.015  11.601  67.607  1.00  0.00    -0.166 C  
HETATM    7  C   UNL     1      -7.784  11.490  66.712  1.00  0.00    -0.136 C  
HETATM    8  C   UNL     1      -7.156   8.993  68.438  1.00  0.00    -0.076 A  
HETATM    9  C   UNL     1     -11.396   9.487  69.839  1.00  0.00    -0.161 A  
HETATM   10  C   UNL     1      -6.483   9.833  70.987  1.00  0.00    -0.017 A  
HETATM   11  O   UNL     1      -6.636  11.698  67.077  1.00  0.00    -0.123 OA 
HETATM   12  C   UNL     1     -12.552   9.730  70.596  1.00  0.00    -0.185 A  
HETATM   13  C   UNL     1      -5.907   8.664  68.967  1.00  0.00    -0.040 A  
HETATM   14  C   UNL     1      -7.732  10.180  70.451  1.00  0.00     0.139 A  
HETATM   15  O   UNL     1      -8.058  11.194  65.411  1.00  0.00     0.022 OA 
HETATM   16  C   UNL     1     -10.860  11.818  69.933  1.00  0.00     0.325 A  
HETATM   17  C   UNL     1     -12.882  11.025  70.985  1.00  0.00    -0.442 A  
HETATM   18  C   UNL     1      -5.566   9.098  70.239  1.00  0.00    -0.031 A  
HETATM   19  C   UNL     1     -12.022  12.068  70.671  1.00  0.00    -0.257 A  
ENDROOT
BRANCH   6  20
HETATM   20  O   UNL     1     -10.086  11.984  66.716  1.00  0.00    -0.201 OA 
BRANCH  20  21
HETATM   21  C   UNL     1     -10.438  13.311  66.753  1.00  0.00    -0.270 A  
HETATM   22  C   UNL     1     -10.729  16.031  69.174  1.00  0.00    -0.272 C  
HETATM   23  N   UNL     1     -10.326  13.997  67.898  1.00  0.00    -0.236 NA 
HETATM   24  C   UNL     1     -11.299  15.852  66.746  1.00  0.00     0.155 A  
HETATM   25  C   UNL     1     -10.778  15.266  67.884  1.00  0.00    -0.275 A  
HETATM   26  C   UNL     1     -11.333  15.071  65.608  1.00  0.00    -0.297 A  
HETATM   27  C   UNL     1     -11.897  15.606  64.326  1.00  0.00    -0.151 C  
HETATM   28  N   UNL     1     -10.899  13.793  65.595  1.00  0.00    -0.283 NA 
ENDBRANCH  20  21
ENDBRANCH   6  20
TORSDOF 2
ENDMDL
MODEL      128
REMARK 921   NORMALIZED FREE ENERGY PREDICTED BY IDOCK:   -2.90 KCAL/MOL
REMARK 922        TOTAL FREE ENERGY PREDICTED BY IDOCK:   -3.90 KCAL/MOL
REMARK 923 INTER-LIGAND FREE ENERGY PREDICTED BY IDOCK:   -3.49 KCAL/MOL
REMARK 924 INTRA-LIGAND FREE ENERGY PREDICTED BY IDOCK:   -0.41 KCAL/MOL
REMARK 927      BINDING AFFINITY PREDICTED BY RF-SCORE:    0.00 PKD
ROOT
HETATM    1  C   UNL     1     -10.187   9.365  70.826  1.00  0.00    -0.299 C  
HETATM    2  O   UNL     1      -9.766   8.017  70.758  1.00  0.00    -0.165 OA 
HETATM    3  C   UNL     1      -8.627   7.629  69.939  1.00  0.00    -0.138 C  
HETATM    4  C   UNL     1      -7.333   8.302  70.513  1.00  0.00    -0.056 A  
HETATM    5  C   UNL     1      -8.610   6.081  70.106  1.00  0.00    -0.135 A  
HETATM    6  C   UNL     1      -8.824   7.966  68.399  1.00  0.00    -0.130 C  
HETATM    7  C   UNL     1      -9.982   7.240  67.721  1.00  0.00    -0.166 C  
HETATM    8  C   UNL     1      -9.840   5.380  70.197  1.00  0.00    -0.273 A  
HETATM    9  C   UNL     1      -7.220   8.620  71.880  1.00  0.00    -0.092 A  
HETATM   10  C   UNL     1      -7.499   3.910  70.059  1.00  0.00    -0.045 A  
HETATM   11  O   UNL     1      -9.908   6.127  67.217  1.00  0.00    -0.121 OA 
HETATM   12  C   UNL     1      -6.140   9.370  72.370  1.00  0.00     0.201 A  
HETATM   13  C   UNL     1      -9.900   3.987  70.172  1.00  0.00    -0.207 A  
HETATM   14  C   UNL     1      -7.438   5.311  70.067  1.00  0.00    -0.064 A  
HETATM   15  O   UNL     1     -11.136   7.960  67.650  1.00  0.00    -0.004 OA 
HETATM   16  C   UNL     1      -6.235   8.651  69.698  1.00  0.00    -0.036 A  
HETATM   17  C   UNL     1      -5.130   9.795  71.512  1.00  0.00    -0.071 A  
HETATM   18  C   UNL     1      -8.727   3.251  70.087  1.00  0.00    -0.126 A  
HETATM   19  C   UNL     1      -5.167   9.416  70.179  1.00  0.00    -0.028 A  
ENDROOT
BRANCH   6  20
HETATM   20  O   UNL     1      -9.096   9.369  68.189  1.00  0.00    -0.128 OA 
BRANCH  20  21
HETATM   21  C   UNL     1      -8.846   9.836  66.922  1.00  0.00    -0.138 A  
HETATM   22  C   UNL     1     -10.605  11.501  64.189  1.00  0.00    -0.420 C  
HETATM   23  N   UNL     1      -9.805  10.488  66.252  1.00  0.00    -0.208 NA 
HETATM   24  C   UNL     1      -8.297  10.566  64.399  1.00  0.00    -0.097 A  
HETATM   25  C   UNL     1      -9.521  10.833  64.981  1.00  0.00    -0.241 A  
HETATM   26  C   UNL     1      -7.363   9.924  65.189  1.00  0.00    -0.133 A  
HETATM   27  C   UNL     1      -6.011   9.571  64.646  1.00  0.00    -0.079 C  
HETATM   28  N   UNL     1      -7.623   9.555  66.461  1.00  0.00    -0.093 NA 
ENDBRANCH  20  21
ENDBRANCH   6  20
TORSDOF 2
ENDMDL
MODEL      129
REMARK 921   NORMALIZED FREE ENERGY PREDICTED BY IDOCK:   -2.89 KCAL/MOL
REMARK 922        TOTAL FREE ENERGY PREDICTED BY IDOCK:   -3.89 KCAL/MOL
REMARK 923 INTER-LIGAND FREE ENERGY PREDICTED BY IDOCK:   -3.29 KCAL/MOL
REMARK 924 INTRA-LIGAND FREE ENERGY PREDICTED BY IDOCK:   -0.60 KCAL/MOL
REMARK 927      BINDING AFFINITY PREDICTED BY RF-SCORE:    0.00 PKD
ROOT
HETATM    1  C   UNL     1      -7.776   7.970  67.140  1.00  0.00    -0.101 C  
HETATM    2  O   UNL     1      -7.379   8.070  68.493  1.00  0.00    -0.092 OA 
HETATM    3  C   UNL     1      -8.259   8.664  69.489  1.00  0.00    -0.115 C  
HETATM    4  C   UNL     1      -9.539   7.772  69.635  1.00  0.00    -0.163 A  
HETATM    5  C   UNL     1      -7.374   8.639  70.769  1.00  0.00    -0.070 A  
HETATM    6  C   UNL     1      -8.634  10.174  69.167  1.00  0.00    -0.165 C  
HETATM    7  C   UNL     1      -7.456  11.144  69.146  1.00  0.00    -0.109 C  
HETATM    8  C   UNL     1      -5.980   8.872  70.654  1.00  0.00    -0.035 A  
HETATM    9  C   UNL     1      -9.499   6.389  69.375  1.00  0.00    -0.146 A  
HETATM   10  C   UNL     1      -7.066   8.650  73.189  1.00  0.00     0.029 A  
HETATM   11  O   UNL     1      -7.010  11.719  70.128  1.00  0.00     0.126 OA 
HETATM   12  C   UNL     1     -10.671   5.617  69.341  1.00  0.00    -0.365 A  
HETATM   13  C   UNL     1      -5.162   9.037  71.773  1.00  0.00    -0.048 A  
HETATM   14  C   UNL     1      -7.893   8.502  72.066  1.00  0.00    -0.150 A  
HETATM   15  O   UNL     1      -6.949  11.389  67.906  1.00  0.00    -0.069 OA 
HETATM   16  C   UNL     1     -10.795   8.304  69.998  1.00  0.00    -0.232 A  
HETATM   17  C   UNL     1     -11.908   6.201  69.595  1.00  0.00     0.387 A  
HETATM   18  C   UNL     1      -5.711   8.940  73.043  1.00  0.00    -0.075 A  
HETATM   19  C   UNL     1     -11.967   7.542  69.945  1.00  0.00     0.434 A  
ENDROOT
BRANCH   6  20
HETATM   20  O   UNL     1      -9.244  10.307  67.864  1.00  0.00    -0.137 OA 
BRANCH  20  21
HETATM   21  C   UNL     1     -10.185  11.301  67.752  1.00  0.00    -0.180 A  
HETATM   22  C   UNL     1     -11.486  13.610  65.238  1.00  0.00    -0.320 C  
HETATM   23  N   UNL     1     -10.407  11.875  66.563  1.00  0.00    -0.212 NA 
HETATM   24  C   UNL     1     -11.934  13.335  67.682  1.00  0.00    -0.366 A  
HETATM   25  C   UNL     1     -11.275  12.906  66.546  1.00  0.00    -0.302 A  
HETATM   26  C   UNL     1     -11.663  12.650  68.851  1.00  0.00    -0.325 A  
HETATM   27  C   UNL     1     -12.311  13.048  70.142  1.00  0.00    -0.270 C  
HETATM   28  N   UNL     1     -10.790  11.622  68.900  1.00  0.00    -0.215 NA 
ENDBRANCH  20  21
ENDBRANCH   6  20
TORSDOF 2
ENDMDL
MODEL      130
REMARK 921   NORMALIZED FREE ENERGY PREDICTED BY IDOCK:   -2.73 KCAL/MOL
REMARK 922        TOTAL FREE ENERGY PREDICTED BY IDOCK:   -3.70 KCAL/MOL
REMARK 923 INTER-LIGAND FREE ENERGY PREDICTED BY IDOCK:   -3.67 KCAL/MOL
REMARK 924 INTRA-LIGAND FREE ENERGY PREDICTED BY IDOCK:   -0.03 KCAL/MOL
REMARK 927      BINDING AFFINITY PREDICTED BY RF-SCORE:    0.00 PKD
ROOT
HETATM    1  C   UNL     1     -10.707   7.420  67.841  1.00  0.00    -0.149 C  
HETATM    2  O   UNL     1     -11.301   8.427  68.635  1.00  0.00     0.422 OA 
HETATM    3  C   UNL     1     -10.491   9.464  69.259  1.00  0.00    -0.218 C  
HETATM    4  C   UNL     1      -9.832  10.339  68.138  1.00  0.00    -0.166 A  
HETATM    5  C   UNL     1     -11.547  10.259  70.082  1.00  0.00    -0.376 A  
HETATM    6  C   UNL     1      -9.404   8.885  70.262  1.00  0.00    -0.185 C  
HETATM    7  C   UNL     1      -9.968   8.137  71.467  1.00  0.00    -0.182 C  
HETATM    8  C   UNL     1     -12.614   9.559  70.701  1.00  0.00    -0.064 A  
HETATM    9  C   UNL     1     -10.444  10.498  66.880  1.00  0.00    -0.303 A  
HETATM   10  C   UNL     1     -12.341  12.263  71.223  1.00  0.00    -0.161 A  
HETATM   11  O   UNL     1     -10.304   8.662  72.518  1.00  0.00    -0.295 OA 
HETATM   12  C   UNL     1      -9.783  11.138  65.820  1.00  0.00    -0.266 A  
HETATM   13  C   UNL     1     -13.489  10.183  71.591  1.00  0.00    -0.376 A  
HETATM   14  C   UNL     1     -11.450  11.635  70.341  1.00  0.00     0.001 A  
HETATM   15  O   UNL     1     -10.018   6.784  71.318  1.00  0.00    -0.178 OA 
HETATM   16  C   UNL     1      -8.587  10.981  68.313  1.00  0.00    -0.143 A  
HETATM   17  C   UNL     1      -8.506  11.662  65.999  1.00  0.00     0.059 A  
HETATM   18  C   UNL     1     -13.342  11.535  71.864  1.00  0.00    -0.408 A  
HETATM   19  C   UNL     1      -7.917  11.602  67.253  1.00  0.00    -0.157 A  
ENDROOT
BRANCH   6  20
HETATM   20  O   UNL     1      -8.530   7.935  69.614  1.00  0.00    -0.129 OA 
BRANCH  20  21
HETATM   21  C   UNL     1      -7.425   7.560  70.337  1.00  0.00    -0.081 A  
HETATM   22  C   UNL     1      -5.629   4.520  71.272  1.00  0.00    -0.011 C  
HETATM   23  N   UNL     1      -7.053   6.274  70.366  1.00  0.00    -0.069 NA 
HETATM   24  C   UNL     1      -5.344   6.921  71.906  1.00  0.00    -0.036 A  
HETATM   25  C   UNL     1      -6.017   5.966  71.170  1.00  0.00    -0.029 A  
HETATM   26  C   UNL     1      -5.782   8.225  71.776  1.00  0.00    -0.038 A  
HETATM   27  C   UNL     1      -5.131   9.335  72.545  1.00  0.00    -0.075 C  
HETATM   28  N   UNL     1      -6.824   8.562  70.987  1.00  0.00    -0.053 NA 
ENDBRANCH  20  21
ENDBRANCH   6  20
TORSDOF 2
ENDMDL
MODEL      131
REMARK 921   NORMALIZED FREE ENERGY PREDICTED BY IDOCK:   -2.39 KCAL/MOL
REMARK 922        TOTAL FREE ENERGY PREDICTED BY IDOCK:   -3.33 KCAL/MOL
REMARK 923 INTER-LIGAND FREE ENERGY PREDICTED BY IDOCK:   -3.92 KCAL/MOL
REMARK 924 INTRA-LIGAND FREE ENERGY PREDICTED BY IDOCK:    0.59 KCAL/MOL
REMARK 927      BINDING AFFINITY PREDICTED BY RF-SCORE:    0.00 PKD
ROOT
HETATM    1  C   UNL     1      -9.815  15.196  70.689  1.00  0.00     0.763 C  
HETATM    2  O   UNL     1     -10.077  16.063  69.604  1.00  0.00    -0.260 OA 
HETATM    3  C   UNL     1      -9.657  15.719  68.253  1.00  0.00    -0.201 C  
HETATM    4  C   UNL     1     -10.434  14.440  67.788  1.00  0.00    -0.245 A  
HETATM    5  C   UNL     1     -10.070  16.985  67.446  1.00  0.00    -0.291 A  
HETATM    6  C   UNL     1      -8.085  15.528  68.120  1.00  0.00    -0.132 C  
HETATM    7  C   UNL     1      -7.255  16.772  68.417  1.00  0.00    -0.191 C  
HETATM    8  C   UNL     1      -9.948  18.263  68.049  1.00  0.00    -0.362 A  
HETATM    9  C   UNL     1     -11.713  14.138  68.293  1.00  0.00    -0.383 A  
HETATM   10  C   UNL     1     -10.664  18.136  65.379  1.00  0.00     0.191 A  
HETATM   11  O   UNL     1      -6.974  17.635  67.598  1.00  0.00    -0.171 OA 
HETATM   12  C   UNL     1     -12.341  12.915  68.011  1.00  0.00     0.212 A  
HETATM   13  C   UNL     1     -10.132  19.442  67.326  1.00  0.00    -0.497 A  
HETATM   14  C   UNL     1     -10.463  16.949  66.099  1.00  0.00    -0.276 A  
HETATM   15  O   UNL     1      -6.770  16.836  69.688  1.00  0.00    -0.221 OA 
HETATM   16  C   UNL     1      -9.889  13.513  66.874  1.00  0.00    -0.257 A  
HETATM   17  C   UNL     1     -11.720  11.975  67.194  1.00  0.00    -0.344 A  
HETATM   18  C   UNL     1     -10.477  19.377  65.985  1.00  0.00    -0.596 A  
HETATM   19  C   UNL     1     -10.502  12.285  66.607  1.00  0.00    -0.247 A  
ENDROOT
BRANCH   6  20
HETATM   20  O   UNL     1      -7.589  14.525  69.034  1.00  0.00    -0.128 OA 
BRANCH  20  21
HETATM   21  C   UNL     1      -7.501  13.254  68.524  1.00  0.00    -0.115 A  
HETATM   22  C   UNL     1      -8.868   9.923  69.139  1.00  0.00    -0.165 C  
HETATM   23  N   UNL     1      -8.272  12.281  69.025  1.00  0.00     0.212 NA 
HETATM   24  C   UNL     1      -7.133  10.779  67.556  1.00  0.00    -0.089 A  
HETATM   25  C   UNL     1      -8.065  11.040  68.541  1.00  0.00    -0.140 A  
HETATM   26  C   UNL     1      -6.416  11.859  67.079  1.00  0.00    -0.136 A  
HETATM   27  C   UNL     1      -5.367  11.679  66.023  1.00  0.00     0.315 C  
HETATM   28  N   UNL     1      -6.594  13.110  67.552  1.00  0.00    -0.166 NA 
ENDBRANCH  20  21
ENDBRANCH   6  20
TORSDOF 2
ENDMDL
MODEL      132
REMARK 921   NORMALIZED FREE ENERGY PREDICTED BY IDOCK:   -2.34 KCAL/MOL
REMARK 922        TOTAL FREE ENERGY PREDICTED BY IDOCK:   -3.27 KCAL/MOL
REMARK 923 INTER-LIGAND FREE ENERGY PREDICTED BY IDOCK:   -2.66 KCAL/MOL
REMARK 924 INTRA-LIGAND FREE ENERGY PREDICTED BY IDOCK:   -0.62 KCAL/MOL
REMARK 927      BINDING AFFINITY PREDICTED BY RF-SCORE:    0.00 PKD
ROOT
HETATM    1  C   UNL     1     -10.762   9.111  69.412  1.00  0.00    -0.198 C  
HETATM    2  O   UNL     1      -9.569   9.856  69.269  1.00  0.00    -0.181 OA 
HETATM    3  C   UNL     1      -8.776   9.772  68.051  1.00  0.00    -0.118 C  
HETATM    4  C   UNL     1      -9.613  10.345  66.856  1.00  0.00    -0.207 A  
HETATM    5  C   UNL     1      -7.548  10.666  68.393  1.00  0.00    -0.100 A  
HETATM    6  C   UNL     1      -8.257   8.301  67.747  1.00  0.00    -0.127 C  
HETATM    7  C   UNL     1      -7.315   7.717  68.796  1.00  0.00    -0.087 C  
HETATM    8  C   UNL     1      -7.035  10.664  69.715  1.00  0.00    -0.145 A  
HETATM    9  C   UNL     1     -10.600  11.327  67.061  1.00  0.00    -0.287 A  
HETATM   10  C   UNL     1      -5.647  12.062  67.771  1.00  0.00    -0.070 A  
HETATM   11  O   UNL     1      -6.103   7.879  68.812  1.00  0.00    -0.037 OA 
HETATM   12  C   UNL     1     -11.465  11.723  66.029  1.00  0.00    -0.281 A  
HETATM   13  C   UNL     1      -5.839  11.303  70.045  1.00  0.00    -0.118 A  
HETATM   14  C   UNL     1      -6.840  11.407  67.434  1.00  0.00    -0.101 A  
HETATM   15  O   UNL     1      -7.923   6.918  69.717  1.00  0.00    -0.119 OA 
HETATM   16  C   UNL     1      -9.450   9.890  65.530  1.00  0.00    -0.313 A  
HETATM   17  C   UNL     1     -11.346  11.167  64.758  1.00  0.00     0.070 A  
HETATM   18  C   UNL     1      -5.137  11.991  69.066  1.00  0.00    -0.055 A  
HETATM   19  C   UNL     1     -10.323  10.265  64.504  1.00  0.00     0.009 A  
ENDROOT
BRANCH   6  20
HETATM   20  O   UNL     1      -9.347   7.356  67.663  1.00  0.00    -0.132 OA 
BRANCH  20  21
HETATM   21  C   UNL     1      -9.125   6.271  66.851  1.00  0.00    -0.128 A  
HETATM   22  C   UNL     1      -7.804   5.524  63.529  1.00  0.00    -0.096 C  
HETATM   23  N   UNL     1      -8.517   6.438  65.670  1.00  0.00    -0.147 NA 
HETATM   24  C   UNL     1      -8.884   4.108  65.283  1.00  0.00    -0.129 A  
HETATM   25  C   UNL     1      -8.418   5.346  64.886  1.00  0.00    -0.148 A  
HETATM   26  C   UNL     1      -9.460   4.035  66.536  1.00  0.00    -0.194 A  
HETATM   27  C   UNL     1     -10.015   2.742  67.053  1.00  0.00     0.916 C  
HETATM   28  N   UNL     1      -9.584   5.114  67.338  1.00  0.00    -0.132 NA 
ENDBRANCH  20  21
ENDBRANCH   6  20
TORSDOF 2
ENDMDL
MODEL      133
REMARK 921   NORMALIZED FREE ENERGY PREDICTED BY IDOCK:   -2.24 KCAL/MOL
REMARK 922        TOTAL FREE ENERGY PREDICTED BY IDOCK:   -3.15 KCAL/MOL
REMARK 923 INTER-LIGAND FREE ENERGY PREDICTED BY IDOCK:   -3.66 KCAL/MOL
REMARK 924 INTRA-LIGAND FREE ENERGY PREDICTED BY IDOCK:    0.50 KCAL/MOL
REMARK 927      BINDING AFFINITY PREDICTED BY RF-SCORE:    0.00 PKD
ROOT
HETATM    1  C   UNL     1      -9.589  16.164  65.876  1.00  0.00    -0.324 C  
HETATM    2  O   UNL     1     -10.301  16.194  67.097  1.00  0.00    -0.281 OA 
HETATM    3  C   UNL     1      -9.626  15.951  68.364  1.00  0.00    -0.208 C  
HETATM    4  C   UNL     1      -8.584  17.095  68.614  1.00  0.00    -0.260 A  
HETATM    5  C   UNL     1     -10.803  15.994  69.381  1.00  0.00    -0.300 A  
HETATM    6  C   UNL     1      -8.946  14.516  68.441  1.00  0.00    -0.186 C  
HETATM    7  C   UNL     1      -9.911  13.338  68.349  1.00  0.00    -0.218 C  
HETATM    8  C   UNL     1     -12.065  15.468  69.003  1.00  0.00    -0.246 A  
HETATM    9  C   UNL     1      -8.773  18.385  68.083  1.00  0.00    -0.318 A  
HETATM   10  C   UNL     1     -11.718  16.293  71.622  1.00  0.00    -0.490 A  
HETATM   11  O   UNL     1     -10.498  12.842  69.300  1.00  0.00     0.034 OA 
HETATM   12  C   UNL     1      -7.770  19.363  68.160  1.00  0.00    -0.342 A  
HETATM   13  C   UNL     1     -13.107  15.316  69.919  1.00  0.00     0.209 A  
HETATM   14  C   UNL     1     -10.664  16.431  70.707  1.00  0.00     0.304 A  
HETATM   15  O   UNL     1     -10.035  12.807  67.100  1.00  0.00    -0.214 OA 
HETATM   16  C   UNL     1      -7.396  16.890  69.348  1.00  0.00    -0.043 A  
HETATM   17  C   UNL     1      -6.563  19.087  68.797  1.00  0.00    -0.301 A  
HETATM   18  C   UNL     1     -12.927  15.716  71.235  1.00  0.00    -0.556 A  
HETATM   19  C   UNL     1      -6.386  17.856  69.410  1.00  0.00    -0.239 A  
ENDROOT
BRANCH   6  20
HETATM   20  O   UNL     1      -8.007  14.310  67.362  1.00  0.00    -0.179 OA 
BRANCH  20  21
HETATM   21  C   UNL     1      -7.330  13.117  67.389  1.00  0.00    -0.111 A  
HETATM   22  C   UNL     1      -5.176  11.208  69.639  1.00  0.00    -0.042 C  
HETATM   23  N   UNL     1      -6.685  12.744  68.502  1.00  0.00    -0.083 NA 
HETATM   24  C   UNL     1      -5.913  10.841  67.278  1.00  0.00    -0.055 A  
HETATM   25  C   UNL     1      -5.964  11.607  68.426  1.00  0.00    -0.049 A  
HETATM   26  C   UNL     1      -6.646  11.293  66.198  1.00  0.00     0.045 A  
HETATM   27  C   UNL     1      -6.642  10.545  64.900  1.00  0.00     0.009 C  
HETATM   28  N   UNL     1      -7.366  12.433  66.241  1.00  0.00     0.784 NA 
ENDBRANCH  20  21
ENDBRANCH   6  20
TORSDOF 2
ENDMDL
MODEL      134
REMARK 921   NORMALIZED FREE ENERGY PREDICTED BY IDOCK:   -2.04 KCAL/MOL
REMARK 922        TOTAL FREE ENERGY PREDICTED BY IDOCK:   -2.93 KCAL/MOL
REMARK 923 INTER-LIGAND FREE ENERGY PREDICTED BY IDOCK:   -3.02 KCAL/MOL
REMARK 924 INTRA-LIGAND FREE ENERGY PREDICTED BY IDOCK:    0.09 KCAL/MOL
REMARK 927      BINDING AFFINITY PREDICTED BY RF-SCORE:    0.00 PKD
ROOT
HETATM    1  C   UNL     1     -10.083  10.375  69.733  1.00  0.00    -0.157 C  
HETATM    2  O   UNL     1      -9.387   9.600  68.777  1.00  0.00    -0.143 OA 
HETATM    3  C   UNL     1      -8.016   9.924  68.406  1.00  0.00    -0.096 C  
HETATM    4  C   UNL     1      -7.091   9.730  69.657  1.00  0.00    -0.083 A  
HETATM    5  C   UNL     1      -7.721   8.881  67.288  1.00  0.00    -0.092 A  
HETATM    6  C   UNL     1      -7.866  11.380  67.789  1.00  0.00    -0.117 C  
HETATM    7  C   UNL     1      -8.624  11.612  66.486  1.00  0.00    -0.164 C  
HETATM    8  C   UNL     1      -8.756   8.516  66.390  1.00  0.00    -0.153 A  
HETATM    9  C   UNL     1      -7.413   8.806  70.668  1.00  0.00    -0.079 A  
HETATM   10  C   UNL     1      -6.209   7.542  65.921  1.00  0.00    -0.041 A  
HETATM   11  O   UNL     1      -8.189  11.359  65.371  1.00  0.00     0.150 OA 
HETATM   12  C   UNL     1      -6.682   8.746  71.865  1.00  0.00    -0.061 A  
HETATM   13  C   UNL     1      -8.515   7.727  65.265  1.00  0.00    -0.099 A  
HETATM   14  C   UNL     1      -6.446   8.350  67.043  1.00  0.00    -0.057 A  
HETATM   15  O   UNL     1      -9.843  12.201  66.640  1.00  0.00    -0.203 OA 
HETATM   16  C   UNL     1      -5.915  10.486  69.852  1.00  0.00    -0.066 A  
HETATM   17  C   UNL     1      -5.593   9.589  72.069  1.00  0.00    -0.024 A  
HETATM   18  C   UNL     1      -7.234   7.251  65.024  1.00  0.00    -0.070 A  
HETATM   19  C   UNL     1      -5.197  10.444  71.052  1.00  0.00    -0.083 A  
ENDROOT
BRANCH   6  20
HETATM   20  O   UNL     1      -8.359  12.396  68.689  1.00  0.00    -0.107 OA 
BRANCH  20  21
HETATM   21  C   UNL     1      -8.069  13.690  68.335  1.00  0.00    -0.146 A  
HETATM   22  C   UNL     1      -5.165  15.750  67.518  1.00  0.00    -0.055 C  
HETATM   23  N   UNL     1      -6.809  14.030  68.034  1.00  0.00    -0.126 NA 
HETATM   24  C   UNL     1      -7.592  16.277  67.806  1.00  0.00    -0.151 A  
HETATM   25  C   UNL     1      -6.581  15.336  67.787  1.00  0.00    -0.162 A  
HETATM   26  C   UNL     1      -8.863  15.816  68.089  1.00  0.00    -0.178 A  
HETATM   27  C   UNL     1     -10.026  16.760  68.153  1.00  0.00    -0.270 C  
HETATM   28  N   UNL     1      -9.118  14.518  68.352  1.00  0.00    -0.186 NA 
ENDBRANCH  20  21
ENDBRANCH   6  20
TORSDOF 2
ENDMDL
MODEL      135
REMARK 921   NORMALIZED FREE ENERGY PREDICTED BY IDOCK:   -1.84 KCAL/MOL
REMARK 922        TOTAL FREE ENERGY PREDICTED BY IDOCK:   -2.71 KCAL/MOL
REMARK 923 INTER-LIGAND FREE ENERGY PREDICTED BY IDOCK:   -2.08 KCAL/MOL
REMARK 924 INTRA-LIGAND FREE ENERGY PREDICTED BY IDOCK:   -0.62 KCAL/MOL
REMARK 927      BINDING AFFINITY PREDICTED BY RF-SCORE:    0.00 PKD
ROOT
HETATM    1  C   UNL     1      -9.839   1.819  68.863  1.00  0.00     0.196 C  
HETATM    2  O   UNL     1      -8.844   2.138  67.912  1.00  0.00    -0.095 OA 
HETATM    3  C   UNL     1      -8.037   3.342  68.049  1.00  0.00    -0.078 C  
HETATM    4  C   UNL     1      -7.163   3.224  69.345  1.00  0.00    -0.045 A  
HETATM    5  C   UNL     1      -7.175   3.312  66.752  1.00  0.00    -0.062 A  
HETATM    6  C   UNL     1      -8.901   4.675  68.048  1.00  0.00    -0.106 C  
HETATM    7  C   UNL     1      -9.677   4.942  66.761  1.00  0.00    -0.181 C  
HETATM    8  C   UNL     1      -7.752   2.837  65.547  1.00  0.00    -0.077 A  
HETATM    9  C   UNL     1      -6.760   1.971  69.843  1.00  0.00    -0.033 A  
HETATM   10  C   UNL     1      -5.210   3.927  65.444  1.00  0.00    -0.009 A  
HETATM   11  O   UNL     1      -9.227   5.523  65.784  1.00  0.00    -0.159 OA 
HETATM   12  C   UNL     1      -6.123   1.848  71.087  1.00  0.00    -0.018 A  
HETATM   13  C   UNL     1      -7.097   2.947  64.320  1.00  0.00    -0.049 A  
HETATM   14  C   UNL     1      -5.874   3.833  66.676  1.00  0.00    -0.023 A  
HETATM   15  O   UNL     1     -10.976   4.535  66.791  1.00  0.00     0.480 OA 
HETATM   16  C   UNL     1      -6.763   4.352  70.093  1.00  0.00    -0.033 A  
HETATM   17  C   UNL     1      -5.845   2.978  71.852  1.00  0.00    -0.009 A  
HETATM   18  C   UNL     1      -5.829   3.507  64.268  1.00  0.00    -0.014 A  
HETATM   19  C   UNL     1      -6.146   4.233  71.343  1.00  0.00    -0.017 A  
ENDROOT
BRANCH   6  20
HETATM   20  O   UNL     1      -9.904   4.663  69.088  1.00  0.00    -0.183 OA 
BRANCH  20  21
HETATM   21  C   UNL     1      -9.925   5.770  69.900  1.00  0.00    -0.194 A  
HETATM   22  C   UNL     1      -8.810   9.248  69.868  1.00  0.00    -0.196 C  
HETATM   23  N   UNL     1      -9.444   6.935  69.448  1.00  0.00    -0.149 NA 
HETATM   24  C   UNL     1      -9.875   7.824  71.625  1.00  0.00    -0.201 A  
HETATM   25  C   UNL     1      -9.410   7.953  70.331  1.00  0.00    -0.159 A  
HETATM   26  C   UNL     1     -10.387   6.591  71.979  1.00  0.00    -0.199 A  
HETATM   27  C   UNL     1     -10.900   6.342  73.365  1.00  0.00    -0.238 C  
HETATM   28  N   UNL     1     -10.423   5.551  71.121  1.00  0.00    -0.233 NA 
ENDBRANCH  20  21
ENDBRANCH   6  20
TORSDOF 2
ENDMDL
MODEL      136
REMARK 921   NORMALIZED FREE ENERGY PREDICTED BY IDOCK:   -1.59 KCAL/MOL
REMARK 922        TOTAL FREE ENERGY PREDICTED BY IDOCK:   -2.44 KCAL/MOL
REMARK 923 INTER-LIGAND FREE ENERGY PREDICTED BY IDOCK:   -4.12 KCAL/MOL
REMARK 924 INTRA-LIGAND FREE ENERGY PREDICTED BY IDOCK:    1.68 KCAL/MOL
REMARK 927      BINDING AFFINITY PREDICTED BY RF-SCORE:    0.00 PKD
ROOT
HETATM    1  C   UNL     1     -11.322   7.356  70.727  1.00  0.00    -0.280 C  
HETATM    2  O   UNL     1     -10.917   6.567  69.627  1.00  0.00    -0.270 OA 
HETATM    3  C   UNL     1      -9.562   6.655  69.102  1.00  0.00    -0.135 C  
HETATM    4  C   UNL     1      -8.558   6.153  70.197  1.00  0.00    -0.133 A  
HETATM    5  C   UNL     1      -9.619   5.700  67.874  1.00  0.00    -0.133 A  
HETATM    6  C   UNL     1      -9.185   8.111  68.590  1.00  0.00    -0.143 C  
HETATM    7  C   UNL     1     -10.025   8.624  67.424  1.00  0.00    -0.210 C  
HETATM    8  C   UNL     1     -10.804   5.641  67.097  1.00  0.00    -0.242 A  
HETATM    9  C   UNL     1      -8.945   5.207  71.164  1.00  0.00    -0.162 A  
HETATM   10  C   UNL     1      -8.584   4.245  66.212  1.00  0.00    -0.113 A  
HETATM   11  O   UNL     1      -9.783   8.411  66.244  1.00  0.00    -0.238 OA 
HETATM   12  C   UNL     1      -8.109   4.879  72.243  1.00  0.00    -0.111 A  
HETATM   13  C   UNL     1     -10.862   4.944  65.890  1.00  0.00    -0.140 A  
HETATM   14  C   UNL     1      -8.518   4.960  67.417  1.00  0.00    -0.105 A  
HETATM   15  O   UNL     1     -11.069   9.419  67.787  1.00  0.00    -0.148 OA 
HETATM   16  C   UNL     1      -7.237   6.640  70.293  1.00  0.00    -0.077 A  
HETATM   17  C   UNL     1      -6.854   5.467  72.367  1.00  0.00    -0.075 A  
HETATM   18  C   UNL     1      -9.744   4.257  65.440  1.00  0.00    -0.204 A  
HETATM   19  C   UNL     1      -6.409   6.332  71.378  1.00  0.00    -0.049 A  
ENDROOT
BRANCH   6  20
HETATM   20  O   UNL     1      -9.351   9.102  69.628  1.00  0.00    -0.159 OA 
BRANCH  20  21
HETATM   21  C   UNL     1      -9.288  10.409  69.211  1.00  0.00    -0.187 A  
HETATM   22  C   UNL     1      -6.866  12.747  67.793  1.00  0.00    -0.135 C  
HETATM   23  N   UNL     1      -8.163  10.875  68.652  1.00  0.00    -0.138 NA 
HETATM   24  C   UNL     1      -9.225  13.015  68.577  1.00  0.00    -0.062 A  
HETATM   25  C   UNL     1      -8.140  12.189  68.354  1.00  0.00    -0.149 A  
HETATM   26  C   UNL     1     -10.350  12.428  69.122  1.00  0.00     0.166 A  
HETATM   27  C   UNL     1     -11.573  13.241  69.420  1.00  0.00    -0.364 C  
HETATM   28  N   UNL     1     -10.397  11.118  69.441  1.00  0.00    -0.124 NA 
ENDBRANCH  20  21
ENDBRANCH   6  20
TORSDOF 2
ENDMDL
MODEL      137
REMARK 921   NORMALIZED FREE ENERGY PREDICTED BY IDOCK:   -0.99 KCAL/MOL
REMARK 922        TOTAL FREE ENERGY PREDICTED BY IDOCK:   -1.76 KCAL/MOL
REMARK 923 INTER-LIGAND FREE ENERGY PREDICTED BY IDOCK:   -2.51 KCAL/MOL
REMARK 924 INTRA-LIGAND FREE ENERGY PREDICTED BY IDOCK:    0.74 KCAL/MOL
REMARK 927      BINDING AFFINITY PREDICTED BY RF-SCORE:    0.00 PKD
ROOT
HETATM    1  C   UNL     1     -10.144   8.251  67.037  1.00  0.00    -0.283 C  
HETATM    2  O   UNL     1      -9.988   6.887  66.702  1.00  0.00    -0.184 OA 
HETATM    3  C   UNL     1      -9.199   5.995  67.541  1.00  0.00    -0.111 C  
HETATM    4  C   UNL     1      -9.893   5.866  68.940  1.00  0.00    -0.183 A  
HETATM    5  C   UNL     1      -9.240   4.662  66.738  1.00  0.00    -0.130 A  
HETATM    6  C   UNL     1      -7.684   6.452  67.681  1.00  0.00    -0.102 C  
HETATM    7  C   UNL     1      -6.889   6.469  66.379  1.00  0.00    -0.061 C  
HETATM    8  C   UNL     1      -9.209   4.705  65.320  1.00  0.00    -0.156 A  
HETATM    9  C   UNL     1     -11.285   6.019  69.083  1.00  0.00    -0.337 A  
HETATM   10  C   UNL     1      -9.072   2.235  66.561  1.00  0.00    -0.081 A  
HETATM   11  O   UNL     1      -6.301   5.505  65.908  1.00  0.00    -0.033 OA 
HETATM   12  C   UNL     1     -11.890   6.071  70.348  1.00  0.00     0.222 A  
HETATM   13  C   UNL     1      -9.067   3.552  64.549  1.00  0.00    -0.130 A  
HETATM   14  C   UNL     1      -9.198   3.395  67.339  1.00  0.00    -0.228 A  
HETATM   15  O   UNL     1      -6.819   7.688  65.777  1.00  0.00    -0.052 OA 
HETATM   16  C   UNL     1      -9.167   5.625  70.126  1.00  0.00    -0.170 A  
HETATM   17  C   UNL     1     -11.123   5.942  71.502  1.00  0.00    -0.314 A  
HETATM   18  C   UNL     1      -8.983   2.316  65.172  1.00  0.00    -0.123 A  
HETATM   19  C   UNL     1      -9.763   5.696  71.390  1.00  0.00    -0.204 A  
ENDROOT
BRANCH   6  20
HETATM   20  O   UNL     1      -7.576   7.797  68.196  1.00  0.00    -0.110 OA 
BRANCH  20  21
HETATM   21  C   UNL     1      -7.420   7.897  69.557  1.00  0.00    -0.093 A  
HETATM   22  C   UNL     1      -5.139   6.755  72.171  1.00  0.00    -0.028 C  
HETATM   23  N   UNL     1      -6.342   7.360  70.143  1.00  0.00    -0.034 NA 
HETATM   24  C   UNL     1      -7.295   8.018  72.234  1.00  0.00    -0.110 A  
HETATM   25  C   UNL     1      -6.302   7.414  71.489  1.00  0.00    -0.036 A  
HETATM   26  C   UNL     1      -8.344   8.577  71.530  1.00  0.00    -0.162 A  
HETATM   27  C   UNL     1      -9.483   9.240  72.245  1.00  0.00     0.850 C  
HETATM   28  N   UNL     1      -8.417   8.528  70.184  1.00  0.00    -0.122 NA 
ENDBRANCH  20  21
ENDBRANCH   6  20
TORSDOF 2
ENDMDL
MODEL      138
REMARK 921   NORMALIZED FREE ENERGY PREDICTED BY IDOCK:   -0.84 KCAL/MOL
REMARK 922        TOTAL FREE ENERGY PREDICTED BY IDOCK:   -1.59 KCAL/MOL
REMARK 923 INTER-LIGAND FREE ENERGY PREDICTED BY IDOCK:   -1.15 KCAL/MOL
REMARK 924 INTRA-LIGAND FREE ENERGY PREDICTED BY IDOCK:   -0.44 KCAL/MOL
REMARK 927      BINDING AFFINITY PREDICTED BY RF-SCORE:    0.00 PKD
ROOT
HETATM    1  C   UNL     1      -8.947  15.371  70.339  1.00  0.00     1.056 C  
HETATM    2  O   UNL     1      -8.381  16.241  69.379  1.00  0.00    -0.197 OA 
HETATM    3  C   UNL     1      -8.336  15.875  67.971  1.00  0.00    -0.160 C  
HETATM    4  C   UNL     1      -9.801  15.765  67.425  1.00  0.00    -0.233 A  
HETATM    5  C   UNL     1      -7.561  17.070  67.343  1.00  0.00    -0.189 A  
HETATM    6  C   UNL     1      -7.512  14.543  67.700  1.00  0.00    -0.177 C  
HETATM    7  C   UNL     1      -6.034  14.610  68.072  1.00  0.00    -0.150 C  
HETATM    8  C   UNL     1      -6.506  17.674  68.074  1.00  0.00    -0.177 A  
HETATM    9  C   UNL     1     -10.848  16.520  67.987  1.00  0.00    -0.337 A  
HETATM   10  C   UNL     1      -6.935  18.498  65.467  1.00  0.00    -0.187 A  
HETATM   11  O   UNL     1      -5.148  15.019  67.335  1.00  0.00    -0.332 OA 
HETATM   12  C   UNL     1     -12.185  16.306  67.618  1.00  0.00     1.355 A  
HETATM   13  C   UNL     1      -5.662  18.627  67.503  1.00  0.00    -0.156 A  
HETATM   14  C   UNL     1      -7.774  17.528  66.033  1.00  0.00    -0.237 A  
HETATM   15  O   UNL     1      -5.739  14.107  69.303  1.00  0.00    -0.081 OA 
HETATM   16  C   UNL     1     -10.155  14.891  66.376  1.00  0.00    -0.296 A  
HETATM   17  C   UNL     1     -12.507  15.352  66.657  1.00  0.00     1.241 A  
HETATM   18  C   UNL     1      -5.869  19.028  66.191  1.00  0.00    -0.187 A  
HETATM   19  C   UNL     1     -11.488  14.660  66.020  1.00  0.00    -0.332 A  
ENDROOT
BRANCH   6  20
HETATM   20  O   UNL     1      -8.033  13.429  68.458  1.00  0.00    -0.139 OA 
BRANCH  20  21
HETATM   21  C   UNL     1      -8.198  12.262  67.753  1.00  0.00    -0.161 A  
HETATM   22  C   UNL     1     -10.743   9.703  67.193  1.00  0.00    -0.258 C  
HETATM   23  N   UNL     1      -9.383  11.639  67.766  1.00  0.00    -0.173 NA 
HETATM   24  C   UNL     1      -8.361   9.913  66.468  1.00  0.00    -0.125 A  
HETATM   25  C   UNL     1      -9.445  10.452  67.131  1.00  0.00    -0.159 A  
HETATM   26  C   UNL     1      -7.195  10.654  66.480  1.00  0.00    -0.134 A  
HETATM   27  C   UNL     1      -5.955  10.148  65.807  1.00  0.00    -0.088 C  
HETATM   28  N   UNL     1      -7.100  11.839  67.119  1.00  0.00    -0.139 NA 
ENDBRANCH  20  21
ENDBRANCH   6  20
TORSDOF 2
ENDMDL
MODEL      139
REMARK 921   NORMALIZED FREE ENERGY PREDICTED BY IDOCK:   -0.75 KCAL/MOL
REMARK 922        TOTAL FREE ENERGY PREDICTED BY IDOCK:   -1.50 KCAL/MOL
REMARK 923 INTER-LIGAND FREE ENERGY PREDICTED BY IDOCK:   -1.42 KCAL/MOL
REMARK 924 INTRA-LIGAND FREE ENERGY PREDICTED BY IDOCK:   -0.08 KCAL/MOL
REMARK 927      BINDING AFFINITY PREDICTED BY RF-SCORE:    0.00 PKD
ROOT
HETATM    1  C   UNL     1     -11.401  11.867  66.860  1.00  0.00    -0.330 C  
HETATM    2  O   UNL     1     -10.941  10.531  66.860  1.00  0.00    -0.227 OA 
HETATM    3  C   UNL     1     -10.186   9.999  67.985  1.00  0.00    -0.181 C  
HETATM    4  C   UNL     1     -11.106   9.981  69.254  1.00  0.00    -0.248 A  
HETATM    5  C   UNL     1      -9.829   8.564  67.496  1.00  0.00    -0.231 A  
HETATM    6  C   UNL     1      -8.834  10.788  68.256  1.00  0.00    -0.139 C  
HETATM    7  C   UNL     1      -7.815  10.737  67.121  1.00  0.00    -0.124 C  
HETATM    8  C   UNL     1      -9.530   8.353  66.126  1.00  0.00    -0.263 A  
HETATM    9  C   UNL     1     -12.504   9.855  69.141  1.00  0.00     1.333 A  
HETATM   10  C   UNL     1      -9.199   6.240  67.882  1.00  0.00    -0.116 A  
HETATM   11  O   UNL     1      -6.984   9.853  66.970  1.00  0.00    -0.086 OA 
HETATM   12  C   UNL     1     -13.345  10.006  70.254  1.00  0.00     0.306 A  
HETATM   13  C   UNL     1      -9.035   7.136  65.657  1.00  0.00     0.019 A  
HETATM   14  C   UNL     1      -9.680   7.467  68.359  1.00  0.00    -0.161 A  
HETATM   15  O   UNL     1      -7.847  11.812  66.286  1.00  0.00     0.015 OA 
HETATM   16  C   UNL     1     -10.595  10.122  70.562  1.00  0.00    -0.243 A  
HETATM   17  C   UNL     1     -12.808  10.258  71.514  1.00  0.00    -0.557 A  
HETATM   18  C   UNL     1      -8.856   6.082  66.540  1.00  0.00    -0.131 A  
HETATM   19  C   UNL     1     -11.431  10.294  71.671  1.00  0.00     0.278 A  
ENDROOT
BRANCH   6  20
HETATM   20  O   UNL     1      -9.071  12.196  68.476  1.00  0.00    -0.172 OA 
BRANCH  20  21
HETATM   21  C   UNL     1      -8.008  12.902  68.981  1.00  0.00     0.308 A  
HETATM   22  C   UNL     1      -5.194  12.414  71.259  1.00  0.00    -0.118 C  
HETATM   23  N   UNL     1      -7.120  12.290  69.775  1.00  0.00     0.320 NA 
HETATM   24  C   UNL     1      -6.059  14.415  70.035  1.00  0.00    -0.151 A  
HETATM   25  C   UNL     1      -6.157  13.065  70.310  1.00  0.00    -0.071 A  
HETATM   26  C   UNL     1      -7.001  14.942  69.173  1.00  0.00    -0.139 A  
HETATM   27  C   UNL     1      -6.994  16.400  68.824  1.00  0.00    -0.172 C  
HETATM   28  N   UNL     1      -7.984  14.192  68.632  1.00  0.00    -0.140 NA 
ENDBRANCH  20  21
ENDBRANCH   6  20
TORSDOF 2
ENDMDL
MODEL      140
REMARK 921   NORMALIZED FREE ENERGY PREDICTED BY IDOCK:   -0.39 KCAL/MOL
REMARK 922        TOTAL FREE ENERGY PREDICTED BY IDOCK:   -1.09 KCAL/MOL
REMARK 923 INTER-LIGAND FREE ENERGY PREDICTED BY IDOCK:   -0.86 KCAL/MOL
REMARK 924 INTRA-LIGAND FREE ENERGY PREDICTED BY IDOCK:   -0.22 KCAL/MOL
REMARK 927      BINDING AFFINITY PREDICTED BY RF-SCORE:    0.00 PKD
ROOT
HETATM    1  C   UNL     1     -11.441  16.652  70.138  1.00  0.00     0.242 C  
HETATM    2  O   UNL     1     -10.034  16.740  70.028  1.00  0.00     0.191 OA 
HETATM    3  C   UNL     1      -9.377  16.629  68.734  1.00  0.00    -0.256 C  
HETATM    4  C   UNL     1      -9.808  17.840  67.837  1.00  0.00    -0.306 A  
HETATM    5  C   UNL     1      -7.870  16.690  69.122  1.00  0.00    -0.170 A  
HETATM    6  C   UNL     1      -9.654  15.241  68.012  1.00  0.00    -0.203 C  
HETATM    7  C   UNL     1      -9.137  14.011  68.753  1.00  0.00    -0.033 C  
HETATM    8  C   UNL     1      -7.438  16.075  70.324  1.00  0.00     1.069 A  
HETATM    9  C   UNL     1     -10.178  19.074  68.404  1.00  0.00    -0.450 A  
HETATM   10  C   UNL     1      -5.521  17.113  68.620  1.00  0.00    -0.134 A  
HETATM   11  O   UNL     1      -8.005  13.561  68.650  1.00  0.00    -0.138 OA 
HETATM   12  C   UNL     1     -10.723  20.105  67.623  1.00  0.00    -0.233 A  
HETATM   13  C   UNL     1      -6.086  15.941  70.642  1.00  0.00     0.236 A  
HETATM   14  C   UNL     1      -6.879  17.234  68.291  1.00  0.00    -0.184 A  
HETATM   15  O   UNL     1     -10.069  13.381  69.520  1.00  0.00     0.432 OA 
HETATM   16  C   UNL     1      -9.880  17.752  66.430  1.00  0.00    -0.328 A  
HETATM   17  C   UNL     1     -10.884  19.939  66.250  1.00  0.00    -0.317 A  
HETATM   18  C   UNL     1      -5.126  16.449  69.780  1.00  0.00    -0.134 A  
HETATM   19  C   UNL     1     -10.442  18.769  65.651  1.00  0.00    -0.175 A  
ENDROOT
BRANCH   6  20
HETATM   20  O   UNL     1     -11.069  15.000  67.841  1.00  0.00    -0.284 OA 
BRANCH  20  21
HETATM   21  C   UNL     1     -11.417  14.315  66.704  1.00  0.00    -0.364 A  
HETATM   22  C   UNL     1     -10.771  11.094  65.107  1.00  0.00    -0.279 C  
HETATM   23  N   UNL     1     -10.994  13.056  66.531  1.00  0.00    -0.282 NA 
HETATM   24  C   UNL     1     -12.029  13.127  64.377  1.00  0.00    -0.454 A  
HETATM   25  C   UNL     1     -11.295  12.478  65.351  1.00  0.00    -0.325 A  
HETATM   26  C   UNL     1     -12.451  14.409  64.671  1.00  0.00    -0.345 A  
HETATM   27  C   UNL     1     -13.237  15.206  63.674  1.00  0.00     2.328 C  
HETATM   28  N   UNL     1     -12.155  15.017  65.839  1.00  0.00     0.031 NA 
ENDBRANCH  20  21
ENDBRANCH   6  20
TORSDOF 2
ENDMDL
MODEL      141
REMARK 921   NORMALIZED FREE ENERGY PREDICTED BY IDOCK:    0.15 KCAL/MOL
REMARK 922        TOTAL FREE ENERGY PREDICTED BY IDOCK:   -0.49 KCAL/MOL
REMARK 923 INTER-LIGAND FREE ENERGY PREDICTED BY IDOCK:   -1.36 KCAL/MOL
REMARK 924 INTRA-LIGAND FREE ENERGY PREDICTED BY IDOCK:    0.88 KCAL/MOL
REMARK 927      BINDING AFFINITY PREDICTED BY RF-SCORE:    0.00 PKD
ROOT
HETATM    1  C   UNL     1      -9.755   6.936  67.444  1.00  0.00    -0.139 C  
HETATM    2  O   UNL     1     -10.096   8.197  67.984  1.00  0.00    -0.181 OA 
HETATM    3  C   UNL     1      -9.079   9.061  68.566  1.00  0.00    -0.133 C  
HETATM    4  C   UNL     1      -8.075   9.495  67.444  1.00  0.00    -0.110 A  
HETATM    5  C   UNL     1      -9.924  10.257  69.095  1.00  0.00    -0.235 A  
HETATM    6  C   UNL     1      -8.326   8.394  69.796  1.00  0.00    -0.125 C  
HETATM    7  C   UNL     1      -9.210   8.068  70.996  1.00  0.00    -0.149 C  
HETATM    8  C   UNL     1     -11.210  10.010  69.641  1.00  0.00    -0.285 A  
HETATM    9  C   UNL     1      -8.479   9.586  66.098  1.00  0.00    -0.127 A  
HETATM   10  C   UNL     1     -10.188  12.577  69.801  1.00  0.00     1.341 A  
HETATM   11  O   UNL     1      -9.477   8.850  71.898  1.00  0.00    -0.290 OA 
HETATM   12  C   UNL     1      -7.551   9.810  65.069  1.00  0.00    -0.127 A  
HETATM   13  C   UNL     1     -11.942  11.005  70.288  1.00  0.00    -0.452 A  
HETATM   14  C   UNL     1      -9.443  11.573  69.165  1.00  0.00     0.185 A  
HETATM   15  O   UNL     1      -9.650   6.780  71.039  1.00  0.00    -0.170 OA 
HETATM   16  C   UNL     1      -6.720   9.783  67.710  1.00  0.00    -0.069 A  
HETATM   17  C   UNL     1      -6.201   9.978  65.362  1.00  0.00    -0.095 A  
HETATM   18  C   UNL     1     -11.422  12.288  70.381  1.00  0.00     0.261 A  
HETATM   19  C   UNL     1      -5.789   9.986  66.686  1.00  0.00    -0.055 A  
ENDROOT
BRANCH   6  20
HETATM   20  O   UNL     1      -7.718   7.135  69.432  1.00  0.00    -0.103 OA 
BRANCH  20  21
HETATM   21  C   UNL     1      -7.069   6.478  70.448  1.00  0.00    -0.072 A  
HETATM   22  C   UNL     1      -5.302   7.240  73.553  1.00  0.00    -0.045 C  
HETATM   23  N   UNL     1      -6.603   7.169  71.496  1.00  0.00    -0.047 NA 
HETATM   24  C   UNL     1      -5.684   5.113  72.296  1.00  0.00    -0.017 A  
HETATM   25  C   UNL     1      -5.895   6.473  72.408  1.00  0.00    -0.038 A  
HETATM   26  C   UNL     1      -6.241   4.487  71.198  1.00  0.00    -0.018 A  
HETATM   27  C   UNL     1      -6.054   3.017  70.975  1.00  0.00    -0.018 C  
HETATM   28  N   UNL     1      -6.944   5.160  70.263  1.00  0.00    -0.051 NA 
ENDBRANCH  20  21
ENDBRANCH   6  20
TORSDOF 2
ENDMDL
MODEL      142
REMARK 921   NORMALIZED FREE ENERGY PREDICTED BY IDOCK:    0.21 KCAL/MOL
REMARK 922        TOTAL FREE ENERGY PREDICTED BY IDOCK:   -0.42 KCAL/MOL
REMARK 923 INTER-LIGAND FREE ENERGY PREDICTED BY IDOCK:   -1.10 KCAL/MOL
REMARK 924 INTRA-LIGAND FREE ENERGY PREDICTED BY IDOCK:    0.68 KCAL/MOL
REMARK 927      BINDING AFFINITY PREDICTED BY RF-SCORE:    0.00 PKD
ROOT
HETATM    1  C   UNL     1     -11.539  17.709  66.090  1.00  0.00     1.993 C  
HETATM    2  O   UNL     1     -11.871  17.197  67.366  1.00  0.00     0.905 OA 
HETATM    3  C   UNL     1     -10.853  16.613  68.226  1.00  0.00    -0.356 C  
HETATM    4  C   UNL     1      -9.824  17.726  68.626  1.00  0.00    -0.359 A  
HETATM    5  C   UNL     1     -11.690  16.120  69.443  1.00  0.00    -0.213 A  
HETATM    6  C   UNL     1     -10.130  15.359  67.571  1.00  0.00    -0.233 C  
HETATM    7  C   UNL     1     -11.038  14.168  67.279  1.00  0.00    -0.305 C  
HETATM    8  C   UNL     1     -12.988  15.593  69.223  1.00  0.00     0.928 A  
HETATM    9  C   UNL     1     -10.203  19.080  68.698  1.00  0.00    -0.379 A  
HETATM   10  C   UNL     1     -11.933  15.461  71.779  1.00  0.00    -0.473 A  
HETATM   11  O   UNL     1     -11.310  13.286  68.081  1.00  0.00    -0.255 OA 
HETATM   12  C   UNL     1      -9.255  20.097  68.891  1.00  0.00     0.134 A  
HETATM   13  C   UNL     1     -13.717  14.976  70.241  1.00  0.00     0.530 A  
HETATM   14  C   UNL     1     -11.191  16.066  70.754  1.00  0.00    -0.381 A  
HETATM   15  O   UNL     1     -11.497  14.110  65.998  1.00  0.00    -0.327 OA 
HETATM   16  C   UNL     1      -8.469  17.442  68.900  1.00  0.00    -0.156 A  
HETATM   17  C   UNL     1      -7.907  19.784  69.045  1.00  0.00    -0.194 A  
HETATM   18  C   UNL     1     -13.181  14.897  71.517  1.00  0.00    -0.448 A  
HETATM   19  C   UNL     1      -7.518  18.453  69.072  1.00  0.00    -0.209 A  
ENDROOT
BRANCH   6  20
HETATM   20  O   UNL     1      -9.533  15.690  66.298  1.00  0.00    -0.266 OA 
BRANCH  20  21
HETATM   21  C   UNL     1      -8.246  16.163  66.354  1.00  0.00    -0.301 A  
HETATM   22  C   UNL     1      -6.219  18.846  64.926  1.00  0.00    -0.261 C  
HETATM   23  N   UNL     1      -7.920  17.282  65.694  1.00  0.00    -0.298 NA 
HETATM   24  C   UNL     1      -5.670  16.910  66.410  1.00  0.00     0.070 A  
HETATM   25  C   UNL     1      -6.619  17.636  65.717  1.00  0.00    -0.129 A  
HETATM   26  C   UNL     1      -6.117  15.794  67.090  1.00  0.00     0.135 A  
HETATM   27  C   UNL     1      -5.163  14.928  67.857  1.00  0.00    -0.091 C  
HETATM   28  N   UNL     1      -7.410  15.410  67.075  1.00  0.00    -0.165 NA 
ENDBRANCH  20  21
ENDBRANCH   6  20
TORSDOF 2
ENDMDL
MODEL      143
REMARK 921   NORMALIZED FREE ENERGY PREDICTED BY IDOCK:    0.34 KCAL/MOL
REMARK 922        TOTAL FREE ENERGY PREDICTED BY IDOCK:   -0.27 KCAL/MOL
REMARK 923 INTER-LIGAND FREE ENERGY PREDICTED BY IDOCK:   -2.37 KCAL/MOL
REMARK 924 INTRA-LIGAND FREE ENERGY PREDICTED BY IDOCK:    2.10 KCAL/MOL
REMARK 927      BINDING AFFINITY PREDICTED BY RF-SCORE:    0.00 PKD
ROOT
HETATM    1  C   UNL     1     -10.411  16.406  64.996  1.00  0.00    -0.080 C  
HETATM    2  O   UNL     1      -9.293  16.876  65.722  1.00  0.00    -0.521 OA 
HETATM    3  C   UNL     1      -9.151  16.594  67.143  1.00  0.00    -0.214 C  
HETATM    4  C   UNL     1      -8.990  15.048  67.343  1.00  0.00    -0.196 A  
HETATM    5  C   UNL     1      -7.853  17.373  67.507  1.00  0.00    -0.209 A  
HETATM    6  C   UNL     1     -10.347  17.174  68.015  1.00  0.00    -0.353 C  
HETATM    7  C   UNL     1     -10.488  18.692  67.991  1.00  0.00    -0.349 C  
HETATM    8  C   UNL     1      -7.594  18.620  66.882  1.00  0.00    -0.232 A  
HETATM    9  C   UNL     1      -8.424  14.237  66.341  1.00  0.00     0.396 A  
HETATM   10  C   UNL     1      -5.898  17.790  68.906  1.00  0.00    -0.188 A  
HETATM   11  O   UNL     1      -9.895  19.459  68.737  1.00  0.00    -0.413 OA 
HETATM   12  C   UNL     1      -8.429  12.837  66.443  1.00  0.00     0.276 A  
HETATM   13  C   UNL     1      -6.547  19.447  67.289  1.00  0.00    -0.204 A  
HETATM   14  C   UNL     1      -6.961  16.964  68.510  1.00  0.00    -0.186 A  
HETATM   15  O   UNL     1     -11.400  19.160  67.095  1.00  0.00    -0.098 OA 
HETATM   16  C   UNL     1      -9.428  14.385  68.510  1.00  0.00    -0.212 A  
HETATM   17  C   UNL     1      -8.974  12.213  67.562  1.00  0.00    -0.177 A  
HETATM   18  C   UNL     1      -5.707  19.037  68.313  1.00  0.00    -0.208 A  
HETATM   19  C   UNL     1      -9.454  12.990  68.606  1.00  0.00    -0.007 A  
ENDROOT
BRANCH   6  20
HETATM   20  O   UNL     1     -11.626  16.677  67.564  1.00  0.00     0.201 OA 
BRANCH  20  21
HETATM   21  C   UNL     1     -12.003  15.462  68.081  1.00  0.00    -0.030 A  
HETATM   22  C   UNL     1     -12.587  13.898  71.330  1.00  0.00    -0.444 C  
HETATM   23  N   UNL     1     -12.179  15.327  69.402  1.00  0.00    -0.257 NA 
HETATM   24  C   UNL     1     -12.586  13.007  68.995  1.00  0.00     0.574 A  
HETATM   25  C   UNL     1     -12.456  14.086  69.848  1.00  0.00    -0.246 A  
HETATM   26  C   UNL     1     -12.424  13.261  67.646  1.00  0.00     0.305 A  
HETATM   27  C   UNL     1     -12.527  12.156  66.639  1.00  0.00     1.052 C  
HETATM   28  N   UNL     1     -12.135  14.491  67.173  1.00  0.00    -0.351 NA 
ENDBRANCH  20  21
ENDBRANCH   6  20
TORSDOF 2
ENDMDL
MODEL      144
REMARK 921   NORMALIZED FREE ENERGY PREDICTED BY IDOCK:    0.52 KCAL/MOL
REMARK 922        TOTAL FREE ENERGY PREDICTED BY IDOCK:   -0.08 KCAL/MOL
REMARK 923 INTER-LIGAND FREE ENERGY PREDICTED BY IDOCK:    0.23 KCAL/MOL
REMARK 924 INTRA-LIGAND FREE ENERGY PREDICTED BY IDOCK:   -0.31 KCAL/MOL
REMARK 927      BINDING AFFINITY PREDICTED BY RF-SCORE:    0.00 PKD
ROOT
HETATM    1  C   UNL     1     -12.397  11.294  67.130  1.00  0.00     1.965 C  
HETATM    2  O   UNL     1     -11.795  10.506  68.137  1.00  0.00    -0.417 OA 
HETATM    3  C   UNL     1     -10.859  11.092  69.086  1.00  0.00    -0.237 C  
HETATM    4  C   UNL     1     -11.618  12.145  69.965  1.00  0.00    -0.251 A  
HETATM    5  C   UNL     1     -10.406   9.852  69.912  1.00  0.00    -0.298 A  
HETATM    6  C   UNL     1      -9.581  11.727  68.389  1.00  0.00    -0.191 C  
HETATM    7  C   UNL     1      -8.703  10.739  67.626  1.00  0.00    -0.126 C  
HETATM    8  C   UNL     1     -10.247   8.604  69.259  1.00  0.00    -0.215 A  
HETATM    9  C   UNL     1     -12.996  12.024  70.224  1.00  0.00     0.413 A  
HETATM   10  C   UNL     1      -9.482   8.803  71.911  1.00  0.00    -0.362 A  
HETATM   11  O   UNL     1      -7.802  10.079  68.124  1.00  0.00    -0.088 OA 
HETATM   12  C   UNL     1     -13.713  13.046  70.866  1.00  0.00     0.965 A  
HETATM   13  C   UNL     1      -9.678   7.502  69.898  1.00  0.00    -0.171 A  
HETATM   14  C   UNL     1     -10.037   9.917  71.265  1.00  0.00     0.502 A  
HETATM   15  O   UNL     1      -8.950  10.682  66.288  1.00  0.00    -0.157 OA 
HETATM   16  C   UNL     1     -10.977  13.277  70.513  1.00  0.00     1.456 A  
HETATM   17  C   UNL     1     -13.065  14.201  71.293  1.00  0.00    -0.420 A  
HETATM   18  C   UNL     1      -9.282   7.607  71.223  1.00  0.00    -0.155 A  
HETATM   19  C   UNL     1     -11.691  14.306  71.135  1.00  0.00    -0.154 A  
ENDROOT
BRANCH   6  20
HETATM   20  O   UNL     1      -9.945  12.727  67.413  1.00  0.00    -0.208 OA 
BRANCH  20  21
HETATM   21  C   UNL     1      -9.145  13.843  67.384  1.00  0.00    -0.217 A  
HETATM   22  C   UNL     1      -9.302  17.334  66.323  1.00  0.00    -0.248 C  
HETATM   23  N   UNL     1      -9.646  15.009  66.957  1.00  0.00    -0.219 NA 
HETATM   24  C   UNL     1      -7.451  15.917  67.225  1.00  0.00    -0.244 A  
HETATM   25  C   UNL     1      -8.780  16.037  66.866  1.00  0.00    -0.229 A  
HETATM   26  C   UNL     1      -7.045  14.682  67.691  1.00  0.00    -0.182 A  
HETATM   27  C   UNL     1      -5.619  14.442  68.088  1.00  0.00    -0.124 C  
HETATM   28  N   UNL     1      -7.887  13.631  67.781  1.00  0.00    -0.155 NA 
ENDBRANCH  20  21
ENDBRANCH   6  20
TORSDOF 2
ENDMDL
MODEL      145
REMARK 921   NORMALIZED FREE ENERGY PREDICTED BY IDOCK:    0.81 KCAL/MOL
REMARK 922        TOTAL FREE ENERGY PREDICTED BY IDOCK:    0.25 KCAL/MOL
REMARK 923 INTER-LIGAND FREE ENERGY PREDICTED BY IDOCK:   -6.71 KCAL/MOL
REMARK 924 INTRA-LIGAND FREE ENERGY PREDICTED BY IDOCK:    6.96 KCAL/MOL
REMARK 927      BINDING AFFINITY PREDICTED BY RF-SCORE:    0.00 PKD
ROOT
HETATM    1  C   UNL     1      -9.714  12.963  69.413  1.00  0.00     1.003 C  
HETATM    2  O   UNL     1      -9.548  14.337  69.126  1.00  0.00    -0.076 OA 
HETATM    3  C   UNL     1     -10.693  15.179  68.808  1.00  0.00    -0.239 C  
HETATM    4  C   UNL     1     -11.628  15.262  70.064  1.00  0.00    -0.331 A  
HETATM    5  C   UNL     1     -10.020  16.545  68.484  1.00  0.00    -0.251 A  
HETATM    6  C   UNL     1     -11.487  14.690  67.522  1.00  0.00    -0.361 C  
HETATM    7  C   UNL     1     -10.689  14.714  66.222  1.00  0.00    -0.316 C  
HETATM    8  C   UNL     1      -8.771  16.560  67.811  1.00  0.00    -0.197 A  
HETATM    9  C   UNL     1     -11.114  15.128  71.368  1.00  0.00    -0.232 A  
HETATM   10  C   UNL     1     -10.048  18.974  68.261  1.00  0.00    -0.466 A  
HETATM   11  O   UNL     1     -10.582  15.686  65.487  1.00  0.00    -0.353 OA 
HETATM   12  C   UNL     1     -11.961  15.034  72.482  1.00  0.00    -0.432 A  
HETATM   13  C   UNL     1      -8.202  17.742  67.336  1.00  0.00    -0.221 A  
HETATM   14  C   UNL     1     -10.631  17.785  68.724  1.00  0.00    -0.135 A  
HETATM   15  O   UNL     1     -10.131  13.519  65.880  1.00  0.00    -0.293 OA 
HETATM   16  C   UNL     1     -13.023  15.442  69.958  1.00  0.00     0.002 A  
HETATM   17  C   UNL     1     -13.343  15.102  72.326  1.00  0.00    -0.507 A  
HETATM   18  C   UNL     1      -8.850  18.949  67.550  1.00  0.00    -0.300 A  
HETATM   19  C   UNL     1     -13.873  15.328  71.064  1.00  0.00    -0.414 A  
ENDROOT
BRANCH   6  20
HETATM   20  O   UNL     1     -11.934  13.323  67.656  1.00  0.00    -0.355 OA 
BRANCH  20  21
HETATM   21  C   UNL     1     -11.631  12.497  66.602  1.00  0.00    -0.380 A  
HETATM   22  C   UNL     1      -9.143   9.988  65.678  1.00  0.00    -0.222 C  
HETATM   23  N   UNL     1     -10.618  11.628  66.708  1.00  0.00    -0.234 NA 
HETATM   24  C   UNL     1     -11.033  11.044  64.428  1.00  0.00    -0.157 A  
HETATM   25  C   UNL     1     -10.319  10.917  65.603  1.00  0.00    -0.242 A  
HETATM   26  C   UNL     1     -12.084  11.940  64.435  1.00  0.00    -0.214 A  
HETATM   27  C   UNL     1     -12.909  12.166  63.205  1.00  0.00    -0.154 C  
HETATM   28  N   UNL     1     -12.399  12.674  65.523  1.00  0.00    -0.632 NA 
ENDBRANCH  20  21
ENDBRANCH   6  20
TORSDOF 2
ENDMDL
MODEL      146
REMARK 921   NORMALIZED FREE ENERGY PREDICTED BY IDOCK:    1.59 KCAL/MOL
REMARK 922        TOTAL FREE ENERGY PREDICTED BY IDOCK:    1.12 KCAL/MOL
REMARK 923 INTER-LIGAND FREE ENERGY PREDICTED BY IDOCK:   -5.29 KCAL/MOL
REMARK 924 INTRA-LIGAND FREE ENERGY PREDICTED BY IDOCK:    6.41 KCAL/MOL
REMARK 927      BINDING AFFINITY PREDICTED BY RF-SCORE:    0.00 PKD
ROOT
HETATM    1  C   UNL     1      -7.201  16.065  69.689  1.00  0.00    -0.070 C  
HETATM    2  O   UNL     1      -8.301  15.376  69.128  1.00  0.00    -0.206 OA 
HETATM    3  C   UNL     1      -8.159  14.620  67.892  1.00  0.00    -0.145 C  
HETATM    4  C   UNL     1      -7.171  13.427  68.134  1.00  0.00    -0.113 A  
HETATM    5  C   UNL     1      -9.615  14.135  67.632  1.00  0.00    -0.216 A  
HETATM    6  C   UNL     1      -7.700  15.517  66.663  1.00  0.00     0.046 C  
HETATM    7  C   UNL     1      -8.677  16.619  66.266  1.00  0.00    -0.324 C  
HETATM    8  C   UNL     1     -10.699  14.989  67.958  1.00  0.00    -0.262 A  
HETATM    9  C   UNL     1      -7.025  12.846  69.408  1.00  0.00     0.107 A  
HETATM   10  C   UNL     1     -11.247  12.622  66.632  1.00  0.00    -0.346 A  
HETATM   11  O   UNL     1      -9.616  16.474  65.496  1.00  0.00    -0.502 OA 
HETATM   12  C   UNL     1      -6.027  11.895  69.670  1.00  0.00    -0.114 A  
HETATM   13  C   UNL     1     -12.012  14.690  67.591  1.00  0.00    -0.307 A  
HETATM   14  C   UNL     1      -9.924  12.928  66.985  1.00  0.00    -0.244 A  
HETATM   15  O   UNL     1      -8.392  17.842  66.794  1.00  0.00    -0.234 OA 
HETATM   16  C   UNL     1      -6.358  12.898  67.110  1.00  0.00     0.149 A  
HETATM   17  C   UNL     1      -5.167  11.479  68.657  1.00  0.00    -0.043 A  
HETATM   18  C   UNL     1     -12.283  13.511  66.914  1.00  0.00    -0.377 A  
HETATM   19  C   UNL     1      -5.348  11.965  67.371  1.00  0.00    -0.104 A  
ENDROOT
BRANCH   6  20
HETATM   20  O   UNL     1      -6.459  16.204  66.937  1.00  0.00    -0.283 OA 
BRANCH  20  21
HETATM   21  C   UNL     1      -6.384  17.494  66.472  1.00  0.00    -0.226 A  
HETATM   22  C   UNL     1      -7.416  20.856  67.460  1.00  0.00    -0.304 C  
HETATM   23  N   UNL     1      -6.852  18.499  67.223  1.00  0.00    -0.201 NA 
HETATM   24  C   UNL     1      -6.327  19.953  65.400  1.00  0.00    -0.283 A  
HETATM   25  C   UNL     1      -6.832  19.726  66.665  1.00  0.00    -0.202 A  
HETATM   26  C   UNL     1      -5.833  18.854  64.724  1.00  0.00    -0.274 A  
HETATM   27  C   UNL     1      -5.280  18.990  63.337  1.00  0.00    -0.296 C  
HETATM   28  N   UNL     1      -5.851  17.613  65.253  1.00  0.00     0.081 NA 
ENDBRANCH  20  21
ENDBRANCH   6  20
TORSDOF 2
ENDMDL
MODEL      147
REMARK 921   NORMALIZED FREE ENERGY PREDICTED BY IDOCK:    1.82 KCAL/MOL
REMARK 922        TOTAL FREE ENERGY PREDICTED BY IDOCK:    1.37 KCAL/MOL
REMARK 923 INTER-LIGAND FREE ENERGY PREDICTED BY IDOCK:    1.67 KCAL/MOL
REMARK 924 INTRA-LIGAND FREE ENERGY PREDICTED BY IDOCK:   -0.29 KCAL/MOL
REMARK 927      BINDING AFFINITY PREDICTED BY RF-SCORE:    0.00 PKD
ROOT
HETATM    1  C   UNL     1     -12.436  11.268  67.285  1.00  0.00     2.442 C  
HETATM    2  O   UNL     1     -11.455  10.557  68.013  1.00  0.00    -0.383 OA 
HETATM    3  C   UNL     1     -10.614  11.233  68.991  1.00  0.00    -0.208 C  
HETATM    4  C   UNL     1     -11.514  11.756  70.163  1.00  0.00    -0.169 A  
HETATM    5  C   UNL     1      -9.656  10.093  69.447  1.00  0.00    -0.249 A  
HETATM    6  C   UNL     1      -9.741  12.401  68.360  1.00  0.00    -0.189 C  
HETATM    7  C   UNL     1      -8.732  11.958  67.306  1.00  0.00    -0.171 C  
HETATM    8  C   UNL     1      -9.215   9.137  68.498  1.00  0.00    -0.136 A  
HETATM    9  C   UNL     1     -12.718  11.110  70.504  1.00  0.00    -0.302 A  
HETATM   10  C   UNL     1      -8.126   9.059  71.040  1.00  0.00    -0.199 A  
HETATM   11  O   UNL     1      -7.597  11.570  67.547  1.00  0.00    -0.107 OA 
HETATM   12  C   UNL     1     -13.608  11.665  71.436  1.00  0.00     0.451 A  
HETATM   13  C   UNL     1      -8.225   8.200  68.797  1.00  0.00    -0.125 A  
HETATM   14  C   UNL     1      -9.109  10.012  70.737  1.00  0.00     0.686 A  
HETATM   15  O   UNL     1      -9.166  12.084  66.021  1.00  0.00    -0.221 OA 
HETATM   16  C   UNL     1     -11.189  12.907  70.912  1.00  0.00     1.978 A  
HETATM   17  C   UNL     1     -13.304  12.865  72.073  1.00  0.00    -0.579 A  
HETATM   18  C   UNL     1      -7.669   8.172  70.067  1.00  0.00    -0.086 A  
HETATM   19  C   UNL     1     -12.083  13.475  71.826  1.00  0.00     0.405 A  
ENDROOT
BRANCH   6  20
HETATM   20  O   UNL     1     -10.565  13.383  67.693  1.00  0.00    -0.239 OA 
BRANCH  20  21
HETATM   21  C   UNL     1     -10.289  14.692  68.002  1.00  0.00    -0.235 A  
HETATM   22  C   UNL     1     -11.049  17.142  70.602  1.00  0.00     0.864 C  
HETATM   23  N   UNL     1     -10.729  15.210  69.156  1.00  0.00    -0.243 NA 
HETATM   24  C   UNL     1      -9.823  17.300  68.429  1.00  0.00    -0.309 A  
HETATM   25  C   UNL     1     -10.502  16.525  69.349  1.00  0.00    -0.320 A  
HETATM   26  C   UNL     1      -9.377  16.660  67.289  1.00  0.00    -0.230 A  
HETATM   27  C   UNL     1      -8.646  17.415  66.220  1.00  0.00    -0.246 C  
HETATM   28  N   UNL     1      -9.599  15.348  67.063  1.00  0.00    -0.214 NA 
ENDBRANCH  20  21
ENDBRANCH   6  20
TORSDOF 2
ENDMDL
MODEL      148
REMARK 921   NORMALIZED FREE ENERGY PREDICTED BY IDOCK:    2.00 KCAL/MOL
REMARK 922        TOTAL FREE ENERGY PREDICTED BY IDOCK:    1.57 KCAL/MOL
REMARK 923 INTER-LIGAND FREE ENERGY PREDICTED BY IDOCK:    1.73 KCAL/MOL
REMARK 924 INTRA-LIGAND FREE ENERGY PREDICTED BY IDOCK:   -0.15 KCAL/MOL
REMARK 927      BINDING AFFINITY PREDICTED BY RF-SCORE:    0.00 PKD
ROOT
HETATM    1  C   UNL     1     -13.034  11.120  67.209  1.00  0.00     6.294 C  
HETATM    2  O   UNL     1     -12.193  12.239  67.011  1.00  0.00    -0.522 OA 
HETATM    3  C   UNL     1     -10.785  12.190  67.378  1.00  0.00    -0.234 C  
HETATM    4  C   UNL     1     -10.060  11.129  66.480  1.00  0.00    -0.265 A  
HETATM    5  C   UNL     1     -10.313  13.642  67.072  1.00  0.00    -0.260 A  
HETATM    6  C   UNL     1     -10.554  11.902  68.924  1.00  0.00    -0.173 C  
HETATM    7  C   UNL     1     -11.105  12.964  69.870  1.00  0.00     0.310 C  
HETATM    8  C   UNL     1     -11.195  14.724  67.320  1.00  0.00    -0.351 A  
HETATM    9  C   UNL     1     -10.526  10.827  65.186  1.00  0.00    -0.299 A  
HETATM   10  C   UNL     1      -8.597  15.297  66.556  1.00  0.00    -0.264 A  
HETATM   11  O   UNL     1     -10.502  13.969  70.217  1.00  0.00     0.622 OA 
HETATM   12  C   UNL     1      -9.987   9.765  64.444  1.00  0.00     0.288 A  
HETATM   13  C   UNL     1     -10.777  16.053  67.234  1.00  0.00    -0.295 A  
HETATM   14  C   UNL     1      -9.010  13.961  66.658  1.00  0.00    -0.156 A  
HETATM   15  O   UNL     1     -12.337  12.682  70.377  1.00  0.00    -0.312 OA 
HETATM   16  C   UNL     1      -8.935  10.402  66.924  1.00  0.00    -0.151 A  
HETATM   17  C   UNL     1      -8.950   8.996  64.964  1.00  0.00    -0.198 A  
HETATM   18  C   UNL     1      -9.470  16.338  66.866  1.00  0.00    -0.245 A  
HETATM   19  C   UNL     1      -8.409   9.330  66.197  1.00  0.00    -0.122 A  
ENDROOT
BRANCH   6  20
HETATM   20  O   UNL     1     -11.188  10.672  69.339  1.00  0.00    -0.231 OA 
BRANCH  20  21
HETATM   21  C   UNL     1     -10.380   9.789  70.012  1.00  0.00    -0.263 A  
HETATM   22  C   UNL     1      -7.051   8.314  69.727  1.00  0.00    -0.056 C  
HETATM   23  N   UNL     1      -9.130   9.572  69.583  1.00  0.00    -0.181 NA 
HETATM   24  C   UNL     1      -8.946   7.931  71.311  1.00  0.00    -0.155 A  
HETATM   25  C   UNL     1      -8.428   8.624  70.235  1.00  0.00    -0.132 A  
HETATM   26  C   UNL     1     -10.230   8.259  71.699  1.00  0.00    -0.221 A  
HETATM   27  C   UNL     1     -10.891   7.552  72.844  1.00  0.00    -0.425 C  
HETATM   28  N   UNL     1     -10.962   9.194  71.058  1.00  0.00    -0.277 NA 
ENDBRANCH  20  21
ENDBRANCH   6  20
TORSDOF 2
ENDMDL
MODEL      149
REMARK 921   NORMALIZED FREE ENERGY PREDICTED BY IDOCK:    2.24 KCAL/MOL
REMARK 922        TOTAL FREE ENERGY PREDICTED BY IDOCK:    1.84 KCAL/MOL
REMARK 923 INTER-LIGAND FREE ENERGY PREDICTED BY IDOCK:    1.88 KCAL/MOL
REMARK 924 INTRA-LIGAND FREE ENERGY PREDICTED BY IDOCK:   -0.03 KCAL/MOL
REMARK 927      BINDING AFFINITY PREDICTED BY RF-SCORE:    0.00 PKD
ROOT
HETATM    1  C   UNL     1     -11.563  19.431  67.082  1.00  0.00     0.981 C  
HETATM    2  O   UNL     1     -11.726  18.374  68.006  1.00  0.00     1.050 OA 
HETATM    3  C   UNL     1     -10.613  17.498  68.345  1.00  0.00    -0.339 C  
HETATM    4  C   UNL     1      -9.505  18.339  69.068  1.00  0.00    -0.148 A  
HETATM    5  C   UNL     1     -11.283  16.464  69.297  1.00  0.00    -0.272 A  
HETATM    6  C   UNL     1     -10.028  16.721  67.089  1.00  0.00    -0.274 C  
HETATM    7  C   UNL     1     -11.003  15.766  66.407  1.00  0.00    -0.159 C  
HETATM    8  C   UNL     1     -12.614  16.047  69.041  1.00  0.00     0.824 A  
HETATM    9  C   UNL     1      -9.830  19.488  69.813  1.00  0.00     0.158 A  
HETATM   10  C   UNL     1     -11.212  14.788  71.067  1.00  0.00    -0.118 A  
HETATM   11  O   UNL     1     -11.185  14.602  66.736  1.00  0.00    -0.328 OA 
HETATM   12  C   UNL     1      -8.834  20.337  70.321  1.00  0.00     1.496 A  
HETATM   13  C   UNL     1     -13.209  15.000  69.745  1.00  0.00     0.560 A  
HETATM   14  C   UNL     1     -10.605  15.828  70.348  1.00  0.00    -0.245 A  
HETATM   15  O   UNL     1     -11.641  16.290  65.324  1.00  0.00     0.185 OA 
HETATM   16  C   UNL     1      -8.134  18.014  68.987  1.00  0.00    -0.063 A  
HETATM   17  C   UNL     1      -7.488  20.042  70.123  1.00  0.00     0.519 A  
HETATM   18  C   UNL     1     -12.500  14.360  70.751  1.00  0.00    -0.423 A  
HETATM   19  C   UNL     1      -7.139  18.868  69.474  1.00  0.00    -0.081 A  
ENDROOT
BRANCH   6  20
HETATM   20  O   UNL     1      -9.609  17.628  66.045  1.00  0.00    -0.493 OA 
BRANCH  20  21
HETATM   21  C   UNL     1      -8.253  17.808  65.930  1.00  0.00     0.046 A  
HETATM   22  C   UNL     1      -5.148  16.140  66.887  1.00  0.00     0.298 C  
HETATM   23  N   UNL     1      -7.416  16.866  66.382  1.00  0.00    -0.286 NA 
HETATM   24  C   UNL     1      -5.626  18.336  65.792  1.00  0.00    -0.225 A  
HETATM   25  C   UNL     1      -6.100  17.152  66.321  1.00  0.00    -0.066 A  
HETATM   26  C   UNL     1      -6.571  19.225  65.317  1.00  0.00    -0.253 A  
HETATM   27  C   UNL     1      -6.161  20.546  64.741  1.00  0.00    -0.319 C  
HETATM   28  N   UNL     1      -7.895  18.971  65.376  1.00  0.00    -0.150 NA 
ENDBRANCH  20  21
ENDBRANCH   6  20
TORSDOF 2
ENDMDL
MODEL      150
REMARK 921   NORMALIZED FREE ENERGY PREDICTED BY IDOCK:    2.55 KCAL/MOL
REMARK 922        TOTAL FREE ENERGY PREDICTED BY IDOCK:    2.19 KCAL/MOL
REMARK 923 INTER-LIGAND FREE ENERGY PREDICTED BY IDOCK:    2.77 KCAL/MOL
REMARK 924 INTRA-LIGAND FREE ENERGY PREDICTED BY IDOCK:   -0.59 KCAL/MOL
REMARK 927      BINDING AFFINITY PREDICTED BY RF-SCORE:    0.00 PKD
ROOT
HETATM    1  C   UNL     1      -8.184  14.306  69.527  1.00  0.00     0.421 C  
HETATM    2  O   UNL     1      -9.278  13.472  69.850  1.00  0.00     1.677 OA 
HETATM    3  C   UNL     1     -10.202  13.017  68.821  1.00  0.00    -0.089 C  
HETATM    4  C   UNL     1      -9.430  12.096  67.814  1.00  0.00    -0.192 A  
HETATM    5  C   UNL     1     -11.259  12.229  69.649  1.00  0.00    -0.120 A  
HETATM    6  C   UNL     1     -10.937  14.211  68.073  1.00  0.00    -0.255 C  
HETATM    7  C   UNL     1     -11.828  15.077  68.957  1.00  0.00    -0.300 C  
HETATM    8  C   UNL     1     -11.623  12.700  70.936  1.00  0.00     0.914 A  
HETATM    9  C   UNL     1      -8.308  11.350  68.220  1.00  0.00    -0.152 A  
HETATM   10  C   UNL     1     -13.018  10.556  69.881  1.00  0.00     0.205 A  
HETATM   11  O   UNL     1     -13.000  14.839  69.212  1.00  0.00     0.331 OA 
HETATM   12  C   UNL     1      -7.515  10.657  67.292  1.00  0.00    -0.099 A  
HETATM   13  C   UNL     1     -12.683  12.145  71.653  1.00  0.00    -0.314 A  
HETATM   14  C   UNL     1     -11.964  11.122  69.150  1.00  0.00    -0.413 A  
HETATM   15  O   UNL     1     -11.235  16.215  69.414  1.00  0.00    -0.313 OA 
HETATM   16  C   UNL     1      -9.792  11.990  66.454  1.00  0.00    -0.238 A  
HETATM   17  C   UNL     1      -7.840  10.669  65.939  1.00  0.00    -0.150 A  
HETATM   18  C   UNL     1     -13.391  11.080  71.117  1.00  0.00     0.001 A  
HETATM   19  C   UNL     1      -8.993  11.318  65.523  1.00  0.00    -0.139 A  
ENDROOT
BRANCH   6  20
HETATM   20  O   UNL     1      -9.995  15.133  67.482  1.00  0.00    -0.225 OA 
BRANCH  20  21
HETATM   21  C   UNL     1     -10.434  15.786  66.357  1.00  0.00    -0.303 A  
HETATM   22  C   UNL     1     -10.899  19.200  65.143  1.00  0.00     0.715 C  
HETATM   23  N   UNL     1     -10.365  17.122  66.295  1.00  0.00    -0.329 NA 
HETATM   24  C   UNL     1     -11.463  16.964  64.177  1.00  0.00     1.193 A  
HETATM   25  C   UNL     1     -10.901  17.701  65.202  1.00  0.00     0.323 A  
HETATM   26  C   UNL     1     -11.448  15.591  64.322  1.00  0.00    -0.180 A  
HETATM   27  C   UNL     1     -12.050  14.702  63.275  1.00  0.00     1.158 C  
HETATM   28  N   UNL     1     -10.930  14.984  65.410  1.00  0.00    -0.352 NA 
ENDBRANCH  20  21
ENDBRANCH   6  20
TORSDOF 2
ENDMDL
MODEL      151
REMARK 921   NORMALIZED FREE ENERGY PREDICTED BY IDOCK:    3.43 KCAL/MOL
REMARK 922        TOTAL FREE ENERGY PREDICTED BY IDOCK:    3.17 KCAL/MOL
REMARK 923 INTER-LIGAND FREE ENERGY PREDICTED BY IDOCK:    1.82 KCAL/MOL
REMARK 924 INTRA-LIGAND FREE ENERGY PREDICTED BY IDOCK:    1.35 KCAL/MOL
REMARK 927      BINDING AFFINITY PREDICTED BY RF-SCORE:    0.00 PKD
ROOT
HETATM    1  C   UNL     1     -11.299  16.832  70.435  1.00  0.00     0.309 C  
HETATM    2  O   UNL     1      -9.950  17.098  70.109  1.00  0.00     0.555 OA 
HETATM    3  C   UNL     1      -9.462  16.926  68.748  1.00  0.00    -0.264 C  
HETATM    4  C   UNL     1     -10.188  17.953  67.812  1.00  0.00    -0.372 A  
HETATM    5  C   UNL     1      -7.944  17.238  68.899  1.00  0.00    -0.196 A  
HETATM    6  C   UNL     1      -9.619  15.438  68.214  1.00  0.00    -0.205 C  
HETATM    7  C   UNL     1      -8.827  14.387  68.984  1.00  0.00     0.009 C  
HETATM    8  C   UNL     1      -7.267  16.832  70.078  1.00  0.00     0.890 A  
HETATM    9  C   UNL     1     -10.662  19.183  68.307  1.00  0.00    -0.122 A  
HETATM   10  C   UNL     1      -5.774  17.916  68.015  1.00  0.00    -0.157 A  
HETATM   11  O   UNL     1      -7.663  14.086  68.758  1.00  0.00    -0.135 OA 
HETATM   12  C   UNL     1     -11.456  20.031  67.519  1.00  0.00     0.846 A  
HETATM   13  C   UNL     1      -5.880  16.923  70.202  1.00  0.00    -0.177 A  
HETATM   14  C   UNL     1      -7.166  17.811  67.881  1.00  0.00    -0.210 A  
HETATM   15  O   UNL     1      -9.542  13.730  69.939  1.00  0.00     1.171 OA 
HETATM   16  C   UNL     1     -10.433  17.692  66.448  1.00  0.00    -0.286 A  
HETATM   17  C   UNL     1     -11.772  19.685  66.209  1.00  0.00     1.538 A  
HETATM   18  C   UNL     1      -5.132  17.452  69.161  1.00  0.00    -0.153 A  
HETATM   19  C   UNL     1     -11.241  18.524  65.666  1.00  0.00     0.819 A  
ENDROOT
BRANCH   6  20
HETATM   20  O   UNL     1     -10.990  14.989  68.279  1.00  0.00    -0.254 OA 
BRANCH  20  21
HETATM   21  C   UNL     1     -11.202  13.683  67.910  1.00  0.00    -0.274 A  
HETATM   22  C   UNL     1     -11.221  11.630  64.889  1.00  0.00    -0.287 C  
HETATM   23  N   UNL     1     -11.026  13.317  66.634  1.00  0.00    -0.281 NA 
HETATM   24  C   UNL     1     -11.791  11.144  67.273  1.00  0.00     0.263 A  
HETATM   25  C   UNL     1     -11.342  12.043  66.326  1.00  0.00    -0.357 A  
HETATM   26  C   UNL     1     -11.900  11.612  68.569  1.00  0.00    -0.292 A  
HETATM   27  C   UNL     1     -12.397  10.722  69.668  1.00  0.00    -0.262 C  
HETATM   28  N   UNL     1     -11.602  12.885  68.904  1.00  0.00    -0.294 NA 
ENDBRANCH  20  21
ENDBRANCH   6  20
TORSDOF 2
ENDMDL
MODEL      152
REMARK 921   NORMALIZED FREE ENERGY PREDICTED BY IDOCK:    3.44 KCAL/MOL
REMARK 922        TOTAL FREE ENERGY PREDICTED BY IDOCK:    3.19 KCAL/MOL
REMARK 923 INTER-LIGAND FREE ENERGY PREDICTED BY IDOCK:   -2.79 KCAL/MOL
REMARK 924 INTRA-LIGAND FREE ENERGY PREDICTED BY IDOCK:    5.97 KCAL/MOL
REMARK 927      BINDING AFFINITY PREDICTED BY RF-SCORE:    0.00 PKD
ROOT
HETATM    1  C   UNL     1      -6.612   6.673  70.400  1.00  0.00    -0.048 C  
HETATM    2  O   UNL     1      -6.910   6.302  69.069  1.00  0.00    -0.061 OA 
HETATM    3  C   UNL     1      -7.876   7.053  68.281  1.00  0.00    -0.118 C  
HETATM    4  C   UNL     1      -7.331   8.506  68.055  1.00  0.00    -0.092 A  
HETATM    5  C   UNL     1      -7.934   6.234  66.958  1.00  0.00    -0.109 A  
HETATM    6  C   UNL     1      -9.328   7.070  68.926  1.00  0.00    -0.139 C  
HETATM    7  C   UNL     1      -9.996   5.704  69.053  1.00  0.00    -0.174 C  
HETATM    8  C   UNL     1      -7.835   4.820  67.014  1.00  0.00    -0.098 A  
HETATM    9  C   UNL     1      -5.948   8.770  68.028  1.00  0.00    -0.046 A  
HETATM   10  C   UNL     1      -8.393   6.001  64.574  1.00  0.00    -0.045 A  
HETATM   11  O   UNL     1     -10.658   5.168  68.175  1.00  0.00    -0.073 OA 
HETATM   12  C   UNL     1      -5.455  10.084  67.994  1.00  0.00    -0.038 A  
HETATM   13  C   UNL     1      -8.054   4.019  65.893  1.00  0.00    -0.101 A  
HETATM   14  C   UNL     1      -8.190   6.807  65.703  1.00  0.00    -0.134 A  
HETATM   15  O   UNL     1      -9.858   5.120  70.275  1.00  0.00    -0.187 OA 
HETATM   16  C   UNL     1      -8.183   9.619  67.901  1.00  0.00    -0.106 A  
HETATM   17  C   UNL     1      -6.331  11.165  67.956  1.00  0.00    -0.053 A  
HETATM   18  C   UNL     1      -8.348   4.611  64.674  1.00  0.00    -0.125 A  
HETATM   19  C   UNL     1      -7.696  10.931  67.888  1.00  0.00    -0.104 A  
ENDROOT
BRANCH   6  20
HETATM   20  O   UNL     1      -9.309   7.598  70.271  1.00  0.00    -0.157 OA 
BRANCH  20  21
HETATM   21  C   UNL     1     -10.112   6.943  71.173  1.00  0.00    -0.191 A  
HETATM   22  C   UNL     1     -13.496   7.157  72.529  1.00  0.00     0.509 C  
HETATM   23  N   UNL     1     -11.387   7.323  71.325  1.00  0.00    -0.256 NA 
HETATM   24  C   UNL     1     -11.541   5.697  73.071  1.00  0.00    -0.180 A  
HETATM   25  C   UNL     1     -12.088   6.699  72.293  1.00  0.00    -0.188 A  
HETATM   26  C   UNL     1     -10.229   5.354  72.807  1.00  0.00    -0.187 A  
HETATM   27  C   UNL     1      -9.537   4.292  73.607  1.00  0.00    -0.133 C  
HETATM   28  N   UNL     1      -9.500   5.969  71.853  1.00  0.00    -0.151 NA 
ENDBRANCH  20  21
ENDBRANCH   6  20
TORSDOF 2
ENDMDL
MODEL      153
REMARK 921   NORMALIZED FREE ENERGY PREDICTED BY IDOCK:    4.02 KCAL/MOL
REMARK 922        TOTAL FREE ENERGY PREDICTED BY IDOCK:    3.83 KCAL/MOL
REMARK 923 INTER-LIGAND FREE ENERGY PREDICTED BY IDOCK:   -4.91 KCAL/MOL
REMARK 924 INTRA-LIGAND FREE ENERGY PREDICTED BY IDOCK:    8.75 KCAL/MOL
REMARK 927      BINDING AFFINITY PREDICTED BY RF-SCORE:    0.00 PKD
ROOT
HETATM    1  C   UNL     1     -10.457   7.604  68.805  1.00  0.00    -0.189 C  
HETATM    2  O   UNL     1     -10.333   6.536  69.722  1.00  0.00    -0.180 OA 
HETATM    3  C   UNL     1     -10.342   6.776  71.158  1.00  0.00    -0.205 C  
HETATM    4  C   UNL     1     -11.744   7.343  71.571  1.00  0.00    -0.314 A  
HETATM    5  C   UNL     1     -10.090   5.352  71.734  1.00  0.00    -0.251 A  
HETATM    6  C   UNL     1      -9.164   7.729  71.637  1.00  0.00    -0.136 C  
HETATM    7  C   UNL     1      -7.758   7.186  71.402  1.00  0.00    -0.093 C  
HETATM    8  C   UNL     1      -9.214   4.472  71.049  1.00  0.00    -0.200 A  
HETATM    9  C   UNL     1     -12.905   7.026  70.840  1.00  0.00    -0.172 A  
HETATM   10  C   UNL     1     -10.207   3.682  73.508  1.00  0.00    -0.216 A  
HETATM   11  O   UNL     1      -7.154   6.455  72.174  1.00  0.00    -0.076 OA 
HETATM   12  C   UNL     1     -14.130   7.659  71.100  1.00  0.00    -0.287 A  
HETATM   13  C   UNL     1      -8.809   3.255  71.599  1.00  0.00    -0.133 A  
HETATM   14  C   UNL     1     -10.602   4.914  72.965  1.00  0.00    -0.280 A  
HETATM   15  O   UNL     1      -7.164   7.634  70.261  1.00  0.00    -0.064 OA 
HETATM   16  C   UNL     1     -11.915   8.219  72.664  1.00  0.00    -0.360 A  
HETATM   17  C   UNL     1     -14.233   8.604  72.117  1.00  0.00    -0.520 A  
HETATM   18  C   UNL     1      -9.297   2.867  72.838  1.00  0.00    -0.128 A  
HETATM   19  C   UNL     1     -13.129   8.867  72.914  1.00  0.00     0.007 A  
ENDROOT
BRANCH   6  20
HETATM   20  O   UNL     1      -9.190   8.999  70.949  1.00  0.00    -0.216 OA 
BRANCH  20  21
HETATM   21  C   UNL     1      -8.080   9.282  70.191  1.00  0.00    -0.145 A  
HETATM   22  C   UNL     1      -5.183  11.505  70.251  1.00  0.00    -0.093 C  
HETATM   23  N   UNL     1      -7.179  10.166  70.638  1.00  0.00    -0.298 NA 
HETATM   24  C   UNL     1      -6.033   9.872  68.560  1.00  0.00    -0.042 A  
HETATM   25  C   UNL     1      -6.165  10.465  69.801  1.00  0.00    -0.067 A  
HETATM   26  C   UNL     1      -6.995   8.944  68.212  1.00  0.00    -0.076 A  
HETATM   27  C   UNL     1      -6.954   8.258  66.879  1.00  0.00    -0.070 C  
HETATM   28  N   UNL     1      -8.027   8.634  69.024  1.00  0.00    -0.113 NA 
ENDBRANCH  20  21
ENDBRANCH   6  20
TORSDOF 2
ENDMDL
MODEL      154
REMARK 921   NORMALIZED FREE ENERGY PREDICTED BY IDOCK:    4.04 KCAL/MOL
REMARK 922        TOTAL FREE ENERGY PREDICTED BY IDOCK:    3.86 KCAL/MOL
REMARK 923 INTER-LIGAND FREE ENERGY PREDICTED BY IDOCK:   -5.32 KCAL/MOL
REMARK 924 INTRA-LIGAND FREE ENERGY PREDICTED BY IDOCK:    9.18 KCAL/MOL
REMARK 927      BINDING AFFINITY PREDICTED BY RF-SCORE:    0.00 PKD
ROOT
HETATM    1  C   UNL     1     -10.569   7.913  68.457  1.00  0.00    -0.106 C  
HETATM    2  O   UNL     1      -9.963   7.299  69.577  1.00  0.00    -0.166 OA 
HETATM    3  C   UNL     1      -9.966   7.950  70.879  1.00  0.00    -0.182 C  
HETATM    4  C   UNL     1     -11.444   8.068  71.387  1.00  0.00    -0.293 A  
HETATM    5  C   UNL     1      -9.124   6.966  71.743  1.00  0.00    -0.138 A  
HETATM    6  C   UNL     1      -9.237   9.362  70.872  1.00  0.00    -0.173 C  
HETATM    7  C   UNL     1      -7.752   9.322  70.526  1.00  0.00    -0.148 C  
HETATM    8  C   UNL     1      -8.019   6.298  71.155  1.00  0.00    -0.116 A  
HETATM    9  C   UNL     1     -12.429   7.143  70.990  1.00  0.00    -0.359 A  
HETATM   10  C   UNL     1      -8.435   6.001  73.875  1.00  0.00    -0.116 A  
HETATM   11  O   UNL     1      -6.853   9.135  71.334  1.00  0.00    -0.167 OA 
HETATM   12  C   UNL     1     -13.783   7.337  71.303  1.00  0.00    -0.328 A  
HETATM   13  C   UNL     1      -7.123   5.543  71.913  1.00  0.00    -0.085 A  
HETATM   14  C   UNL     1      -9.328   6.774  73.118  1.00  0.00    -0.153 A  
HETATM   15  O   UNL     1      -7.470   9.580  69.219  1.00  0.00    -0.072 OA 
HETATM   16  C   UNL     1     -11.873   9.113  72.232  1.00  0.00    -0.235 A  
HETATM   17  C   UNL     1     -14.184   8.444  72.046  1.00  0.00    -0.528 A  
HETATM   18  C   UNL     1      -7.324   5.407  73.278  1.00  0.00    -0.095 A  
HETATM   19  C   UNL     1     -13.224   9.321  72.529  1.00  0.00    -0.439 A  
ENDROOT
BRANCH   6  20
HETATM   20  O   UNL     1      -9.819  10.258  69.899  1.00  0.00    -0.211 OA 
BRANCH  20  21
HETATM   21  C   UNL     1      -9.043  10.515  68.795  1.00  0.00    -0.166 A  
HETATM   22  C   UNL     1      -6.559  12.940  67.662  1.00  0.00    -0.155 C  
HETATM   23  N   UNL     1      -8.160  11.520  68.823  1.00  0.00    -0.128 NA 
HETATM   24  C   UNL     1      -7.694  11.021  66.532  1.00  0.00    -0.154 A  
HETATM   25  C   UNL     1      -7.501  11.773  67.674  1.00  0.00    -0.123 A  
HETATM   26  C   UNL     1      -8.599   9.981  66.621  1.00  0.00    -0.125 A  
HETATM   27  C   UNL     1      -8.894   9.116  65.433  1.00  0.00    -0.236 C  
HETATM   28  N   UNL     1      -9.281   9.712  67.754  1.00  0.00    -0.125 NA 
ENDBRANCH  20  21
ENDBRANCH   6  20
TORSDOF 2
ENDMDL
MODEL      155
REMARK 921   NORMALIZED FREE ENERGY PREDICTED BY IDOCK:    4.13 KCAL/MOL
REMARK 922        TOTAL FREE ENERGY PREDICTED BY IDOCK:    3.96 KCAL/MOL
REMARK 923 INTER-LIGAND FREE ENERGY PREDICTED BY IDOCK:   -3.13 KCAL/MOL
REMARK 924 INTRA-LIGAND FREE ENERGY PREDICTED BY IDOCK:    7.08 KCAL/MOL
REMARK 927      BINDING AFFINITY PREDICTED BY RF-SCORE:    0.00 PKD
ROOT
HETATM    1  C   UNL     1     -11.292  13.241  69.056  1.00  0.00    -0.285 C  
HETATM    2  O   UNL     1     -10.847  12.374  68.031  1.00  0.00    -0.206 OA 
HETATM    3  C   UNL     1      -9.671  11.537  68.218  1.00  0.00    -0.198 C  
HETATM    4  C   UNL     1      -9.957  10.502  69.361  1.00  0.00    -0.220 A  
HETATM    5  C   UNL     1      -9.528  10.853  66.827  1.00  0.00    -0.200 A  
HETATM    6  C   UNL     1      -8.351  12.373  68.506  1.00  0.00    -0.081 C  
HETATM    7  C   UNL     1      -7.917  13.306  67.379  1.00  0.00    -0.170 C  
HETATM    8  C   UNL     1      -9.840  11.590  65.656  1.00  0.00    -0.269 A  
HETATM    9  C   UNL     1     -11.265  10.058  69.633  1.00  0.00    -0.285 A  
HETATM   10  C   UNL     1      -8.742   9.066  65.363  1.00  0.00    -0.221 A  
HETATM   11  O   UNL     1      -7.212  12.978  66.435  1.00  0.00     0.866 OA 
HETATM   12  C   UNL     1     -11.550   9.265  70.755  1.00  0.00    -0.345 A  
HETATM   13  C   UNL     1      -9.568  11.099  64.379  1.00  0.00    -0.288 A  
HETATM   14  C   UNL     1      -8.999   9.565  66.648  1.00  0.00    -0.168 A  
HETATM   15  O   UNL     1      -8.327  14.596  67.526  1.00  0.00    -0.163 OA 
HETATM   16  C   UNL     1      -8.938   9.991  70.191  1.00  0.00    -0.049 A  
HETATM   17  C   UNL     1     -10.531   8.872  71.618  1.00  0.00    -0.408 A  
HETATM   18  C   UNL     1      -9.004   9.840  64.234  1.00  0.00    -0.276 A  
HETATM   19  C   UNL     1      -9.220   9.218  71.323  1.00  0.00    -0.161 A  
ENDROOT
BRANCH   6  20
HETATM   20  O   UNL     1      -8.502  13.231  69.658  1.00  0.00     1.142 OA 
BRANCH  20  21
HETATM   21  C   UNL     1      -8.129  14.539  69.472  1.00  0.00     0.188 A  
HETATM   22  C   UNL     1      -5.241  16.701  70.042  1.00  0.00    -0.179 C  
HETATM   23  N   UNL     1      -6.881  14.923  69.767  1.00  0.00    -0.176 NA 
HETATM   24  C   UNL     1      -7.558  17.148  69.216  1.00  0.00    -0.025 A  
HETATM   25  C   UNL     1      -6.613  16.239  69.649  1.00  0.00    -0.175 A  
HETATM   26  C   UNL     1      -8.804  16.644  68.900  1.00  0.00    -0.238 A  
HETATM   27  C   UNL     1      -9.906  17.550  68.439  1.00  0.00    -0.325 C  
HETATM   28  N   UNL     1      -9.104  15.333  69.019  1.00  0.00    -0.211 NA 
ENDBRANCH  20  21
ENDBRANCH   6  20
TORSDOF 2
ENDMDL
MODEL      156
REMARK 921   NORMALIZED FREE ENERGY PREDICTED BY IDOCK:    4.49 KCAL/MOL
REMARK 922        TOTAL FREE ENERGY PREDICTED BY IDOCK:    4.36 KCAL/MOL
REMARK 923 INTER-LIGAND FREE ENERGY PREDICTED BY IDOCK:   -4.55 KCAL/MOL
REMARK 924 INTRA-LIGAND FREE ENERGY PREDICTED BY IDOCK:    8.92 KCAL/MOL
REMARK 927      BINDING AFFINITY PREDICTED BY RF-SCORE:    0.00 PKD
ROOT
HETATM    1  C   UNL     1      -9.524   7.073  68.269  1.00  0.00    -0.128 C  
HETATM    2  O   UNL     1     -10.433   7.882  68.988  1.00  0.00    -0.214 OA 
HETATM    3  C   UNL     1      -9.961   8.978  69.822  1.00  0.00    -0.196 C  
HETATM    4  C   UNL     1      -9.282  10.057  68.910  1.00  0.00    -0.169 A  
HETATM    5  C   UNL     1     -11.280   9.497  70.465  1.00  0.00    -0.345 A  
HETATM    6  C   UNL     1      -8.988   8.502  70.985  1.00  0.00    -0.179 C  
HETATM    7  C   UNL     1      -9.614   7.556  72.005  1.00  0.00    -0.154 C  
HETATM    8  C   UNL     1     -12.292   8.568  70.817  1.00  0.00     0.047 A  
HETATM    9  C   UNL     1      -9.670  10.228  67.567  1.00  0.00    -0.196 A  
HETATM   10  C   UNL     1     -12.632  11.216  71.546  1.00  0.00    -0.431 A  
HETATM   11  O   UNL     1     -10.231   7.912  72.999  1.00  0.00    -0.298 OA 
HETATM   12  C   UNL     1      -8.958  11.071  66.701  1.00  0.00    -0.176 A  
HETATM   13  C   UNL     1     -13.418   8.943  71.552  1.00  0.00    -0.381 A  
HETATM   14  C   UNL     1     -11.492  10.838  70.822  1.00  0.00    -0.216 A  
HETATM   15  O   UNL     1      -9.381   6.235  71.767  1.00  0.00    -0.151 OA 
HETATM   16  C   UNL     1      -8.234  10.884  69.367  1.00  0.00     0.025 A  
HETATM   17  C   UNL     1      -7.856  11.787  67.161  1.00  0.00    -0.166 A  
HETATM   18  C   UNL     1     -13.579  10.268  71.930  1.00  0.00    -0.292 A  
HETATM   19  C   UNL     1      -7.508  11.710  68.502  1.00  0.00    -0.113 A  
ENDROOT
BRANCH   6  20
HETATM   20  O   UNL     1      -7.847   7.783  70.466  1.00  0.00    -0.093 OA 
BRANCH  20  21
HETATM   21  C   UNL     1      -7.771   6.460  70.825  1.00  0.00    -0.102 A  
HETATM   22  C   UNL     1      -5.790   4.292  72.997  1.00  0.00    -0.012 C  
HETATM   23  N   UNL     1      -6.898   6.076  71.765  1.00  0.00    -0.066 NA 
HETATM   24  C   UNL     1      -7.600   3.831  71.335  1.00  0.00    -0.056 A  
HETATM   25  C   UNL     1      -6.811   4.751  71.999  1.00  0.00    -0.055 A  
HETATM   26  C   UNL     1      -8.496   4.335  70.413  1.00  0.00    -0.073 A  
HETATM   27  C   UNL     1      -9.384   3.419  69.625  1.00  0.00    -0.241 C  
HETATM   28  N   UNL     1      -8.596   5.655  70.149  1.00  0.00    -0.125 NA 
ENDBRANCH  20  21
ENDBRANCH   6  20
TORSDOF 2
ENDMDL
MODEL      157
REMARK 921   NORMALIZED FREE ENERGY PREDICTED BY IDOCK:    4.63 KCAL/MOL
REMARK 922        TOTAL FREE ENERGY PREDICTED BY IDOCK:    4.52 KCAL/MOL
REMARK 923 INTER-LIGAND FREE ENERGY PREDICTED BY IDOCK:   -3.36 KCAL/MOL
REMARK 924 INTRA-LIGAND FREE ENERGY PREDICTED BY IDOCK:    7.88 KCAL/MOL
REMARK 927      BINDING AFFINITY PREDICTED BY RF-SCORE:    0.00 PKD
ROOT
HETATM    1  C   UNL     1      -7.799   6.324  68.897  1.00  0.00    -0.105 C  
HETATM    2  O   UNL     1      -7.676   5.877  67.562  1.00  0.00    -0.095 OA 
HETATM    3  C   UNL     1      -8.299   6.608  66.468  1.00  0.00    -0.117 C  
HETATM    4  C   UNL     1      -7.634   8.023  66.356  1.00  0.00    -0.091 A  
HETATM    5  C   UNL     1      -7.976   5.706  65.241  1.00  0.00    -0.114 A  
HETATM    6  C   UNL     1      -9.878   6.715  66.611  1.00  0.00    -0.149 C  
HETATM    7  C   UNL     1     -10.622   5.384  66.585  1.00  0.00    -0.294 C  
HETATM    8  C   UNL     1      -7.973   4.296  65.398  1.00  0.00    -0.097 A  
HETATM    9  C   UNL     1      -6.304   8.239  66.761  1.00  0.00    -0.056 A  
HETATM   10  C   UNL     1      -7.661   5.333  62.851  1.00  0.00    -0.075 A  
HETATM   11  O   UNL     1     -10.997   4.814  65.570  1.00  0.00    -0.221 OA 
HETATM   12  C   UNL     1      -5.757   9.530  66.820  1.00  0.00    -0.051 A  
HETATM   13  C   UNL     1      -7.865   3.431  64.308  1.00  0.00    -0.081 A  
HETATM   14  C   UNL     1      -7.787   6.204  63.942  1.00  0.00    -0.113 A  
HETATM   15  O   UNL     1     -10.913   4.876  67.815  1.00  0.00     0.385 OA 
HETATM   16  C   UNL     1      -8.333   9.152  65.879  1.00  0.00    -0.127 A  
HETATM   17  C   UNL     1      -6.517  10.635  66.448  1.00  0.00    -0.117 A  
HETATM   18  C   UNL     1      -7.724   3.952  63.031  1.00  0.00    -0.059 A  
HETATM   19  C   UNL     1      -7.799  10.443  65.956  1.00  0.00    -0.142 A  
ENDROOT
BRANCH   6  20
HETATM   20  O   UNL     1     -10.261   7.328  67.861  1.00  0.00    -0.171 OA 
BRANCH  20  21
HETATM   21  C   UNL     1      -9.751   8.583  68.084  1.00  0.00    -0.155 A  
HETATM   22  C   UNL     1      -7.077  10.186  69.988  1.00  0.00    -0.156 C  
HETATM   23  N   UNL     1      -8.653   8.730  68.836  1.00  0.00    -0.135 NA 
HETATM   24  C   UNL     1      -8.933  11.090  68.578  1.00  0.00    -0.163 A  
HETATM   25  C   UNL     1      -8.263   9.996  69.089  1.00  0.00    -0.137 A  
HETATM   26  C   UNL     1     -10.031  10.829  67.782  1.00  0.00    -0.171 A  
HETATM   27  C   UNL     1     -10.838  11.947  67.194  1.00  0.00    -0.301 C  
HETATM   28  N   UNL     1     -10.451   9.573  67.521  1.00  0.00    -0.259 NA 
ENDBRANCH  20  21
ENDBRANCH   6  20
TORSDOF 2
ENDMDL
MODEL      158
REMARK 921   NORMALIZED FREE ENERGY PREDICTED BY IDOCK:    4.72 KCAL/MOL
REMARK 922        TOTAL FREE ENERGY PREDICTED BY IDOCK:    4.61 KCAL/MOL
REMARK 923 INTER-LIGAND FREE ENERGY PREDICTED BY IDOCK:   -3.12 KCAL/MOL
REMARK 924 INTRA-LIGAND FREE ENERGY PREDICTED BY IDOCK:    7.74 KCAL/MOL
REMARK 927      BINDING AFFINITY PREDICTED BY RF-SCORE:    0.00 PKD
ROOT
HETATM    1  C   UNL     1     -10.797   7.391  71.914  1.00  0.00    -0.229 C  
HETATM    2  O   UNL     1      -9.644   8.203  71.812  1.00  0.00    -0.160 OA 
HETATM    3  C   UNL     1      -9.201   8.715  70.523  1.00  0.00    -0.175 C  
HETATM    4  C   UNL     1     -10.289   9.695  69.963  1.00  0.00    -0.298 A  
HETATM    5  C   UNL     1      -7.881   9.451  70.895  1.00  0.00    -0.097 A  
HETATM    6  C   UNL     1      -8.860   7.566  69.481  1.00  0.00    -0.137 C  
HETATM    7  C   UNL     1      -7.710   6.647  69.884  1.00  0.00    -0.109 C  
HETATM    8  C   UNL     1      -7.042   8.905  71.900  1.00  0.00     0.003 A  
HETATM    9  C   UNL     1     -11.134  10.419  70.826  1.00  0.00    -0.197 A  
HETATM   10  C   UNL     1      -6.135  11.105  70.486  1.00  0.00    -0.084 A  
HETATM   11  O   UNL     1      -6.529   6.868  69.657  1.00  0.00    -0.041 OA 
HETATM   12  C   UNL     1     -12.216  11.166  70.334  1.00  0.00    -0.457 A  
HETATM   13  C   UNL     1      -5.769   9.415  72.157  1.00  0.00    -0.005 A  
HETATM   14  C   UNL     1      -7.408  10.584  70.214  1.00  0.00     0.190 A  
HETATM   15  O   UNL     1      -8.099   5.486  70.480  1.00  0.00    -0.099 OA 
HETATM   16  C   UNL     1     -10.502   9.880  68.580  1.00  0.00    -0.231 A  
HETATM   17  C   UNL     1     -12.462  11.233  68.966  1.00  0.00     0.177 A  
HETATM   18  C   UNL     1      -5.310  10.508  71.438  1.00  0.00    -0.042 A  
HETATM   19  C   UNL     1     -11.591  10.606  68.087  1.00  0.00    -0.217 A  
ENDROOT
BRANCH   6  20
HETATM   20  O   UNL     1      -9.983   6.682  69.272  1.00  0.00    -0.154 OA 
BRANCH  20  21
HETATM   21  C   UNL     1      -9.765   5.365  69.593  1.00  0.00    -0.177 A  
HETATM   22  C   UNL     1      -8.422   2.330  68.068  1.00  0.00    -0.094 C  
HETATM   23  N   UNL     1      -9.145   4.561  68.720  1.00  0.00    -0.112 NA 
HETATM   24  C   UNL     1      -9.531   2.777  70.263  1.00  0.00    -0.183 A  
HETATM   25  C   UNL     1      -9.049   3.261  69.062  1.00  0.00    -0.145 A  
HETATM   26  C   UNL     1     -10.119   3.696  71.111  1.00  0.00     0.084 A  
HETATM   27  C   UNL     1     -10.690   3.269  72.429  1.00  0.00     0.104 C  
HETATM   28  N   UNL     1     -10.239   5.001  70.789  1.00  0.00    -0.239 NA 
ENDBRANCH  20  21
ENDBRANCH   6  20
TORSDOF 2
ENDMDL
MODEL      159
REMARK 921   NORMALIZED FREE ENERGY PREDICTED BY IDOCK:    5.67 KCAL/MOL
REMARK 922        TOTAL FREE ENERGY PREDICTED BY IDOCK:    5.68 KCAL/MOL
REMARK 923 INTER-LIGAND FREE ENERGY PREDICTED BY IDOCK:    6.24 KCAL/MOL
REMARK 924 INTRA-LIGAND FREE ENERGY PREDICTED BY IDOCK:   -0.56 KCAL/MOL
REMARK 927      BINDING AFFINITY PREDICTED BY RF-SCORE:    0.00 PKD
ROOT
HETATM    1  C   UNL     1      -9.331  17.279  70.897  1.00  0.00     5.007 C  
HETATM    2  O   UNL     1      -9.501  17.985  69.684  1.00  0.00     0.376 OA 
HETATM    3  C   UNL     1      -9.541  17.284  68.409  1.00  0.00    -0.285 C  
HETATM    4  C   UNL     1     -10.805  16.356  68.377  1.00  0.00    -0.342 A  
HETATM    5  C   UNL     1      -9.645  18.455  67.389  1.00  0.00    -0.292 A  
HETATM    6  C   UNL     1      -8.212  16.468  68.105  1.00  0.00    -0.181 C  
HETATM    7  C   UNL     1      -6.949  17.315  67.977  1.00  0.00    -0.176 C  
HETATM    8  C   UNL     1      -8.946  19.662  67.647  1.00  0.00    -0.384 A  
HETATM    9  C   UNL     1     -11.962  16.672  69.115  1.00  0.00     0.681 A  
HETATM   10  C   UNL     1     -10.233  19.385  65.212  1.00  0.00     0.622 A  
HETATM   11  O   UNL     1      -6.569  17.847  66.944  1.00  0.00    -0.166 OA 
HETATM   12  C   UNL     1     -13.029  15.768  69.224  1.00  0.00     1.080 A  
HETATM   13  C   UNL     1      -8.855  20.680  66.697  1.00  0.00    -0.086 A  
HETATM   14  C   UNL     1     -10.313  18.354  66.159  1.00  0.00    -0.431 A  
HETATM   15  O   UNL     1      -6.205  17.393  69.114  1.00  0.00    -0.202 OA 
HETATM   16  C   UNL     1     -10.841  15.151  67.644  1.00  0.00    -0.295 A  
HETATM   17  C   UNL     1     -12.981  14.537  68.576  1.00  0.00     1.649 A  
HETATM   18  C   UNL     1      -9.488  20.534  65.472  1.00  0.00     0.422 A  
HETATM   19  C   UNL     1     -11.894  14.239  67.767  1.00  0.00    -0.414 A  
ENDROOT
BRANCH   6  20
HETATM   20  O   UNL     1      -7.915  15.519  69.153  1.00  0.00    -0.186 OA 
BRANCH  20  21
HETATM   21  C   UNL     1      -7.658  14.238  68.732  1.00  0.00    -0.130 A  
HETATM   22  C   UNL     1      -5.174  12.415  66.771  1.00  0.00     0.308 C  
HETATM   23  N   UNL     1      -6.533  13.973  68.055  1.00  0.00    -0.132 NA 
HETATM   24  C   UNL     1      -7.334  11.733  67.827  1.00  0.00    -0.106 A  
HETATM   25  C   UNL     1      -6.392  12.715  67.593  1.00  0.00    -0.147 A  
HETATM   26  C   UNL     1      -8.440  12.099  68.570  1.00  0.00    -0.083 A  
HETATM   27  C   UNL     1      -9.529  11.112  68.864  1.00  0.00    -0.136 C  
HETATM   28  N   UNL     1      -8.614  13.354  69.035  1.00  0.00     0.273 NA 
ENDBRANCH  20  21
ENDBRANCH   6  20
TORSDOF 2
ENDMDL
MODEL      160
REMARK 921   NORMALIZED FREE ENERGY PREDICTED BY IDOCK:    7.90 KCAL/MOL
REMARK 922        TOTAL FREE ENERGY PREDICTED BY IDOCK:    8.16 KCAL/MOL
REMARK 923 INTER-LIGAND FREE ENERGY PREDICTED BY IDOCK:   -3.79 KCAL/MOL
REMARK 924 INTRA-LIGAND FREE ENERGY PREDICTED BY IDOCK:   11.96 KCAL/MOL
REMARK 927      BINDING AFFINITY PREDICTED BY RF-SCORE:    0.00 PKD
ROOT
HETATM    1  C   UNL     1      -9.962   6.817  68.099  1.00  0.00    -0.149 C  
HETATM    2  O   UNL     1      -9.666   5.633  68.812  1.00  0.00    -0.124 OA 
HETATM    3  C   UNL     1      -9.041   5.687  70.126  1.00  0.00    -0.138 C  
HETATM    4  C   UNL     1     -10.022   6.385  71.129  1.00  0.00    -0.203 A  
HETATM    5  C   UNL     1      -8.834   4.179  70.456  1.00  0.00    -0.133 A  
HETATM    6  C   UNL     1      -7.620   6.398  70.110  1.00  0.00    -0.096 C  
HETATM    7  C   UNL     1      -6.557   5.700  69.266  1.00  0.00    -0.054 C  
HETATM    8  C   UNL     1      -8.490   3.282  69.414  1.00  0.00    -0.098 A  
HETATM    9  C   UNL     1     -11.417   6.327  70.947  1.00  0.00    -0.377 A  
HETATM   10  C   UNL     1      -8.509   2.329  72.012  1.00  0.00    -0.070 A  
HETATM   11  O   UNL     1      -5.831   4.800  69.664  1.00  0.00    -0.015 OA 
HETATM   12  C   UNL     1     -12.291   7.085  71.741  1.00  0.00    -0.391 A  
HETATM   13  C   UNL     1      -8.121   1.960  69.668  1.00  0.00    -0.060 A  
HETATM   14  C   UNL     1      -8.864   3.662  71.761  1.00  0.00    -0.138 A  
HETATM   15  O   UNL     1      -6.415   6.204  68.009  1.00  0.00    -0.045 OA 
HETATM   16  C   UNL     1      -9.568   7.128  72.239  1.00  0.00    -0.161 A  
HETATM   17  C   UNL     1     -11.795   7.897  72.757  1.00  0.00    -0.287 A  
HETATM   18  C   UNL     1      -8.117   1.488  70.972  1.00  0.00    -0.052 A  
HETATM   19  C   UNL     1     -10.433   7.901  73.020  1.00  0.00    -0.410 A  
ENDROOT
BRANCH   6  20
HETATM   20  O   UNL     1      -7.698   7.737  69.573  1.00  0.00    -0.100 OA 
BRANCH  20  21
HETATM   21  C   UNL     1      -7.356   7.862  68.249  1.00  0.00    -0.098 A  
HETATM   22  C   UNL     1      -5.608  10.198  66.052  1.00  0.00    -0.065 C  
HETATM   23  N   UNL     1      -6.605   8.897  67.852  1.00  0.00    -0.060 NA 
HETATM   24  C   UNL     1      -6.879   8.090  65.619  1.00  0.00    -0.056 A  
HETATM   25  C   UNL     1      -6.387   9.008  66.526  1.00  0.00    -0.066 A  
HETATM   26  C   UNL     1      -7.610   7.038  66.136  1.00  0.00    -0.095 A  
HETATM   27  C   UNL     1      -8.204   5.999  65.233  1.00  0.00    -0.138 C  
HETATM   28  N   UNL     1      -7.853   6.908  67.457  1.00  0.00    -0.110 NA 
ENDBRANCH  20  21
ENDBRANCH   6  20
TORSDOF 2
ENDMDL
MODEL      161
REMARK 921   NORMALIZED FREE ENERGY PREDICTED BY IDOCK:    8.33 KCAL/MOL
REMARK 922        TOTAL FREE ENERGY PREDICTED BY IDOCK:    8.65 KCAL/MOL
REMARK 923 INTER-LIGAND FREE ENERGY PREDICTED BY IDOCK:    8.47 KCAL/MOL
REMARK 924 INTRA-LIGAND FREE ENERGY PREDICTED BY IDOCK:    0.18 KCAL/MOL
REMARK 927      BINDING AFFINITY PREDICTED BY RF-SCORE:    0.00 PKD
ROOT
HETATM    1  C   UNL     1      -9.626  17.080  70.955  1.00  0.00     4.026 C  
HETATM    2  O   UNL     1      -8.664  17.252  69.933  1.00  0.00     1.000 OA 
HETATM    3  C   UNL     1      -9.021  17.076  68.533  1.00  0.00    -0.263 C  
HETATM    4  C   UNL     1     -10.063  18.176  68.130  1.00  0.00    -0.388 A  
HETATM    5  C   UNL     1      -7.653  17.270  67.815  1.00  0.00    -0.189 A  
HETATM    6  C   UNL     1      -9.558  15.616  68.206  1.00  0.00    -0.200 C  
HETATM    7  C   UNL     1      -8.554  14.491  68.435  1.00  0.00    -0.172 C  
HETATM    8  C   UNL     1      -6.471  16.788  68.434  1.00  0.00    -0.144 A  
HETATM    9  C   UNL     1     -10.093  19.426  68.776  1.00  0.00    -0.504 A  
HETATM   10  C   UNL     1      -6.287  17.805  65.867  1.00  0.00    -0.253 A  
HETATM   11  O   UNL     1      -7.734  14.110  67.612  1.00  0.00    -0.144 OA 
HETATM   12  C   UNL     1     -11.123  20.349  68.539  1.00  0.00     1.035 A  
HETATM   13  C   UNL     1      -5.244  16.772  67.771  1.00  0.00    -0.134 A  
HETATM   14  C   UNL     1      -7.525  17.807  66.525  1.00  0.00    -0.284 A  
HETATM   15  O   UNL     1      -8.671  13.868  69.640  1.00  0.00     0.749 OA 
HETATM   16  C   UNL     1     -11.039  17.965  67.132  1.00  0.00     0.189 A  
HETATM   17  C   UNL     1     -12.134  20.057  67.627  1.00  0.00     2.784 A  
HETATM   18  C   UNL     1      -5.156  17.268  66.479  1.00  0.00    -0.195 A  
HETATM   19  C   UNL     1     -12.079  18.873  66.907  1.00  0.00     3.165 A  
ENDROOT
BRANCH   6  20
HETATM   20  O   UNL     1     -10.695  15.269  69.026  1.00  0.00    -0.225 OA 
BRANCH  20  21
HETATM   21  C   UNL     1     -11.312  14.085  68.708  1.00  0.00    -0.278 A  
HETATM   22  C   UNL     1     -12.387  10.998  70.339  1.00  0.00    -0.442 C  
HETATM   23  N   UNL     1     -11.602  13.205  69.675  1.00  0.00    -0.276 NA 
HETATM   24  C   UNL     1     -12.377  11.741  67.952  1.00  0.00     0.699 A  
HETATM   25  C   UNL     1     -12.121  12.026  69.279  1.00  0.00    -0.190 A  
HETATM   26  C   UNL     1     -12.078  12.731  67.037  1.00  0.00    -0.182 A  
HETATM   27  C   UNL     1     -12.301  12.515  65.571  1.00  0.00    -0.364 C  
HETATM   28  N   UNL     1     -11.547  13.916  67.403  1.00  0.00    -0.347 NA 
ENDBRANCH  20  21
ENDBRANCH   6  20
TORSDOF 2
ENDMDL
MODEL      162
REMARK 921   NORMALIZED FREE ENERGY PREDICTED BY IDOCK:    9.96 KCAL/MOL
REMARK 922        TOTAL FREE ENERGY PREDICTED BY IDOCK:   10.47 KCAL/MOL
REMARK 923 INTER-LIGAND FREE ENERGY PREDICTED BY IDOCK:   10.76 KCAL/MOL
REMARK 924 INTRA-LIGAND FREE ENERGY PREDICTED BY IDOCK:   -0.29 KCAL/MOL
REMARK 927      BINDING AFFINITY PREDICTED BY RF-SCORE:    0.00 PKD
ROOT
HETATM    1  C   UNL     1      -9.369  14.224  66.765  1.00  0.00    -0.276 C  
HETATM    2  O   UNL     1      -9.684  12.950  67.291  1.00  0.00    -0.212 OA 
HETATM    3  C   UNL     1      -9.429  12.633  68.689  1.00  0.00     0.005 C  
HETATM    4  C   UNL     1     -10.332  13.544  69.591  1.00  0.00     0.631 A  
HETATM    5  C   UNL     1      -9.838  11.133  68.769  1.00  0.00    -0.201 A  
HETATM    6  C   UNL     1      -7.895  12.758  69.086  1.00  0.00     0.393 C  
HETATM    7  C   UNL     1      -6.958  11.802  68.354  1.00  0.00    -0.080 C  
HETATM    8  C   UNL     1      -9.571  10.282  67.667  1.00  0.00    -0.173 A  
HETATM    9  C   UNL     1     -11.570  14.031  69.129  1.00  0.00    -0.356 A  
HETATM   10  C   UNL     1     -10.565   9.149  69.988  1.00  0.00    -0.250 A  
HETATM   11  O   UNL     1      -6.707  10.661  68.714  1.00  0.00    -0.052 OA 
HETATM   12  C   UNL     1     -12.303  14.977  69.861  1.00  0.00    -0.315 A  
HETATM   13  C   UNL     1      -9.750   8.900  67.740  1.00  0.00    -0.196 A  
HETATM   14  C   UNL     1     -10.369  10.537  69.923  1.00  0.00    -0.164 A  
HETATM   15  O   UNL     1      -6.342  12.340  67.265  1.00  0.00    -0.140 OA 
HETATM   16  C   UNL     1      -9.946  13.947  70.886  1.00  0.00     4.051 A  
HETATM   17  C   UNL     1     -11.833  15.438  71.088  1.00  0.00    -0.422 A  
HETATM   18  C   UNL     1     -10.235   8.332  68.908  1.00  0.00    -0.222 A  
HETATM   19  C   UNL     1     -10.664  14.905  71.610  1.00  0.00     0.757 A  
ENDROOT
BRANCH   6  20
HETATM   20  O   UNL     1      -7.375  14.075  68.801  1.00  0.00    -0.120 OA 
BRANCH  20  21
HETATM   21  C   UNL     1      -6.960  14.794  69.895  1.00  0.00    -0.128 A  
HETATM   22  C   UNL     1      -6.756  14.440  73.525  1.00  0.00     2.391 C  
HETATM   23  N   UNL     1      -6.991  14.233  71.110  1.00  0.00     0.888 NA 
HETATM   24  C   UNL     1      -6.273  16.342  71.976  1.00  0.00     2.770 A  
HETATM   25  C   UNL     1      -6.659  15.027  72.148  1.00  0.00     1.736 A  
HETATM   26  C   UNL     1      -6.236  16.813  70.678  1.00  0.00     0.733 A  
HETATM   27  C   UNL     1      -5.849  18.231  70.385  1.00  0.00    -0.093 C  
HETATM   28  N   UNL     1      -6.575  16.044  69.621  1.00  0.00    -0.198 NA 
ENDBRANCH  20  21
ENDBRANCH   6  20
TORSDOF 2
ENDMDL
MODEL      163
REMARK 921   NORMALIZED FREE ENERGY PREDICTED BY IDOCK:   12.73 KCAL/MOL
REMARK 922        TOTAL FREE ENERGY PREDICTED BY IDOCK:   13.57 KCAL/MOL
REMARK 923 INTER-LIGAND FREE ENERGY PREDICTED BY IDOCK:   -2.18 KCAL/MOL
REMARK 924 INTRA-LIGAND FREE ENERGY PREDICTED BY IDOCK:   15.74 KCAL/MOL
REMARK 927      BINDING AFFINITY PREDICTED BY RF-SCORE:    0.00 PKD
ROOT
HETATM    1  C   UNL     1      -9.983   6.858  68.248  1.00  0.00    -0.153 C  
HETATM    2  O   UNL     1      -9.350   5.642  68.591  1.00  0.00    -0.119 OA 
HETATM    3  C   UNL     1      -8.248   5.614  69.542  1.00  0.00    -0.103 C  
HETATM    4  C   UNL     1      -8.776   6.065  70.947  1.00  0.00    -0.135 A  
HETATM    5  C   UNL     1      -7.831   4.114  69.523  1.00  0.00    -0.053 A  
HETATM    6  C   UNL     1      -7.004   6.488  69.079  1.00  0.00    -0.075 C  
HETATM    7  C   UNL     1      -6.336   6.029  67.786  1.00  0.00    -0.037 C  
HETATM    8  C   UNL     1      -7.888   3.395  68.302  1.00  0.00    -0.063 A  
HETATM    9  C   UNL     1     -10.117   5.862  71.323  1.00  0.00    -0.245 A  
HETATM   10  C   UNL     1      -6.786   2.145  70.512  1.00  0.00    -0.032 A  
HETATM   11  O   UNL     1      -5.457   5.181  67.718  1.00  0.00    -0.011 OA 
HETATM   12  C   UNL     1     -10.637   6.410  72.506  1.00  0.00    -0.240 A  
HETATM   13  C   UNL     1      -7.366   2.106  68.178  1.00  0.00    -0.047 A  
HETATM   14  C   UNL     1      -7.294   3.446  70.634  1.00  0.00    -0.037 A  
HETATM   15  O   UNL     1      -6.751   6.692  66.671  1.00  0.00    -0.053 OA 
HETATM   16  C   UNL     1      -7.955   6.721  71.890  1.00  0.00    -0.101 A  
HETATM   17  C   UNL     1      -9.821   7.149  73.359  1.00  0.00    -0.301 A  
HETATM   18  C   UNL     1      -6.801   1.487  69.283  1.00  0.00    -0.029 A  
HETATM   19  C   UNL     1      -8.474   7.286  73.060  1.00  0.00    -0.147 A  
ENDROOT
BRANCH   6  20
HETATM   20  O   UNL     1      -7.377   7.862  68.834  1.00  0.00    -0.081 OA 
BRANCH  20  21
HETATM   21  C   UNL     1      -7.192   8.303  67.547  1.00  0.00    -0.088 A  
HETATM   22  C   UNL     1      -5.843   7.095  64.375  1.00  0.00    -0.037 C  
HETATM   23  N   UNL     1      -6.702   7.468  66.622  1.00  0.00    -0.057 NA 
HETATM   24  C   UNL     1      -6.728   9.316  65.106  1.00  0.00    -0.077 A  
HETATM   25  C   UNL     1      -6.459   7.995  65.405  1.00  0.00    -0.048 A  
HETATM   26  C   UNL     1      -7.270  10.083  66.120  1.00  0.00    -0.109 A  
HETATM   27  C   UNL     1      -7.581  11.533  65.903  1.00  0.00     0.390 C  
HETATM   28  N   UNL     1      -7.512   9.585  67.350  1.00  0.00    -0.091 NA 
ENDBRANCH  20  21
ENDBRANCH   6  20
TORSDOF 2
ENDMDL
MODEL      164
REMARK 921   NORMALIZED FREE ENERGY PREDICTED BY IDOCK:   14.42 KCAL/MOL
REMARK 922        TOTAL FREE ENERGY PREDICTED BY IDOCK:   15.45 KCAL/MOL
REMARK 923 INTER-LIGAND FREE ENERGY PREDICTED BY IDOCK:   -4.36 KCAL/MOL
REMARK 924 INTRA-LIGAND FREE ENERGY PREDICTED BY IDOCK:   19.81 KCAL/MOL
REMARK 927      BINDING AFFINITY PREDICTED BY RF-SCORE:    0.00 PKD
ROOT
HETATM    1  C   UNL     1     -10.130   6.781  68.694  1.00  0.00    -0.159 C  
HETATM    2  O   UNL     1     -10.908   7.688  69.450  1.00  0.00    -0.212 OA 
HETATM    3  C   UNL     1     -10.290   8.817  70.129  1.00  0.00    -0.208 C  
HETATM    4  C   UNL     1      -9.685   9.788  69.057  1.00  0.00    -0.177 A  
HETATM    5  C   UNL     1     -11.497   9.450  70.882  1.00  0.00    -0.382 A  
HETATM    6  C   UNL     1      -9.202   8.380  71.201  1.00  0.00    -0.174 C  
HETATM    7  C   UNL     1      -9.735   7.547  72.362  1.00  0.00    -0.161 C  
HETATM    8  C   UNL     1     -12.496   8.604  71.427  1.00  0.00    -0.337 A  
HETATM    9  C   UNL     1     -10.230   9.878  67.762  1.00  0.00    -0.241 A  
HETATM   10  C   UNL     1     -12.631  11.313  71.976  1.00  0.00     0.052 A  
HETATM   11  O   UNL     1     -10.209   8.009  73.391  1.00  0.00    -0.260 OA 
HETATM   12  C   UNL     1      -9.595  10.615  66.751  1.00  0.00    -0.200 A  
HETATM   13  C   UNL     1     -13.504   9.091  72.260  1.00  0.00    -0.529 A  
HETATM   14  C   UNL     1     -11.606  10.823  71.153  1.00  0.00     0.003 A  
HETATM   15  O   UNL     1      -9.589   6.202  72.206  1.00  0.00    -0.154 OA 
HETATM   16  C   UNL     1      -8.555  10.592  69.317  1.00  0.00    -0.136 A  
HETATM   17  C   UNL     1      -8.416  11.306  67.016  1.00  0.00    -0.150 A  
HETATM   18  C   UNL     1     -13.562  10.447  72.546  1.00  0.00     0.255 A  
HETATM   19  C   UNL     1      -7.908  11.312  68.306  1.00  0.00    -0.130 A  
ENDROOT
BRANCH   6  20
HETATM   20  O   UNL     1      -8.165   7.566  70.609  1.00  0.00    -0.108 OA 
BRANCH  20  21
HETATM   21  C   UNL     1      -8.257   7.392  69.250  1.00  0.00    -0.131 A  
HETATM   22  C   UNL     1      -9.941   5.218  66.846  1.00  0.00    -0.219 C  
HETATM   23  N   UNL     1      -9.094   6.473  68.752  1.00  0.00    -0.127 NA 
HETATM   24  C   UNL     1      -8.239   7.031  66.591  1.00  0.00    -0.112 A  
HETATM   25  C   UNL     1      -9.063   6.292  67.417  1.00  0.00    -0.111 A  
HETATM   26  C   UNL     1      -7.442   7.981  67.200  1.00  0.00    -0.092 A  
HETATM   27  C   UNL     1      -6.498   8.823  66.395  1.00  0.00    -0.062 C  
HETATM   28  N   UNL     1      -7.444   8.176  68.535  1.00  0.00    -0.096 NA 
ENDBRANCH  20  21
ENDBRANCH   6  20
TORSDOF 2
ENDMDL
MODEL      165
REMARK 921   NORMALIZED FREE ENERGY PREDICTED BY IDOCK:   14.95 KCAL/MOL
REMARK 922        TOTAL FREE ENERGY PREDICTED BY IDOCK:   16.04 KCAL/MOL
REMARK 923 INTER-LIGAND FREE ENERGY PREDICTED BY IDOCK:   -0.42 KCAL/MOL
REMARK 924 INTRA-LIGAND FREE ENERGY PREDICTED BY IDOCK:   16.46 KCAL/MOL
REMARK 927      BINDING AFFINITY PREDICTED BY RF-SCORE:    0.00 PKD
ROOT
HETATM    1  C   UNL     1      -9.521  13.031  68.431  1.00  0.00    -0.165 C  
HETATM    2  O   UNL     1      -9.451  14.342  67.906  1.00  0.00    -0.202 OA 
HETATM    3  C   UNL     1     -10.656  15.053  67.506  1.00  0.00    -0.265 C  
HETATM    4  C   UNL     1     -11.545  15.302  68.773  1.00  0.00    -0.379 A  
HETATM    5  C   UNL     1     -10.081  16.376  66.922  1.00  0.00    -0.281 A  
HETATM    6  C   UNL     1     -11.468  14.308  66.361  1.00  0.00    -0.355 C  
HETATM    7  C   UNL     1     -10.724  14.150  65.039  1.00  0.00    -0.416 C  
HETATM    8  C   UNL     1      -8.863  16.342  66.196  1.00  0.00    -0.349 A  
HETATM    9  C   UNL     1     -10.974  15.422  70.054  1.00  0.00    -0.313 A  
HETATM   10  C   UNL     1     -10.266  18.726  66.291  1.00  0.00    -0.466 A  
HETATM   11  O   UNL     1     -10.704  14.984  64.146  1.00  0.00     0.234 OA 
HETATM   12  C   UNL     1     -11.771  15.477  71.209  1.00  0.00    -0.457 A  
HETATM   13  C   UNL     1      -8.385  17.453  65.501  1.00  0.00     0.921 A  
HETATM   14  C   UNL     1     -10.757  17.605  66.977  1.00  0.00    -0.176 A  
HETATM   15  O   UNL     1     -10.108  12.946  64.880  1.00  0.00    -0.272 OA 
HETATM   16  C   UNL     1     -12.952  15.385  68.706  1.00  0.00     1.401 A  
HETATM   17  C   UNL     1     -13.159  15.443  71.110  1.00  0.00    -0.565 A  
HETATM   18  C   UNL     1      -9.097  18.643  65.537  1.00  0.00     1.058 A  
HETATM   19  C   UNL     1     -13.750  15.419  69.855  1.00  0.00     1.363 A  
ENDROOT
BRANCH   6  20
HETATM   20  O   UNL     1     -11.825  12.963  66.748  1.00  0.00    -0.371 OA 
BRANCH  20  21
HETATM   21  C   UNL     1     -10.773  12.093  66.897  1.00  0.00    -0.236 A  
HETATM   22  C   UNL     1      -9.418   9.789  69.386  1.00  0.00    -0.212 C  
HETATM   23  N   UNL     1     -10.682  11.343  68.002  1.00  0.00    -0.189 NA 
HETATM   24  C   UNL     1      -8.596  10.544  67.149  1.00  0.00    -0.127 A  
HETATM   25  C   UNL     1      -9.575  10.583  68.123  1.00  0.00    -0.154 A  
HETATM   26  C   UNL     1      -8.805  11.326  66.029  1.00  0.00    -0.184 A  
HETATM   27  C   UNL     1      -7.795  11.370  64.924  1.00  0.00     0.982 C  
HETATM   28  N   UNL     1      -9.897  12.106  65.887  1.00  0.00    -0.245 NA 
ENDBRANCH  20  21
ENDBRANCH   6  20
TORSDOF 2
ENDMDL
MODEL      166
REMARK 921   NORMALIZED FREE ENERGY PREDICTED BY IDOCK:   15.60 KCAL/MOL
REMARK 922        TOTAL FREE ENERGY PREDICTED BY IDOCK:   16.77 KCAL/MOL
REMARK 923 INTER-LIGAND FREE ENERGY PREDICTED BY IDOCK:    1.86 KCAL/MOL
REMARK 924 INTRA-LIGAND FREE ENERGY PREDICTED BY IDOCK:   14.91 KCAL/MOL
REMARK 927      BINDING AFFINITY PREDICTED BY RF-SCORE:    0.00 PKD
ROOT
HETATM    1  C   UNL     1     -10.658   7.286  71.956  1.00  0.00    -0.207 C  
HETATM    2  O   UNL     1      -9.608   8.232  71.923  1.00  0.00    -0.177 OA 
HETATM    3  C   UNL     1      -8.791   8.403  70.730  1.00  0.00    -0.151 C  
HETATM    4  C   UNL     1      -9.695   8.942  69.568  1.00  0.00    -0.173 A  
HETATM    5  C   UNL     1      -7.741   9.454  71.196  1.00  0.00     0.054 A  
HETATM    6  C   UNL     1      -8.024   7.078  70.306  1.00  0.00    -0.117 C  
HETATM    7  C   UNL     1      -7.014   6.561  71.326  1.00  0.00    -0.075 C  
HETATM    8  C   UNL     1      -7.258   9.408  72.528  1.00  0.00     0.972 A  
HETATM    9  C   UNL     1     -10.839   9.719  69.831  1.00  0.00    -0.306 A  
HETATM   10  C   UNL     1      -6.097  11.205  70.773  1.00  0.00     0.074 A  
HETATM   11  O   UNL     1      -5.848   6.923  71.398  1.00  0.00    -0.035 OA 
HETATM   12  C   UNL     1     -11.741  10.063  68.813  1.00  0.00     0.180 A  
HETATM   13  C   UNL     1      -6.194  10.203  72.957  1.00  0.00     1.455 A  
HETATM   14  C   UNL     1      -7.154  10.395  70.335  1.00  0.00     0.049 A  
HETATM   15  O   UNL     1      -7.491   5.584  72.146  1.00  0.00    -0.094 OA 
HETATM   16  C   UNL     1      -9.434   8.654  68.211  1.00  0.00    -0.150 A  
HETATM   17  C   UNL     1     -11.507   9.663  67.500  1.00  0.00     0.846 A  
HETATM   18  C   UNL     1      -5.604  11.093  72.072  1.00  0.00     0.662 A  
HETATM   19  C   UNL     1     -10.341   8.977  67.196  1.00  0.00    -0.342 A  
ENDROOT
BRANCH   6  20
HETATM   20  O   UNL     1      -8.934   5.976  70.096  1.00  0.00    -0.143 OA 
BRANCH  20  21
HETATM   21  C   UNL     1      -9.299   5.289  71.227  1.00  0.00    -0.148 A  
HETATM   22  C   UNL     1      -9.378   1.858  72.477  1.00  0.00    -0.123 C  
HETATM   23  N   UNL     1      -9.081   3.971  71.304  1.00  0.00    -0.111 NA 
HETATM   24  C   UNL     1     -10.193   4.026  73.419  1.00  0.00    -0.215 A  
HETATM   25  C   UNL     1      -9.549   3.347  72.403  1.00  0.00    -0.133 A  
HETATM   26  C   UNL     1     -10.333   5.391  73.260  1.00  0.00    -0.206 A  
HETATM   27  C   UNL     1     -11.033   6.217  74.297  1.00  0.00     0.634 C  
HETATM   28  N   UNL     1      -9.884   6.040  72.166  1.00  0.00    -0.161 NA 
ENDBRANCH  20  21
ENDBRANCH   6  20
TORSDOF 2
ENDMDL
MODEL      167
REMARK 921   NORMALIZED FREE ENERGY PREDICTED BY IDOCK:   15.78 KCAL/MOL
REMARK 922        TOTAL FREE ENERGY PREDICTED BY IDOCK:   16.97 KCAL/MOL
REMARK 923 INTER-LIGAND FREE ENERGY PREDICTED BY IDOCK:   17.45 KCAL/MOL
REMARK 924 INTRA-LIGAND FREE ENERGY PREDICTED BY IDOCK:   -0.48 KCAL/MOL
REMARK 927      BINDING AFFINITY PREDICTED BY RF-SCORE:    0.00 PKD
ROOT
HETATM    1  C   UNL     1      -9.440  12.516  70.370  1.00  0.00     5.434 C  
HETATM    2  O   UNL     1      -8.968  12.154  69.087  1.00  0.00     0.304 OA 
HETATM    3  C   UNL     1      -8.590  13.170  68.115  1.00  0.00    -0.181 C  
HETATM    4  C   UNL     1      -7.351  13.961  68.661  1.00  0.00    -0.117 A  
HETATM    5  C   UNL     1      -8.238  12.315  66.863  1.00  0.00    -0.112 A  
HETATM    6  C   UNL     1      -9.785  14.147  67.738  1.00  0.00    -0.223 C  
HETATM    7  C   UNL     1     -10.981  13.477  67.068  1.00  0.00    -0.288 C  
HETATM    8  C   UNL     1      -8.993  11.147  66.586  1.00  0.00    -0.175 A  
HETATM    9  C   UNL     1      -6.429  13.359  69.539  1.00  0.00    -0.083 A  
HETATM   10  C   UNL     1      -7.115  11.965  64.725  1.00  0.00     3.518 A  
HETATM   11  O   UNL     1     -11.085  13.280  65.865  1.00  0.00    -0.284 OA 
HETATM   12  C   UNL     1      -5.416  14.106  70.160  1.00  0.00    -0.107 A  
HETATM   13  C   UNL     1      -8.847  10.437  65.393  1.00  0.00    -0.197 A  
HETATM   14  C   UNL     1      -7.272  12.690  65.916  1.00  0.00     2.916 A  
HETATM   15  O   UNL     1     -11.996  13.156  67.916  1.00  0.00    -0.349 OA 
HETATM   16  C   UNL     1      -7.111  15.312  68.332  1.00  0.00    -0.111 A  
HETATM   17  C   UNL     1      -5.280  15.466  69.897  1.00  0.00    -0.102 A  
HETATM   18  C   UNL     1      -7.915  10.857  64.455  1.00  0.00     0.307 A  
HETATM   19  C   UNL     1      -6.115  16.064  68.965  1.00  0.00    -0.128 A  
ENDROOT
BRANCH   6  20
HETATM   20  O   UNL     1     -10.333  14.797  68.906  1.00  0.00    -0.231 OA 
BRANCH  20  21
HETATM   21  C   UNL     1     -10.671  16.117  68.742  1.00  0.00    -0.294 A  
HETATM   22  C   UNL     1     -11.165  18.533  66.046  1.00  0.00     0.740 C  
HETATM   23  N   UNL     1     -10.823  16.616  67.508  1.00  0.00    -0.271 NA 
HETATM   24  C   UNL     1     -11.182  18.743  68.537  1.00  0.00     1.178 A  
HETATM   25  C   UNL     1     -11.062  17.940  67.420  1.00  0.00     0.121 A  
HETATM   26  C   UNL     1     -11.048  18.123  69.764  1.00  0.00     2.181 A  
HETATM   27  C   UNL     1     -11.142  18.910  71.037  1.00  0.00     4.233 C  
HETATM   28  N   UNL     1     -10.796  16.803  69.882  1.00  0.00    -0.231 NA 
ENDBRANCH  20  21
ENDBRANCH   6  20
TORSDOF 2
ENDMDL
MODEL      168
REMARK 921   NORMALIZED FREE ENERGY PREDICTED BY IDOCK:   15.89 KCAL/MOL
REMARK 922        TOTAL FREE ENERGY PREDICTED BY IDOCK:   17.09 KCAL/MOL
REMARK 923 INTER-LIGAND FREE ENERGY PREDICTED BY IDOCK:   16.91 KCAL/MOL
REMARK 924 INTRA-LIGAND FREE ENERGY PREDICTED BY IDOCK:    0.19 KCAL/MOL
REMARK 927      BINDING AFFINITY PREDICTED BY RF-SCORE:    0.00 PKD
ROOT
HETATM    1  C   UNL     1     -13.585   9.830  68.482  1.00  0.00     9.157 C  
HETATM    2  O   UNL     1     -12.328   9.207  68.653  1.00  0.00     2.308 OA 
HETATM    3  C   UNL     1     -11.404   9.656  69.684  1.00  0.00    -0.073 C  
HETATM    4  C   UNL     1     -12.044   9.395  71.091  1.00  0.00    -0.406 A  
HETATM    5  C   UNL     1     -10.159   8.758  69.428  1.00  0.00    -0.203 A  
HETATM    6  C   UNL     1     -10.972  11.176  69.514  1.00  0.00    -0.220 C  
HETATM    7  C   UNL     1     -10.213  11.493  68.229  1.00  0.00    -0.196 C  
HETATM    8  C   UNL     1      -9.809   8.422  68.095  1.00  0.00    -0.196 A  
HETATM    9  C   UNL     1     -12.967   8.350  71.291  1.00  0.00    -0.172 A  
HETATM   10  C   UNL     1      -8.091   7.672  70.131  1.00  0.00    -0.118 A  
HETATM   11  O   UNL     1      -9.002  11.387  68.091  1.00  0.00    -0.156 OA 
HETATM   12  C   UNL     1     -13.667   8.213  72.499  1.00  0.00    -0.008 A  
HETATM   13  C   UNL     1      -8.614   7.772  67.786  1.00  0.00    -0.121 A  
HETATM   14  C   UNL     1      -9.284   8.340  70.442  1.00  0.00    -0.153 A  
HETATM   15  O   UNL     1     -10.988  11.981  67.222  1.00  0.00    -0.237 OA 
HETATM   16  C   UNL     1     -11.761  10.201  72.214  1.00  0.00     1.272 A  
HETATM   17  C   UNL     1     -13.443   9.100  73.549  1.00  0.00     2.099 A  
HETATM   18  C   UNL     1      -7.747   7.410  68.806  1.00  0.00    -0.119 A  
HETATM   19  C   UNL     1     -12.472  10.081  73.413  1.00  0.00     5.221 A  
ENDROOT
BRANCH   6  20
HETATM   20  O   UNL     1     -12.117  12.058  69.493  1.00  0.00    -0.276 OA 
BRANCH  20  21
HETATM   21  C   UNL     1     -11.870  13.353  69.877  1.00  0.00    -0.315 A  
HETATM   22  C   UNL     1      -9.061  15.671  70.151  1.00  0.00     0.557 C  
HETATM   23  N   UNL     1     -10.640  13.863  69.743  1.00  0.00     0.244 NA 
HETATM   24  C   UNL     1     -11.469  15.839  70.802  1.00  0.00    -0.423 A  
HETATM   25  C   UNL     1     -10.449  15.107  70.227  1.00  0.00    -0.123 A  
HETATM   26  C   UNL     1     -12.710  15.236  70.856  1.00  0.00    -0.435 A  
HETATM   27  C   UNL     1     -13.879  15.939  71.478  1.00  0.00     0.174 C  
HETATM   28  N   UNL     1     -12.928  13.988  70.391  1.00  0.00    -0.175 NA 
ENDBRANCH  20  21
ENDBRANCH   6  20
TORSDOF 2
ENDMDL
MODEL      169
REMARK 921   NORMALIZED FREE ENERGY PREDICTED BY IDOCK:   16.07 KCAL/MOL
REMARK 922        TOTAL FREE ENERGY PREDICTED BY IDOCK:   17.29 KCAL/MOL
REMARK 923 INTER-LIGAND FREE ENERGY PREDICTED BY IDOCK:   11.97 KCAL/MOL
REMARK 924 INTRA-LIGAND FREE ENERGY PREDICTED BY IDOCK:    5.32 KCAL/MOL
REMARK 927      BINDING AFFINITY PREDICTED BY RF-SCORE:    0.00 PKD
ROOT
HETATM    1  C   UNL     1      -9.804  13.587  67.499  1.00  0.00    -0.227 C  
HETATM    2  O   UNL     1     -10.073  14.971  67.396  1.00  0.00    -0.228 OA 
HETATM    3  C   UNL     1      -9.511  15.915  68.350  1.00  0.00    -0.201 C  
HETATM    4  C   UNL     1      -7.950  15.918  68.207  1.00  0.00    -0.139 A  
HETATM    5  C   UNL     1     -10.147  17.262  67.897  1.00  0.00    -0.317 A  
HETATM    6  C   UNL     1      -9.958  15.627  69.848  1.00  0.00    -0.228 C  
HETATM    7  C   UNL     1     -11.456  15.744  70.110  1.00  0.00    -0.361 C  
HETATM    8  C   UNL     1     -11.480  17.271  67.412  1.00  0.00     0.698 A  
HETATM    9  C   UNL     1      -7.329  15.605  66.983  1.00  0.00    -0.203 A  
HETATM   10  C   UNL     1     -10.196  19.697  67.765  1.00  0.00    -0.565 A  
HETATM   11  O   UNL     1     -12.035  16.783  70.394  1.00  0.00     0.582 OA 
HETATM   12  C   UNL     1      -5.938  15.442  66.888  1.00  0.00     0.900 A  
HETATM   13  C   UNL     1     -12.165  18.459  67.157  1.00  0.00     3.904 A  
HETATM   14  C   UNL     1      -9.510  18.505  68.039  1.00  0.00    -0.326 A  
HETATM   15  O   UNL     1     -12.130  14.561  70.068  1.00  0.00    -0.301 OA 
HETATM   16  C   UNL     1      -7.090  16.199  69.290  1.00  0.00    -0.220 A  
HETATM   17  C   UNL     1      -5.130  15.618  68.008  1.00  0.00    -0.130 A  
HETATM   18  C   UNL     1     -11.525  19.675  67.348  1.00  0.00     0.547 A  
HETATM   19  C   UNL     1      -5.706  16.018  69.205  1.00  0.00    -0.119 A  
ENDROOT
BRANCH   6  20
HETATM   20  O   UNL     1      -9.615  14.285  70.259  1.00  0.00     1.156 OA 
BRANCH  20  21
HETATM   21  C   UNL     1      -8.274  14.046  70.433  1.00  0.00     2.502 A  
HETATM   22  C   UNL     1      -5.507  12.411  68.697  1.00  0.00    -0.054 C  
HETATM   23  N   UNL     1      -7.576  13.440  69.464  1.00  0.00     0.457 NA 
HETATM   24  C   UNL     1      -5.699  13.492  70.943  1.00  0.00    -0.189 A  
HETATM   25  C   UNL     1      -6.289  13.153  69.741  1.00  0.00    -0.065 A  
HETATM   26  C   UNL     1      -6.496  14.150  71.860  1.00  0.00     1.213 A  
HETATM   27  C   UNL     1      -5.957  14.545  73.202  1.00  0.00     0.353 C  
HETATM   28  N   UNL     1      -7.791  14.440  71.615  1.00  0.00     3.531 NA 
ENDBRANCH  20  21
ENDBRANCH   6  20
TORSDOF 2
ENDMDL
MODEL      170
REMARK 921   NORMALIZED FREE ENERGY PREDICTED BY IDOCK:   16.62 KCAL/MOL
REMARK 922        TOTAL FREE ENERGY PREDICTED BY IDOCK:   17.90 KCAL/MOL
REMARK 923 INTER-LIGAND FREE ENERGY PREDICTED BY IDOCK:    5.42 KCAL/MOL
REMARK 924 INTRA-LIGAND FREE ENERGY PREDICTED BY IDOCK:   12.49 KCAL/MOL
REMARK 927      BINDING AFFINITY PREDICTED BY RF-SCORE:    0.00 PKD
ROOT
HETATM    1  C   UNL     1      -9.279   5.963  68.546  1.00  0.00    -0.117 C  
HETATM    2  O   UNL     1      -9.683   5.324  67.352  1.00  0.00    -0.131 OA 
HETATM    3  C   UNL     1      -8.789   5.247  66.205  1.00  0.00    -0.130 C  
HETATM    4  C   UNL     1      -7.543   4.375  66.587  1.00  0.00    -0.089 A  
HETATM    5  C   UNL     1      -9.684   4.558  65.134  1.00  0.00    -0.162 A  
HETATM    6  C   UNL     1      -8.356   6.674  65.657  1.00  0.00    -0.144 C  
HETATM    7  C   UNL     1      -9.497   7.538  65.129  1.00  0.00     1.175 C  
HETATM    8  C   UNL     1     -11.068   4.866  65.084  1.00  0.00     0.348 A  
HETATM    9  C   UNL     1      -7.632   3.360  67.558  1.00  0.00    -0.069 A  
HETATM   10  C   UNL     1     -10.010   3.259  63.095  1.00  0.00    -0.130 A  
HETATM   11  O   UNL     1      -9.929   7.500  63.986  1.00  0.00     4.244 OA 
HETATM   12  C   UNL     1      -6.490   2.690  68.024  1.00  0.00    -0.032 A  
HETATM   13  C   UNL     1     -11.887   4.422  64.046  1.00  0.00     2.043 A  
HETATM   14  C   UNL     1      -9.180   3.718  64.129  1.00  0.00    -0.140 A  
HETATM   15  O   UNL     1      -9.985   8.438  66.028  1.00  0.00    -0.153 OA 
HETATM   16  C   UNL     1      -6.272   4.578  66.010  1.00  0.00    -0.032 A  
HETATM   17  C   UNL     1      -5.234   2.998  67.510  1.00  0.00    -0.012 A  
HETATM   18  C   UNL     1     -11.352   3.629  63.042  1.00  0.00     0.427 A  
HETATM   19  C   UNL     1      -5.128   3.928  66.486  1.00  0.00    -0.008 A  
ENDROOT
BRANCH   6  20
HETATM   20  O   UNL     1      -7.731   7.475  66.685  1.00  0.00    -0.097 OA 
BRANCH  20  21
HETATM   21  C   UNL     1      -8.581   8.274  67.408  1.00  0.00    -0.125 A  
HETATM   22  C   UNL     1     -10.300  11.481  67.098  1.00  0.00    -0.248 C  
HETATM   23  N   UNL     1      -9.060   9.399  66.864  1.00  0.00    -0.133 NA 
HETATM   24  C   UNL     1     -10.109   9.834  68.968  1.00  0.00    -0.195 A  
HETATM   25  C   UNL     1      -9.812  10.181  67.664  1.00  0.00    -0.172 A  
HETATM   26  C   UNL     1      -9.598   8.632  69.420  1.00  0.00    -0.166 A  
HETATM   27  C   UNL     1      -9.846   8.173  70.825  1.00  0.00    -0.201 C  
HETATM   28  N   UNL     1      -8.833   7.836  68.646  1.00  0.00    -0.131 NA 
ENDBRANCH  20  21
ENDBRANCH   6  20
TORSDOF 2
ENDMDL
MODEL      171
REMARK 921   NORMALIZED FREE ENERGY PREDICTED BY IDOCK:   16.75 KCAL/MOL
REMARK 922        TOTAL FREE ENERGY PREDICTED BY IDOCK:   18.06 KCAL/MOL
REMARK 923 INTER-LIGAND FREE ENERGY PREDICTED BY IDOCK:   18.71 KCAL/MOL
REMARK 924 INTRA-LIGAND FREE ENERGY PREDICTED BY IDOCK:   -0.65 KCAL/MOL
REMARK 927      BINDING AFFINITY PREDICTED BY RF-SCORE:    0.00 PKD
ROOT
HETATM    1  C   UNL     1      -8.869  14.357  70.215  1.00  0.00     1.774 C  
HETATM    2  O   UNL     1      -9.675  15.444  69.807  1.00  0.00    -0.272 OA 
HETATM    3  C   UNL     1     -10.515  15.350  68.622  1.00  0.00    -0.237 C  
HETATM    4  C   UNL     1     -11.613  14.257  68.861  1.00  0.00    -0.340 A  
HETATM    5  C   UNL     1     -11.120  16.782  68.530  1.00  0.00    -0.260 A  
HETATM    6  C   UNL     1      -9.690  15.067  67.295  1.00  0.00    -0.220 C  
HETATM    7  C   UNL     1      -8.694  16.155  66.907  1.00  0.00    -0.223 C  
HETATM    8  C   UNL     1     -10.321  17.897  68.890  1.00  0.00    -0.272 A  
HETATM    9  C   UNL     1     -12.079  13.960  70.157  1.00  0.00    -0.418 A  
HETATM   10  C   UNL     1     -12.818  18.372  67.796  1.00  0.00     6.779 A  
HETATM   11  O   UNL     1      -8.965  17.142  66.238  1.00  0.00    -0.321 OA 
HETATM   12  C   UNL     1     -12.934  12.874  70.396  1.00  0.00     0.270 A  
HETATM   13  C   UNL     1     -10.738  19.209  68.665  1.00  0.00     0.260 A  
HETATM   14  C   UNL     1     -12.393  17.052  68.005  1.00  0.00     2.378 A  
HETATM   15  O   UNL     1      -7.416  15.921  67.315  1.00  0.00    -0.169 OA 
HETATM   16  C   UNL     1     -12.165  13.495  67.810  1.00  0.00    -0.194 A  
HETATM   17  C   UNL     1     -13.369  12.074  69.343  1.00  0.00     2.865 A  
HETATM   18  C   UNL     1     -11.984  19.445  68.104  1.00  0.00     3.040 A  
HETATM   19  C   UNL     1     -13.001  12.399  68.046  1.00  0.00     3.123 A  
ENDROOT
BRANCH   6  20
HETATM   20  O   UNL     1      -8.898  13.863  67.404  1.00  0.00    -0.185 OA 
BRANCH  20  21
HETATM   21  C   UNL     1      -8.870  13.071  66.283  1.00  0.00     0.196 A  
HETATM   22  C   UNL     1     -10.997  12.233  63.434  1.00  0.00    -0.467 C  
HETATM   23  N   UNL     1      -9.885  13.118  65.411  1.00  0.00    -0.168 NA 
HETATM   24  C   UNL     1      -8.783  11.370  64.210  1.00  0.00     0.415 A  
HETATM   25  C   UNL     1      -9.836  12.247  64.384  1.00  0.00    -0.110 A  
HETATM   26  C   UNL     1      -7.767  11.429  65.145  1.00  0.00     0.879 A  
HETATM   27  C   UNL     1      -6.589  10.506  65.057  1.00  0.00    -0.014 C  
HETATM   28  N   UNL     1      -7.796  12.282  66.189  1.00  0.00     0.600 NA 
ENDBRANCH  20  21
ENDBRANCH   6  20
TORSDOF 2
ENDMDL
MODEL      172
REMARK 921   NORMALIZED FREE ENERGY PREDICTED BY IDOCK:   18.79 KCAL/MOL
REMARK 922        TOTAL FREE ENERGY PREDICTED BY IDOCK:   20.33 KCAL/MOL
REMARK 923 INTER-LIGAND FREE ENERGY PREDICTED BY IDOCK:    5.80 KCAL/MOL
REMARK 924 INTRA-LIGAND FREE ENERGY PREDICTED BY IDOCK:   14.53 KCAL/MOL
REMARK 927      BINDING AFFINITY PREDICTED BY RF-SCORE:    0.00 PKD
ROOT
HETATM    1  C   UNL     1      -9.211   5.128  71.346  1.00  0.00    -0.146 C  
HETATM    2  O   UNL     1      -9.118   4.698  70.002  1.00  0.00    -0.094 OA 
HETATM    3  C   UNL     1      -8.970   5.658  68.918  1.00  0.00    -0.111 C  
HETATM    4  C   UNL     1      -7.596   6.397  69.075  1.00  0.00    -0.100 A  
HETATM    5  C   UNL     1      -9.006   4.743  67.659  1.00  0.00    -0.120 A  
HETATM    6  C   UNL     1     -10.178   6.686  68.828  1.00  0.00    -0.171 C  
HETATM    7  C   UNL     1     -11.538   6.062  68.533  1.00  0.00     0.815 C  
HETATM    8  C   UNL     1      -9.859   3.611  67.649  1.00  0.00     0.026 A  
HETATM    9  C   UNL     1      -6.500   5.775  69.703  1.00  0.00    -0.042 A  
HETATM   10  C   UNL     1      -8.515   4.261  65.318  1.00  0.00    -0.115 A  
HETATM   11  O   UNL     1     -11.971   5.830  67.413  1.00  0.00     2.050 OA 
HETATM   12  C   UNL     1      -5.325   6.485  69.996  1.00  0.00    -0.014 A  
HETATM   13  C   UNL     1     -10.070   2.854  66.495  1.00  0.00     1.149 A  
HETATM   14  C   UNL     1      -8.315   5.033  66.472  1.00  0.00    -0.107 A  
HETATM   15  O   UNL     1     -12.302   5.826  69.636  1.00  0.00     2.117 OA 
HETATM   16  C   UNL     1      -7.394   7.721  68.632  1.00  0.00    -0.087 A  
HETATM   17  C   UNL     1      -5.205   7.826  69.643  1.00  0.00    -0.023 A  
HETATM   18  C   UNL     1      -9.407   3.190  65.324  1.00  0.00    -0.135 A  
HETATM   19  C   UNL     1      -6.233   8.438  68.940  1.00  0.00    -0.044 A  
ENDROOT
BRANCH   6  20
HETATM   20  O   UNL     1     -10.362   7.404  70.067  1.00  0.00    -0.209 OA 
BRANCH  20  21
HETATM   21  C   UNL     1     -10.997   6.707  71.065  1.00  0.00    -0.259 A  
HETATM   22  C   UNL     1     -14.380   5.724  72.033  1.00  0.00     1.323 C  
HETATM   23  N   UNL     1     -12.320   6.506  70.997  1.00  0.00    -0.216 NA 
HETATM   24  C   UNL     1     -12.155   5.465  73.143  1.00  0.00     0.300 A  
HETATM   25  C   UNL     1     -12.889   5.896  72.056  1.00  0.00     0.687 A  
HETATM   26  C   UNL     1     -10.792   5.686  73.096  1.00  0.00    -0.281 A  
HETATM   27  C   UNL     1      -9.907   5.274  74.234  1.00  0.00    -0.204 C  
HETATM   28  N   UNL     1     -10.196   6.305  72.056  1.00  0.00    -0.188 NA 
ENDBRANCH  20  21
ENDBRANCH   6  20
TORSDOF 2
ENDMDL
MODEL      173
REMARK 921   NORMALIZED FREE ENERGY PREDICTED BY IDOCK:   24.37 KCAL/MOL
REMARK 922        TOTAL FREE ENERGY PREDICTED BY IDOCK:   26.57 KCAL/MOL
REMARK 923 INTER-LIGAND FREE ENERGY PREDICTED BY IDOCK:   15.17 KCAL/MOL
REMARK 924 INTRA-LIGAND FREE ENERGY PREDICTED BY IDOCK:   11.40 KCAL/MOL
REMARK 927      BINDING AFFINITY PREDICTED BY RF-SCORE:    0.00 PKD
ROOT
HETATM    1  C   UNL     1      -7.847  16.194  69.284  1.00  0.00    -0.203 C  
HETATM    2  O   UNL     1      -9.137  15.846  68.823  1.00  0.00    -0.194 OA 
HETATM    3  C   UNL     1      -9.323  14.769  67.861  1.00  0.00    -0.193 C  
HETATM    4  C   UNL     1      -8.882  13.416  68.518  1.00  0.00    -0.068 A  
HETATM    5  C   UNL     1     -10.856  14.823  67.596  1.00  0.00    -0.285 A  
HETATM    6  C   UNL     1      -8.566  15.025  66.488  1.00  0.00    -0.144 C  
HETATM    7  C   UNL     1      -9.035  16.250  65.708  1.00  0.00    -0.030 C  
HETATM    8  C   UNL     1     -11.511  16.080  67.565  1.00  0.00     0.051 A  
HETATM    9  C   UNL     1      -8.959  13.221  69.910  1.00  0.00     2.676 A  
HETATM   10  C   UNL     1     -12.967  13.827  66.886  1.00  0.00     1.023 A  
HETATM   11  O   UNL     1      -9.966  16.257  64.915  1.00  0.00    -0.301 OA 
HETATM   12  C   UNL     1      -8.412  12.081  70.520  1.00  0.00     5.711 A  
HETATM   13  C   UNL     1     -12.840  16.212  67.162  1.00  0.00     3.618 A  
HETATM   14  C   UNL     1     -11.626  13.694  67.274  1.00  0.00    -0.387 A  
HETATM   15  O   UNL     1      -8.283  17.367  65.909  1.00  0.00    -0.537 OA 
HETATM   16  C   UNL     1      -8.359  12.344  67.764  1.00  0.00    -0.164 A  
HETATM   17  C   UNL     1      -7.802  11.094  69.752  1.00  0.00     0.482 A  
HETATM   18  C   UNL     1     -13.564  15.084  66.807  1.00  0.00     4.850 A  
HETATM   19  C   UNL     1      -7.795  11.216  68.370  1.00  0.00    -0.133 A  
ENDROOT
BRANCH   6  20
HETATM   20  O   UNL     1      -7.150  15.235  66.688  1.00  0.00     0.046 OA 
BRANCH  20  21
HETATM   21  C   UNL     1      -6.536  14.345  67.535  1.00  0.00    -0.076 A  
HETATM   22  C   UNL     1      -5.165  14.239  70.918  1.00  0.00    -0.131 C  
HETATM   23  N   UNL     1      -6.247  14.712  68.790  1.00  0.00    -0.084 NA 
HETATM   24  C   UNL     1      -5.199  12.579  69.050  1.00  0.00    -0.066 A  
HETATM   25  C   UNL     1      -5.561  13.822  69.533  1.00  0.00    -0.090 A  
HETATM   26  C   UNL     1      -5.580  12.284  67.755  1.00  0.00    -0.092 A  
HETATM   27  C   UNL     1      -5.220  10.970  67.129  1.00  0.00    -0.048 C  
HETATM   28  N   UNL     1      -6.257  13.160  66.983  1.00  0.00    -0.064 NA 
ENDBRANCH  20  21
ENDBRANCH   6  20
TORSDOF 2
ENDMDL
MODEL      174
REMARK 921   NORMALIZED FREE ENERGY PREDICTED BY IDOCK:   24.66 KCAL/MOL
REMARK 922        TOTAL FREE ENERGY PREDICTED BY IDOCK:   26.88 KCAL/MOL
REMARK 923 INTER-LIGAND FREE ENERGY PREDICTED BY IDOCK:    9.10 KCAL/MOL
REMARK 924 INTRA-LIGAND FREE ENERGY PREDICTED BY IDOCK:   17.78 KCAL/MOL
REMARK 927      BINDING AFFINITY PREDICTED BY RF-SCORE:    0.00 PKD
ROOT
HETATM    1  C   UNL     1     -10.787  10.398  71.194  1.00  0.00     0.619 C  
HETATM    2  O   UNL     1      -9.773  10.988  70.406  1.00  0.00     1.257 OA 
HETATM    3  C   UNL     1      -9.879  11.023  68.954  1.00  0.00    -0.177 C  
HETATM    4  C   UNL     1     -11.104  11.916  68.555  1.00  0.00    -0.290 A  
HETATM    5  C   UNL     1      -8.523  11.664  68.539  1.00  0.00    -0.135 A  
HETATM    6  C   UNL     1      -9.974   9.578  68.301  1.00  0.00    -0.161 C  
HETATM    7  C   UNL     1      -8.754   8.687  68.522  1.00  0.00    -0.139 C  
HETATM    8  C   UNL     1      -7.352  11.348  69.274  1.00  0.00    -0.042 A  
HETATM    9  C   UNL     1     -11.542  12.968  69.381  1.00  0.00    -0.360 A  
HETATM   10  C   UNL     1      -7.089  12.880  66.984  1.00  0.00     0.185 A  
HETATM   11  O   UNL     1      -7.760   8.678  67.809  1.00  0.00    -0.100 OA 
HETATM   12  C   UNL     1     -12.733  13.662  69.115  1.00  0.00     0.639 A  
HETATM   13  C   UNL     1      -6.083  11.746  68.851  1.00  0.00    -0.054 A  
HETATM   14  C   UNL     1      -8.363  12.467  67.398  1.00  0.00    -0.180 A  
HETATM   15  O   UNL     1      -8.869   7.822  69.567  1.00  0.00    -0.138 OA 
HETATM   16  C   UNL     1     -11.848  11.697  67.376  1.00  0.00    -0.170 A  
HETATM   17  C   UNL     1     -13.501  13.340  68.000  1.00  0.00     5.806 A  
HETATM   18  C   UNL     1      -5.952  12.501  67.695  1.00  0.00    -0.136 A  
HETATM   19  C   UNL     1     -13.047  12.371  67.118  1.00  0.00     4.000 A  
ENDROOT
BRANCH   6  20
HETATM   20  O   UNL     1     -11.084   8.822  68.834  1.00  0.00     0.026 OA 
BRANCH  20  21
HETATM   21  C   UNL     1     -11.184   8.806  70.203  1.00  0.00    -0.152 A  
HETATM   22  C   UNL     1      -9.031   8.442  73.132  1.00  0.00    -0.221 C  
HETATM   23  N   UNL     1     -10.076   8.718  70.950  1.00  0.00    -0.203 NA 
HETATM   24  C   UNL     1     -11.509   8.629  72.860  1.00  0.00     0.277 A  
HETATM   25  C   UNL     1     -10.255   8.613  72.282  1.00  0.00    -0.301 A  
HETATM   26  C   UNL     1     -12.585   8.763  72.005  1.00  0.00    -0.385 A  
HETATM   27  C   UNL     1     -13.989   8.771  72.531  1.00  0.00    -0.430 C  
HETATM   28  N   UNL     1     -12.436   8.858  70.667  1.00  0.00     0.070 NA 
ENDBRANCH  20  21
ENDBRANCH   6  20
TORSDOF 2
ENDMDL
MODEL      175
REMARK 921   NORMALIZED FREE ENERGY PREDICTED BY IDOCK:   24.82 KCAL/MOL
REMARK 922        TOTAL FREE ENERGY PREDICTED BY IDOCK:   27.07 KCAL/MOL
REMARK 923 INTER-LIGAND FREE ENERGY PREDICTED BY IDOCK:   19.62 KCAL/MOL
REMARK 924 INTRA-LIGAND FREE ENERGY PREDICTED BY IDOCK:    7.46 KCAL/MOL
REMARK 927      BINDING AFFINITY PREDICTED BY RF-SCORE:    0.00 PKD
ROOT
HETATM    1  C   UNL     1      -8.410  14.621  69.411  1.00  0.00     0.086 C  
HETATM    2  O   UNL     1      -9.378  14.107  70.304  1.00  0.00     1.550 OA 
HETATM    3  C   UNL     1     -10.558  13.412  69.809  1.00  0.00     0.651 C  
HETATM    4  C   UNL     1     -10.108  12.094  69.089  1.00  0.00     0.220 A  
HETATM    5  C   UNL     1     -11.348  13.127  71.120  1.00  0.00     1.980 A  
HETATM    6  C   UNL     1     -11.461  14.314  68.863  1.00  0.00    -0.286 C  
HETATM    7  C   UNL     1     -12.060  15.550  69.527  1.00  0.00    -0.302 C  
HETATM    8  C   UNL     1     -11.332  14.088  72.162  1.00  0.00     2.012 A  
HETATM    9  C   UNL     1      -8.925  11.427  69.458  1.00  0.00     0.751 A  
HETATM   10  C   UNL     1     -12.989  11.888  72.433  1.00  0.00     0.319 A  
HETATM   11  O   UNL     1     -13.116  15.567  70.145  1.00  0.00    -0.169 OA 
HETATM   12  C   UNL     1      -8.430  10.346  68.712  1.00  0.00    -0.132 A  
HETATM   13  C   UNL     1     -12.154  13.976  73.284  1.00  0.00     0.658 A  
HETATM   14  C   UNL     1     -12.175  12.007  71.297  1.00  0.00    -0.022 A  
HETATM   15  O   UNL     1     -11.351  16.696  69.330  1.00  0.00    -0.184 OA 
HETATM   16  C   UNL     1     -10.838  11.527  68.023  1.00  0.00    -0.259 A  
HETATM   17  C   UNL     1      -9.122   9.885  67.595  1.00  0.00    -0.140 A  
HETATM   18  C   UNL     1     -12.995  12.881  73.411  1.00  0.00     3.431 A  
HETATM   19  C   UNL     1     -10.339  10.463  67.264  1.00  0.00    -0.278 A  
ENDROOT
BRANCH   6  20
HETATM   20  O   UNL     1     -10.713  14.826  67.738  1.00  0.00    -0.260 OA 
BRANCH  20  21
HETATM   21  C   UNL     1     -10.826  14.102  66.577  1.00  0.00    -0.298 A  
HETATM   22  C   UNL     1     -10.115  14.462  63.012  1.00  0.00     8.203 C  
HETATM   23  N   UNL     1     -10.349  14.605  65.431  1.00  0.00    -0.356 NA 
HETATM   24  C   UNL     1     -11.238  12.671  64.345  1.00  0.00    -0.391 A  
HETATM   25  C   UNL     1     -10.578  13.883  64.316  1.00  0.00    -0.060 A  
HETATM   26  C   UNL     1     -11.655  12.222  65.583  1.00  0.00    -0.380 A  
HETATM   27  C   UNL     1     -12.397  10.927  65.721  1.00  0.00     3.591 C  
HETATM   28  N   UNL     1     -11.450  12.929  66.714  1.00  0.00    -0.322 NA 
ENDBRANCH  20  21
ENDBRANCH   6  20
TORSDOF 2
ENDMDL
MODEL      176
REMARK 921   NORMALIZED FREE ENERGY PREDICTED BY IDOCK:   36.02 KCAL/MOL
REMARK 922        TOTAL FREE ENERGY PREDICTED BY IDOCK:   39.57 KCAL/MOL
REMARK 923 INTER-LIGAND FREE ENERGY PREDICTED BY IDOCK:   38.62 KCAL/MOL
REMARK 924 INTRA-LIGAND FREE ENERGY PREDICTED BY IDOCK:    0.95 KCAL/MOL
REMARK 927      BINDING AFFINITY PREDICTED BY RF-SCORE:    0.00 PKD
ROOT
HETATM    1  C   UNL     1     -12.083  19.236  69.401  1.00  0.00     8.464 C  
HETATM    2  O   UNL     1     -11.739  18.161  70.252  1.00  0.00     3.990 OA 
HETATM    3  C   UNL     1     -10.707  17.206  69.872  1.00  0.00     0.242 C  
HETATM    4  C   UNL     1      -9.331  17.951  69.785  1.00  0.00     1.030 A  
HETATM    5  C   UNL     1     -10.752  16.186  71.047  1.00  0.00     0.358 A  
HETATM    6  C   UNL     1     -11.039  16.435  68.523  1.00  0.00    -0.357 C  
HETATM    7  C   UNL     1     -12.292  15.567  68.565  1.00  0.00     0.335 C  
HETATM    8  C   UNL     1     -12.000  15.862  71.637  1.00  0.00    -0.553 A  
HETATM    9  C   UNL     1      -9.068  19.094  70.565  1.00  0.00     2.222 A  
HETATM   10  C   UNL     1      -9.761  14.451  72.446  1.00  0.00     6.675 A  
HETATM   11  O   UNL     1     -12.324  14.407  68.951  1.00  0.00    -0.229 OA 
HETATM   12  C   UNL     1      -7.908  19.861  70.372  1.00  0.00     1.075 A  
HETATM   13  C   UNL     1     -12.132  14.832  72.569  1.00  0.00    -0.318 A  
HETATM   14  C   UNL     1      -9.628  15.474  71.497  1.00  0.00     3.101 A  
HETATM   15  O   UNL     1     -13.410  16.165  68.068  1.00  0.00     3.294 OA 
HETATM   16  C   UNL     1      -8.303  17.544  68.908  1.00  0.00    -0.147 A  
HETATM   17  C   UNL     1      -6.968  19.489  69.416  1.00  0.00    -0.348 A  
HETATM   18  C   UNL     1     -11.011  14.116  72.963  1.00  0.00     3.455 A  
HETATM   19  C   UNL     1      -7.156  18.316  68.699  1.00  0.00    -0.285 A  
ENDROOT
BRANCH   6  20
HETATM   20  O   UNL     1     -11.259  17.348  67.425  1.00  0.00    -0.019 OA 
BRANCH  20  21
HETATM   21  C   UNL     1     -10.154  17.628  66.660  1.00  0.00    -0.335 A  
HETATM   22  C   UNL     1      -7.056  16.021  65.582  1.00  0.00     3.591 C  
HETATM   23  N   UNL     1      -9.234  16.678  66.449  1.00  0.00    -0.269 NA 
HETATM   24  C   UNL     1      -7.963  18.330  65.279  1.00  0.00     1.411 A  
HETATM   25  C   UNL     1      -8.131  17.050  65.768  1.00  0.00     0.311 A  
HETATM   26  C   UNL     1      -8.989  19.224  65.517  1.00  0.00     0.824 A  
HETATM   27  C   UNL     1      -8.896  20.644  65.045  1.00  0.00     1.496 C  
HETATM   28  N   UNL     1     -10.098  18.883  66.206  1.00  0.00    -0.395 NA 
ENDBRANCH  20  21
ENDBRANCH   6  20
TORSDOF 2
ENDMDL
MODEL      177
REMARK 921   NORMALIZED FREE ENERGY PREDICTED BY IDOCK:   44.01 KCAL/MOL
REMARK 922        TOTAL FREE ENERGY PREDICTED BY IDOCK:   48.50 KCAL/MOL
REMARK 923 INTER-LIGAND FREE ENERGY PREDICTED BY IDOCK:   10.84 KCAL/MOL
REMARK 924 INTRA-LIGAND FREE ENERGY PREDICTED BY IDOCK:   37.66 KCAL/MOL
REMARK 927      BINDING AFFINITY PREDICTED BY RF-SCORE:    0.00 PKD
ROOT
HETATM    1  C   UNL     1      -7.617  12.762  66.540  1.00  0.00     0.786 C  
HETATM    2  O   UNL     1      -8.353  13.402  67.563  1.00  0.00    -0.166 OA 
HETATM    3  C   UNL     1      -9.119  12.628  68.530  1.00  0.00    -0.052 C  
HETATM    4  C   UNL     1      -8.131  11.764  69.388  1.00  0.00     0.562 A  
HETATM    5  C   UNL     1      -9.812  13.740  69.370  1.00  0.00     0.514 A  
HETATM    6  C   UNL     1     -10.245  11.730  67.857  1.00  0.00    -0.191 C  
HETATM    7  C   UNL     1     -11.332  12.503  67.117  1.00  0.00    -0.324 C  
HETATM    8  C   UNL     1     -10.252  14.924  68.725  1.00  0.00    -0.243 A  
HETATM    9  C   UNL     1      -6.806  12.181  69.617  1.00  0.00     0.111 A  
HETATM   10  C   UNL     1     -10.898  14.565  71.392  1.00  0.00     1.067 A  
HETATM   11  O   UNL     1     -12.344  12.953  67.637  1.00  0.00    -0.220 OA 
HETATM   12  C   UNL     1      -5.872  11.340  70.240  1.00  0.00    -0.146 A  
HETATM   13  C   UNL     1     -11.032  15.877  69.381  1.00  0.00    -0.309 A  
HETATM   14  C   UNL     1     -10.129  13.598  70.730  1.00  0.00     4.089 A  
HETATM   15  O   UNL     1     -11.132  12.613  65.775  1.00  0.00    -0.282 OA 
HETATM   16  C   UNL     1      -8.500  10.521  69.944  1.00  0.00     0.230 A  
HETATM   17  C   UNL     1      -6.245  10.071  70.675  1.00  0.00    -0.103 A  
HETATM   18  C   UNL     1     -11.367  15.689  70.714  1.00  0.00    -0.400 A  
HETATM   19  C   UNL     1      -7.566   9.671  70.547  1.00  0.00    -0.151 A  
ENDROOT
BRANCH   6  20
HETATM   20  O   UNL     1      -9.693  10.832  66.869  1.00  0.00    -0.172 OA 
BRANCH  20  21
HETATM   21  C   UNL     1      -8.439  11.155  66.412  1.00  0.00    -0.167 A  
HETATM   22  C   UNL     1      -5.571   9.544  64.826  1.00  0.00    -0.061 C  
HETATM   23  N   UNL     1      -7.698  10.228  65.793  1.00  0.00    -0.137 NA 
HETATM   24  C   UNL     1      -5.949  11.855  65.700  1.00  0.00     1.867 A  
HETATM   25  C   UNL     1      -6.443  10.589  65.456  1.00  0.00    -0.106 A  
HETATM   26  C   UNL     1      -6.808  12.749  66.309  1.00  0.00     2.252 A  
HETATM   27  C   UNL     1      -6.363  14.143  66.634  1.00  0.00     2.578 C  
HETATM   28  N   UNL     1      -8.065  12.413  66.668  1.00  0.00     0.016 NA 
ENDBRANCH  20  21
ENDBRANCH   6  20
TORSDOF 2
ENDMDL
MODEL      178
REMARK 921   NORMALIZED FREE ENERGY PREDICTED BY IDOCK:   76.14 KCAL/MOL
REMARK 922        TOTAL FREE ENERGY PREDICTED BY IDOCK:   84.39 KCAL/MOL
REMARK 923 INTER-LIGAND FREE ENERGY PREDICTED BY IDOCK:   84.65 KCAL/MOL
REMARK 924 INTRA-LIGAND FREE ENERGY PREDICTED BY IDOCK:   -0.27 KCAL/MOL
REMARK 927      BINDING AFFINITY PREDICTED BY RF-SCORE:    0.00 PKD
ROOT
HETATM    1  C   UNL     1     -12.958  18.690  70.888  1.00  0.00    22.051 C  
HETATM    2  O   UNL     1     -12.955  17.317  71.223  1.00  0.00     5.051 OA 
HETATM    3  C   UNL     1     -11.899  16.434  70.749  1.00  0.00     0.075 C  
HETATM    4  C   UNL     1     -10.537  16.883  71.383  1.00  0.00     1.954 A  
HETATM    5  C   UNL     1     -12.365  15.046  71.279  1.00  0.00    -0.387 A  
HETATM    6  C   UNL     1     -11.810  16.364  69.164  1.00  0.00     0.077 C  
HETATM    7  C   UNL     1     -13.047  15.801  68.471  1.00  0.00     2.608 C  
HETATM    8  C   UNL     1     -13.750  14.741  71.299  1.00  0.00    -0.476 A  
HETATM    9  C   UNL     1     -10.491  17.532  72.631  1.00  0.00     5.034 A  
HETATM   10  C   UNL     1     -11.957  12.739  71.958  1.00  0.00     1.764 A  
HETATM   11  O   UNL     1     -13.252  14.612  68.269  1.00  0.00     1.890 OA 
HETATM   12  C   UNL     1      -9.299  18.084  73.125  1.00  0.00    11.669 A  
HETATM   13  C   UNL     1     -14.222  13.462  71.593  1.00  0.00     0.335 A  
HETATM   14  C   UNL     1     -11.480  14.021  71.646  1.00  0.00     1.075 A  
HETATM   15  O   UNL     1     -13.916  16.744  68.015  1.00  0.00     5.642 OA 
HETATM   16  C   UNL     1      -9.300  16.694  70.731  1.00  0.00     3.483 A  
HETATM   17  C   UNL     1      -8.117  17.976  72.398  1.00  0.00    13.766 A  
HETATM   18  C   UNL     1     -13.321  12.455  71.909  1.00  0.00    -0.450 A  
HETATM   19  C   UNL     1      -8.114  17.260  71.210  1.00  0.00     8.130 A  
ENDROOT
BRANCH   6  20
HETATM   20  O   UNL     1     -11.623  17.672  68.581  1.00  0.00     0.816 OA 
BRANCH  20  21
HETATM   21  C   UNL     1     -10.841  17.709  67.453  1.00  0.00    -0.172 A  
HETATM   22  C   UNL     1      -9.795  15.500  64.739  1.00  0.00     0.624 C  
HETATM   23  N   UNL     1     -10.785  16.640  66.648  1.00  0.00    -0.193 NA 
HETATM   24  C   UNL     1      -9.164  17.837  65.363  1.00  0.00     1.284 A  
HETATM   25  C   UNL     1      -9.926  16.712  65.612  1.00  0.00    -0.167 A  
HETATM   26  C   UNL     1      -9.325  18.899  66.230  1.00  0.00    -0.282 A  
HETATM   27  C   UNL     1      -8.531  20.159  66.058  1.00  0.00    -0.177 C  
HETATM   28  N   UNL     1     -10.169  18.851  67.282  1.00  0.00    -0.366 NA 
ENDBRANCH  20  21
ENDBRANCH   6  20
TORSDOF 2
ENDMDL
MODEL      179
REMARK 921   NORMALIZED FREE ENERGY PREDICTED BY IDOCK:   81.29 KCAL/MOL
REMARK 922        TOTAL FREE ENERGY PREDICTED BY IDOCK:   90.14 KCAL/MOL
REMARK 923 INTER-LIGAND FREE ENERGY PREDICTED BY IDOCK:   84.88 KCAL/MOL
REMARK 924 INTRA-LIGAND FREE ENERGY PREDICTED BY IDOCK:    5.26 KCAL/MOL
REMARK 927      BINDING AFFINITY PREDICTED BY RF-SCORE:    0.00 PKD
ROOT
HETATM    1  C   UNL     1      -9.494  11.582  64.125  1.00  0.00    -0.089 C  
HETATM    2  O   UNL     1      -9.736  12.011  65.450  1.00  0.00    -0.238 OA 
HETATM    3  C   UNL     1     -10.232  11.084  66.458  1.00  0.00    -0.234 C  
HETATM    4  C   UNL     1      -9.149   9.979  66.711  1.00  0.00    -0.159 A  
HETATM    5  C   UNL     1     -10.427  12.012  67.693  1.00  0.00    -0.226 A  
HETATM    6  C   UNL     1     -11.638  10.448  66.080  1.00  0.00     1.705 C  
HETATM    7  C   UNL     1     -12.786  11.444  65.953  1.00  0.00     4.534 C  
HETATM    8  C   UNL     1     -10.881  13.341  67.497  1.00  0.00    -0.276 A  
HETATM    9  C   UNL     1      -7.780  10.240  66.519  1.00  0.00    -0.113 A  
HETATM   10  C   UNL     1     -10.627  12.410  70.091  1.00  0.00     1.633 A  
HETATM   11  O   UNL     1     -13.483  11.826  66.883  1.00  0.00     5.835 OA 
HETATM   12  C   UNL     1      -6.823   9.215  66.581  1.00  0.00    -0.080 A  
HETATM   13  C   UNL     1     -11.243  14.163  68.565  1.00  0.00    -0.285 A  
HETATM   14  C   UNL     1     -10.280  11.575  69.019  1.00  0.00    -0.109 A  
HETATM   15  O   UNL     1     -13.041  11.852  64.679  1.00  0.00    -0.343 OA 
HETATM   16  C   UNL     1      -9.485   8.667  67.108  1.00  0.00    -0.207 A  
HETATM   17  C   UNL     1      -7.208   7.908  66.865  1.00  0.00    -0.089 A  
HETATM   18  C   UNL     1     -11.129  13.690  69.864  1.00  0.00     0.086 A  
HETATM   19  C   UNL     1      -8.538   7.639  67.151  1.00  0.00    -0.121 A  
ENDROOT
BRANCH   6  20
HETATM   20  O   UNL     1     -11.593   9.772  64.804  1.00  0.00     4.137 OA 
BRANCH  20  21
HETATM   21  C   UNL     1     -11.614   8.400  64.862  1.00  0.00    12.448 A  
HETATM   22  C   UNL     1      -9.453   5.641  65.892  1.00  0.00    -0.087 C  
HETATM   23  N   UNL     1     -10.584   7.743  65.410  1.00  0.00     3.337 NA 
HETATM   24  C   UNL     1     -11.691   5.720  64.781  1.00  0.00     4.970 A  
HETATM   25  C   UNL     1     -10.629   6.397  65.347  1.00  0.00     2.577 A  
HETATM   26  C   UNL     1     -12.721   6.491  64.279  1.00  0.00    13.091 A  
HETATM   27  C   UNL     1     -13.911   5.854  63.627  1.00  0.00    11.870 C  
HETATM   28  N   UNL     1     -12.698   7.840  64.317  1.00  0.00    21.311 NA 
ENDBRANCH  20  21
ENDBRANCH   6  20
TORSDOF 2
ENDMDL
