MODEL        1
REMARK 921   NORMALIZED FREE ENERGY PREDICTED BY IDOCK:   -7.45 KCAL/MOL
REMARK 922        TOTAL FREE ENERGY PREDICTED BY IDOCK:   -9.76 KCAL/MOL
REMARK 923 INTER-LIGAND FREE ENERGY PREDICTED BY IDOCK:   -9.20 KCAL/MOL
REMARK 924 INTRA-LIGAND FREE ENERGY PREDICTED BY IDOCK:   -0.56 KCAL/MOL
REMARK 927      BINDING AFFINITY PREDICTED BY RF-SCORE:    0.00 PKD
ROOT
HETATM    1  C   UNL     1      -9.039  10.080  69.709  1.00  0.00    -0.219 C  
HETATM    2  C   UNL     1      -7.612  10.257  69.249  1.00  0.00    -0.125 C  
HETATM    3  C   UNL     1      -7.723  10.598  67.785  1.00  0.00    -0.100 C  
HETATM    4  O   UNL     1      -7.099   9.510  67.107  1.00  0.00    -0.084 OA 
HETATM    5  C   UNL     1      -7.833   9.365  65.912  1.00  0.00    -0.099 C  
HETATM    6  O   UNL     1      -9.172   9.827  66.127  1.00  0.00    -0.159 OA 
HETATM    7  C   UNL     1      -7.740   7.909  65.460  1.00  0.00    -0.101 C  
HETATM    8  C   UNL     1      -6.667   7.859  64.376  1.00  0.00    -0.056 C  
HETATM    9  C   UNL     1      -9.194  10.601  67.348  1.00  0.00    -0.143 C  
HETATM   10  O   UNL     1      -8.563   4.282  68.589  1.00  0.00    -0.090 OA 
HETATM   11  C   UNL     1      -6.343   9.289  63.979  1.00  0.00    -0.090 C  
HETATM   12  C   UNL     1     -10.010   9.910  68.496  1.00  0.00    -0.175 C  
HETATM   13  C   UNL     1      -7.189  10.217  64.830  1.00  0.00    -0.131 C  
HETATM   14  C   UNL     1      -9.280   4.975  69.266  1.00  0.00    -0.109 C  
HETATM   15  C   UNL     1      -8.840   5.552  70.558  1.00  0.00    -0.145 C  
HETATM   16  C   UNL     1     -11.352  10.485  69.065  1.00  0.00    -0.319 C  
HETATM   17  C   UNL     1     -10.481   8.576  67.932  1.00  0.00    -0.262 C  
HETATM   18  C   UNL     1     -11.664   9.884  70.481  1.00  0.00    -0.295 C  
HETATM   19  C   UNL     1     -12.199   6.723  71.652  1.00  0.00    -0.410 C  
HETATM   20  C   UNL     1     -10.752   8.731  71.045  1.00  0.00    -0.229 C  
HETATM   21  O   UNL     1     -13.051   9.642  70.660  1.00  0.00    -0.564 OA 
HETATM   22  C   UNL     1     -10.937   7.075  70.808  1.00  0.00    -0.285 C  
HETATM   23  H   UNL     1     -13.240   9.278  71.518  1.00  0.00     0.000 HD 
HETATM   24  C   UNL     1      -9.303   9.280  70.988  1.00  0.00    -0.298 C  
HETATM   25  C   UNL     1     -11.335   6.303  69.513  1.00  0.00    -0.475 C  
HETATM   26  C   UNL     1     -10.638   5.355  68.859  1.00  0.00    -0.197 C  
HETATM   27  F   UNL     1     -11.023   8.863  72.433  1.00  0.00    -0.415 F  
HETATM   28  C   UNL     1      -8.206   8.368  71.557  1.00  0.00    -0.182 C  
HETATM   29  C   UNL     1      -8.801   7.182  72.316  1.00  0.00    -0.142 C  
HETATM   30  C   UNL     1      -9.575   6.443  71.263  1.00  0.00    -0.182 C  
ENDROOT
BRANCH   9  31
HETATM   31  C   UNL     1      -9.730  12.014  67.070  1.00  0.00    -0.196 C  
HETATM   32  O   UNL     1      -9.627  12.893  67.915  1.00  0.00    -0.201 OA 
BRANCH  31  33
HETATM   33  C   UNL     1     -10.500  12.213  65.768  1.00  0.00    -0.253 C  
BRANCH  33  34
HETATM   34  O   UNL     1     -11.921  12.212  65.969  1.00  0.00    -0.578 OA 
BRANCH  34  35
HETATM   35  C   UNL     1     -12.617  12.882  65.015  1.00  0.00    -0.472 C  
HETATM   36  O   UNL     1     -13.262  13.897  65.196  1.00  0.00    -0.768 OA 
HETATM   37  C   UNL     1     -12.418  12.238  63.665  1.00  0.00    -0.647 C  
ENDBRANCH  34  35
ENDBRANCH  33  34
ENDBRANCH  31  33
ENDBRANCH   9  31
TORSDOF 4
ENDMDL
MODEL        2
REMARK 921   NORMALIZED FREE ENERGY PREDICTED BY IDOCK:   -7.27 KCAL/MOL
REMARK 922        TOTAL FREE ENERGY PREDICTED BY IDOCK:   -9.53 KCAL/MOL
REMARK 923 INTER-LIGAND FREE ENERGY PREDICTED BY IDOCK:   -9.95 KCAL/MOL
REMARK 924 INTRA-LIGAND FREE ENERGY PREDICTED BY IDOCK:    0.42 KCAL/MOL
REMARK 927      BINDING AFFINITY PREDICTED BY RF-SCORE:    0.00 PKD
ROOT
HETATM    1  C   UNL     1     -11.042  15.819  67.556  1.00  0.00    -0.258 C  
HETATM    2  C   UNL     1     -10.798  16.485  68.890  1.00  0.00    -0.336 C  
HETATM    3  C   UNL     1      -9.669  17.450  68.632  1.00  0.00    -0.308 C  
HETATM    4  O   UNL     1      -8.589  16.972  69.431  1.00  0.00     0.022 OA 
HETATM    5  C   UNL     1      -7.432  17.263  68.679  1.00  0.00    -0.251 C  
HETATM    6  O   UNL     1      -7.770  17.279  67.287  1.00  0.00    -0.179 OA 
HETATM    7  C   UNL     1      -6.347  16.254  69.047  1.00  0.00    -0.153 C  
HETATM    8  C   UNL     1      -5.428  16.948  70.047  1.00  0.00    -0.209 C  
HETATM    9  C   UNL     1      -9.209  17.355  67.171  1.00  0.00    -0.237 C  
HETATM   10  O   UNL     1      -7.326  11.493  69.161  1.00  0.00    -0.111 OA 
HETATM   11  C   UNL     1      -5.777  18.427  70.047  1.00  0.00    -0.241 C  
HETATM   12  C   UNL     1      -9.846  16.049  66.578  1.00  0.00    -0.284 C  
HETATM   13  C   UNL     1      -6.921  18.640  69.074  1.00  0.00    -0.305 C  
HETATM   14  C   UNL     1      -8.212  11.615  68.354  1.00  0.00    -0.155 C  
HETATM   15  C   UNL     1      -9.644  11.585  68.734  1.00  0.00    -0.112 C  
HETATM   16  C   UNL     1     -10.548  15.992  65.179  1.00  0.00    -0.394 C  
HETATM   17  C   UNL     1      -8.692  15.079  66.364  1.00  0.00    -0.169 C  
HETATM   18  C   UNL     1     -11.489  14.740  65.075  1.00  0.00    -0.389 C  
HETATM   19  C   UNL     1     -10.985  11.371  65.268  1.00  0.00    -0.251 C  
HETATM   20  C   UNL     1     -11.483  13.675  66.235  1.00  0.00    -0.333 C  
HETATM   21  O   UNL     1     -11.459  14.161  63.779  1.00  0.00    -0.566 OA 
HETATM   22  C   UNL     1     -10.478  12.334  66.384  1.00  0.00    -0.263 C  
HETATM   23  H   UNL     1     -12.029  13.403  63.716  1.00  0.00     0.000 HD 
HETATM   24  C   UNL     1     -11.771  14.472  67.533  1.00  0.00    -0.413 C  
HETATM   25  C   UNL     1      -8.953  12.208  66.085  1.00  0.00    -0.043 C  
HETATM   26  C   UNL     1      -7.964  11.853  66.927  1.00  0.00    -0.132 C  
HETATM   27  F   UNL     1     -12.751  13.072  66.017  1.00  0.00    -0.425 F  
HETATM   28  C   UNL     1     -11.895  13.649  68.824  1.00  0.00    -0.395 C  
HETATM   29  C   UNL     1     -11.966  12.151  68.529  1.00  0.00    -0.273 C  
HETATM   30  C   UNL     1     -10.649  11.860  67.869  1.00  0.00    -0.229 C  
ENDROOT
BRANCH   9  31
HETATM   31  C   UNL     1      -9.609  18.584  66.340  1.00  0.00    -0.316 C  
HETATM   32  O   UNL     1     -10.636  18.575  65.675  1.00  0.00    -0.616 OA 
BRANCH  31  33
HETATM   33  C   UNL     1      -8.607  19.732  66.286  1.00  0.00    -0.364 C  
BRANCH  33  34
HETATM   34  O   UNL     1      -7.540  19.483  65.359  1.00  0.00    -0.401 OA 
BRANCH  34  35
HETATM   35  C   UNL     1      -6.607  20.469  65.307  1.00  0.00    -0.251 C  
HETATM   36  O   UNL     1      -5.996  20.809  64.312  1.00  0.00    -0.262 OA 
HETATM   37  C   UNL     1      -6.484  21.152  66.647  1.00  0.00    -0.349 C  
ENDBRANCH  34  35
ENDBRANCH  33  34
ENDBRANCH  31  33
ENDBRANCH   9  31
TORSDOF 4
ENDMDL
MODEL        3
REMARK 921   NORMALIZED FREE ENERGY PREDICTED BY IDOCK:   -7.19 KCAL/MOL
REMARK 922        TOTAL FREE ENERGY PREDICTED BY IDOCK:   -9.44 KCAL/MOL
REMARK 923 INTER-LIGAND FREE ENERGY PREDICTED BY IDOCK:   -8.95 KCAL/MOL
REMARK 924 INTRA-LIGAND FREE ENERGY PREDICTED BY IDOCK:   -0.49 KCAL/MOL
REMARK 927      BINDING AFFINITY PREDICTED BY RF-SCORE:    0.00 PKD
ROOT
HETATM    1  C   UNL     1      -9.306  10.757  68.714  1.00  0.00    -0.186 C  
HETATM    2  C   UNL     1      -8.094  11.134  67.895  1.00  0.00    -0.119 C  
HETATM    3  C   UNL     1      -8.624  11.333  66.498  1.00  0.00    -0.170 C  
HETATM    4  O   UNL     1      -8.000  10.315  65.720  1.00  0.00    -0.132 OA 
HETATM    5  C   UNL     1      -8.969   9.954  64.762  1.00  0.00    -0.217 C  
HETATM    6  O   UNL     1     -10.274  10.201  65.299  1.00  0.00    -0.304 OA 
HETATM    7  C   UNL     1      -8.727   8.503  64.350  1.00  0.00     0.053 C  
HETATM    8  C   UNL     1      -7.966   8.548  63.029  1.00  0.00    -0.163 C  
HETATM    9  C   UNL     1     -10.133  11.055  66.457  1.00  0.00    -0.226 C  
HETATM   10  O   UNL     1      -8.072   5.050  67.709  1.00  0.00    -0.097 OA 
HETATM   11  C   UNL     1      -8.017   9.976  62.513  1.00  0.00    -0.142 C  
HETATM   12  C   UNL     1     -10.499  10.331  67.800  1.00  0.00    -0.269 C  
HETATM   13  C   UNL     1      -8.780  10.813  63.521  1.00  0.00    -0.106 C  
HETATM   14  C   UNL     1      -8.713   5.665  68.523  1.00  0.00    -0.110 C  
HETATM   15  C   UNL     1      -8.078   6.409  69.637  1.00  0.00    -0.124 C  
HETATM   16  C   UNL     1     -11.739  10.716  68.676  1.00  0.00    -0.228 C  
HETATM   17  C   UNL     1     -10.843   8.896  67.423  1.00  0.00    -0.096 C  
HETATM   18  C   UNL     1     -11.575  10.186  70.144  1.00  0.00    -0.277 C  
HETATM   19  C   UNL     1     -11.217   7.084  71.521  1.00  0.00    -0.279 C  
HETATM   20  C   UNL     1     -10.357   9.251  70.492  1.00  0.00    -0.254 C  
HETATM   21  O   UNL     1     -12.806   9.730  70.684  1.00  0.00    -0.526 OA 
HETATM   22  C   UNL     1     -10.289   7.574  70.368  1.00  0.00    -0.216 C  
HETATM   23  H   UNL     1     -12.707   9.409  71.573  1.00  0.00     0.000 HD 
HETATM   24  C   UNL     1      -9.093  10.029  70.044  1.00  0.00    -0.133 C  
HETATM   25  C   UNL     1     -10.849   6.646  69.247  1.00  0.00    -0.335 C  
HETATM   26  C   UNL     1     -10.175   5.778  68.468  1.00  0.00    -0.246 C  
HETATM   27  F   UNL     1     -10.295   9.446  71.898  1.00  0.00    -0.402 F  
HETATM   28  C   UNL     1      -7.742   9.361  70.342  1.00  0.00    -0.163 C  
HETATM   29  C   UNL     1      -7.903   8.157  71.269  1.00  0.00    -0.102 C  
HETATM   30  C   UNL     1      -8.766   7.218  70.477  1.00  0.00    -0.148 C  
ENDROOT
BRANCH   9  31
HETATM   31  C   UNL     1     -10.970  12.331  66.278  1.00  0.00    -0.291 C  
HETATM   32  O   UNL     1     -12.165  12.257  66.020  1.00  0.00    -0.646 OA 
BRANCH  31  33
HETATM   33  C   UNL     1     -10.216  13.656  66.303  1.00  0.00    -0.296 C  
BRANCH  33  34
HETATM   34  O   UNL     1     -10.358  14.389  65.076  1.00  0.00    -0.402 OA 
BRANCH  34  35
HETATM   35  C   UNL     1     -10.606  15.712  65.246  1.00  0.00    -0.426 C  
HETATM   36  O   UNL     1     -11.009  16.470  64.384  1.00  0.00    -0.872 OA 
HETATM   37  C   UNL     1     -10.391  16.111  66.686  1.00  0.00    -0.297 C  
ENDBRANCH  34  35
ENDBRANCH  33  34
ENDBRANCH  31  33
ENDBRANCH   9  31
TORSDOF 4
ENDMDL
MODEL        4
REMARK 921   NORMALIZED FREE ENERGY PREDICTED BY IDOCK:   -7.03 KCAL/MOL
REMARK 922        TOTAL FREE ENERGY PREDICTED BY IDOCK:   -9.23 KCAL/MOL
REMARK 923 INTER-LIGAND FREE ENERGY PREDICTED BY IDOCK:   -9.53 KCAL/MOL
REMARK 924 INTRA-LIGAND FREE ENERGY PREDICTED BY IDOCK:    0.29 KCAL/MOL
REMARK 927      BINDING AFFINITY PREDICTED BY RF-SCORE:    0.00 PKD
ROOT
HETATM    1  C   UNL     1      -9.465   9.442  70.625  1.00  0.00    -0.325 C  
HETATM    2  C   UNL     1      -8.374  10.008  69.748  1.00  0.00    -0.187 C  
HETATM    3  C   UNL     1      -9.027  10.200  68.403  1.00  0.00    -0.123 C  
HETATM    4  O   UNL     1      -8.340   9.308  67.530  1.00  0.00    -0.117 OA 
HETATM    5  C   UNL     1      -9.324   8.868  66.621  1.00  0.00    -0.185 C  
HETATM    6  O   UNL     1     -10.606   8.920  67.258  1.00  0.00    -0.283 OA 
HETATM    7  C   UNL     1      -8.933   7.481  66.116  1.00  0.00    -0.188 C  
HETATM    8  C   UNL     1      -8.283   7.683  64.751  1.00  0.00    -0.081 C  
HETATM    9  C   UNL     1     -10.488   9.732  68.448  1.00  0.00    -0.218 C  
HETATM   10  O   UNL     1      -7.603   3.993  69.230  1.00  0.00    -0.053 OA 
HETATM   11  C   UNL     1      -8.550   9.114  64.318  1.00  0.00    -0.197 C  
HETATM   12  C   UNL     1     -10.660   8.907  69.772  1.00  0.00    -0.230 C  
HETATM   13  C   UNL     1      -9.336   9.800  65.419  1.00  0.00    -0.311 C  
HETATM   14  C   UNL     1      -8.255   4.482  70.118  1.00  0.00    -0.067 C  
HETATM   15  C   UNL     1      -7.637   5.250  71.226  1.00  0.00    -0.100 C  
HETATM   16  C   UNL     1     -11.870   9.088  70.749  1.00  0.00    -0.251 C  
HETATM   17  C   UNL     1     -10.848   7.458  69.341  1.00  0.00    -0.184 C  
HETATM   18  C   UNL     1     -11.533   8.518  72.171  1.00  0.00    -0.376 C  
HETATM   19  C   UNL     1     -10.688   5.429  73.350  1.00  0.00    -0.321 C  
HETATM   20  C   UNL     1     -10.185   7.733  72.385  1.00  0.00    -0.247 C  
HETATM   21  O   UNL     1     -12.654   7.883  72.768  1.00  0.00    -0.567 OA 
HETATM   22  C   UNL     1      -9.917   6.086  72.166  1.00  0.00    -0.189 C  
HETATM   23  H   UNL     1     -12.450   7.538  73.630  1.00  0.00     0.000 HD 
HETATM   24  C   UNL     1      -9.065   8.687  71.896  1.00  0.00    -0.326 C  
HETATM   25  C   UNL     1     -10.437   5.146  71.037  1.00  0.00    -0.241 C  
HETATM   26  C   UNL     1      -9.719   4.409  70.168  1.00  0.00    -0.288 C  
HETATM   27  F   UNL     1     -10.044   7.871  73.793  1.00  0.00    -0.351 F  
HETATM   28  C   UNL     1      -7.623   8.187  72.066  1.00  0.00    -0.129 C  
HETATM   29  C   UNL     1      -7.563   6.931  72.934  1.00  0.00    -0.085 C  
HETATM   30  C   UNL     1      -8.357   5.925  72.152  1.00  0.00    -0.118 C  
ENDROOT
BRANCH   9  31
HETATM   31  C   UNL     1     -11.489  10.896  68.396  1.00  0.00    -0.304 C  
HETATM   32  O   UNL     1     -12.536  10.842  69.029  1.00  0.00    -0.425 OA 
BRANCH  31  33
HETATM   33  C   UNL     1     -11.174  12.031  67.427  1.00  0.00    -0.307 C  
BRANCH  33  34
HETATM   34  O   UNL     1     -12.135  12.124  66.364  1.00  0.00    -0.630 OA 
BRANCH  34  35
HETATM   35  C   UNL     1     -12.256  13.368  65.834  1.00  0.00    -0.450 C  
HETATM   36  O   UNL     1     -13.109  13.714  65.038  1.00  0.00    -0.742 OA 
HETATM   37  C   UNL     1     -11.230  14.300  66.430  1.00  0.00    -0.337 C  
ENDBRANCH  34  35
ENDBRANCH  33  34
ENDBRANCH  31  33
ENDBRANCH   9  31
TORSDOF 4
ENDMDL
MODEL        5
REMARK 921   NORMALIZED FREE ENERGY PREDICTED BY IDOCK:   -7.02 KCAL/MOL
REMARK 922        TOTAL FREE ENERGY PREDICTED BY IDOCK:   -9.23 KCAL/MOL
REMARK 923 INTER-LIGAND FREE ENERGY PREDICTED BY IDOCK:   -8.45 KCAL/MOL
REMARK 924 INTRA-LIGAND FREE ENERGY PREDICTED BY IDOCK:   -0.78 KCAL/MOL
REMARK 927      BINDING AFFINITY PREDICTED BY RF-SCORE:    0.00 PKD
ROOT
HETATM    1  C   UNL     1     -10.682  14.931  67.573  1.00  0.00    -0.276 C  
HETATM    2  C   UNL     1     -10.557  15.633  68.904  1.00  0.00    -0.228 C  
HETATM    3  C   UNL     1      -9.338  16.509  68.760  1.00  0.00    -0.247 C  
HETATM    4  O   UNL     1      -8.402  15.993  69.703  1.00  0.00    -0.117 OA 
HETATM    5  C   UNL     1      -7.144  16.176  69.094  1.00  0.00    -0.209 C  
HETATM    6  O   UNL     1      -7.306  16.156  67.670  1.00  0.00    -0.123 OA 
HETATM    7  C   UNL     1      -6.188  15.112  69.628  1.00  0.00    -0.135 C  
HETATM    8  C   UNL     1      -5.352  15.785  70.713  1.00  0.00    -0.130 C  
HETATM    9  C   UNL     1      -8.710  16.323  67.372  1.00  0.00    -0.182 C  
HETATM   10  O   UNL     1      -7.511  10.436  69.775  1.00  0.00    -0.150 OA 
HETATM   11  C   UNL     1      -5.591  17.282  70.620  1.00  0.00    -0.082 C  
HETATM   12  C   UNL     1      -9.360  15.040  66.747  1.00  0.00    -0.271 C  
HETATM   13  C   UNL     1      -6.589  17.530  69.505  1.00  0.00    -0.160 C  
HETATM   14  C   UNL     1      -8.279  10.584  68.858  1.00  0.00    -0.141 C  
HETATM   15  C   UNL     1      -9.746  10.665  69.056  1.00  0.00    -0.214 C  
HETATM   16  C   UNL     1      -9.887  14.971  65.273  1.00  0.00    -0.249 C  
HETATM   17  C   UNL     1      -8.261  13.987  66.712  1.00  0.00     0.169 C  
HETATM   18  C   UNL     1     -10.895  13.782  65.092  1.00  0.00    -0.345 C  
HETATM   19  C   UNL     1     -10.661  10.397  65.458  1.00  0.00    -0.088 C  
HETATM   20  C   UNL     1     -11.108  12.768  66.278  1.00  0.00    -0.288 C  
HETATM   21  O   UNL     1     -10.746  13.148  63.830  1.00  0.00    -0.501 OA 
HETATM   22  C   UNL     1     -10.227  11.370  66.596  1.00  0.00    -0.258 C  
HETATM   23  H   UNL     1     -11.357  12.428  63.721  1.00  0.00     0.000 HD 
HETATM   24  C   UNL     1     -11.496  13.635  67.503  1.00  0.00    -0.360 C  
HETATM   25  C   UNL     1      -8.690  11.130  66.496  1.00  0.00    -0.174 C  
HETATM   26  C   UNL     1      -7.841  10.745  67.468  1.00  0.00    -0.109 C  
HETATM   27  F   UNL     1     -12.379  12.242  65.922  1.00  0.00    -0.446 F  
HETATM   28  C   UNL     1     -11.837  12.876  68.794  1.00  0.00    -0.353 C  
HETATM   29  C   UNL     1     -11.978  11.375  68.542  1.00  0.00    -0.295 C  
HETATM   30  C   UNL     1     -10.613  10.971  68.063  1.00  0.00    -0.241 C  
ENDROOT
BRANCH   9  31
HETATM   31  C   UNL     1      -8.915  17.541  66.457  1.00  0.00    -0.261 C  
HETATM   32  O   UNL     1      -8.087  17.817  65.599  1.00  0.00    -0.518 OA 
BRANCH  31  33
HETATM   33  C   UNL     1     -10.108  18.440  66.767  1.00  0.00    -0.373 C  
BRANCH  33  34
HETATM   34  O   UNL     1      -9.738  19.824  66.863  1.00  0.00    -0.336 OA 
BRANCH  34  35
HETATM   35  C   UNL     1      -8.975  20.120  67.946  1.00  0.00    -0.231 C  
HETATM   36  O   UNL     1      -9.240  19.827  69.096  1.00  0.00    -0.244 OA 
HETATM   37  C   UNL     1      -7.697  20.801  67.522  1.00  0.00    -0.281 C  
ENDBRANCH  34  35
ENDBRANCH  33  34
ENDBRANCH  31  33
ENDBRANCH   9  31
TORSDOF 4
ENDMDL
MODEL        6
REMARK 921   NORMALIZED FREE ENERGY PREDICTED BY IDOCK:   -6.97 KCAL/MOL
REMARK 922        TOTAL FREE ENERGY PREDICTED BY IDOCK:   -9.17 KCAL/MOL
REMARK 923 INTER-LIGAND FREE ENERGY PREDICTED BY IDOCK:   -8.58 KCAL/MOL
REMARK 924 INTRA-LIGAND FREE ENERGY PREDICTED BY IDOCK:   -0.59 KCAL/MOL
REMARK 927      BINDING AFFINITY PREDICTED BY RF-SCORE:    0.00 PKD
ROOT
HETATM    1  C   UNL     1     -11.011  14.089  67.035  1.00  0.00    -0.302 C  
HETATM    2  C   UNL     1     -10.714  13.190  65.859  1.00  0.00    -0.287 C  
HETATM    3  C   UNL     1     -10.197  11.915  66.475  1.00  0.00    -0.203 C  
HETATM    4  O   UNL     1      -8.846  11.815  66.034  1.00  0.00    -0.163 OA 
HETATM    5  C   UNL     1      -8.161  11.217  67.111  1.00  0.00    -0.149 C  
HETATM    6  O   UNL     1      -8.836  11.541  68.333  1.00  0.00    -0.157 OA 
HETATM    7  C   UNL     1      -6.702  11.664  67.066  1.00  0.00    -0.145 C  
HETATM    8  C   UNL     1      -5.919  10.528  66.415  1.00  0.00    -0.084 C  
HETATM    9  C   UNL     1     -10.151  12.043  68.004  1.00  0.00    -0.198 C  
HETATM   10  O   UNL     1      -5.562  16.360  66.530  1.00  0.00    -0.278 OA 
HETATM   11  C   UNL     1      -6.832   9.316  66.347  1.00  0.00    -0.083 C  
HETATM   12  C   UNL     1     -10.327  13.566  68.338  1.00  0.00    -0.249 C  
HETATM   13  C   UNL     1      -8.177   9.708  66.928  1.00  0.00    -0.113 C  
HETATM   14  C   UNL     1      -6.601  16.710  67.031  1.00  0.00    -0.204 C  
HETATM   15  C   UNL     1      -7.733  17.232  66.229  1.00  0.00    -0.353 C  
HETATM   16  C   UNL     1     -11.291  14.097  69.453  1.00  0.00    -0.318 C  
HETATM   17  C   UNL     1      -8.980  14.037  68.869  1.00  0.00     0.059 C  
HETATM   18  C   UNL     1     -11.622  15.615  69.230  1.00  0.00    -0.366 C  
HETATM   19  C   UNL     1      -9.743  18.461  69.110  1.00  0.00    -0.145 C  
HETATM   20  C   UNL     1     -10.867  16.409  68.100  1.00  0.00    -0.346 C  
HETATM   21  O   UNL     1     -11.705  16.325  70.457  1.00  0.00    -0.469 OA 
HETATM   22  C   UNL     1      -9.399  17.222  68.230  1.00  0.00    -0.272 C  
HETATM   23  H   UNL     1     -11.906  17.244  70.322  1.00  0.00     0.000 HD 
HETATM   24  C   UNL     1     -11.097  15.600  66.797  1.00  0.00    -0.169 C  
HETATM   25  C   UNL     1      -8.100  16.795  68.978  1.00  0.00    -0.179 C  
HETATM   26  C   UNL     1      -6.866  16.612  68.470  1.00  0.00    -0.157 C  
HETATM   27  F   UNL     1     -11.781  17.480  67.903  1.00  0.00     0.193 F  
HETATM   28  C   UNL     1     -10.518  16.205  65.509  1.00  0.00    -0.407 C  
HETATM   29  C   UNL     1     -10.042  17.641  65.728  1.00  0.00    -0.098 C  
HETATM   30  C   UNL     1      -8.953  17.497  66.752  1.00  0.00    -0.272 C  
ENDROOT
BRANCH   9  31
HETATM   31  C   UNL     1     -11.229  11.201  68.705  1.00  0.00    -0.255 C  
HETATM   32  O   UNL     1     -12.391  11.238  68.320  1.00  0.00    -0.542 OA 
BRANCH  31  33
HETATM   33  C   UNL     1     -10.803  10.446  69.959  1.00  0.00    -0.289 C  
BRANCH  33  34
HETATM   34  O   UNL     1     -11.687  10.683  71.066  1.00  0.00    -0.325 OA 
BRANCH  34  35
HETATM   35  C   UNL     1     -11.938   9.583  71.821  1.00  0.00    -0.371 C  
HETATM   36  O   UNL     1     -11.106   8.775  72.187  1.00  0.00    -0.355 OA 
HETATM   37  C   UNL     1     -13.392   9.535  72.220  1.00  0.00    -0.526 C  
ENDBRANCH  34  35
ENDBRANCH  33  34
ENDBRANCH  31  33
ENDBRANCH   9  31
TORSDOF 4
ENDMDL
MODEL        7
REMARK 921   NORMALIZED FREE ENERGY PREDICTED BY IDOCK:   -6.94 KCAL/MOL
REMARK 922        TOTAL FREE ENERGY PREDICTED BY IDOCK:   -9.13 KCAL/MOL
REMARK 923 INTER-LIGAND FREE ENERGY PREDICTED BY IDOCK:   -8.60 KCAL/MOL
REMARK 924 INTRA-LIGAND FREE ENERGY PREDICTED BY IDOCK:   -0.53 KCAL/MOL
REMARK 927      BINDING AFFINITY PREDICTED BY RF-SCORE:    0.00 PKD
ROOT
HETATM    1  C   UNL     1     -11.022  10.436  68.354  1.00  0.00    -0.312 C  
HETATM    2  C   UNL     1     -11.268  11.810  68.931  1.00  0.00    -0.311 C  
HETATM    3  C   UNL     1     -10.629  12.756  67.946  1.00  0.00    -0.221 C  
HETATM    4  O   UNL     1      -9.570  13.377  68.669  1.00  0.00    -0.172 OA 
HETATM    5  C   UNL     1      -8.554  13.578  67.713  1.00  0.00    -0.183 C  
HETATM    6  O   UNL     1      -8.671  12.583  66.689  1.00  0.00    -0.187 OA 
HETATM    7  C   UNL     1      -7.206  13.580  68.430  1.00  0.00    -0.109 C  
HETATM    8  C   UNL     1      -6.814  15.043  68.616  1.00  0.00    -0.109 C  
HETATM    9  C   UNL     1      -9.976  11.971  66.800  1.00  0.00    -0.201 C  
HETATM   10  O   UNL     1      -6.085  10.078  71.610  1.00  0.00    -0.305 OA 
HETATM   11  C   UNL     1      -7.752  15.885  67.768  1.00  0.00    -0.156 C  
HETATM   12  C   UNL     1      -9.913  10.471  67.254  1.00  0.00    -0.224 C  
HETATM   13  C   UNL     1      -8.733  14.951  67.084  1.00  0.00    -0.240 C  
HETATM   14  C   UNL     1      -6.819   9.293  71.065  1.00  0.00    -0.089 C  
HETATM   15  C   UNL     1      -8.142   8.922  71.622  1.00  0.00    -0.088 C  
HETATM   16  C   UNL     1     -10.325   9.274  66.332  1.00  0.00    -0.238 C  
HETATM   17  C   UNL     1      -8.439  10.165  67.487  1.00  0.00    -0.118 C  
HETATM   18  C   UNL     1     -10.624   7.989  67.182  1.00  0.00    -0.297 C  
HETATM   19  C   UNL     1      -8.775   6.071  69.314  1.00  0.00    -0.117 C  
HETATM   20  C   UNL     1     -10.328   8.003  68.728  1.00  0.00    -0.206 C  
HETATM   21  O   UNL     1     -10.173   6.808  66.535  1.00  0.00    -0.391 OA 
HETATM   22  C   UNL     1      -8.881   7.615  69.495  1.00  0.00    -0.139 C  
HETATM   23  H   UNL     1     -10.354   6.030  67.049  1.00  0.00     0.000 HD 
HETATM   24  C   UNL     1     -11.102   9.225  69.289  1.00  0.00    -0.031 C  
HETATM   25  C   UNL     1      -7.421   7.971  69.081  1.00  0.00    -0.095 C  
HETATM   26  C   UNL     1      -6.501   8.664  69.778  1.00  0.00    -0.038 C  
HETATM   27  F   UNL     1     -11.179   6.945  69.149  1.00  0.00    -0.247 F  
HETATM   28  C   UNL     1     -11.042   9.429  70.810  1.00  0.00    -0.365 C  
HETATM   29  C   UNL     1     -10.432   8.218  71.515  1.00  0.00    -0.289 C  
HETATM   30  C   UNL     1      -9.038   8.154  70.959  1.00  0.00    -0.176 C  
ENDROOT
BRANCH   9  31
HETATM   31  C   UNL     1     -10.740  12.109  65.473  1.00  0.00    -0.283 C  
HETATM   32  O   UNL     1     -10.169  11.914  64.407  1.00  0.00    -0.270 OA 
BRANCH  31  33
HETATM   33  C   UNL     1     -12.173  12.625  65.555  1.00  0.00    -0.440 C  
BRANCH  33  34
HETATM   34  O   UNL     1     -12.235  14.058  65.600  1.00  0.00    -0.394 OA 
BRANCH  34  35
HETATM   35  C   UNL     1     -12.096  14.658  64.390  1.00  0.00    -0.462 C  
HETATM   36  O   UNL     1     -12.572  14.255  63.345  1.00  0.00    -0.777 OA 
HETATM   37  C   UNL     1     -11.332  15.952  64.525  1.00  0.00    -0.316 C  
ENDBRANCH  34  35
ENDBRANCH  33  34
ENDBRANCH  31  33
ENDBRANCH   9  31
TORSDOF 4
ENDMDL
MODEL        8
REMARK 921   NORMALIZED FREE ENERGY PREDICTED BY IDOCK:   -6.86 KCAL/MOL
REMARK 922        TOTAL FREE ENERGY PREDICTED BY IDOCK:   -9.03 KCAL/MOL
REMARK 923 INTER-LIGAND FREE ENERGY PREDICTED BY IDOCK:   -8.50 KCAL/MOL
REMARK 924 INTRA-LIGAND FREE ENERGY PREDICTED BY IDOCK:   -0.53 KCAL/MOL
REMARK 927      BINDING AFFINITY PREDICTED BY RF-SCORE:    0.00 PKD
ROOT
HETATM    1  C   UNL     1     -11.131  11.050  68.638  1.00  0.00    -0.294 C  
HETATM    2  C   UNL     1     -11.450  12.258  69.487  1.00  0.00    -0.318 C  
HETATM    3  C   UNL     1     -11.075  13.438  68.627  1.00  0.00    -0.263 C  
HETATM    4  O   UNL     1     -10.002  14.070  69.321  1.00  0.00    -0.004 OA 
HETATM    5  C   UNL     1      -9.165  14.572  68.303  1.00  0.00    -0.201 C  
HETATM    6  O   UNL     1      -9.312  13.758  67.133  1.00  0.00    -0.222 OA 
HETATM    7  C   UNL     1      -7.737  14.641  68.840  1.00  0.00    -0.141 C  
HETATM    8  C   UNL     1      -7.496  16.091  69.248  1.00  0.00    -0.228 C  
HETATM    9  C   UNL     1     -10.507  12.959  67.284  1.00  0.00    -0.234 C  
HETATM   10  O   UNL     1      -5.769  10.842  71.149  1.00  0.00    -0.301 OA 
HETATM   11  C   UNL     1      -8.638  16.925  68.692  1.00  0.00    -0.267 C  
HETATM   12  C   UNL     1     -10.204  11.428  67.438  1.00  0.00    -0.221 C  
HETATM   13  C   UNL     1      -9.592  15.992  67.969  1.00  0.00    -0.215 C  
HETATM   14  C   UNL     1      -6.477  10.066  70.559  1.00  0.00    -0.121 C  
HETATM   15  C   UNL     1      -7.653   9.424  71.193  1.00  0.00     0.042 C  
HETATM   16  C   UNL     1     -10.602  10.358  66.365  1.00  0.00    -0.198 C  
HETATM   17  C   UNL     1      -8.687  11.297  67.430  1.00  0.00    -0.139 C  
HETATM   18  C   UNL     1     -10.623   8.919  66.989  1.00  0.00    -0.209 C  
HETATM   19  C   UNL     1      -8.275   6.946  68.485  1.00  0.00    -0.121 C  
HETATM   20  C   UNL     1     -10.112   8.712  68.463  1.00  0.00    -0.190 C  
HETATM   21  O   UNL     1     -10.136   7.941  66.082  1.00  0.00    -0.469 OA 
HETATM   22  C   UNL     1      -8.534   8.407  68.963  1.00  0.00    -0.123 C  
HETATM   23  H   UNL     1     -10.149   7.068  66.460  1.00  0.00     0.000 HD 
HETATM   24  C   UNL     1     -10.934   9.699  69.332  1.00  0.00    -0.215 C  
HETATM   25  C   UNL     1      -7.200   9.029  68.450  1.00  0.00    -0.077 C  
HETATM   26  C   UNL     1      -6.277   9.717  69.148  1.00  0.00    -0.041 C  
HETATM   27  F   UNL     1     -10.763   7.489  68.778  1.00  0.00    -0.211 F  
HETATM   28  C   UNL     1     -10.680   9.648  70.846  1.00  0.00    -0.402 C  
HETATM   29  C   UNL     1      -9.837   8.433  71.233  1.00  0.00    -0.255 C  
HETATM   30  C   UNL     1      -8.540   8.662  70.511  1.00  0.00    -0.170 C  
ENDROOT
BRANCH   9  31
HETATM   31  C   UNL     1     -11.464  13.212  66.109  1.00  0.00    -0.330 C  
HETATM   32  O   UNL     1     -12.659  12.971  66.221  1.00  0.00    -0.383 OA 
BRANCH  31  33
HETATM   33  C   UNL     1     -10.833  13.637  64.787  1.00  0.00    -0.394 C  
BRANCH  33  34
HETATM   34  O   UNL     1     -11.725  13.466  63.676  1.00  0.00    -0.411 OA 
BRANCH  34  35
HETATM   35  C   UNL     1     -11.942  12.170  63.333  1.00  0.00    -0.481 C  
HETATM   36  O   UNL     1     -13.034  11.648  63.209  1.00  0.00    -0.489 OA 
HETATM   37  C   UNL     1     -10.636  11.473  63.043  1.00  0.00    -0.206 C  
ENDBRANCH  34  35
ENDBRANCH  33  34
ENDBRANCH  31  33
ENDBRANCH   9  31
TORSDOF 4
ENDMDL
MODEL        9
REMARK 921   NORMALIZED FREE ENERGY PREDICTED BY IDOCK:   -6.80 KCAL/MOL
REMARK 922        TOTAL FREE ENERGY PREDICTED BY IDOCK:   -8.95 KCAL/MOL
REMARK 923 INTER-LIGAND FREE ENERGY PREDICTED BY IDOCK:   -8.57 KCAL/MOL
REMARK 924 INTRA-LIGAND FREE ENERGY PREDICTED BY IDOCK:   -0.38 KCAL/MOL
REMARK 927      BINDING AFFINITY PREDICTED BY RF-SCORE:    0.00 PKD
ROOT
HETATM    1  C   UNL     1      -8.804  11.332  68.909  1.00  0.00    -0.055 C  
HETATM    2  C   UNL     1      -8.669  12.660  68.203  1.00  0.00    -0.190 C  
HETATM    3  C   UNL     1     -10.083  13.057  67.863  1.00  0.00    -0.235 C  
HETATM    4  O   UNL     1     -10.130  13.065  66.439  1.00  0.00    -0.265 OA 
HETATM    5  C   UNL     1     -11.435  12.633  66.122  1.00  0.00    -0.365 C  
HETATM    6  O   UNL     1     -11.918  11.790  67.175  1.00  0.00    -0.617 OA 
HETATM    7  C   UNL     1     -11.404  11.964  64.750  1.00  0.00    -0.344 C  
HETATM    8  C   UNL     1     -11.898  13.003  63.748  1.00  0.00    -0.566 C  
HETATM    9  C   UNL     1     -11.067  11.974  68.329  1.00  0.00    -0.243 C  
HETATM   10  O   UNL     1      -8.043   8.612  63.701  1.00  0.00    -0.154 OA 
HETATM   11  C   UNL     1     -12.492  14.159  64.535  1.00  0.00    -0.350 C  
HETATM   12  C   UNL     1     -10.214  10.702  68.671  1.00  0.00    -0.196 C  
HETATM   13  C   UNL     1     -12.342  13.848  66.012  1.00  0.00    -0.511 C  
HETATM   14  C   UNL     1      -7.931   8.304  64.861  1.00  0.00    -0.144 C  
HETATM   15  C   UNL     1      -6.776   8.729  65.687  1.00  0.00    -0.068 C  
HETATM   16  C   UNL     1     -10.419   9.851  69.970  1.00  0.00    -0.331 C  
HETATM   17  C   UNL     1     -10.544   9.676  67.595  1.00  0.00    -0.334 C  
HETATM   18  C   UNL     1      -9.151   8.979  70.274  1.00  0.00    -0.202 C  
HETATM   19  C   UNL     1      -7.507   6.511  68.586  1.00  0.00    -0.088 C  
HETATM   20  C   UNL     1      -7.979   8.932  69.224  1.00  0.00    -0.104 C  
HETATM   21  O   UNL     1      -9.497   7.701  70.787  1.00  0.00    -0.162 OA 
HETATM   22  C   UNL     1      -7.821   7.884  67.917  1.00  0.00    -0.127 C  
HETATM   23  H   UNL     1      -8.729   7.173  70.972  1.00  0.00     0.000 HD 
HETATM   24  C   UNL     1      -7.582  10.411  68.977  1.00  0.00    -0.108 C  
HETATM   25  C   UNL     1      -8.908   7.382  66.920  1.00  0.00    -0.140 C  
HETATM   26  C   UNL     1      -8.942   7.523  65.581  1.00  0.00    -0.012 C  
HETATM   27  F   UNL     1      -6.913   8.517  70.067  1.00  0.00    -0.041 F  
HETATM   28  C   UNL     1      -6.394  10.648  68.033  1.00  0.00    -0.058 C  
HETATM   29  C   UNL     1      -5.659   9.346  67.718  1.00  0.00    -0.037 C  
HETATM   30  C   UNL     1      -6.699   8.516  67.021  1.00  0.00    -0.062 C  
ENDROOT
BRANCH   9  31
HETATM   31  C   UNL     1     -11.905  12.413  69.540  1.00  0.00    -0.303 C  
HETATM   32  O   UNL     1     -12.757  11.667  70.005  1.00  0.00    -0.027 OA 
BRANCH  31  33
HETATM   33  C   UNL     1     -11.713  13.845  70.026  1.00  0.00    -0.268 C  
BRANCH  33  34
HETATM   34  O   UNL     1     -12.886  14.364  70.672  1.00  0.00    -0.343 OA 
BRANCH  34  35
HETATM   35  C   UNL     1     -12.745  14.554  72.009  1.00  0.00    -0.338 C  
HETATM   36  O   UNL     1     -13.303  13.907  72.875  1.00  0.00    -0.604 OA 
HETATM   37  C   UNL     1     -11.730  15.636  72.286  1.00  0.00    -0.579 C  
ENDBRANCH  34  35
ENDBRANCH  33  34
ENDBRANCH  31  33
ENDBRANCH   9  31
TORSDOF 4
ENDMDL
MODEL       10
REMARK 921   NORMALIZED FREE ENERGY PREDICTED BY IDOCK:   -6.73 KCAL/MOL
REMARK 922        TOTAL FREE ENERGY PREDICTED BY IDOCK:   -8.87 KCAL/MOL
REMARK 923 INTER-LIGAND FREE ENERGY PREDICTED BY IDOCK:   -8.28 KCAL/MOL
REMARK 924 INTRA-LIGAND FREE ENERGY PREDICTED BY IDOCK:   -0.60 KCAL/MOL
REMARK 927      BINDING AFFINITY PREDICTED BY RF-SCORE:    0.00 PKD
ROOT
HETATM    1  C   UNL     1     -10.095  13.191  66.779  1.00  0.00    -0.253 C  
HETATM    2  C   UNL     1     -11.574  13.494  66.811  1.00  0.00    -0.397 C  
HETATM    3  C   UNL     1     -11.734  14.493  67.928  1.00  0.00    -0.351 C  
HETATM    4  O   UNL     1     -12.532  13.828  68.904  1.00  0.00    -0.173 OA 
HETATM    5  C   UNL     1     -12.053  14.303  70.142  1.00  0.00    -0.339 C  
HETATM    6  O   UNL     1     -10.676  14.673  70.000  1.00  0.00    -0.137 OA 
HETATM    7  C   UNL     1     -12.306  13.234  71.202  1.00  0.00    -0.323 C  
HETATM    8  C   UNL     1     -13.571  13.651  71.947  1.00  0.00    -0.512 C  
HETATM    9  C   UNL     1     -10.378  14.775  68.589  1.00  0.00    -0.245 C  
HETATM   10  O   UNL     1     -11.073   8.601  70.396  1.00  0.00    -0.240 OA 
HETATM   11  C   UNL     1     -13.894  15.080  71.546  1.00  0.00    -0.570 C  
HETATM   12  C   UNL     1      -9.389  13.664  68.090  1.00  0.00    -0.212 C  
HETATM   13  C   UNL     1     -12.852  15.533  70.541  1.00  0.00    -0.402 C  
HETATM   14  C   UNL     1     -10.204   8.925  69.627  1.00  0.00    -0.206 C  
HETATM   15  C   UNL     1     -10.354   8.797  68.158  1.00  0.00    -0.266 C  
HETATM   16  C   UNL     1      -7.935  13.965  67.592  1.00  0.00    -0.181 C  
HETATM   17  C   UNL     1      -9.106  12.781  69.299  1.00  0.00     0.957 C  
HETATM   18  C   UNL     1      -7.384  12.780  66.722  1.00  0.00     0.456 C  
HETATM   19  C   UNL     1      -6.791   9.473  67.320  1.00  0.00    -0.084 C  
HETATM   20  C   UNL     1      -8.226  11.455  66.607  1.00  0.00    -0.163 C  
HETATM   21  O   UNL     1      -6.002  12.551  66.954  1.00  0.00    -0.465 OA 
HETATM   22  C   UNL     1      -8.174  10.121  67.631  1.00  0.00    -0.110 C  
HETATM   23  H   UNL     1      -5.668  11.833  66.427  1.00  0.00     0.000 HD 
HETATM   24  C   UNL     1      -9.628  11.893  66.112  1.00  0.00    -0.250 C  
HETATM   25  C   UNL     1      -8.076  10.076  69.186  1.00  0.00    -0.126 C  
HETATM   26  C   UNL     1      -8.934   9.518  70.062  1.00  0.00    -0.249 C  
HETATM   27  F   UNL     1      -7.682  10.926  65.405  1.00  0.00    -0.131 F  
HETATM   28  C   UNL     1     -10.637  10.767  65.841  1.00  0.00    -0.216 C  
HETATM   29  C   UNL     1      -9.967   9.394  65.868  1.00  0.00    -0.327 C  
HETATM   30  C   UNL     1      -9.452   9.283  67.274  1.00  0.00    -0.181 C  
ENDROOT
BRANCH   9  31
HETATM   31  C   UNL     1      -9.836  16.175  68.263  1.00  0.00    -0.224 C  
HETATM   32  O   UNL     1      -9.049  16.727  69.022  1.00  0.00    -0.256 OA 
BRANCH  31  33
HETATM   33  C   UNL     1     -10.427  16.874  67.043  1.00  0.00    -0.281 C  
BRANCH  33  34
HETATM   34  O   UNL     1     -10.877  18.204  67.341  1.00  0.00    -0.374 OA 
BRANCH  34  35
HETATM   35  C   UNL     1     -10.346  19.163  66.539  1.00  0.00    -0.442 C  
HETATM   36  O   UNL     1     -10.532  19.262  65.341  1.00  0.00    -0.451 OA 
HETATM   37  C   UNL     1      -9.547  20.151  67.353  1.00  0.00    -0.551 C  
ENDBRANCH  34  35
ENDBRANCH  33  34
ENDBRANCH  31  33
ENDBRANCH   9  31
TORSDOF 4
ENDMDL
MODEL       11
REMARK 921   NORMALIZED FREE ENERGY PREDICTED BY IDOCK:   -6.69 KCAL/MOL
REMARK 922        TOTAL FREE ENERGY PREDICTED BY IDOCK:   -8.82 KCAL/MOL
REMARK 923 INTER-LIGAND FREE ENERGY PREDICTED BY IDOCK:   -8.24 KCAL/MOL
REMARK 924 INTRA-LIGAND FREE ENERGY PREDICTED BY IDOCK:   -0.58 KCAL/MOL
REMARK 927      BINDING AFFINITY PREDICTED BY RF-SCORE:    0.00 PKD
ROOT
HETATM    1  C   UNL     1     -10.909   9.941  68.960  1.00  0.00    -0.242 C  
HETATM    2  C   UNL     1     -10.928  11.411  69.304  1.00  0.00    -0.282 C  
HETATM    3  C   UNL     1     -10.013  12.051  68.290  1.00  0.00    -0.203 C  
HETATM    4  O   UNL     1      -8.929  12.573  69.052  1.00  0.00     0.240 OA 
HETATM    5  C   UNL     1      -7.802  12.425  68.218  1.00  0.00    -0.150 C  
HETATM    6  O   UNL     1      -8.015  11.317  67.336  1.00  0.00    -0.122 OA 
HETATM    7  C   UNL     1      -6.561  12.292  69.099  1.00  0.00    -0.105 C  
HETATM    8  C   UNL     1      -5.901  13.667  69.130  1.00  0.00    -0.084 C  
HETATM    9  C   UNL     1      -9.422  10.984  67.358  1.00  0.00    -0.160 C  
HETATM   10  O   UNL     1      -6.503   9.203  72.852  1.00  0.00    -0.313 OA 
HETATM   11  C   UNL     1      -6.557  14.520  68.058  1.00  0.00    -0.156 C  
HETATM   12  C   UNL     1      -9.711   9.591  68.020  1.00  0.00    -0.168 C  
HETATM   13  C   UNL     1      -7.633  13.688  67.388  1.00  0.00    -0.144 C  
HETATM   14  C   UNL     1      -7.322   8.490  72.329  1.00  0.00    -0.057 C  
HETATM   15  C   UNL     1      -8.742   8.466  72.755  1.00  0.00    -0.256 C  
HETATM   16  C   UNL     1     -10.262   8.358  67.227  1.00  0.00    -0.349 C  
HETATM   17  C   UNL     1      -8.361   9.059  68.484  1.00  0.00    -0.124 C  
HETATM   18  C   UNL     1     -10.900   7.306  68.200  1.00  0.00    -0.068 C  
HETATM   19  C   UNL     1      -9.705   5.447  70.801  1.00  0.00    -0.239 C  
HETATM   20  C   UNL     1     -10.766   7.515  69.755  1.00  0.00    -0.242 C  
HETATM   21  O   UNL     1     -10.636   5.973  67.787  1.00  0.00    -0.212 OA 
HETATM   22  C   UNL     1      -9.513   6.993  70.750  1.00  0.00    -0.161 C  
HETATM   23  H   UNL     1     -11.023   5.336  68.376  1.00  0.00     0.000 HD 
HETATM   24  C   UNL     1     -11.328   8.933  70.035  1.00  0.00    -0.050 C  
HETATM   25  C   UNL     1      -7.977   7.000  70.485  1.00  0.00    -0.113 C  
HETATM   26  C   UNL     1      -7.010   7.614  71.194  1.00  0.00    -0.050 C  
HETATM   27  F   UNL     1     -11.852   6.715  70.203  1.00  0.00    -0.415 F  
HETATM   28  C   UNL     1     -11.382   9.365  71.508  1.00  0.00    -0.464 C  
HETATM   29  C   UNL     1     -11.105   8.192  72.447  1.00  0.00    -0.437 C  
HETATM   30  C   UNL     1      -9.704   7.782  72.093  1.00  0.00    -0.240 C  
ENDROOT
BRANCH   9  31
HETATM   31  C   UNL     1     -10.003  11.045  65.937  1.00  0.00    -0.240 C  
HETATM   32  O   UNL     1      -9.388  10.562  64.995  1.00  0.00    -0.188 OA 
BRANCH  31  33
HETATM   33  C   UNL     1     -11.289  11.844  65.755  1.00  0.00    -0.299 C  
BRANCH  33  34
HETATM   34  O   UNL     1     -11.080  13.051  65.005  1.00  0.00    -0.283 OA 
BRANCH  34  35
HETATM   35  C   UNL     1     -12.046  13.306  64.085  1.00  0.00    -0.432 C  
HETATM   36  O   UNL     1     -12.516  14.402  63.843  1.00  0.00    -0.798 OA 
HETATM   37  C   UNL     1     -12.408  12.048  63.334  1.00  0.00    -0.635 C  
ENDBRANCH  34  35
ENDBRANCH  33  34
ENDBRANCH  31  33
ENDBRANCH   9  31
TORSDOF 4
ENDMDL
MODEL       12
REMARK 921   NORMALIZED FREE ENERGY PREDICTED BY IDOCK:   -6.59 KCAL/MOL
REMARK 922        TOTAL FREE ENERGY PREDICTED BY IDOCK:   -8.70 KCAL/MOL
REMARK 923 INTER-LIGAND FREE ENERGY PREDICTED BY IDOCK:   -8.44 KCAL/MOL
REMARK 924 INTRA-LIGAND FREE ENERGY PREDICTED BY IDOCK:   -0.26 KCAL/MOL
REMARK 927      BINDING AFFINITY PREDICTED BY RF-SCORE:    0.00 PKD
ROOT
HETATM    1  C   UNL     1      -8.667  12.941  66.992  1.00  0.00    -0.195 C  
HETATM    2  C   UNL     1      -7.986  11.917  67.867  1.00  0.00    -0.144 C  
HETATM    3  C   UNL     1      -8.883  10.706  67.805  1.00  0.00    -0.133 C  
HETATM    4  O   UNL     1      -9.364  10.538  69.136  1.00  0.00    -0.194 OA 
HETATM    5  C   UNL     1     -10.676  10.047  68.982  1.00  0.00    -0.220 C  
HETATM    6  O   UNL     1     -11.207  10.511  67.735  1.00  0.00    -0.303 OA 
HETATM    7  C   UNL     1     -11.496  10.462  70.202  1.00  0.00    -0.396 C  
HETATM    8  C   UNL     1     -11.542   9.250  71.128  1.00  0.00    -0.397 C  
HETATM    9  C   UNL     1     -10.109  10.996  66.929  1.00  0.00    -0.210 C  
HETATM   10  O   UNL     1     -11.415  15.054  71.797  1.00  0.00    -0.381 OA 
HETATM   11  C   UNL     1     -11.024   8.053  70.350  1.00  0.00    -0.248 C  
HETATM   12  C   UNL     1     -10.152  12.549  66.707  1.00  0.00    -0.233 C  
HETATM   13  C   UNL     1     -10.635   8.527  68.962  1.00  0.00    -0.173 C  
HETATM   14  C   UNL     1     -11.152  15.472  70.698  1.00  0.00    -0.352 C  
HETATM   15  C   UNL     1      -9.791  15.924  70.325  1.00  0.00     0.357 C  
HETATM   16  C   UNL     1     -10.407  13.212  65.311  1.00  0.00    -0.319 C  
HETATM   17  C   UNL     1     -11.357  13.051  67.492  1.00  0.00    -0.346 C  
HETATM   18  C   UNL     1      -9.916  14.703  65.301  1.00  0.00    -0.294 C  
HETATM   19  C   UNL     1     -10.752  17.488  67.087  1.00  0.00    -0.191 C  
HETATM   20  C   UNL     1      -9.423  15.359  66.645  1.00  0.00    -0.259 C  
HETATM   21  O   UNL     1     -10.782  15.541  64.550  1.00  0.00    -0.648 OA 
HETATM   22  C   UNL     1     -10.359  16.156  67.794  1.00  0.00    -0.283 C  
HETATM   23  H   UNL     1     -10.484  16.444  64.544  1.00  0.00     0.000 HD 
HETATM   24  C   UNL     1      -8.315  14.419  67.185  1.00  0.00    -0.214 C  
HETATM   25  C   UNL     1     -11.772  15.790  68.340  1.00  0.00    -0.279 C  
HETATM   26  C   UNL     1     -12.135  15.533  69.611  1.00  0.00    -0.352 C  
HETATM   27  F   UNL     1      -8.632  16.417  66.122  1.00  0.00    -0.296 F  
HETATM   28  C   UNL     1      -7.604  14.873  68.469  1.00  0.00    -0.121 C  
HETATM   29  C   UNL     1      -7.959  16.316  68.827  1.00  0.00    -0.221 C  
HETATM   30  C   UNL     1      -9.442  16.264  69.062  1.00  0.00    -0.258 C  
ENDROOT
BRANCH   9  31
HETATM   31  C   UNL     1     -10.070  10.252  65.585  1.00  0.00    -0.271 C  
HETATM   32  O   UNL     1     -10.759  10.632  64.647  1.00  0.00    -0.234 OA 
BRANCH  31  33
HETATM   33  C   UNL     1      -9.251   8.967  65.535  1.00  0.00    -0.178 C  
BRANCH  33  34
HETATM   34  O   UNL     1      -8.479   8.858  64.329  1.00  0.00    -0.177 OA 
BRANCH  34  35
HETATM   35  C   UNL     1      -7.263   9.458  64.393  1.00  0.00    -0.105 C  
HETATM   36  O   UNL     1      -6.876  10.345  63.657  1.00  0.00    -0.106 OA 
HETATM   37  C   UNL     1      -6.472   8.928  65.565  1.00  0.00    -0.067 C  
ENDBRANCH  34  35
ENDBRANCH  33  34
ENDBRANCH  31  33
ENDBRANCH   9  31
TORSDOF 4
ENDMDL
MODEL       13
REMARK 921   NORMALIZED FREE ENERGY PREDICTED BY IDOCK:   -6.57 KCAL/MOL
REMARK 922        TOTAL FREE ENERGY PREDICTED BY IDOCK:   -8.67 KCAL/MOL
REMARK 923 INTER-LIGAND FREE ENERGY PREDICTED BY IDOCK:   -7.77 KCAL/MOL
REMARK 924 INTRA-LIGAND FREE ENERGY PREDICTED BY IDOCK:   -0.91 KCAL/MOL
REMARK 927      BINDING AFFINITY PREDICTED BY RF-SCORE:    0.00 PKD
ROOT
HETATM    1  C   UNL     1      -8.761  11.616  67.582  1.00  0.00    -0.156 C  
HETATM    2  C   UNL     1      -8.055  10.907  68.713  1.00  0.00    -0.145 C  
HETATM    3  C   UNL     1      -8.861   9.653  68.938  1.00  0.00    -0.136 C  
HETATM    4  O   UNL     1      -9.394   9.792  70.252  1.00  0.00    -0.247 OA 
HETATM    5  C   UNL     1     -10.661   9.174  70.191  1.00  0.00    -0.228 C  
HETATM    6  O   UNL     1     -11.159   9.260  68.850  1.00  0.00    -0.080 OA 
HETATM    7  C   UNL     1     -11.567   9.820  71.236  1.00  0.00    -0.465 C  
HETATM    8  C   UNL     1     -11.575   8.885  72.442  1.00  0.00    -0.237 C  
HETATM    9  C   UNL     1     -10.059   9.610  67.980  1.00  0.00    -0.178 C  
HETATM   10  O   UNL     1     -11.886  14.658  71.592  1.00  0.00    -0.342 OA 
HETATM   11  C   UNL     1     -10.936   7.574  72.016  1.00  0.00    -0.282 C  
HETATM   12  C   UNL     1     -10.199  11.045  67.363  1.00  0.00    -0.229 C  
HETATM   13  C   UNL     1     -10.512   7.708  70.565  1.00  0.00    -0.221 C  
HETATM   14  C   UNL     1     -11.598  14.802  70.431  1.00  0.00    -0.279 C  
HETATM   15  C   UNL     1     -10.255  15.251  69.995  1.00  0.00    -0.216 C  
HETATM   16  C   UNL     1     -10.429  11.308  65.836  1.00  0.00    -0.314 C  
HETATM   17  C   UNL     1     -11.473  11.634  67.954  1.00  0.00    -0.381 C  
HETATM   18  C   UNL     1     -10.043  12.781  65.456  1.00  0.00    -0.264 C  
HETATM   19  C   UNL     1     -11.159  15.854  66.434  1.00  0.00    -0.015 C  
HETATM   20  C   UNL     1      -9.665  13.796  66.598  1.00  0.00    -0.289 C  
HETATM   21  O   UNL     1     -10.926  13.327  64.488  1.00  0.00    -0.343 OA 
HETATM   22  C   UNL     1     -10.710  14.782  67.474  1.00  0.00    -0.269 C  
HETATM   23  H   UNL     1     -10.692  14.219  64.257  1.00  0.00     0.000 HD 
HETATM   24  C   UNL     1      -8.522  13.118  67.397  1.00  0.00    -0.201 C  
HETATM   25  C   UNL     1     -12.120  14.455  68.053  1.00  0.00    -0.266 C  
HETATM   26  C   UNL     1     -12.528  14.504  69.335  1.00  0.00    -0.113 C  
HETATM   27  F   UNL     1      -8.924  14.745  65.845  1.00  0.00    -0.249 F  
HETATM   28  C   UNL     1      -7.910  13.940  68.541  1.00  0.00    -0.139 C  
HETATM   29  C   UNL     1      -8.383  15.393  68.503  1.00  0.00    -0.151 C  
HETATM   30  C   UNL     1      -9.867  15.284  68.698  1.00  0.00    -0.211 C  
ENDROOT
BRANCH   9  31
HETATM   31  C   UNL     1      -9.901   8.553  66.876  1.00  0.00    -0.242 C  
HETATM   32  O   UNL     1     -10.836   7.819  66.583  1.00  0.00    -0.143 OA 
BRANCH  31  33
HETATM   33  C   UNL     1      -8.507   8.384  66.280  1.00  0.00    -0.127 C  
BRANCH  33  34
HETATM   34  O   UNL     1      -8.547   8.030  64.890  1.00  0.00    -0.099 OA 
BRANCH  34  35
HETATM   35  C   UNL     1      -8.162   9.027  64.052  1.00  0.00    -0.167 C  
HETATM   36  O   UNL     1      -8.642   9.252  62.957  1.00  0.00    -0.203 OA 
HETATM   37  C   UNL     1      -7.100   9.882  64.699  1.00  0.00    -0.137 C  
ENDBRANCH  34  35
ENDBRANCH  33  34
ENDBRANCH  31  33
ENDBRANCH   9  31
TORSDOF 4
ENDMDL
MODEL       14
REMARK 921   NORMALIZED FREE ENERGY PREDICTED BY IDOCK:   -6.44 KCAL/MOL
REMARK 922        TOTAL FREE ENERGY PREDICTED BY IDOCK:   -8.51 KCAL/MOL
REMARK 923 INTER-LIGAND FREE ENERGY PREDICTED BY IDOCK:   -7.93 KCAL/MOL
REMARK 924 INTRA-LIGAND FREE ENERGY PREDICTED BY IDOCK:   -0.58 KCAL/MOL
REMARK 927      BINDING AFFINITY PREDICTED BY RF-SCORE:    0.00 PKD
ROOT
HETATM    1  C   UNL     1      -9.966  10.582  66.842  1.00  0.00    -0.246 C  
HETATM    2  C   UNL     1     -11.368  11.118  66.681  1.00  0.00    -0.079 C  
HETATM    3  C   UNL     1     -11.301  12.526  67.217  1.00  0.00    -0.315 C  
HETATM    4  O   UNL     1     -12.153  12.524  68.359  1.00  0.00    -0.272 OA 
HETATM    5  C   UNL     1     -11.541  13.417  69.263  1.00  0.00    -0.310 C  
HETATM    6  O   UNL     1     -10.130  13.437  69.017  1.00  0.00    -0.059 OA 
HETATM    7  C   UNL     1     -11.921  13.005  70.683  1.00  0.00    -0.224 C  
HETATM    8  C   UNL     1     -13.059  13.927  71.113  1.00  0.00    -0.351 C  
HETATM    9  C   UNL     1      -9.886  12.836  67.725  1.00  0.00    -0.220 C  
HETATM   10  O   UNL     1     -11.537   8.374  72.111  1.00  0.00    -0.322 OA 
HETATM   11  C   UNL     1     -13.153  15.052  70.096  1.00  0.00    -0.018 C  
HETATM   12  C   UNL     1      -9.128  11.466  67.820  1.00  0.00    -0.158 C  
HETATM   13  C   UNL     1     -12.099  14.812  69.032  1.00  0.00    -0.256 C  
HETATM   14  C   UNL     1     -10.663   8.158  71.310  1.00  0.00    -0.227 C  
HETATM   15  C   UNL     1     -10.904   7.408  70.055  1.00  0.00    -0.266 C  
HETATM   16  C   UNL     1      -7.669  11.251  67.290  1.00  0.00    -0.138 C  
HETATM   17  C   UNL     1      -8.941  11.192  69.306  1.00  0.00     0.162 C  
HETATM   18  C   UNL     1      -7.371   9.726  67.073  1.00  0.00    -0.091 C  
HETATM   19  C   UNL     1      -7.322   7.001  69.127  1.00  0.00    -0.092 C  
HETATM   20  C   UNL     1      -8.430   8.660  67.542  1.00  0.00    -0.124 C  
HETATM   21  O   UNL     1      -6.039   9.390  67.431  1.00  0.00    -0.049 OA 
HETATM   22  C   UNL     1      -8.558   7.948  69.061  1.00  0.00    -0.135 C  
HETATM   23  H   UNL     1      -5.858   8.466  67.299  1.00  0.00     0.000 HD 
HETATM   24  C   UNL     1      -9.760   9.064  66.853  1.00  0.00    -0.260 C  
HETATM   25  C   UNL     1      -8.394   8.596  70.469  1.00  0.00    -0.147 C  
HETATM   26  C   UNL     1      -9.291   8.654  71.472  1.00  0.00    -0.319 C  
HETATM   27  F   UNL     1      -8.044   7.559  66.731  1.00  0.00    -0.111 F  
HETATM   28  C   UNL     1     -10.958   8.132  67.088  1.00  0.00     0.093 C  
HETATM   29  C   UNL     1     -10.531   6.827  67.758  1.00  0.00    -0.274 C  
HETATM   30  C   UNL     1      -9.975   7.276  69.079  1.00  0.00    -0.177 C  
ENDROOT
BRANCH   9  31
HETATM   31  C   UNL     1      -9.130  13.819  66.818  1.00  0.00    -0.221 C  
HETATM   32  O   UNL     1      -8.105  14.360  67.211  1.00  0.00    -0.188 OA 
BRANCH  31  33
HETATM   33  C   UNL     1      -9.790  14.176  65.490  1.00  0.00    -0.230 C  
BRANCH  33  34
HETATM   34  O   UNL     1     -10.135  15.567  65.409  1.00  0.00    -0.356 OA 
BRANCH  34  35
HETATM   35  C   UNL     1     -11.180  15.831  64.583  1.00  0.00    -0.363 C  
HETATM   36  O   UNL     1     -11.354  16.873  63.978  1.00  0.00    -1.109 OA 
HETATM   37  C   UNL     1     -12.068  14.619  64.447  1.00  0.00    -0.481 C  
ENDBRANCH  34  35
ENDBRANCH  33  34
ENDBRANCH  31  33
ENDBRANCH   9  31
TORSDOF 4
ENDMDL
MODEL       15
REMARK 921   NORMALIZED FREE ENERGY PREDICTED BY IDOCK:   -6.43 KCAL/MOL
REMARK 922        TOTAL FREE ENERGY PREDICTED BY IDOCK:   -8.50 KCAL/MOL
REMARK 923 INTER-LIGAND FREE ENERGY PREDICTED BY IDOCK:   -8.16 KCAL/MOL
REMARK 924 INTRA-LIGAND FREE ENERGY PREDICTED BY IDOCK:   -0.34 KCAL/MOL
REMARK 927      BINDING AFFINITY PREDICTED BY RF-SCORE:    0.00 PKD
ROOT
HETATM    1  C   UNL     1     -10.558  13.014  68.039  1.00  0.00    -0.246 C  
HETATM    2  C   UNL     1     -10.557  14.077  69.111  1.00  0.00    -0.149 C  
HETATM    3  C   UNL     1      -9.571  15.108  68.625  1.00  0.00    -0.213 C  
HETATM    4  O   UNL     1      -8.518  15.089  69.585  1.00  0.00    -0.149 OA 
HETATM    5  C   UNL     1      -7.350  15.347  68.839  1.00  0.00    -0.147 C  
HETATM    6  O   UNL     1      -7.541  14.888  67.496  1.00  0.00    -0.163 OA 
HETATM    7  C   UNL     1      -6.165  14.703  69.556  1.00  0.00    -0.120 C  
HETATM    8  C   UNL     1      -5.472  15.815  70.337  1.00  0.00    -0.157 C  
HETATM    9  C   UNL     1      -8.955  14.668  67.289  1.00  0.00    -0.205 C  
HETATM   10  O   UNL     1      -6.401  10.095  71.089  1.00  0.00    -0.312 OA 
HETATM   11  C   UNL     1      -6.044  17.140  69.861  1.00  0.00    -0.189 C  
HETATM   12  C   UNL     1      -9.318  13.154  67.099  1.00  0.00    -0.235 C  
HETATM   13  C   UNL     1      -7.101  16.847  68.814  1.00  0.00    -0.216 C  
HETATM   14  C   UNL     1      -7.207   9.812  70.239  1.00  0.00    -0.149 C  
HETATM   15  C   UNL     1      -8.649   9.641  70.538  1.00  0.00    -0.142 C  
HETATM   16  C   UNL     1      -9.855  12.560  65.753  1.00  0.00    -0.244 C  
HETATM   17  C   UNL     1      -8.011  12.387  67.254  1.00  0.00    -0.178 C  
HETATM   18  C   UNL     1     -10.575  11.186  65.994  1.00  0.00    -0.239 C  
HETATM   19  C   UNL     1      -9.577   8.172  67.246  1.00  0.00    -0.211 C  
HETATM   20  C   UNL     1     -10.523  10.532  67.425  1.00  0.00    -0.244 C  
HETATM   21  O   UNL     1     -10.322  10.264  64.944  1.00  0.00    -0.283 OA 
HETATM   22  C   UNL     1      -9.343   9.497  68.032  1.00  0.00    -0.143 C  
HETATM   23  H   UNL     1     -10.758   9.432  65.090  1.00  0.00     0.000 HD 
HETATM   24  C   UNL     1     -11.063  11.612  68.397  1.00  0.00    -0.285 C  
HETATM   25  C   UNL     1      -7.794   9.563  67.865  1.00  0.00    -0.091 C  
HETATM   26  C   UNL     1      -6.854   9.657  68.824  1.00  0.00    -0.051 C  
HETATM   27  F   UNL     1     -11.653   9.674  67.341  1.00  0.00    -0.005 F  
HETATM   28  C   UNL     1     -11.189  11.200  69.871  1.00  0.00    -0.293 C  
HETATM   29  C   UNL     1     -10.996   9.695  70.051  1.00  0.00    -0.297 C  
HETATM   30  C   UNL     1      -9.589   9.463  69.581  1.00  0.00    -0.199 C  
ENDROOT
BRANCH   9  31
HETATM   31  C   UNL     1      -9.453  15.504  66.100  1.00  0.00    -0.341 C  
HETATM   32  O   UNL     1      -8.673  16.202  65.465  1.00  0.00    -0.142 OA 
BRANCH  31  33
HETATM   33  C   UNL     1     -10.957  15.518  65.852  1.00  0.00    -0.264 C  
BRANCH  33  34
HETATM   34  O   UNL     1     -11.285  15.304  64.471  1.00  0.00    -0.356 OA 
BRANCH  34  35
HETATM   35  C   UNL     1     -12.316  14.443  64.273  1.00  0.00    -0.373 C  
HETATM   36  O   UNL     1     -12.616  13.935  63.209  1.00  0.00    -0.824 OA 
HETATM   37  C   UNL     1     -13.004  14.131  65.579  1.00  0.00    -0.303 C  
ENDBRANCH  34  35
ENDBRANCH  33  34
ENDBRANCH  31  33
ENDBRANCH   9  31
TORSDOF 4
ENDMDL
MODEL       16
REMARK 921   NORMALIZED FREE ENERGY PREDICTED BY IDOCK:   -6.40 KCAL/MOL
REMARK 922        TOTAL FREE ENERGY PREDICTED BY IDOCK:   -8.46 KCAL/MOL
REMARK 923 INTER-LIGAND FREE ENERGY PREDICTED BY IDOCK:   -8.80 KCAL/MOL
REMARK 924 INTRA-LIGAND FREE ENERGY PREDICTED BY IDOCK:    0.34 KCAL/MOL
REMARK 927      BINDING AFFINITY PREDICTED BY RF-SCORE:    0.00 PKD
ROOT
HETATM    1  C   UNL     1      -8.633  12.195  67.543  1.00  0.00    -0.171 C  
HETATM    2  C   UNL     1      -8.056  11.311  68.623  1.00  0.00    -0.145 C  
HETATM    3  C   UNL     1      -8.957  10.103  68.648  1.00  0.00    -0.136 C  
HETATM    4  O   UNL     1      -9.571  10.130  69.934  1.00  0.00    -0.213 OA 
HETATM    5  C   UNL     1     -10.868   9.619  69.721  1.00  0.00    -0.250 C  
HETATM    6  O   UNL     1     -11.264   9.894  68.372  1.00  0.00    -0.188 OA 
HETATM    7  C   UNL     1     -11.800  10.207  70.778  1.00  0.00    -0.443 C  
HETATM    8  C   UNL     1     -11.955   9.143  71.861  1.00  0.00    -0.443 C  
HETATM    9  C   UNL     1     -10.086  10.258  67.619  1.00  0.00    -0.191 C  
HETATM   10  O   UNL     1     -11.821  14.982  71.686  1.00  0.00    -0.337 OA 
HETATM   11  C   UNL     1     -11.376   7.846  71.322  1.00  0.00    -0.289 C  
HETATM   12  C   UNL     1     -10.086  11.761  67.170  1.00  0.00    -0.224 C  
HETATM   13  C   UNL     1     -10.844   8.112  69.927  1.00  0.00    -0.215 C  
HETATM   14  C   UNL     1     -11.444  15.236  70.570  1.00  0.00    -0.310 C  
HETATM   15  C   UNL     1     -10.047  15.632  70.274  1.00  0.00    -0.021 C  
HETATM   16  C   UNL     1     -10.191  12.213  65.673  1.00  0.00    -0.285 C  
HETATM   17  C   UNL     1     -11.357  12.371  67.747  1.00  0.00    -0.356 C  
HETATM   18  C   UNL     1      -9.683  13.687  65.496  1.00  0.00    -0.059 C  
HETATM   19  C   UNL     1     -10.658  16.702  66.762  1.00  0.00    -0.214 C  
HETATM   20  C   UNL     1      -9.319  14.534  66.772  1.00  0.00    -0.261 C  
HETATM   21  O   UNL     1     -10.458  14.404  64.547  1.00  0.00    -0.574 OA 
HETATM   22  C   UNL     1     -10.355  15.489  67.692  1.00  0.00    -0.269 C  
HETATM   23  H   UNL     1     -10.150  15.297  64.439  1.00  0.00     0.000 HD 
HETATM   24  C   UNL     1      -8.282  13.686  67.553  1.00  0.00    -0.189 C  
HETATM   25  C   UNL     1     -11.820  15.203  68.140  1.00  0.00    -0.252 C  
HETATM   26  C   UNL     1     -12.313  15.135  69.392  1.00  0.00    -0.165 C  
HETATM   27  F   UNL     1      -8.465  15.506  66.184  1.00  0.00    -0.320 F  
HETATM   28  C   UNL     1      -7.698  14.325  68.822  1.00  0.00    -0.134 C  
HETATM   29  C   UNL     1      -8.069  15.803  68.928  1.00  0.00    -0.207 C  
HETATM   30  C   UNL     1      -9.568  15.784  69.017  1.00  0.00    -0.243 C  
ENDROOT
BRANCH   9  31
HETATM   31  C   UNL     1      -9.921   9.326  66.409  1.00  0.00    -0.286 C  
HETATM   32  O   UNL     1     -10.168   9.728  65.279  1.00  0.00    -0.216 OA 
BRANCH  31  33
HETATM   33  C   UNL     1      -9.576   7.870  66.706  1.00  0.00    -0.215 C  
BRANCH  33  34
HETATM   34  O   UNL     1     -10.729   7.016  66.661  1.00  0.00    -0.249 OA 
BRANCH  34  35
HETATM   35  C   UNL     1     -10.444   5.692  66.762  1.00  0.00    -0.291 C  
HETATM   36  O   UNL     1     -10.798   4.833  65.977  1.00  0.00    -0.287 OA 
HETATM   37  C   UNL     1      -9.548   5.433  67.949  1.00  0.00    -0.152 C  
ENDBRANCH  34  35
ENDBRANCH  33  34
ENDBRANCH  31  33
ENDBRANCH   9  31
TORSDOF 4
ENDMDL
MODEL       17
REMARK 921   NORMALIZED FREE ENERGY PREDICTED BY IDOCK:   -6.39 KCAL/MOL
REMARK 922        TOTAL FREE ENERGY PREDICTED BY IDOCK:   -8.45 KCAL/MOL
REMARK 923 INTER-LIGAND FREE ENERGY PREDICTED BY IDOCK:   -7.80 KCAL/MOL
REMARK 924 INTRA-LIGAND FREE ENERGY PREDICTED BY IDOCK:   -0.66 KCAL/MOL
REMARK 927      BINDING AFFINITY PREDICTED BY RF-SCORE:    0.00 PKD
ROOT
HETATM    1  C   UNL     1      -9.575  12.156  66.469  1.00  0.00    -0.235 C  
HETATM    2  C   UNL     1     -11.008  12.623  66.371  1.00  0.00    -0.304 C  
HETATM    3  C   UNL     1     -11.075  13.834  67.267  1.00  0.00    -0.304 C  
HETATM    4  O   UNL     1     -11.971  13.467  68.313  1.00  0.00    -0.345 OA 
HETATM    5  C   UNL     1     -11.469  14.118  69.458  1.00  0.00    -0.281 C  
HETATM    6  O   UNL     1     -10.055  14.296  69.314  1.00  0.00    -0.119 OA 
HETATM    7  C   UNL     1     -11.875  13.313  70.691  1.00  0.00    -0.128 C  
HETATM    8  C   UNL     1     -13.099  14.007  71.280  1.00  0.00    -0.399 C  
HETATM    9  C   UNL     1      -9.711  14.086  67.925  1.00  0.00    -0.229 C  
HETATM   10  O   UNL     1     -11.183   8.503  70.848  1.00  0.00    -0.255 OA 
HETATM   11  C   UNL     1     -13.239  15.357  70.598  1.00  0.00    -0.356 C  
HETATM   12  C   UNL     1      -8.851  12.794  67.697  1.00  0.00    -0.189 C  
HETATM   13  C   UNL     1     -12.126  15.484  69.575  1.00  0.00    -0.326 C  
HETATM   14  C   UNL     1     -10.262   8.571  70.073  1.00  0.00    -0.198 C  
HETATM   15  C   UNL     1     -10.390   8.175  68.651  1.00  0.00    -0.224 C  
HETATM   16  C   UNL     1      -7.359  12.827  67.220  1.00  0.00    -0.095 C  
HETATM   17  C   UNL     1      -8.705  12.140  69.064  1.00  0.00     0.385 C  
HETATM   18  C   UNL     1      -6.932  11.441  66.621  1.00  0.00    -0.102 C  
HETATM   19  C   UNL     1      -6.752   8.270  67.869  1.00  0.00    -0.065 C  
HETATM   20  C   UNL     1      -7.922  10.221  66.722  1.00  0.00    -0.114 C  
HETATM   21  O   UNL     1      -5.593  11.108  66.958  1.00  0.00    -0.055 OA 
HETATM   22  C   UNL     1      -8.056   9.117  67.984  1.00  0.00    -0.105 C  
HETATM   23  H   UNL     1      -5.334  10.268  66.595  1.00  0.00     0.000 HD 
HETATM   24  C   UNL     1      -9.249  10.708  66.085  1.00  0.00    -0.196 C  
HETATM   25  C   UNL     1      -8.002   9.367  69.522  1.00  0.00    -0.098 C  
HETATM   26  C   UNL     1      -8.942   9.092  70.446  1.00  0.00    -0.235 C  
HETATM   27  F   UNL     1      -7.416   9.409  65.671  1.00  0.00    -0.090 F  
HETATM   28  C   UNL     1     -10.378   9.672  65.988  1.00  0.00    -0.160 C  
HETATM   29  C   UNL     1      -9.877   8.264  66.310  1.00  0.00    -0.227 C  
HETATM   30  C   UNL     1      -9.414   8.374  67.734  1.00  0.00    -0.171 C  
ENDROOT
BRANCH   9  31
HETATM   31  C   UNL     1      -8.999  15.325  67.363  1.00  0.00    -0.183 C  
HETATM   32  O   UNL     1      -8.249  15.984  68.073  1.00  0.00    -0.147 OA 
BRANCH  31  33
HETATM   33  C   UNL     1      -9.377  15.754  65.949  1.00  0.00    -0.321 C  
BRANCH  33  34
HETATM   34  O   UNL     1      -9.250  17.170  65.756  1.00  0.00    -0.524 OA 
BRANCH  34  35
HETATM   35  C   UNL     1     -10.435  17.828  65.675  1.00  0.00    -0.128 C  
HETATM   36  O   UNL     1     -11.253  17.700  64.784  1.00  0.00    -0.834 OA 
HETATM   37  C   UNL     1     -10.645  18.693  66.894  1.00  0.00    -0.437 C  
ENDBRANCH  34  35
ENDBRANCH  33  34
ENDBRANCH  31  33
ENDBRANCH   9  31
TORSDOF 4
ENDMDL
MODEL       18
REMARK 921   NORMALIZED FREE ENERGY PREDICTED BY IDOCK:   -6.34 KCAL/MOL
REMARK 922        TOTAL FREE ENERGY PREDICTED BY IDOCK:   -8.39 KCAL/MOL
REMARK 923 INTER-LIGAND FREE ENERGY PREDICTED BY IDOCK:   -7.39 KCAL/MOL
REMARK 924 INTRA-LIGAND FREE ENERGY PREDICTED BY IDOCK:   -1.00 KCAL/MOL
REMARK 927      BINDING AFFINITY PREDICTED BY RF-SCORE:    0.00 PKD
ROOT
HETATM    1  C   UNL     1      -8.961   8.571  67.422  1.00  0.00    -0.144 C  
HETATM    2  C   UNL     1      -9.971   9.203  66.494  1.00  0.00    -0.359 C  
HETATM    3  C   UNL     1      -9.686  10.681  66.572  1.00  0.00    -0.194 C  
HETATM    4  O   UNL     1     -10.859  11.251  67.147  1.00  0.00    -0.241 OA 
HETATM    5  C   UNL     1     -10.387  12.323  67.931  1.00  0.00    -0.208 C  
HETATM    6  O   UNL     1      -9.051  12.038  68.360  1.00  0.00    -0.188 OA 
HETATM    7  C   UNL     1     -11.373  12.559  69.074  1.00  0.00    -0.342 C  
HETATM    8  C   UNL     1     -12.253  13.732  68.653  1.00  0.00    -0.202 C  
HETATM    9  C   UNL     1      -8.539  10.952  67.555  1.00  0.00    -0.127 C  
HETATM   10  O   UNL     1     -12.963   8.848  71.782  1.00  0.00    -0.326 OA 
HETATM   11  C   UNL     1     -11.619  14.373  67.431  1.00  0.00    -0.398 C  
HETATM   12  C   UNL     1      -8.321   9.631  68.373  1.00  0.00    -0.117 C  
HETATM   13  C   UNL     1     -10.370  13.585  67.082  1.00  0.00    -0.250 C  
HETATM   14  C   UNL     1     -11.963   8.211  71.566  1.00  0.00    -0.298 C  
HETATM   15  C   UNL     1     -11.935   7.075  70.614  1.00  0.00    -0.361 C  
HETATM   16  C   UNL     1      -6.908   9.014  68.652  1.00  0.00    -0.063 C  
HETATM   17  C   UNL     1      -8.791   9.934  69.790  1.00  0.00    -0.229 C  
HETATM   18  C   UNL     1      -7.026   7.499  69.043  1.00  0.00    -0.073 C  
HETATM   19  C   UNL     1      -8.568   5.815  71.578  1.00  0.00    -0.132 C  
HETATM   20  C   UNL     1      -8.452   6.870  69.262  1.00  0.00    -0.129 C  
HETATM   21  O   UNL     1      -6.091   7.137  70.048  1.00  0.00    -0.024 OA 
HETATM   22  C   UNL     1      -9.343   6.833  70.689  1.00  0.00    -0.162 C  
HETATM   23  H   UNL     1      -6.162   6.218  70.284  1.00  0.00     0.000 HD 
HETATM   24  C   UNL     1      -9.242   7.164  67.960  1.00  0.00    -0.130 C  
HETATM   25  C   UNL     1      -9.527   7.946  71.765  1.00  0.00    -0.205 C  
HETATM   26  C   UNL     1     -10.670   8.521  72.184  1.00  0.00    -0.426 C  
HETATM   27  F   UNL     1      -8.144   5.496  69.070  1.00  0.00    -0.090 F  
HETATM   28  C   UNL     1     -10.663   6.586  67.880  1.00  0.00    -0.357 C  
HETATM   29  C   UNL     1     -10.930   5.597  69.015  1.00  0.00    -0.165 C  
HETATM   30  C   UNL     1     -10.797   6.438  70.252  1.00  0.00    -0.350 C  
ENDROOT
BRANCH   9  31
HETATM   31  C   UNL     1      -7.241  11.381  66.852  1.00  0.00    -0.144 C  
HETATM   32  O   UNL     1      -6.834  10.765  65.875  1.00  0.00    -0.132 OA 
BRANCH  31  33
HETATM   33  C   UNL     1      -6.442  12.501  67.510  1.00  0.00    -0.153 C  
BRANCH  33  34
HETATM   34  O   UNL     1      -5.635  12.029  68.600  1.00  0.00    -0.052 OA 
BRANCH  34  35
HETATM   35  C   UNL     1      -6.013  12.502  69.815  1.00  0.00    -0.135 C  
HETATM   36  O   UNL     1      -5.985  11.873  70.856  1.00  0.00    -0.356 OA 
HETATM   37  C   UNL     1      -6.403  13.957  69.719  1.00  0.00    -0.125 C  
ENDBRANCH  34  35
ENDBRANCH  33  34
ENDBRANCH  31  33
ENDBRANCH   9  31
TORSDOF 4
ENDMDL
MODEL       19
REMARK 921   NORMALIZED FREE ENERGY PREDICTED BY IDOCK:   -6.34 KCAL/MOL
REMARK 922        TOTAL FREE ENERGY PREDICTED BY IDOCK:   -8.39 KCAL/MOL
REMARK 923 INTER-LIGAND FREE ENERGY PREDICTED BY IDOCK:   -7.29 KCAL/MOL
REMARK 924 INTRA-LIGAND FREE ENERGY PREDICTED BY IDOCK:   -1.10 KCAL/MOL
REMARK 927      BINDING AFFINITY PREDICTED BY RF-SCORE:    0.00 PKD
ROOT
HETATM    1  C   UNL     1      -9.158   8.253  67.380  1.00  0.00    -0.155 C  
HETATM    2  C   UNL     1     -10.274   8.829  66.541  1.00  0.00    -0.314 C  
HETATM    3  C   UNL     1      -9.926  10.289  66.396  1.00  0.00    -0.229 C  
HETATM    4  O   UNL     1     -10.976  10.984  67.065  1.00  0.00    -0.277 OA 
HETATM    5  C   UNL     1     -10.351  12.112  67.636  1.00  0.00    -0.203 C  
HETATM    6  O   UNL     1      -8.976  11.804  67.894  1.00  0.00    -0.165 OA 
HETATM    7  C   UNL     1     -11.141  12.529  68.874  1.00  0.00    -0.309 C  
HETATM    8  C   UNL     1     -12.032  13.693  68.449  1.00  0.00    -0.391 C  
HETATM    9  C   UNL     1      -8.633  10.607  67.160  1.00  0.00    -0.127 C  
HETATM   10  O   UNL     1     -12.434   9.244  72.216  1.00  0.00    -0.360 OA 
HETATM   11  C   UNL     1     -11.568  14.154  67.077  1.00  0.00    -0.404 C  
HETATM   12  C   UNL     1      -8.341   9.379  68.091  1.00  0.00    -0.119 C  
HETATM   13  C   UNL     1     -10.417  13.265  66.647  1.00  0.00    -0.279 C  
HETATM   14  C   UNL     1     -11.503   8.533  71.934  1.00  0.00    -0.335 C  
HETATM   15  C   UNL     1     -11.662   7.296  71.133  1.00  0.00    -0.334 C  
HETATM   16  C   UNL     1      -6.926   8.722  68.232  1.00  0.00    -0.073 C  
HETATM   17  C   UNL     1      -8.579   9.866  69.514  1.00  0.00    -0.194 C  
HETATM   18  C   UNL     1      -7.038   7.270  68.816  1.00  0.00    -0.084 C  
HETATM   19  C   UNL     1      -8.236   5.973  71.736  1.00  0.00    -0.118 C  
HETATM   20  C   UNL     1      -8.437   6.748  69.317  1.00  0.00    -0.129 C  
HETATM   21  O   UNL     1      -5.975   6.974  69.708  1.00  0.00    -0.023 OA 
HETATM   22  C   UNL     1      -9.100   6.923  70.854  1.00  0.00    -0.153 C  
HETATM   23  H   UNL     1      -6.042   6.094  70.062  1.00  0.00     0.000 HD 
HETATM   24  C   UNL     1      -9.405   6.935  68.120  1.00  0.00    -0.124 C  
HETATM   25  C   UNL     1      -9.076   8.160  71.802  1.00  0.00    -0.229 C  
HETATM   26  C   UNL     1     -10.120   8.841  72.313  1.00  0.00    -0.308 C  
HETATM   27  F   UNL     1      -8.212   5.347  69.250  1.00  0.00    -0.089 F  
HETATM   28  C   UNL     1     -10.841   6.429  68.321  1.00  0.00    -0.384 C  
HETATM   29  C   UNL     1     -10.968   5.593  69.594  1.00  0.00    -0.292 C  
HETATM   30  C   UNL     1     -10.617   6.561  70.687  1.00  0.00    -0.280 C  
ENDROOT
BRANCH   9  31
HETATM   31  C   UNL     1      -7.443  10.882  66.227  1.00  0.00    -0.129 C  
HETATM   32  O   UNL     1      -6.529  11.612  66.588  1.00  0.00    -0.132 OA 
BRANCH  31  33
HETATM   33  C   UNL     1      -7.534  10.318  64.813  1.00  0.00    -0.103 C  
BRANCH  33  34
HETATM   34  O   UNL     1      -6.823   9.079  64.672  1.00  0.00    -0.083 OA 
BRANCH  34  35
HETATM   35  C   UNL     1      -7.484   8.139  63.949  1.00  0.00    -0.116 C  
HETATM   36  O   UNL     1      -7.956   8.306  62.840  1.00  0.00    -0.149 OA 
HETATM   37  C   UNL     1      -7.488   6.817  64.678  1.00  0.00    -0.097 C  
ENDBRANCH  34  35
ENDBRANCH  33  34
ENDBRANCH  31  33
ENDBRANCH   9  31
TORSDOF 4
ENDMDL
MODEL       20
REMARK 921   NORMALIZED FREE ENERGY PREDICTED BY IDOCK:   -6.30 KCAL/MOL
REMARK 922        TOTAL FREE ENERGY PREDICTED BY IDOCK:   -8.34 KCAL/MOL
REMARK 923 INTER-LIGAND FREE ENERGY PREDICTED BY IDOCK:   -7.82 KCAL/MOL
REMARK 924 INTRA-LIGAND FREE ENERGY PREDICTED BY IDOCK:   -0.52 KCAL/MOL
REMARK 927      BINDING AFFINITY PREDICTED BY RF-SCORE:    0.00 PKD
ROOT
HETATM    1  C   UNL     1     -10.622   9.081  69.043  1.00  0.00    -0.209 C  
HETATM    2  C   UNL     1     -10.533  10.586  69.125  1.00  0.00    -0.250 C  
HETATM    3  C   UNL     1      -9.466  10.958  68.126  1.00  0.00    -0.165 C  
HETATM    4  O   UNL     1      -8.416  11.524  68.905  1.00  0.00    -0.101 OA 
HETATM    5  C   UNL     1      -7.232  11.140  68.242  1.00  0.00    -0.083 C  
HETATM    6  O   UNL     1      -7.464   9.911  67.545  1.00  0.00    -0.090 OA 
HETATM    7  C   UNL     1      -6.102  11.073  69.267  1.00  0.00    -0.050 C  
HETATM    8  C   UNL     1      -5.319  12.376  69.136  1.00  0.00    -0.068 C  
HETATM    9  C   UNL     1      -8.892   9.698  67.465  1.00  0.00    -0.125 C  
HETATM   10  O   UNL     1      -6.709   8.720  73.477  1.00  0.00    -0.302 OA 
HETATM   11  C   UNL     1      -5.782  13.069  67.866  1.00  0.00    -0.126 C  
HETATM   12  C   UNL     1      -9.377   8.475  68.320  1.00  0.00    -0.143 C  
HETATM   13  C   UNL     1      -6.863  12.215  67.231  1.00  0.00    -0.149 C  
HETATM   14  C   UNL     1      -7.538   7.991  72.996  1.00  0.00    -0.132 C  
HETATM   15  C   UNL     1      -8.989   8.154  73.256  1.00  0.00    -0.332 C  
HETATM   16  C   UNL     1      -9.965   7.165  67.693  1.00  0.00    -0.201 C  
HETATM   17  C   UNL     1      -8.137   7.933  69.018  1.00  0.00    -0.124 C  
HETATM   18  C   UNL     1     -10.794   6.359  68.754  1.00  0.00    -0.317 C  
HETATM   19  C   UNL     1     -10.043   4.916  71.754  1.00  0.00    -0.267 C  
HETATM   20  C   UNL     1     -10.792   6.835  70.254  1.00  0.00    -0.270 C  
HETATM   21  O   UNL     1     -10.620   4.957  68.608  1.00  0.00     0.022 OA 
HETATM   22  C   UNL     1      -9.699   6.407  71.460  1.00  0.00    -0.182 C  
HETATM   23  H   UNL     1     -11.122   4.469  69.251  1.00  0.00     0.000 HD 
HETATM   24  C   UNL     1     -11.239   8.319  70.221  1.00  0.00    -0.176 C  
HETATM   25  C   UNL     1      -8.150   6.247  71.373  1.00  0.00    -0.117 C  
HETATM   26  C   UNL     1      -7.203   6.902  72.071  1.00  0.00    -0.082 C  
HETATM   27  F   UNL     1     -11.989   6.216  70.707  1.00  0.00    -0.366 F  
HETATM   28  C   UNL     1     -11.395   9.014  71.582  1.00  0.00    -0.430 C  
HETATM   29  C   UNL     1     -11.325   8.013  72.735  1.00  0.00    -0.439 C  
HETATM   30  C   UNL     1      -9.943   7.438  72.617  1.00  0.00    -0.241 C  
ENDROOT
BRANCH   9  31
HETATM   31  C   UNL     1      -9.323   9.545  65.998  1.00  0.00    -0.216 C  
HETATM   32  O   UNL     1      -8.650   8.881  65.220  1.00  0.00    -0.164 OA 
BRANCH  31  33
HETATM   33  C   UNL     1     -10.530  10.362  65.548  1.00  0.00    -0.122 C  
BRANCH  33  34
HETATM   34  O   UNL     1     -10.442  10.752  64.169  1.00  0.00    -0.364 OA 
BRANCH  34  35
HETATM   35  C   UNL     1     -10.884  12.011  63.919  1.00  0.00    -0.399 C  
HETATM   36  O   UNL     1     -10.194  13.013  63.921  1.00  0.00    -0.378 OA 
HETATM   37  C   UNL     1     -12.348  11.995  63.553  1.00  0.00    -0.661 C  
ENDBRANCH  34  35
ENDBRANCH  33  34
ENDBRANCH  31  33
ENDBRANCH   9  31
TORSDOF 4
ENDMDL
MODEL       21
REMARK 921   NORMALIZED FREE ENERGY PREDICTED BY IDOCK:   -6.25 KCAL/MOL
REMARK 922        TOTAL FREE ENERGY PREDICTED BY IDOCK:   -8.28 KCAL/MOL
REMARK 923 INTER-LIGAND FREE ENERGY PREDICTED BY IDOCK:   -8.37 KCAL/MOL
REMARK 924 INTRA-LIGAND FREE ENERGY PREDICTED BY IDOCK:    0.09 KCAL/MOL
REMARK 927      BINDING AFFINITY PREDICTED BY RF-SCORE:    0.00 PKD
ROOT
HETATM    1  C   UNL     1     -10.500  10.560  66.923  1.00  0.00    -0.303 C  
HETATM    2  C   UNL     1     -11.479  10.760  68.056  1.00  0.00    -0.333 C  
HETATM    3  C   UNL     1     -11.903  12.203  67.943  1.00  0.00    -0.269 C  
HETATM    4  O   UNL     1     -11.428  12.819  69.136  1.00  0.00    -0.274 OA 
HETATM    5  C   UNL     1     -11.074  14.127  68.747  1.00  0.00    -0.262 C  
HETATM    6  O   UNL     1     -10.707  14.120  67.362  1.00  0.00    -0.279 OA 
HETATM    7  C   UNL     1      -9.977  14.631  69.681  1.00  0.00     0.117 C  
HETATM    8  C   UNL     1     -10.661  15.518  70.718  1.00  0.00    -0.206 C  
HETATM    9  C   UNL     1     -11.172  12.883  66.777  1.00  0.00    -0.298 C  
HETATM   10  O   UNL     1      -6.090  11.878  70.654  1.00  0.00    -0.296 OA 
HETATM   11  C   UNL     1     -12.079  15.779  70.239  1.00  0.00    -0.371 C  
HETATM   12  C   UNL     1     -10.001  11.927  66.355  1.00  0.00    -0.237 C  
HETATM   13  C   UNL     1     -12.278  15.038  68.931  1.00  0.00    -0.136 C  
HETATM   14  C   UNL     1      -6.187  11.299  69.602  1.00  0.00    -0.113 C  
HETATM   15  C   UNL     1      -6.727   9.923  69.499  1.00  0.00    -0.057 C  
HETATM   16  C   UNL     1      -9.678  11.567  64.865  1.00  0.00    -0.264 C  
HETATM   17  C   UNL     1      -8.716  12.631  66.770  1.00  0.00    -0.135 C  
HETATM   18  C   UNL     1      -8.817  10.258  64.779  1.00  0.00    -0.196 C  
HETATM   19  C   UNL     1      -5.741   9.359  65.954  1.00  0.00    -0.049 C  
HETATM   20  C   UNL     1      -8.273   9.607  66.106  1.00  0.00    -0.115 C  
HETATM   21  O   UNL     1      -7.844  10.330  63.748  1.00  0.00    -0.154 OA 
HETATM   22  C   UNL     1      -6.829   9.956  66.897  1.00  0.00    -0.087 C  
HETATM   23  H   UNL     1      -7.322   9.537  63.696  1.00  0.00     0.000 HD 
HETATM   24  C   UNL     1      -9.518   9.387  67.003  1.00  0.00    -0.200 C  
HETATM   25  C   UNL     1      -6.151  11.338  67.143  1.00  0.00    -0.091 C  
HETATM   26  C   UNL     1      -5.827  11.912  68.318  1.00  0.00    -0.050 C  
HETATM   27  F   UNL     1      -8.047   8.280  65.650  1.00  0.00    -0.098 F  
HETATM   28  C   UNL     1      -9.273   8.687  68.348  1.00  0.00    -0.138 C  
HETATM   29  C   UNL     1      -7.863   8.102  68.428  1.00  0.00    -0.118 C  
HETATM   30  C   UNL     1      -6.976   9.309  68.318  1.00  0.00    -0.072 C  
ENDROOT
BRANCH   9  31
HETATM   31  C   UNL     1     -12.096  13.176  65.584  1.00  0.00    -0.449 C  
HETATM   32  O   UNL     1     -13.001  12.402  65.298  1.00  0.00    -0.477 OA 
BRANCH  31  33
HETATM   33  C   UNL     1     -11.741  14.381  64.720  1.00  0.00    -0.416 C  
BRANCH  33  34
HETATM   34  O   UNL     1     -10.767  15.232  65.343  1.00  0.00    -0.337 OA 
BRANCH  34  35
HETATM   35  C   UNL     1     -10.973  16.557  65.134  1.00  0.00    -0.191 C  
HETATM   36  O   UNL     1     -11.508  17.041  64.154  1.00  0.00    -1.135 OA 
HETATM   37  C   UNL     1     -10.519  17.359  66.329  1.00  0.00    -0.276 C  
ENDBRANCH  34  35
ENDBRANCH  33  34
ENDBRANCH  31  33
ENDBRANCH   9  31
TORSDOF 4
ENDMDL
MODEL       22
REMARK 921   NORMALIZED FREE ENERGY PREDICTED BY IDOCK:   -6.18 KCAL/MOL
REMARK 922        TOTAL FREE ENERGY PREDICTED BY IDOCK:   -8.19 KCAL/MOL
REMARK 923 INTER-LIGAND FREE ENERGY PREDICTED BY IDOCK:   -7.63 KCAL/MOL
REMARK 924 INTRA-LIGAND FREE ENERGY PREDICTED BY IDOCK:   -0.56 KCAL/MOL
REMARK 927      BINDING AFFINITY PREDICTED BY RF-SCORE:    0.00 PKD
ROOT
HETATM    1  C   UNL     1      -9.214  10.010  70.029  1.00  0.00    -0.146 C  
HETATM    2  C   UNL     1      -7.984  10.479  69.289  1.00  0.00    -0.156 C  
HETATM    3  C   UNL     1      -8.467  10.761  67.889  1.00  0.00    -0.122 C  
HETATM    4  O   UNL     1      -7.782   9.820  67.067  1.00  0.00    -0.095 OA 
HETATM    5  C   UNL     1      -8.701   9.500  66.048  1.00  0.00    -0.147 C  
HETATM    6  O   UNL     1     -10.033   9.669  66.548  1.00  0.00    -0.214 OA 
HETATM    7  C   UNL     1      -8.397   8.090  65.546  1.00  0.00    -0.153 C  
HETATM    8  C   UNL     1      -7.588   8.250  64.263  1.00  0.00    -0.122 C  
HETATM    9  C   UNL     1      -9.964  10.442  67.767  1.00  0.00    -0.175 C  
HETATM   10  O   UNL     1      -7.759   4.428  68.679  1.00  0.00    -0.070 OA 
HETATM   11  C   UNL     1      -7.665   9.709  63.846  1.00  0.00    -0.131 C  
HETATM   12  C   UNL     1     -10.357   9.614  69.041  1.00  0.00    -0.218 C  
HETATM   13  C   UNL     1      -8.492  10.450  64.879  1.00  0.00    -0.179 C  
HETATM   14  C   UNL     1      -8.450   4.964  69.508  1.00  0.00    -0.083 C  
HETATM   15  C   UNL     1      -7.882   5.645  70.696  1.00  0.00    -0.100 C  
HETATM   16  C   UNL     1     -11.641   9.899  69.891  1.00  0.00    -0.184 C  
HETATM   17  C   UNL     1     -10.639   8.200  68.551  1.00  0.00    -0.142 C  
HETATM   18  C   UNL     1     -11.516   9.271  71.323  1.00  0.00    -0.347 C  
HETATM   19  C   UNL     1     -11.111   6.091  72.494  1.00  0.00    -0.321 C  
HETATM   20  C   UNL     1     -10.283   8.350  71.654  1.00  0.00    -0.241 C  
HETATM   21  O   UNL     1     -12.752   8.742  71.780  1.00  0.00    -0.322 OA 
HETATM   22  C   UNL     1     -10.156   6.689  71.416  1.00  0.00    -0.209 C  
HETATM   23  H   UNL     1     -12.676   8.362  72.648  1.00  0.00     0.000 HD 
HETATM   24  C   UNL     1      -9.028   9.195  71.314  1.00  0.00    -0.207 C  
HETATM   25  C   UNL     1     -10.642   5.827  70.212  1.00  0.00    -0.369 C  
HETATM   26  C   UNL     1      -9.911   5.037  69.402  1.00  0.00    -0.290 C  
HETATM   27  F   UNL     1     -10.280   8.447  73.072  1.00  0.00    -0.360 F  
HETATM   28  C   UNL     1      -7.669   8.549  71.618  1.00  0.00    -0.150 C  
HETATM   29  C   UNL     1      -7.826   7.277  72.452  1.00  0.00    -0.102 C  
HETATM   30  C   UNL     1      -8.627   6.372  71.562  1.00  0.00    -0.130 C  
ENDROOT
BRANCH   9  31
HETATM   31  C   UNL     1     -10.834  11.703  67.644  1.00  0.00    -0.225 C  
HETATM   32  O   UNL     1     -11.986  11.622  67.239  1.00  0.00    -0.627 OA 
BRANCH  31  33
HETATM   33  C   UNL     1     -10.151  13.038  67.918  1.00  0.00    -0.235 C  
BRANCH  33  34
HETATM   34  O   UNL     1      -9.799  13.729  66.709  1.00  0.00    -0.258 OA 
BRANCH  34  35
HETATM   35  C   UNL     1     -10.441  14.913  66.540  1.00  0.00    -0.297 C  
HETATM   36  O   UNL     1     -11.547  15.052  66.054  1.00  0.00    -0.286 OA 
HETATM   37  C   UNL     1      -9.626  16.045  67.117  1.00  0.00    -0.224 C  
ENDBRANCH  34  35
ENDBRANCH  33  34
ENDBRANCH  31  33
ENDBRANCH   9  31
TORSDOF 4
ENDMDL
MODEL       23
REMARK 921   NORMALIZED FREE ENERGY PREDICTED BY IDOCK:   -6.10 KCAL/MOL
REMARK 922        TOTAL FREE ENERGY PREDICTED BY IDOCK:   -8.09 KCAL/MOL
REMARK 923 INTER-LIGAND FREE ENERGY PREDICTED BY IDOCK:   -6.96 KCAL/MOL
REMARK 924 INTRA-LIGAND FREE ENERGY PREDICTED BY IDOCK:   -1.13 KCAL/MOL
REMARK 927      BINDING AFFINITY PREDICTED BY RF-SCORE:    0.00 PKD
ROOT
HETATM    1  C   UNL     1     -10.227   7.883  69.444  1.00  0.00    -0.206 C  
HETATM    2  C   UNL     1     -11.171   6.709  69.340  1.00  0.00    -0.356 C  
HETATM    3  C   UNL     1     -10.857   5.860  70.545  1.00  0.00    -0.296 C  
HETATM    4  O   UNL     1     -10.351   4.640  70.012  1.00  0.00    -0.205 OA 
HETATM    5  C   UNL     1      -9.376   4.221  70.941  1.00  0.00    -0.150 C  
HETATM    6  O   UNL     1      -8.837   5.371  71.604  1.00  0.00    -0.133 OA 
HETATM    7  C   UNL     1      -8.336   3.378  70.207  1.00  0.00    -0.085 C  
HETATM    8  C   UNL     1      -8.691   1.919  70.475  1.00  0.00    -0.112 C  
HETATM    9  C   UNL     1      -9.719   6.490  71.359  1.00  0.00    -0.172 C  
HETATM   10  O   UNL     1      -6.371   4.939  66.043  1.00  0.00    -0.037 OA 
HETATM   11  C   UNL     1      -9.731   1.891  71.582  1.00  0.00    -0.213 C  
HETATM   12  C   UNL     1      -9.070   7.594  70.453  1.00  0.00    -0.152 C  
HETATM   13  C   UNL     1     -10.036   3.324  71.977  1.00  0.00    -0.222 C  
HETATM   14  C   UNL     1      -6.554   6.092  66.343  1.00  0.00    -0.055 C  
HETATM   15  C   UNL     1      -7.644   6.904  65.751  1.00  0.00    -0.091 C  
HETATM   16  C   UNL     1      -8.715   9.031  70.967  1.00  0.00    -0.280 C  
HETATM   17  C   UNL     1      -7.691   7.071  70.076  1.00  0.00    -0.104 C  
HETATM   18  C   UNL     1      -8.553  10.031  69.769  1.00  0.00    -0.173 C  
HETATM   19  C   UNL     1      -6.473  10.183  67.068  1.00  0.00    -0.069 C  
HETATM   20  C   UNL     1      -8.592   9.479  68.295  1.00  0.00    -0.120 C  
HETATM   21  O   UNL     1      -7.505  10.962  69.993  1.00  0.00    -0.381 OA 
HETATM   22  C   UNL     1      -7.299   8.900  67.388  1.00  0.00    -0.081 C  
HETATM   23  H   UNL     1      -7.407  11.568  69.267  1.00  0.00     0.000 HD 
HETATM   24  C   UNL     1      -9.924   8.693  68.180  1.00  0.00    -0.210 C  
HETATM   25  C   UNL     1      -6.109   7.997  67.833  1.00  0.00    -0.047 C  
HETATM   26  C   UNL     1      -5.751   6.791  67.353  1.00  0.00    -0.013 C  
HETATM   27  F   UNL     1      -8.934  10.669  67.598  1.00  0.00    -0.135 F  
HETATM   28  C   UNL     1     -10.250   8.104  66.799  1.00  0.00    -0.372 C  
HETATM   29  C   UNL     1      -9.302   8.636  65.725  1.00  0.00    -0.227 C  
HETATM   30  C   UNL     1      -7.954   8.152  66.175  1.00  0.00    -0.102 C  
ENDROOT
BRANCH   9  31
HETATM   31  C   UNL     1     -10.198   7.087  72.691  1.00  0.00    -0.194 C  
HETATM   32  O   UNL     1      -9.465   7.080  73.672  1.00  0.00    -0.165 OA 
BRANCH  31  33
HETATM   33  C   UNL     1     -11.650   7.549  72.755  1.00  0.00    -0.248 C  
BRANCH  33  34
HETATM   34  O   UNL     1     -11.798   8.934  72.405  1.00  0.00    -0.334 OA 
BRANCH  34  35
HETATM   35  C   UNL     1     -12.857   9.192  71.597  1.00  0.00    -0.363 C  
HETATM   36  O   UNL     1     -13.872   8.524  71.531  1.00  0.00    -0.364 OA 
HETATM   37  C   UNL     1     -12.643  10.479  70.838  1.00  0.00    -0.493 C  
ENDBRANCH  34  35
ENDBRANCH  33  34
ENDBRANCH  31  33
ENDBRANCH   9  31
TORSDOF 4
ENDMDL
MODEL       24
REMARK 921   NORMALIZED FREE ENERGY PREDICTED BY IDOCK:   -6.08 KCAL/MOL
REMARK 922        TOTAL FREE ENERGY PREDICTED BY IDOCK:   -8.06 KCAL/MOL
REMARK 923 INTER-LIGAND FREE ENERGY PREDICTED BY IDOCK:   -7.34 KCAL/MOL
REMARK 924 INTRA-LIGAND FREE ENERGY PREDICTED BY IDOCK:   -0.72 KCAL/MOL
REMARK 927      BINDING AFFINITY PREDICTED BY RF-SCORE:    0.00 PKD
ROOT
HETATM    1  C   UNL     1      -8.675  11.445  67.823  1.00  0.00    -0.136 C  
HETATM    2  C   UNL     1      -8.029  10.732  68.987  1.00  0.00    -0.137 C  
HETATM    3  C   UNL     1      -8.854   9.484  69.175  1.00  0.00    -0.147 C  
HETATM    4  O   UNL     1      -9.449   9.628  70.461  1.00  0.00    -0.256 OA 
HETATM    5  C   UNL     1     -10.715   9.020  70.340  1.00  0.00    -0.227 C  
HETATM    6  O   UNL     1     -11.148   9.108  68.977  1.00  0.00    -0.074 OA 
HETATM    7  C   UNL     1     -11.665   9.673  71.341  1.00  0.00    -0.478 C  
HETATM    8  C   UNL     1     -11.738   8.740  72.545  1.00  0.00    -0.241 C  
HETATM    9  C   UNL     1     -10.005   9.449  68.160  1.00  0.00    -0.175 C  
HETATM   10  O   UNL     1     -11.965  14.514  71.678  1.00  0.00    -0.341 OA 
HETATM   11  C   UNL     1     -11.090   7.424  72.151  1.00  0.00    -0.291 C  
HETATM   12  C   UNL     1     -10.105  10.885  67.536  1.00  0.00    -0.214 C  
HETATM   13  C   UNL     1     -10.596   7.553  70.722  1.00  0.00    -0.227 C  
HETATM   14  C   UNL     1     -11.621  14.655  70.532  1.00  0.00    -0.263 C  
HETATM   15  C   UNL     1     -10.255  15.094  70.160  1.00  0.00    -0.101 C  
HETATM   16  C   UNL     1     -10.260  11.148  66.000  1.00  0.00    -0.300 C  
HETATM   17  C   UNL     1     -11.402  11.483  68.066  1.00  0.00    -0.368 C  
HETATM   18  C   UNL     1      -9.846  12.617  65.638  1.00  0.00    -0.202 C  
HETATM   19  C   UNL     1     -10.984  15.699  66.560  1.00  0.00    -0.206 C  
HETATM   20  C   UNL     1      -9.515  13.631  66.796  1.00  0.00    -0.270 C  
HETATM   21  O   UNL     1     -10.678  13.169  64.628  1.00  0.00    -0.335 OA 
HETATM   22  C   UNL     1     -10.593  14.626  67.621  1.00  0.00    -0.256 C  
HETATM   23  H   UNL     1     -10.427  14.060  64.409  1.00  0.00     0.000 HD 
HETATM   24  C   UNL     1      -8.417  12.945  67.649  1.00  0.00    -0.183 C  
HETATM   25  C   UNL     1     -12.032  14.310  68.132  1.00  0.00    -0.343 C  
HETATM   26  C   UNL     1     -12.500  14.362  69.393  1.00  0.00    -0.113 C  
HETATM   27  F   UNL     1      -8.732  14.574  66.078  1.00  0.00    -0.109 F  
HETATM   28  C   UNL     1      -7.854  13.763  68.820  1.00  0.00    -0.059 C  
HETATM   29  C   UNL     1      -8.313  15.220  68.759  1.00  0.00    -0.179 C  
HETATM   30  C   UNL     1      -9.806  15.122  68.883  1.00  0.00    -0.229 C  
ENDROOT
BRANCH   9  31
HETATM   31  C   UNL     1      -9.803   8.390  67.066  1.00  0.00    -0.230 C  
HETATM   32  O   UNL     1     -10.760   7.772  66.617  1.00  0.00    -0.231 OA 
BRANCH  31  33
HETATM   33  C   UNL     1      -8.363   8.065  66.681  1.00  0.00    -0.120 C  
BRANCH  33  34
HETATM   34  O   UNL     1      -8.135   6.653  66.563  1.00  0.00    -0.106 OA 
BRANCH  34  35
HETATM   35  C   UNL     1      -7.254   6.155  67.468  1.00  0.00    -0.076 C  
HETATM   36  O   UNL     1      -6.043   6.184  67.362  1.00  0.00    -0.017 OA 
HETATM   37  C   UNL     1      -7.982   5.624  68.679  1.00  0.00    -0.100 C  
ENDBRANCH  34  35
ENDBRANCH  33  34
ENDBRANCH  31  33
ENDBRANCH   9  31
TORSDOF 4
ENDMDL
MODEL       25
REMARK 921   NORMALIZED FREE ENERGY PREDICTED BY IDOCK:   -6.06 KCAL/MOL
REMARK 922        TOTAL FREE ENERGY PREDICTED BY IDOCK:   -8.04 KCAL/MOL
REMARK 923 INTER-LIGAND FREE ENERGY PREDICTED BY IDOCK:   -7.69 KCAL/MOL
REMARK 924 INTRA-LIGAND FREE ENERGY PREDICTED BY IDOCK:   -0.35 KCAL/MOL
REMARK 927      BINDING AFFINITY PREDICTED BY RF-SCORE:    0.00 PKD
ROOT
HETATM    1  C   UNL     1     -11.024  11.743  66.784  1.00  0.00    -0.336 C  
HETATM    2  C   UNL     1     -10.558  11.224  65.445  1.00  0.00    -0.312 C  
HETATM    3  C   UNL     1      -9.610  10.101  65.781  1.00  0.00    -0.230 C  
HETATM    4  O   UNL     1      -8.341  10.536  65.300  1.00  0.00    -0.161 OA 
HETATM    5  C   UNL     1      -7.411  10.011  66.221  1.00  0.00    -0.106 C  
HETATM    6  O   UNL     1      -8.046   9.864  67.496  1.00  0.00    -0.109 OA 
HETATM    7  C   UNL     1      -6.180  10.915  66.236  1.00  0.00    -0.134 C  
HETATM    8  C   UNL     1      -5.135  10.241  65.353  1.00  0.00    -0.073 C  
HETATM    9  C   UNL     1      -9.476   9.954  67.303  1.00  0.00    -0.153 C  
HETATM   10  O   UNL     1      -6.651  15.737  66.633  1.00  0.00    -0.136 OA 
HETATM   11  C   UNL     1      -5.614   8.829  65.062  1.00  0.00    -0.047 C  
HETATM   12  C   UNL     1     -10.100  11.245  67.941  1.00  0.00    -0.195 C  
HETATM   13  C   UNL     1      -6.959   8.641  65.738  1.00  0.00    -0.075 C  
HETATM   14  C   UNL     1      -7.700  15.626  67.215  1.00  0.00    -0.206 C  
HETATM   15  C   UNL     1      -9.004  15.883  66.559  1.00  0.00    -0.331 C  
HETATM   16  C   UNL     1     -11.083  11.214  69.160  1.00  0.00    -0.306 C  
HETATM   17  C   UNL     1      -8.933  12.029  68.527  1.00  0.00    -0.098 C  
HETATM   18  C   UNL     1     -11.900  12.551  69.255  1.00  0.00    -0.304 C  
HETATM   19  C   UNL     1     -11.047  15.829  69.671  1.00  0.00    -0.307 C  
HETATM   20  C   UNL     1     -11.538  13.743  68.292  1.00  0.00    -0.338 C  
HETATM   21  O   UNL     1     -12.099  12.956  70.601  1.00  0.00    -0.459 OA 
HETATM   22  C   UNL     1     -10.401  14.956  68.552  1.00  0.00    -0.237 C  
HETATM   23  H   UNL     1     -12.594  13.766  70.658  1.00  0.00     0.000 HD 
HETATM   24  C   UNL     1     -11.609  13.157  66.858  1.00  0.00    -0.417 C  
HETATM   25  C   UNL     1      -8.974  14.853  69.171  1.00  0.00    -0.140 C  
HETATM   26  C   UNL     1      -7.795  15.184  68.611  1.00  0.00    -0.140 C  
HETATM   27  F   UNL     1     -12.759  14.469  68.334  1.00  0.00    -0.053 F  
HETATM   28  C   UNL     1     -11.367  14.144  65.707  1.00  0.00    -0.317 C  
HETATM   29  C   UNL     1     -11.357  15.591  66.200  1.00  0.00    -0.010 C  
HETATM   30  C   UNL     1     -10.196  15.630  67.150  1.00  0.00    -0.270 C  
ENDROOT
BRANCH   9  31
HETATM   31  C   UNL     1     -10.163   8.690  67.843  1.00  0.00    -0.219 C  
HETATM   32  O   UNL     1     -10.939   8.058  67.137  1.00  0.00    -0.191 OA 
BRANCH  31  33
HETATM   33  C   UNL     1      -9.936   8.359  69.314  1.00  0.00    -0.195 C  
BRANCH  33  34
HETATM   34  O   UNL     1     -10.815   7.325  69.783  1.00  0.00    -0.239 OA 
BRANCH  34  35
HETATM   35  C   UNL     1     -10.812   7.165  71.131  1.00  0.00    -0.239 C  
HETATM   36  O   UNL     1     -10.857   6.097  71.714  1.00  0.00    -0.236 OA 
HETATM   37  C   UNL     1     -10.663   8.497  71.823  1.00  0.00    -0.373 C  
ENDBRANCH  34  35
ENDBRANCH  33  34
ENDBRANCH  31  33
ENDBRANCH   9  31
TORSDOF 4
ENDMDL
MODEL       26
REMARK 921   NORMALIZED FREE ENERGY PREDICTED BY IDOCK:   -6.03 KCAL/MOL
REMARK 922        TOTAL FREE ENERGY PREDICTED BY IDOCK:   -8.01 KCAL/MOL
REMARK 923 INTER-LIGAND FREE ENERGY PREDICTED BY IDOCK:   -8.12 KCAL/MOL
REMARK 924 INTRA-LIGAND FREE ENERGY PREDICTED BY IDOCK:    0.11 KCAL/MOL
REMARK 927      BINDING AFFINITY PREDICTED BY RF-SCORE:    0.00 PKD
ROOT
HETATM    1  C   UNL     1      -9.457   8.974  70.948  1.00  0.00    -0.331 C  
HETATM    2  C   UNL     1      -8.633  10.008  70.220  1.00  0.00     0.068 C  
HETATM    3  C   UNL     1      -9.597  10.657  69.260  1.00  0.00    -0.144 C  
HETATM    4  O   UNL     1      -9.102  10.328  67.965  1.00  0.00    -0.130 OA 
HETATM    5  C   UNL     1     -10.256  10.180  67.169  1.00  0.00    -0.225 C  
HETATM    6  O   UNL     1     -11.349   9.772  68.000  1.00  0.00    -0.099 OA 
HETATM    7  C   UNL     1      -9.940   9.209  66.033  1.00  0.00    -0.293 C  
HETATM    8  C   UNL     1      -9.646  10.062  64.802  1.00  0.00    -0.374 C  
HETATM    9  C   UNL     1     -10.983  10.010  69.378  1.00  0.00    -0.244 C  
HETATM   10  O   UNL     1      -7.758   4.960  66.936  1.00  0.00    -0.090 OA 
HETATM   11  C   UNL     1     -10.069  11.487  65.115  1.00  0.00    -0.313 C  
HETATM   12  C   UNL     1     -10.798   8.686  70.200  1.00  0.00    -0.242 C  
HETATM   13  C   UNL     1     -10.595  11.520  66.537  1.00  0.00    -0.301 C  
HETATM   14  C   UNL     1      -8.197   4.928  68.057  1.00  0.00    -0.096 C  
HETATM   15  C   UNL     1      -7.365   5.233  69.245  1.00  0.00    -0.058 C  
HETATM   16  C   UNL     1     -11.746   8.260  71.372  1.00  0.00    -0.327 C  
HETATM   17  C   UNL     1     -11.023   7.546  69.215  1.00  0.00    -0.057 C  
HETATM   18  C   UNL     1     -11.053   7.196  72.294  1.00  0.00    -0.254 C  
HETATM   19  C   UNL     1      -9.822   4.054  71.781  1.00  0.00    -0.249 C  
HETATM   20  C   UNL     1      -9.662   6.596  71.866  1.00  0.00    -0.153 C  
HETATM   21  O   UNL     1     -11.971   6.214  72.752  1.00  0.00    -0.509 OA 
HETATM   22  C   UNL     1      -9.386   5.255  70.888  1.00  0.00    -0.197 C  
HETATM   23  H   UNL     1     -11.552   5.569  73.311  1.00  0.00     0.000 HD 
HETATM   24  C   UNL     1      -8.733   7.817  71.644  1.00  0.00    -0.142 C  
HETATM   25  C   UNL     1     -10.121   4.818  69.584  1.00  0.00    -0.275 C  
HETATM   26  C   UNL     1      -9.602   4.631  68.356  1.00  0.00    -0.212 C  
HETATM   27  F   UNL     1      -9.193   6.142  73.129  1.00  0.00    -0.134 F  
HETATM   28  C   UNL     1      -7.272   7.505  71.285  1.00  0.00    -0.063 C  
HETATM   29  C   UNL     1      -6.953   6.022  71.472  1.00  0.00    -0.076 C  
HETATM   30  C   UNL     1      -7.869   5.341  70.497  1.00  0.00    -0.084 C  
ENDROOT
BRANCH   9  31
HETATM   31  C   UNL     1     -12.015  10.930  70.048  1.00  0.00    -0.350 C  
HETATM   32  O   UNL     1     -13.020  10.459  70.568  1.00  0.00    -0.344 OA 
BRANCH  31  33
HETATM   33  C   UNL     1     -11.790  12.431  69.910  1.00  0.00    -0.305 C  
BRANCH  33  34
HETATM   34  O   UNL     1     -12.546  13.188  70.868  1.00  0.00    -0.346 OA 
BRANCH  34  35
HETATM   35  C   UNL     1     -12.365  14.531  70.782  1.00  0.00    -0.340 C  
HETATM   36  O   UNL     1     -11.398  15.081  70.290  1.00  0.00    -0.243 OA 
HETATM   37  C   UNL     1     -13.575  15.262  71.310  1.00  0.00    -0.584 C  
ENDBRANCH  34  35
ENDBRANCH  33  34
ENDBRANCH  31  33
ENDBRANCH   9  31
TORSDOF 4
ENDMDL
MODEL       27
REMARK 921   NORMALIZED FREE ENERGY PREDICTED BY IDOCK:   -5.97 KCAL/MOL
REMARK 922        TOTAL FREE ENERGY PREDICTED BY IDOCK:   -7.94 KCAL/MOL
REMARK 923 INTER-LIGAND FREE ENERGY PREDICTED BY IDOCK:   -7.10 KCAL/MOL
REMARK 924 INTRA-LIGAND FREE ENERGY PREDICTED BY IDOCK:   -0.84 KCAL/MOL
REMARK 927      BINDING AFFINITY PREDICTED BY RF-SCORE:    0.00 PKD
ROOT
HETATM    1  C   UNL     1      -7.978   8.598  69.251  1.00  0.00    -0.103 C  
HETATM    2  C   UNL     1      -8.194   9.132  70.647  1.00  0.00    -0.220 C  
HETATM    3  C   UNL     1      -9.441   8.438  71.131  1.00  0.00    -0.179 C  
HETATM    4  O   UNL     1     -10.396   9.481  71.309  1.00  0.00    -0.312 OA 
HETATM    5  C   UNL     1     -11.632   8.896  70.964  1.00  0.00    -0.293 C  
HETATM    6  O   UNL     1     -11.405   7.843  70.020  1.00  0.00    -0.172 OA 
HETATM    7  C   UNL     1     -12.565   9.996  70.460  1.00  0.00    -0.224 C  
HETATM    8  C   UNL     1     -13.478  10.360  71.627  1.00  0.00    -0.335 C  
HETATM    9  C   UNL     1      -9.997   7.516  70.037  1.00  0.00    -0.186 C  
HETATM   10  O   UNL     1     -11.047  13.204  67.138  1.00  0.00    -0.267 OA 
HETATM   11  C   UNL     1     -13.299   9.302  72.702  1.00  0.00    -0.352 C  
HETATM   12  C   UNL     1      -9.263   7.899  68.704  1.00  0.00    -0.142 C  
HETATM   13  C   UNL     1     -12.264   8.306  72.215  1.00  0.00    -0.428 C  
HETATM   14  C   UNL     1     -10.245  12.423  66.692  1.00  0.00    -0.224 C  
HETATM   15  C   UNL     1      -8.793  12.526  66.976  1.00  0.00    -0.212 C  
HETATM   16  C   UNL     1      -8.667   6.841  67.714  1.00  0.00    -0.120 C  
HETATM   17  C   UNL     1     -10.313   8.563  67.824  1.00  0.00    -0.298 C  
HETATM   18  C   UNL     1      -7.602   7.498  66.768  1.00  0.00    -0.101 C  
HETATM   19  C   UNL     1      -7.704  10.009  64.459  1.00  0.00    -0.145 C  
HETATM   20  C   UNL     1      -7.398   9.059  66.804  1.00  0.00    -0.086 C  
HETATM   21  O   UNL     1      -7.664   6.969  65.451  1.00  0.00    -0.097 OA 
HETATM   22  C   UNL     1      -8.231  10.217  65.911  1.00  0.00    -0.148 C  
HETATM   23  H   UNL     1      -7.019   7.367  64.878  1.00  0.00     0.000 HD 
HETATM   24  C   UNL     1      -7.105   9.406  68.286  1.00  0.00    -0.076 C  
HETATM   25  C   UNL     1      -9.750  10.293  65.569  1.00  0.00    -0.326 C  
HETATM   26  C   UNL     1     -10.626  11.271  65.868  1.00  0.00    -0.309 C  
HETATM   27  F   UNL     1      -6.091   9.146  66.255  1.00  0.00    -0.055 F  
HETATM   28  C   UNL     1      -6.791  10.879  68.590  1.00  0.00    -0.062 C  
HETATM   29  C   UNL     1      -6.573  11.683  67.309  1.00  0.00    -0.122 C  
HETATM   30  C   UNL     1      -7.896  11.584  66.604  1.00  0.00    -0.112 C  
ENDROOT
BRANCH   9  31
HETATM   31  C   UNL     1      -9.803   6.026  70.359  1.00  0.00    -0.179 C  
HETATM   32  O   UNL     1     -10.483   5.177  69.795  1.00  0.00    -0.285 OA 
BRANCH  31  33
HETATM   33  C   UNL     1      -8.840   5.686  71.491  1.00  0.00    -0.136 C  
BRANCH  33  34
HETATM   34  O   UNL     1      -9.414   4.778  72.443  1.00  0.00    -0.131 OA 
BRANCH  34  35
HETATM   35  C   UNL     1     -10.251   5.367  73.336  1.00  0.00    -0.196 C  
HETATM   36  O   UNL     1      -9.991   6.349  74.004  1.00  0.00    -0.220 OA 
HETATM   37  C   UNL     1     -11.596   4.682  73.331  1.00  0.00    -0.245 C  
ENDBRANCH  34  35
ENDBRANCH  33  34
ENDBRANCH  31  33
ENDBRANCH   9  31
TORSDOF 4
ENDMDL
MODEL       28
REMARK 921   NORMALIZED FREE ENERGY PREDICTED BY IDOCK:   -5.90 KCAL/MOL
REMARK 922        TOTAL FREE ENERGY PREDICTED BY IDOCK:   -7.85 KCAL/MOL
REMARK 923 INTER-LIGAND FREE ENERGY PREDICTED BY IDOCK:   -7.63 KCAL/MOL
REMARK 924 INTRA-LIGAND FREE ENERGY PREDICTED BY IDOCK:   -0.21 KCAL/MOL
REMARK 927      BINDING AFFINITY PREDICTED BY RF-SCORE:    0.00 PKD
ROOT
HETATM    1  C   UNL     1      -9.016  10.382  69.509  1.00  0.00    -0.127 C  
HETATM    2  C   UNL     1      -8.253  11.283  68.567  1.00  0.00    -0.150 C  
HETATM    3  C   UNL     1      -9.320  12.039  67.816  1.00  0.00    -0.190 C  
HETATM    4  O   UNL     1      -9.179  11.623  66.461  1.00  0.00    -0.187 OA 
HETATM    5  C   UNL     1     -10.494  11.618  65.951  1.00  0.00    -0.255 C  
HETATM    6  O   UNL     1     -11.412  11.377  67.024  1.00  0.00    -0.452 OA 
HETATM    7  C   UNL     1     -10.572  10.594  64.820  1.00  0.00    -0.184 C  
HETATM    8  C   UNL     1     -10.459  11.377  63.516  1.00  0.00    -0.477 C  
HETATM    9  C   UNL     1     -10.714  11.587  68.273  1.00  0.00    -0.211 C  
HETATM   10  O   UNL     1      -8.804   6.105  65.415  1.00  0.00    -0.114 OA 
HETATM   11  C   UNL     1     -10.614  12.852  63.846  1.00  0.00    -0.367 C  
HETATM   12  C   UNL     1     -10.517  10.266  69.094  1.00  0.00    -0.246 C  
HETATM   13  C   UNL     1     -10.793  12.981  65.347  1.00  0.00    -0.304 C  
HETATM   14  C   UNL     1      -8.976   6.152  66.607  1.00  0.00    -0.130 C  
HETATM   15  C   UNL     1      -7.863   6.363  67.563  1.00  0.00    -0.105 C  
HETATM   16  C   UNL     1     -11.219   9.993  70.468  1.00  0.00    -0.408 C  
HETATM   17  C   UNL     1     -11.105   9.150  68.241  1.00  0.00     0.109 C  
HETATM   18  C   UNL     1     -10.477   8.861  71.261  1.00  0.00    -0.287 C  
HETATM   19  C   UNL     1      -9.808   5.573  70.637  1.00  0.00    -0.252 C  
HETATM   20  C   UNL     1      -9.308   8.071  70.562  1.00  0.00    -0.155 C  
HETATM   21  O   UNL     1     -11.384   8.021  71.960  1.00  0.00    -0.265 OA 
HETATM   22  C   UNL     1      -9.436   6.687  69.612  1.00  0.00    -0.144 C  
HETATM   23  H   UNL     1     -10.934   7.335  72.441  1.00  0.00     0.000 HD 
HETATM   24  C   UNL     1      -8.305   9.150  70.080  1.00  0.00    -0.156 C  
HETATM   25  C   UNL     1     -10.499   6.332  68.529  1.00  0.00    -0.273 C  
HETATM   26  C   UNL     1     -10.303   6.054  67.226  1.00  0.00    -0.275 C  
HETATM   27  F   UNL     1      -8.626   7.580  71.708  1.00  0.00    -0.111 F  
HETATM   28  C   UNL     1      -7.018   8.637  69.419  1.00  0.00    -0.053 C  
HETATM   29  C   UNL     1      -6.857   7.128  69.601  1.00  0.00    -0.050 C  
HETATM   30  C   UNL     1      -8.051   6.560  68.889  1.00  0.00    -0.115 C  
ENDROOT
BRANCH   9  31
HETATM   31  C   UNL     1     -11.440  12.650  69.112  1.00  0.00    -0.304 C  
HETATM   32  O   UNL     1     -12.517  12.397  69.636  1.00  0.00    -0.029 OA 
BRANCH  31  33
HETATM   33  C   UNL     1     -10.823  14.045  69.137  1.00  0.00    -0.206 C  
BRANCH  33  34
HETATM   34  O   UNL     1     -11.126  14.798  67.953  1.00  0.00    -0.272 OA 
BRANCH  34  35
HETATM   35  C   UNL     1     -10.501  16.001  67.885  1.00  0.00    -0.292 C  
HETATM   36  O   UNL     1     -10.790  16.983  68.542  1.00  0.00    -0.354 OA 
HETATM   37  C   UNL     1      -9.331  15.937  66.934  1.00  0.00    -0.244 C  
ENDBRANCH  34  35
ENDBRANCH  33  34
ENDBRANCH  31  33
ENDBRANCH   9  31
TORSDOF 4
ENDMDL
MODEL       29
REMARK 921   NORMALIZED FREE ENERGY PREDICTED BY IDOCK:   -5.90 KCAL/MOL
REMARK 922        TOTAL FREE ENERGY PREDICTED BY IDOCK:   -7.84 KCAL/MOL
REMARK 923 INTER-LIGAND FREE ENERGY PREDICTED BY IDOCK:   -7.02 KCAL/MOL
REMARK 924 INTRA-LIGAND FREE ENERGY PREDICTED BY IDOCK:   -0.82 KCAL/MOL
REMARK 927      BINDING AFFINITY PREDICTED BY RF-SCORE:    0.00 PKD
ROOT
HETATM    1  C   UNL     1     -10.806   8.734  68.362  1.00  0.00    -0.019 C  
HETATM    2  C   UNL     1     -10.596   7.327  67.857  1.00  0.00    -0.266 C  
HETATM    3  C   UNL     1     -10.224   6.533  69.084  1.00  0.00    -0.180 C  
HETATM    4  O   UNL     1      -8.887   6.100  68.849  1.00  0.00    -0.122 OA 
HETATM    5  C   UNL     1      -8.280   6.108  70.122  1.00  0.00    -0.120 C  
HETATM    6  O   UNL     1      -8.928   7.086  70.944  1.00  0.00    -0.150 OA 
HETATM    7  C   UNL     1      -6.780   6.337  69.943  1.00  0.00    -0.056 C  
HETATM    8  C   UNL     1      -6.117   4.966  70.038  1.00  0.00    -0.021 C  
HETATM    9  C   UNL     1     -10.179   7.448  70.316  1.00  0.00    -0.200 C  
HETATM   10  O   UNL     1      -5.142   9.917  67.092  1.00  0.00    -0.040 OA 
HETATM   11  C   UNL     1      -7.153   3.985  70.560  1.00  0.00    -0.038 C  
HETATM   12  C   UNL     1     -10.195   8.924  69.787  1.00  0.00    -0.207 C  
HETATM   13  C   UNL     1      -8.455   4.739  70.760  1.00  0.00    -0.110 C  
HETATM   14  C   UNL     1      -6.142  10.567  67.265  1.00  0.00    -0.054 C  
HETATM   15  C   UNL     1      -7.204  10.679  66.238  1.00  0.00    -0.137 C  
HETATM   16  C   UNL     1     -11.107  10.046  70.391  1.00  0.00    -0.393 C  
HETATM   17  C   UNL     1      -8.810   9.488  70.077  1.00  0.00    -0.246 C  
HETATM   18  C   UNL     1     -11.272  11.237  69.382  1.00  0.00    -0.280 C  
HETATM   19  C   UNL     1      -9.100  13.414  67.905  1.00  0.00    -0.208 C  
HETATM   20  C   UNL     1     -10.426  11.244  68.055  1.00  0.00    -0.188 C  
HETATM   21  O   UNL     1     -11.291  12.493  70.044  1.00  0.00    -0.509 OA 
HETATM   22  C   UNL     1      -8.881  11.873  67.832  1.00  0.00    -0.172 C  
HETATM   23  H   UNL     1     -11.392  13.214  69.433  1.00  0.00     0.000 HD 
HETATM   24  C   UNL     1     -10.728   9.891  67.361  1.00  0.00    -0.323 C  
HETATM   25  C   UNL     1      -7.642  11.798  68.775  1.00  0.00    -0.104 C  
HETATM   26  C   UNL     1      -6.430  11.269  68.520  1.00  0.00    -0.051 C  
HETATM   27  F   UNL     1     -11.219  12.120  67.266  1.00  0.00    -0.274 F  
HETATM   28  C   UNL     1     -10.076   9.669  65.988  1.00  0.00    -0.318 C  
HETATM   29  C   UNL     1      -9.452  10.956  65.449  1.00  0.00    -0.254 C  
HETATM   30  C   UNL     1      -8.394  11.284  66.463  1.00  0.00    -0.168 C  
ENDROOT
BRANCH   9  31
HETATM   31  C   UNL     1     -11.347   7.201  71.284  1.00  0.00    -0.268 C  
HETATM   32  O   UNL     1     -12.477   7.007  70.854  1.00  0.00    -0.366 OA 
BRANCH  31  33
HETATM   33  C   UNL     1     -11.048   7.345  72.772  1.00  0.00    -0.346 C  
BRANCH  33  34
HETATM   34  O   UNL     1     -11.029   6.080  73.451  1.00  0.00    -0.253 OA 
BRANCH  34  35
HETATM   35  C   UNL     1      -9.873   5.824  74.115  1.00  0.00    -0.206 C  
HETATM   36  O   UNL     1      -9.488   4.723  74.460  1.00  0.00    -0.120 OA 
HETATM   37  C   UNL     1      -9.078   7.093  74.302  1.00  0.00    -0.251 C  
ENDBRANCH  34  35
ENDBRANCH  33  34
ENDBRANCH  31  33
ENDBRANCH   9  31
TORSDOF 4
ENDMDL
MODEL       30
REMARK 921   NORMALIZED FREE ENERGY PREDICTED BY IDOCK:   -5.89 KCAL/MOL
REMARK 922        TOTAL FREE ENERGY PREDICTED BY IDOCK:   -7.83 KCAL/MOL
REMARK 923 INTER-LIGAND FREE ENERGY PREDICTED BY IDOCK:   -7.52 KCAL/MOL
REMARK 924 INTRA-LIGAND FREE ENERGY PREDICTED BY IDOCK:   -0.30 KCAL/MOL
REMARK 927      BINDING AFFINITY PREDICTED BY RF-SCORE:    0.00 PKD
ROOT
HETATM    1  C   UNL     1      -9.116  12.852  69.072  1.00  0.00     0.498 C  
HETATM    2  C   UNL     1      -8.278  14.085  68.829  1.00  0.00    -0.049 C  
HETATM    3  C   UNL     1      -9.269  15.220  68.799  1.00  0.00    -0.203 C  
HETATM    4  O   UNL     1      -9.201  15.731  67.471  1.00  0.00    -0.201 OA 
HETATM    5  C   UNL     1     -10.518  16.143  67.178  1.00  0.00    -0.305 C  
HETATM    6  O   UNL     1     -11.436  15.353  67.943  1.00  0.00    -0.335 OA 
HETATM    7  C   UNL     1     -10.728  16.056  65.668  1.00  0.00    -0.341 C  
HETATM    8  C   UNL     1     -10.555  17.471  65.124  1.00  0.00     0.275 C  
HETATM    9  C   UNL     1     -10.696  14.687  68.991  1.00  0.00    -0.249 C  
HETATM   10  O   UNL     1      -9.449  12.062  63.210  1.00  0.00    -0.285 OA 
HETATM   11  C   UNL     1     -10.542  18.424  66.307  1.00  0.00    -0.343 C  
HETATM   12  C   UNL     1     -10.629  13.131  68.800  1.00  0.00    -0.225 C  
HETATM   13  C   UNL     1     -10.678  17.602  67.574  1.00  0.00    -0.294 C  
HETATM   14  C   UNL     1      -9.593  11.368  64.185  1.00  0.00    -0.191 C  
HETATM   15  C   UNL     1      -8.446  10.854  64.970  1.00  0.00    -0.009 C  
HETATM   16  C   UNL     1     -11.330  12.114  69.763  1.00  0.00    -0.173 C  
HETATM   17  C   UNL     1     -11.351  12.838  67.491  1.00  0.00    -0.361 C  
HETATM   18  C   UNL     1     -10.701  10.683  69.621  1.00  0.00    -0.244 C  
HETATM   19  C   UNL     1     -10.407   8.465  67.044  1.00  0.00    -0.385 C  
HETATM   20  C   UNL     1      -9.639  10.418  68.489  1.00  0.00    -0.158 C  
HETATM   21  O   UNL     1     -11.681   9.661  69.722  1.00  0.00    -0.446 OA 
HETATM   22  C   UNL     1      -9.935   9.944  66.902  1.00  0.00    -0.268 C  
HETATM   23  H   UNL     1     -11.300   8.794  69.637  1.00  0.00     0.000 HD 
HETATM   24  C   UNL     1      -8.534  11.486  68.697  1.00  0.00    -0.115 C  
HETATM   25  C   UNL     1     -11.051  10.421  65.923  1.00  0.00     0.381 C  
HETATM   26  C   UNL     1     -10.910  11.003  64.717  1.00  0.00    -0.234 C  
HETATM   27  F   UNL     1      -8.993   9.272  69.025  1.00  0.00    -0.131 F  
HETATM   28  C   UNL     1      -7.322  11.404  67.757  1.00  0.00    -0.098 C  
HETATM   29  C   UNL     1      -7.324  10.104  66.952  1.00  0.00    -0.092 C  
HETATM   30  C   UNL     1      -8.585  10.194  66.143  1.00  0.00    -0.147 C  
ENDROOT
BRANCH   9  31
HETATM   31  C   UNL     1     -11.285  15.044  70.365  1.00  0.00    -0.254 C  
HETATM   32  O   UNL     1     -10.549  15.223  71.327  1.00  0.00    -0.073 OA 
BRANCH  31  33
HETATM   33  C   UNL     1     -12.805  15.026  70.486  1.00  0.00    -0.333 C  
BRANCH  33  34
HETATM   34  O   UNL     1     -13.257  15.506  71.761  1.00  0.00    -0.424 OA 
BRANCH  34  35
HETATM   35  C   UNL     1     -13.135  14.604  72.769  1.00  0.00    -0.486 C  
HETATM   36  O   UNL     1     -13.379  13.415  72.683  1.00  0.00    -0.531 OA 
HETATM   37  C   UNL     1     -12.573  15.263  74.004  1.00  0.00    -0.695 C  
ENDBRANCH  34  35
ENDBRANCH  33  34
ENDBRANCH  31  33
ENDBRANCH   9  31
TORSDOF 4
ENDMDL
MODEL       31
REMARK 921   NORMALIZED FREE ENERGY PREDICTED BY IDOCK:   -5.85 KCAL/MOL
REMARK 922        TOTAL FREE ENERGY PREDICTED BY IDOCK:   -7.79 KCAL/MOL
REMARK 923 INTER-LIGAND FREE ENERGY PREDICTED BY IDOCK:   -7.01 KCAL/MOL
REMARK 924 INTRA-LIGAND FREE ENERGY PREDICTED BY IDOCK:   -0.78 KCAL/MOL
REMARK 927      BINDING AFFINITY PREDICTED BY RF-SCORE:    0.00 PKD
ROOT
HETATM    1  C   UNL     1      -8.021   9.001  67.623  1.00  0.00    -0.101 C  
HETATM    2  C   UNL     1      -7.623   8.799  69.065  1.00  0.00    -0.090 C  
HETATM    3  C   UNL     1      -8.539   7.712  69.565  1.00  0.00    -0.132 C  
HETATM    4  O   UNL     1      -9.333   8.334  70.571  1.00  0.00    -0.155 OA 
HETATM    5  C   UNL     1     -10.594   7.711  70.468  1.00  0.00    -0.226 C  
HETATM    6  O   UNL     1     -10.785   7.262  69.122  1.00  0.00    -0.221 OA 
HETATM    7  C   UNL     1     -11.659   8.690  70.957  1.00  0.00    -0.325 C  
HETATM    8  C   UNL     1     -11.988   8.292  72.393  1.00  0.00    -0.447 C  
HETATM    9  C   UNL     1      -9.503   7.274  68.453  1.00  0.00    -0.142 C  
HETATM   10  O   UNL     1     -11.729  13.281  69.362  1.00  0.00    -0.290 OA 
HETATM   11  C   UNL     1     -11.360   6.933  72.653  1.00  0.00    -0.272 C  
HETATM   12  C   UNL     1      -9.412   8.357  67.322  1.00  0.00    -0.196 C  
HETATM   13  C   UNL     1     -10.626   6.507  71.396  1.00  0.00    -0.266 C  
HETATM   14  C   UNL     1     -11.190  12.973  68.330  1.00  0.00    -0.269 C  
HETATM   15  C   UNL     1      -9.757  13.250  68.069  1.00  0.00    -0.223 C  
HETATM   16  C   UNL     1      -9.291   8.005  65.800  1.00  0.00    -0.010 C  
HETATM   17  C   UNL     1     -10.742   9.099  67.343  1.00  0.00    -0.247 C  
HETATM   18  C   UNL     1      -8.736   9.226  64.985  1.00  0.00    -0.190 C  
HETATM   19  C   UNL     1      -9.833  12.412  64.443  1.00  0.00    -0.116 C  
HETATM   20  C   UNL     1      -8.547  10.611  65.708  1.00  0.00    -0.181 C  
HETATM   21  O   UNL     1      -9.353   9.336  63.711  1.00  0.00    -0.381 OA 
HETATM   22  C   UNL     1      -9.689  11.835  65.884  1.00  0.00    -0.259 C  
HETATM   23  H   UNL     1      -9.017  10.075  63.216  1.00  0.00     0.000 HD 
HETATM   24  C   UNL     1      -7.650  10.320  66.939  1.00  0.00    -0.105 C  
HETATM   25  C   UNL     1     -11.209  11.724  66.212  1.00  0.00    -0.370 C  
HETATM   26  C   UNL     1     -11.879  12.254  67.253  1.00  0.00    -0.330 C  
HETATM   27  F   UNL     1      -7.600  11.214  64.836  1.00  0.00     0.154 F  
HETATM   28  C   UNL     1      -7.246  11.534  67.789  1.00  0.00    -0.094 C  
HETATM   29  C   UNL     1      -7.603  12.849  67.095  1.00  0.00    -0.037 C  
HETATM   30  C   UNL     1      -9.099  12.789  66.979  1.00  0.00    -0.220 C  
ENDROOT
BRANCH   9  31
HETATM   31  C   UNL     1      -9.181   5.877  67.901  1.00  0.00    -0.108 C  
HETATM   32  O   UNL     1      -8.024   5.477  67.865  1.00  0.00    -0.096 OA 
BRANCH  31  33
HETATM   33  C   UNL     1     -10.339   5.096  67.289  1.00  0.00    -0.168 C  
BRANCH  33  34
HETATM   34  O   UNL     1      -9.890   4.015  66.458  1.00  0.00    -0.212 OA 
BRANCH  34  35
HETATM   35  C   UNL     1     -10.161   4.180  65.138  1.00  0.00    -0.204 C  
HETATM   36  O   UNL     1     -11.267   4.123  64.634  1.00  0.00    -0.331 OA 
HETATM   37  C   UNL     1      -8.905   4.528  64.378  1.00  0.00    -0.152 C  
ENDBRANCH  34  35
ENDBRANCH  33  34
ENDBRANCH  31  33
ENDBRANCH   9  31
TORSDOF 4
ENDMDL
MODEL       32
REMARK 921   NORMALIZED FREE ENERGY PREDICTED BY IDOCK:   -5.68 KCAL/MOL
REMARK 922        TOTAL FREE ENERGY PREDICTED BY IDOCK:   -7.58 KCAL/MOL
REMARK 923 INTER-LIGAND FREE ENERGY PREDICTED BY IDOCK:   -6.39 KCAL/MOL
REMARK 924 INTRA-LIGAND FREE ENERGY PREDICTED BY IDOCK:   -1.19 KCAL/MOL
REMARK 927      BINDING AFFINITY PREDICTED BY RF-SCORE:    0.00 PKD
ROOT
HETATM    1  C   UNL     1      -8.625   7.014  70.554  1.00  0.00    -0.141 C  
HETATM    2  C   UNL     1      -8.372   8.413  71.063  1.00  0.00    -0.155 C  
HETATM    3  C   UNL     1      -9.739   9.047  71.129  1.00  0.00    -0.299 C  
HETATM    4  O   UNL     1      -9.697  10.107  70.178  1.00  0.00    -0.190 OA 
HETATM    5  C   UNL     1     -11.002  10.160  69.645  1.00  0.00    -0.264 C  
HETATM    6  O   UNL     1     -11.595   8.859  69.728  1.00  0.00     0.076 OA 
HETATM    7  C   UNL     1     -10.924  10.722  68.227  1.00  0.00    -0.307 C  
HETATM    8  C   UNL     1     -11.297  12.199  68.324  1.00  0.00    -0.343 C  
HETATM    9  C   UNL     1     -10.808   8.060  70.640  1.00  0.00    -0.234 C  
HETATM   10  O   UNL     1      -7.697   8.974  65.040  1.00  0.00    -0.103 OA 
HETATM   11  C   UNL     1     -11.873  12.441  69.709  1.00  0.00    -0.387 C  
HETATM   12  C   UNL     1     -10.050   6.885  69.927  1.00  0.00    -0.200 C  
HETATM   13  C   UNL     1     -11.832  11.131  70.471  1.00  0.00    -0.448 C  
HETATM   14  C   UNL     1      -7.673   7.902  65.591  1.00  0.00    -0.096 C  
HETATM   15  C   UNL     1      -6.550   7.481  66.461  1.00  0.00    -0.053 C  
HETATM   16  C   UNL     1     -10.382   5.374  70.169  1.00  0.00    -0.361 C  
HETATM   17  C   UNL     1     -10.369   7.019  68.444  1.00  0.00    -0.216 C  
HETATM   18  C   UNL     1      -9.185   4.459  69.728  1.00  0.00    -0.131 C  
HETATM   19  C   UNL     1      -7.580   3.917  66.766  1.00  0.00    -0.084 C  
HETATM   20  C   UNL     1      -7.955   5.106  68.988  1.00  0.00    -0.085 C  
HETATM   21  O   UNL     1      -9.633   3.254  69.126  1.00  0.00    -0.157 OA 
HETATM   22  C   UNL     1      -7.775   5.356  67.334  1.00  0.00    -0.096 C  
HETATM   23  H   UNL     1      -8.908   2.700  68.859  1.00  0.00     0.000 HD 
HETATM   24  C   UNL     1      -7.462   6.246  69.917  1.00  0.00    -0.084 C  
HETATM   25  C   UNL     1      -8.826   5.846  66.291  1.00  0.00    -0.143 C  
HETATM   26  C   UNL     1      -8.769   6.932  65.496  1.00  0.00    -0.041 C  
HETATM   27  F   UNL     1      -6.968   4.118  69.247  1.00  0.00    -0.043 F  
HETATM   28  C   UNL     1      -6.207   7.002  69.459  1.00  0.00    -0.034 C  
HETATM   29  C   UNL     1      -5.528   6.302  68.282  1.00  0.00    -0.008 C  
HETATM   30  C   UNL     1      -6.567   6.347  67.200  1.00  0.00    -0.058 C  
ENDROOT
BRANCH   9  31
HETATM   31  C   UNL     1     -11.693   7.529  71.778  1.00  0.00    -0.284 C  
HETATM   32  O   UNL     1     -12.868   7.254  71.571  1.00  0.00    -0.359 OA 
BRANCH  31  33
HETATM   33  C   UNL     1     -11.076   7.497  73.172  1.00  0.00    -0.326 C  
BRANCH  33  34
HETATM   34  O   UNL     1     -10.848   6.158  73.638  1.00  0.00    -0.245 OA 
BRANCH  34  35
HETATM   35  C   UNL     1      -9.537   5.840  73.793  1.00  0.00    -0.144 C  
HETATM   36  O   UNL     1      -9.011   4.814  73.406  1.00  0.00    -0.109 OA 
HETATM   37  C   UNL     1      -8.790   6.977  74.447  1.00  0.00    -0.235 C  
ENDBRANCH  34  35
ENDBRANCH  33  34
ENDBRANCH  31  33
ENDBRANCH   9  31
TORSDOF 4
ENDMDL
MODEL       33
REMARK 921   NORMALIZED FREE ENERGY PREDICTED BY IDOCK:   -5.64 KCAL/MOL
REMARK 922        TOTAL FREE ENERGY PREDICTED BY IDOCK:   -7.53 KCAL/MOL
REMARK 923 INTER-LIGAND FREE ENERGY PREDICTED BY IDOCK:   -6.55 KCAL/MOL
REMARK 924 INTRA-LIGAND FREE ENERGY PREDICTED BY IDOCK:   -0.98 KCAL/MOL
REMARK 927      BINDING AFFINITY PREDICTED BY RF-SCORE:    0.00 PKD
ROOT
HETATM    1  C   UNL     1     -10.643   9.316  68.891  1.00  0.00    -0.222 C  
HETATM    2  C   UNL     1     -10.546  10.819  69.003  1.00  0.00    -0.250 C  
HETATM    3  C   UNL     1      -9.425  11.199  68.069  1.00  0.00    -0.174 C  
HETATM    4  O   UNL     1      -8.413  11.743  68.912  1.00  0.00    -0.049 OA 
HETATM    5  C   UNL     1      -7.199  11.359  68.306  1.00  0.00    -0.082 C  
HETATM    6  O   UNL     1      -7.403  10.143  67.577  1.00  0.00    -0.088 OA 
HETATM    7  C   UNL     1      -6.125  11.265  69.388  1.00  0.00    -0.074 C  
HETATM    8  C   UNL     1      -5.326  12.563  69.321  1.00  0.00    -0.070 C  
HETATM    9  C   UNL     1      -8.826   9.944  67.418  1.00  0.00    -0.132 C  
HETATM   10  O   UNL     1      -6.974   8.848  73.520  1.00  0.00    -0.351 OA 
HETATM   11  C   UNL     1      -5.716  13.281  68.040  1.00  0.00    -0.119 C  
HETATM   12  C   UNL     1      -9.366   8.712  68.224  1.00  0.00    -0.143 C  
HETATM   13  C   UNL     1      -6.768  12.447  67.335  1.00  0.00    -0.152 C  
HETATM   14  C   UNL     1      -7.782   8.133  72.982  1.00  0.00    -0.148 C  
HETATM   15  C   UNL     1      -9.243   8.306  73.168  1.00  0.00    -0.293 C  
HETATM   16  C   UNL     1      -9.930   7.418  67.545  1.00  0.00    -0.225 C  
HETATM   17  C   UNL     1      -8.169   8.147  68.978  1.00  0.00    -0.127 C  
HETATM   18  C   UNL     1     -10.821   6.601  68.547  1.00  0.00    -0.258 C  
HETATM   19  C   UNL     1     -10.241   5.102  71.557  1.00  0.00    -0.274 C  
HETATM   20  C   UNL     1     -10.895   7.053  70.053  1.00  0.00    -0.261 C  
HETATM   21  O   UNL     1     -10.651   5.201  68.387  1.00  0.00    -0.076 OA 
HETATM   22  C   UNL     1      -9.870   6.595  71.307  1.00  0.00    -0.190 C  
HETATM   23  H   UNL     1     -11.190   4.706  68.994  1.00  0.00     0.000 HD 
HETATM   24  C   UNL     1     -11.328   8.541  70.022  1.00  0.00    -0.009 C  
HETATM   25  C   UNL     1      -8.321   6.422  71.300  1.00  0.00    -0.123 C  
HETATM   26  C   UNL     1      -7.407   7.058  72.058  1.00  0.00    -0.082 C  
HETATM   27  F   UNL     1     -12.118   6.437  70.432  1.00  0.00    -0.446 F  
HETATM   28  C   UNL     1     -11.550   9.215  71.384  1.00  0.00    -0.411 C  
HETATM   29  C   UNL     1     -11.549   8.194  72.521  1.00  0.00    -0.468 C  
HETATM   30  C   UNL     1     -10.168   7.609  72.467  1.00  0.00    -0.298 C  
ENDROOT
BRANCH   9  31
HETATM   31  C   UNL     1      -9.180   9.820  65.928  1.00  0.00    -0.187 C  
HETATM   32  O   UNL     1     -10.332   9.989  65.548  1.00  0.00    -0.241 OA 
BRANCH  31  33
HETATM   33  C   UNL     1      -8.069   9.352  64.994  1.00  0.00    -0.129 C  
BRANCH  33  34
HETATM   34  O   UNL     1      -8.365   8.085  64.385  1.00  0.00    -0.122 OA 
BRANCH  34  35
HETATM   35  C   UNL     1      -7.696   7.038  64.932  1.00  0.00    -0.114 C  
HETATM   36  O   UNL     1      -8.065   5.878  64.910  1.00  0.00    -0.122 OA 
HETATM   37  C   UNL     1      -6.378   7.493  65.508  1.00  0.00    -0.041 C  
ENDBRANCH  34  35
ENDBRANCH  33  34
ENDBRANCH  31  33
ENDBRANCH   9  31
TORSDOF 4
ENDMDL
MODEL       34
REMARK 921   NORMALIZED FREE ENERGY PREDICTED BY IDOCK:   -5.64 KCAL/MOL
REMARK 922        TOTAL FREE ENERGY PREDICTED BY IDOCK:   -7.52 KCAL/MOL
REMARK 923 INTER-LIGAND FREE ENERGY PREDICTED BY IDOCK:   -6.66 KCAL/MOL
REMARK 924 INTRA-LIGAND FREE ENERGY PREDICTED BY IDOCK:   -0.86 KCAL/MOL
REMARK 927      BINDING AFFINITY PREDICTED BY RF-SCORE:    0.00 PKD
ROOT
HETATM    1  C   UNL     1     -10.075   8.443  68.026  1.00  0.00    -0.245 C  
HETATM    2  C   UNL     1     -10.907   7.323  67.450  1.00  0.00    -0.317 C  
HETATM    3  C   UNL     1     -10.561   6.120  68.290  1.00  0.00    -0.262 C  
HETATM    4  O   UNL     1      -9.931   5.213  67.390  1.00  0.00    -0.158 OA 
HETATM    5  C   UNL     1      -8.956   4.556  68.170  1.00  0.00    -0.116 C  
HETATM    6  O   UNL     1      -8.543   5.425  69.232  1.00  0.00    -0.101 OA 
HETATM    7  C   UNL     1      -7.820   4.110  67.251  1.00  0.00    -0.092 C  
HETATM    8  C   UNL     1      -8.054   2.632  66.957  1.00  0.00    -0.076 C  
HETATM    9  C   UNL     1      -9.512   6.492  69.346  1.00  0.00    -0.145 C  
HETATM   10  O   UNL     1      -5.858   7.202  64.054  1.00  0.00    -0.035 OA 
HETATM   11  C   UNL     1      -9.125   2.133  67.913  1.00  0.00    -0.218 C  
HETATM   12  C   UNL     1      -8.932   7.891  68.938  1.00  0.00    -0.141 C  
HETATM   13  C   UNL     1      -9.569   3.302  68.772  1.00  0.00    -0.107 C  
HETATM   14  C   UNL     1      -6.152   8.153  64.733  1.00  0.00    -0.049 C  
HETATM   15  C   UNL     1      -7.288   9.046  64.401  1.00  0.00    -0.099 C  
HETATM   16  C   UNL     1      -8.723   9.067  69.952  1.00  0.00    -0.160 C  
HETATM   17  C   UNL     1      -7.500   7.637  68.488  1.00  0.00    -0.104 C  
HETATM   18  C   UNL     1      -8.610  10.440  69.203  1.00  0.00    -0.164 C  
HETATM   19  C   UNL     1      -6.458  11.702  66.873  1.00  0.00    -0.134 C  
HETATM   20  C   UNL     1      -8.548  10.456  67.629  1.00  0.00    -0.118 C  
HETATM   21  O   UNL     1      -7.656  11.299  69.811  1.00  0.00    -0.350 OA 
HETATM   22  C   UNL     1      -7.178  10.336  66.660  1.00  0.00    -0.109 C  
HETATM   23  H   UNL     1      -7.587  12.131  69.357  1.00  0.00     0.000 HD 
HETATM   24  C   UNL     1      -9.801   9.674  67.156  1.00  0.00    -0.238 C  
HETATM   25  C   UNL     1      -5.929   9.418  66.829  1.00  0.00    -0.060 C  
HETATM   26  C   UNL     1      -5.449   8.495  65.974  1.00  0.00    -0.034 C  
HETATM   27  F   UNL     1      -8.969  11.790  67.382  1.00  0.00    -0.158 F  
HETATM   28  C   UNL     1     -10.025   9.601  65.638  1.00  0.00    -0.321 C  
HETATM   29  C   UNL     1      -9.091  10.550  64.887  1.00  0.00    -0.235 C  
HETATM   30  C   UNL     1      -7.722  10.031  65.221  1.00  0.00    -0.139 C  
ENDROOT
BRANCH   9  31
HETATM   31  C   UNL     1     -10.088   6.533  70.770  1.00  0.00    -0.185 C  
HETATM   32  O   UNL     1      -9.420   6.144  71.720  1.00  0.00    -0.152 OA 
BRANCH  31  33
HETATM   33  C   UNL     1     -11.550   6.944  70.909  1.00  0.00    -0.337 C  
BRANCH  33  34
HETATM   34  O   UNL     1     -11.761   7.849  72.003  1.00  0.00    -0.280 OA 
BRANCH  34  35
HETATM   35  C   UNL     1     -12.722   8.780  71.776  1.00  0.00    -0.359 C  
HETATM   36  O   UNL     1     -13.867   8.726  72.186  1.00  0.00    -0.410 OA 
HETATM   37  C   UNL     1     -12.157   9.948  71.005  1.00  0.00    -0.450 C  
ENDBRANCH  34  35
ENDBRANCH  33  34
ENDBRANCH  31  33
ENDBRANCH   9  31
TORSDOF 4
ENDMDL
MODEL       35
REMARK 921   NORMALIZED FREE ENERGY PREDICTED BY IDOCK:   -5.62 KCAL/MOL
REMARK 922        TOTAL FREE ENERGY PREDICTED BY IDOCK:   -7.49 KCAL/MOL
REMARK 923 INTER-LIGAND FREE ENERGY PREDICTED BY IDOCK:   -6.79 KCAL/MOL
REMARK 924 INTRA-LIGAND FREE ENERGY PREDICTED BY IDOCK:   -0.71 KCAL/MOL
REMARK 927      BINDING AFFINITY PREDICTED BY RF-SCORE:    0.00 PKD
ROOT
HETATM    1  C   UNL     1      -9.588   8.902  66.981  1.00  0.00    -0.232 C  
HETATM    2  C   UNL     1     -11.002   9.422  66.870  1.00  0.00     0.102 C  
HETATM    3  C   UNL     1     -10.996  10.711  67.652  1.00  0.00    -0.310 C  
HETATM    4  O   UNL     1     -11.881  10.481  68.745  1.00  0.00    -0.277 OA 
HETATM    5  C   UNL     1     -11.325  11.211  69.815  1.00  0.00    -0.278 C  
HETATM    6  O   UNL     1      -9.908  11.312  69.627  1.00  0.00     0.225 OA 
HETATM    7  C   UNL     1     -11.735  10.540  71.124  1.00  0.00    -0.323 C  
HETATM    8  C   UNL     1     -12.913  11.338  71.672  1.00  0.00    -0.537 C  
HETATM    9  C   UNL     1      -9.607  10.961  68.257  1.00  0.00    -0.167 C  
HETATM   10  O   UNL     1     -11.246   5.738  71.708  1.00  0.00    -0.264 OA 
HETATM   11  C   UNL     1     -13.012  12.626  70.872  1.00  0.00    -0.071 C  
HETATM   12  C   UNL     1      -8.808   9.617  68.131  1.00  0.00    -0.119 C  
HETATM   13  C   UNL     1     -11.919  12.610  69.820  1.00  0.00    -0.365 C  
HETATM   14  C   UNL     1     -10.342   5.694  70.913  1.00  0.00    -0.238 C  
HETATM   15  C   UNL     1     -10.521   5.177  69.535  1.00  0.00    -0.233 C  
HETATM   16  C   UNL     1      -7.328   9.539  67.623  1.00  0.00    -0.083 C  
HETATM   17  C   UNL     1      -8.658   9.083  69.549  1.00  0.00    -0.138 C  
HETATM   18  C   UNL     1      -6.975   8.086  67.145  1.00  0.00    -0.075 C  
HETATM   19  C   UNL     1      -6.901   5.037  68.676  1.00  0.00    -0.052 C  
HETATM   20  C   UNL     1      -8.014   6.926  67.378  1.00  0.00    -0.112 C  
HETATM   21  O   UNL     1      -5.645   7.726  67.485  1.00  0.00    -0.034 OA 
HETATM   22  C   UNL     1      -8.165   5.948  68.739  1.00  0.00    -0.103 C  
HETATM   23  H   UNL     1      -5.430   6.846  67.195  1.00  0.00     0.000 HD 
HETATM   24  C   UNL     1      -9.334   7.413  66.726  1.00  0.00    -0.202 C  
HETATM   25  C   UNL     1      -8.064   6.335  70.245  1.00  0.00    -0.116 C  
HETATM   26  C   UNL     1      -8.992   6.187  71.209  1.00  0.00    -0.140 C  
HETATM   27  F   UNL     1      -7.569   6.001  66.396  1.00  0.00    -0.086 F  
HETATM   28  C   UNL     1     -10.509   6.423  66.747  1.00  0.00    -0.304 C  
HETATM   29  C   UNL     1     -10.061   5.030  67.186  1.00  0.00    -0.239 C  
HETATM   30  C   UNL     1      -9.559   5.247  68.585  1.00  0.00    -0.183 C  
ENDROOT
BRANCH   9  31
HETATM   31  C   UNL     1      -8.856  12.111  67.569  1.00  0.00    -0.175 C  
HETATM   32  O   UNL     1      -7.980  12.724  68.167  1.00  0.00    -0.137 OA 
BRANCH  31  33
HETATM   33  C   UNL     1      -9.347  12.522  66.186  1.00  0.00    -0.134 C  
BRANCH  33  34
HETATM   34  O   UNL     1      -9.831  13.874  66.158  1.00  0.00    -0.294 OA 
BRANCH  34  35
HETATM   35  C   UNL     1     -10.998  14.031  65.483  1.00  0.00    -0.309 C  
HETATM   36  O   UNL     1     -11.100  14.206  64.283  1.00  0.00    -0.296 OA 
HETATM   37  C   UNL     1     -12.175  13.879  66.415  1.00  0.00    -0.487 C  
ENDBRANCH  34  35
ENDBRANCH  33  34
ENDBRANCH  31  33
ENDBRANCH   9  31
TORSDOF 4
ENDMDL
MODEL       36
REMARK 921   NORMALIZED FREE ENERGY PREDICTED BY IDOCK:   -5.55 KCAL/MOL
REMARK 922        TOTAL FREE ENERGY PREDICTED BY IDOCK:   -7.42 KCAL/MOL
REMARK 923 INTER-LIGAND FREE ENERGY PREDICTED BY IDOCK:   -6.44 KCAL/MOL
REMARK 924 INTRA-LIGAND FREE ENERGY PREDICTED BY IDOCK:   -0.98 KCAL/MOL
REMARK 927      BINDING AFFINITY PREDICTED BY RF-SCORE:    0.00 PKD
ROOT
HETATM    1  C   UNL     1      -9.218   7.544  70.335  1.00  0.00    -0.157 C  
HETATM    2  C   UNL     1      -9.132   8.592  71.418  1.00  0.00    -0.295 C  
HETATM    3  C   UNL     1     -10.566   8.964  71.702  1.00  0.00    -0.352 C  
HETATM    4  O   UNL     1     -10.672  10.333  71.319  1.00  0.00     0.178 OA 
HETATM    5  C   UNL     1     -11.982  10.461  70.812  1.00  0.00    -0.363 C  
HETATM    6  O   UNL     1     -12.407   9.198  70.288  1.00  0.00     0.163 OA 
HETATM    7  C   UNL     1     -11.998  11.597  69.792  1.00  0.00    -0.402 C  
HETATM    8  C   UNL     1     -12.549  12.823  70.515  1.00  0.00    -0.191 C  
HETATM    9  C   UNL     1     -11.512   8.177  70.785  1.00  0.00    -0.261 C  
HETATM   10  O   UNL     1      -8.631  11.837  66.294  1.00  0.00    -0.158 OA 
HETATM   11  C   UNL     1     -13.129  12.357  71.840  1.00  0.00    -0.471 C  
HETATM   12  C   UNL     1     -10.626   7.538  69.659  1.00  0.00    -0.243 C  
HETATM   13  C   UNL     1     -12.912  10.859  71.947  1.00  0.00    -0.502 C  
HETATM   14  C   UNL     1      -8.465  10.643  66.316  1.00  0.00    -0.155 C  
HETATM   15  C   UNL     1      -7.284  10.017  66.956  1.00  0.00    -0.090 C  
HETATM   16  C   UNL     1     -10.763   6.048  69.196  1.00  0.00    -0.399 C  
HETATM   17  C   UNL     1     -10.984   8.276  68.375  1.00  0.00     0.171 C  
HETATM   18  C   UNL     1      -9.470   5.573  68.445  1.00  0.00    -0.118 C  
HETATM   19  C   UNL     1      -7.859   6.593  65.615  1.00  0.00    -0.105 C  
HETATM   20  C   UNL     1      -8.342   6.621  68.117  1.00  0.00    -0.117 C  
HETATM   21  O   UNL     1      -9.774   4.715  67.356  1.00  0.00    -0.163 OA 
HETATM   22  C   UNL     1      -8.222   7.596  66.751  1.00  0.00    -0.124 C  
HETATM   23  H   UNL     1      -8.991   4.426  66.901  1.00  0.00     0.000 HD 
HETATM   24  C   UNL     1      -7.979   7.281  69.472  1.00  0.00    -0.127 C  
HETATM   25  C   UNL     1      -9.342   8.369  65.990  1.00  0.00    -0.244 C  
HETATM   26  C   UNL     1      -9.433   9.693  65.758  1.00  0.00    -0.308 C  
HETATM   27  F   UNL     1      -7.235   5.745  67.953  1.00  0.00    -0.066 F  
HETATM   28  C   UNL     1      -6.835   8.306  69.446  1.00  0.00    -0.043 C  
HETATM   29  C   UNL     1      -6.094   8.284  68.110  1.00  0.00    -0.050 C  
HETATM   30  C   UNL     1      -7.148   8.680  67.117  1.00  0.00    -0.075 C  
ENDROOT
BRANCH   9  31
HETATM   31  C   UNL     1     -12.306   7.096  71.535  1.00  0.00    -0.370 C  
HETATM   32  O   UNL     1     -13.454   6.828  71.203  1.00  0.00    -0.147 OA 
BRANCH  31  33
HETATM   33  C   UNL     1     -11.647   6.492  72.771  1.00  0.00    -0.075 C  
BRANCH  33  34
HETATM   34  O   UNL     1     -11.313   5.108  72.590  1.00  0.00    -0.243 OA 
BRANCH  34  35
HETATM   35  C   UNL     1      -9.979   4.862  72.526  1.00  0.00    -0.173 C  
HETATM   36  O   UNL     1      -9.132   5.388  73.222  1.00  0.00    -0.127 OA 
HETATM   37  C   UNL     1      -9.688   3.777  71.518  1.00  0.00    -0.241 C  
ENDBRANCH  34  35
ENDBRANCH  33  34
ENDBRANCH  31  33
ENDBRANCH   9  31
TORSDOF 4
ENDMDL
MODEL       37
REMARK 921   NORMALIZED FREE ENERGY PREDICTED BY IDOCK:   -5.51 KCAL/MOL
REMARK 922        TOTAL FREE ENERGY PREDICTED BY IDOCK:   -7.36 KCAL/MOL
REMARK 923 INTER-LIGAND FREE ENERGY PREDICTED BY IDOCK:   -6.81 KCAL/MOL
REMARK 924 INTRA-LIGAND FREE ENERGY PREDICTED BY IDOCK:   -0.55 KCAL/MOL
REMARK 927      BINDING AFFINITY PREDICTED BY RF-SCORE:    0.00 PKD
ROOT
HETATM    1  C   UNL     1     -10.228   6.934  68.208  1.00  0.00    -0.201 C  
HETATM    2  C   UNL     1     -11.383   6.200  68.846  1.00  0.00    -0.202 C  
HETATM    3  C   UNL     1     -11.206   6.425  70.326  1.00  0.00    -0.382 C  
HETATM    4  O   UNL     1     -10.959   5.130  70.867  1.00  0.00    -0.063 OA 
HETATM    5  C   UNL     1     -10.058   5.351  71.928  1.00  0.00    -0.193 C  
HETATM    6  O   UNL     1      -9.288   6.527  71.651  1.00  0.00    -0.148 OA 
HETATM    7  C   UNL     1      -9.220   4.089  72.125  1.00  0.00    -0.168 C  
HETATM    8  C   UNL     1      -9.842   3.333  73.295  1.00  0.00    -0.168 C  
HETATM    9  C   UNL     1      -9.945   7.259  70.591  1.00  0.00    -0.186 C  
HETATM   10  O   UNL     1      -7.108   1.899  68.334  1.00  0.00    -0.039 OA 
HETATM   11  C   UNL     1     -10.836   4.262  73.971  1.00  0.00    -0.301 C  
HETATM   12  C   UNL     1      -9.121   7.273  69.256  1.00  0.00    -0.138 C  
HETATM   13  C   UNL     1     -10.848   5.573  73.208  1.00  0.00    -0.337 C  
HETATM   14  C   UNL     1      -7.056   2.932  67.715  1.00  0.00    -0.049 C  
HETATM   15  C   UNL     1      -7.985   3.238  66.601  1.00  0.00    -0.080 C  
HETATM   16  C   UNL     1      -8.481   8.569  68.652  1.00  0.00    -0.131 C  
HETATM   17  C   UNL     1      -7.879   6.432  69.520  1.00  0.00    -0.101 C  
HETATM   18  C   UNL     1      -8.164   8.380  67.127  1.00  0.00    -0.108 C  
HETATM   19  C   UNL     1      -6.169   6.243  65.366  1.00  0.00    -0.037 C  
HETATM   20  C   UNL     1      -8.349   6.960  66.474  1.00  0.00    -0.121 C  
HETATM   21  O   UNL     1      -6.950   9.016  66.756  1.00  0.00    -0.079 OA 
HETATM   22  C   UNL     1      -7.217   5.717  66.393  1.00  0.00    -0.077 C  
HETATM   23  H   UNL     1      -6.757   8.901  65.832  1.00  0.00     0.000 HD 
HETATM   24  C   UNL     1      -9.810   6.545  66.786  1.00  0.00    -0.213 C  
HETATM   25  C   UNL     1      -6.211   5.229  67.480  1.00  0.00    -0.035 C  
HETATM   26  C   UNL     1      -6.106   4.004  68.030  1.00  0.00    -0.032 C  
HETATM   27  F   UNL     1      -8.474   7.335  65.109  1.00  0.00    -0.141 F  
HETATM   28  C   UNL     1     -10.281   5.210  66.190  1.00  0.00    -0.258 C  
HETATM   29  C   UNL     1      -9.279   4.665  65.173  1.00  0.00    -0.156 C  
HETATM   30  C   UNL     1      -8.038   4.444  65.988  1.00  0.00    -0.102 C  
ENDROOT
BRANCH   9  31
HETATM   31  C   UNL     1     -10.263   8.689  71.053  1.00  0.00    -0.220 C  
HETATM   32  O   UNL     1      -9.468   9.305  71.752  1.00  0.00    -0.302 OA 
BRANCH  31  33
HETATM   33  C   UNL     1     -11.648   9.229  70.714  1.00  0.00    -0.285 C  
BRANCH  33  34
HETATM   34  O   UNL     1     -11.828  10.585  71.151  1.00  0.00    -0.346 OA 
BRANCH  34  35
HETATM   35  C   UNL     1     -12.948  10.786  71.890  1.00  0.00    -0.419 C  
HETATM   36  O   UNL     1     -13.430  11.870  72.159  1.00  0.00    -0.458 OA 
HETATM   37  C   UNL     1     -13.573   9.467  72.274  1.00  0.00    -0.532 C  
ENDBRANCH  34  35
ENDBRANCH  33  34
ENDBRANCH  31  33
ENDBRANCH   9  31
TORSDOF 4
ENDMDL
MODEL       38
REMARK 921   NORMALIZED FREE ENERGY PREDICTED BY IDOCK:   -5.50 KCAL/MOL
REMARK 922        TOTAL FREE ENERGY PREDICTED BY IDOCK:   -7.35 KCAL/MOL
REMARK 923 INTER-LIGAND FREE ENERGY PREDICTED BY IDOCK:   -6.48 KCAL/MOL
REMARK 924 INTRA-LIGAND FREE ENERGY PREDICTED BY IDOCK:   -0.87 KCAL/MOL
REMARK 927      BINDING AFFINITY PREDICTED BY RF-SCORE:    0.00 PKD
ROOT
HETATM    1  C   UNL     1      -8.043   8.990  67.553  1.00  0.00    -0.108 C  
HETATM    2  C   UNL     1      -7.567   8.766  68.969  1.00  0.00    -0.090 C  
HETATM    3  C   UNL     1      -8.491   7.709  69.519  1.00  0.00    -0.132 C  
HETATM    4  O   UNL     1      -9.200   8.355  70.573  1.00  0.00    -0.144 OA 
HETATM    5  C   UNL     1     -10.487   7.780  70.543  1.00  0.00    -0.217 C  
HETATM    6  O   UNL     1     -10.775   7.346  69.209  1.00  0.00    -0.223 OA 
HETATM    7  C   UNL     1     -11.485   8.794  71.098  1.00  0.00    -0.344 C  
HETATM    8  C   UNL     1     -11.742   8.401  72.550  1.00  0.00    -0.429 C  
HETATM    9  C   UNL     1      -9.535   7.314  68.465  1.00  0.00    -0.140 C  
HETATM   10  O   UNL     1     -11.479  13.394  69.526  1.00  0.00    -0.271 OA 
HETATM   11  C   UNL     1     -11.150   7.018  72.767  1.00  0.00    -0.320 C  
HETATM   12  C   UNL     1      -9.472   8.399  67.334  1.00  0.00    -0.185 C  
HETATM   13  C   UNL     1     -10.509   6.572  71.467  1.00  0.00    -0.245 C  
HETATM   14  C   UNL     1     -11.014  13.072  68.462  1.00  0.00    -0.263 C  
HETATM   15  C   UNL     1      -9.590  13.298  68.117  1.00  0.00    -0.227 C  
HETATM   16  C   UNL     1      -9.455   8.051  65.807  1.00  0.00     0.067 C  
HETATM   17  C   UNL     1     -10.770   9.189  67.437  1.00  0.00    -0.247 C  
HETATM   18  C   UNL     1      -8.905   9.255  64.964  1.00  0.00    -0.198 C  
HETATM   19  C   UNL     1      -9.913  12.483  64.499  1.00  0.00    -0.195 C  
HETATM   20  C   UNL     1      -8.622  10.629  65.679  1.00  0.00    -0.182 C  
HETATM   21  O   UNL     1      -9.592   9.395  63.729  1.00  0.00    -0.393 OA 
HETATM   22  C   UNL     1      -9.705  11.893  65.927  1.00  0.00    -0.258 C  
HETATM   23  H   UNL     1      -9.259  10.125  63.218  1.00  0.00     0.000 HD 
HETATM   24  C   UNL     1      -7.665  10.298  66.853  1.00  0.00    -0.105 C  
HETATM   25  C   UNL     1     -11.206  11.836  66.345  1.00  0.00    -0.382 C  
HETATM   26  C   UNL     1     -11.793  12.385  67.426  1.00  0.00    -0.360 C  
HETATM   27  F   UNL     1      -7.707  11.201  64.754  1.00  0.00     0.161 F  
HETATM   28  C   UNL     1      -7.166  11.492  67.681  1.00  0.00    -0.103 C  
HETATM   29  C   UNL     1      -7.514  12.822  67.015  1.00  0.00     0.061 C  
HETATM   30  C   UNL     1      -9.015  12.819  66.989  1.00  0.00    -0.221 C  
ENDROOT
BRANCH   9  31
HETATM   31  C   UNL     1      -9.299   5.910  67.890  1.00  0.00    -0.107 C  
HETATM   32  O   UNL     1     -10.227   5.274  67.405  1.00  0.00    -0.185 OA 
BRANCH  31  33
HETATM   33  C   UNL     1      -7.907   5.315  68.079  1.00  0.00    -0.091 C  
BRANCH  33  34
HETATM   34  O   UNL     1      -7.949   4.002  68.658  1.00  0.00    -0.071 OA 
BRANCH  34  35
HETATM   35  C   UNL     1      -8.151   3.994  70.001  1.00  0.00    -0.057 C  
HETATM   36  O   UNL     1      -7.482   4.600  70.817  1.00  0.00    -0.051 OA 
HETATM   37  C   UNL     1      -9.380   3.189  70.347  1.00  0.00    -0.232 C  
ENDBRANCH  34  35
ENDBRANCH  33  34
ENDBRANCH  31  33
ENDBRANCH   9  31
TORSDOF 4
ENDMDL
MODEL       39
REMARK 921   NORMALIZED FREE ENERGY PREDICTED BY IDOCK:   -5.50 KCAL/MOL
REMARK 922        TOTAL FREE ENERGY PREDICTED BY IDOCK:   -7.35 KCAL/MOL
REMARK 923 INTER-LIGAND FREE ENERGY PREDICTED BY IDOCK:   -6.16 KCAL/MOL
REMARK 924 INTRA-LIGAND FREE ENERGY PREDICTED BY IDOCK:   -1.19 KCAL/MOL
REMARK 927      BINDING AFFINITY PREDICTED BY RF-SCORE:    0.00 PKD
ROOT
HETATM    1  C   UNL     1      -8.023   8.433  68.950  1.00  0.00    -0.115 C  
HETATM    2  C   UNL     1      -8.071   8.898  70.386  1.00  0.00    -0.133 C  
HETATM    3  C   UNL     1      -9.334   8.290  70.940  1.00  0.00    -0.159 C  
HETATM    4  O   UNL     1     -10.169   9.401  71.256  1.00  0.00    -0.315 OA 
HETATM    5  C   UNL     1     -11.479   8.951  70.991  1.00  0.00    -0.294 C  
HETATM    6  O   UNL     1     -11.430   7.940  69.977  1.00  0.00    -0.118 OA 
HETATM    7  C   UNL     1     -12.342  10.157  70.630  1.00  0.00    -0.382 C  
HETATM    8  C   UNL     1     -13.117  10.530  71.890  1.00  0.00    -0.567 C  
HETATM    9  C   UNL     1     -10.062   7.489  69.852  1.00  0.00    -0.193 C  
HETATM   10  O   UNL     1     -10.811  13.413  67.361  1.00  0.00    -0.263 OA 
HETATM   11  C   UNL     1     -12.951   9.397  72.888  1.00  0.00     0.250 C  
HETATM   12  C   UNL     1      -9.409   7.885  68.482  1.00  0.00    -0.141 C  
HETATM   13  C   UNL     1     -12.057   8.344  72.260  1.00  0.00    -0.456 C  
HETATM   14  C   UNL     1     -10.125  12.592  66.806  1.00  0.00    -0.237 C  
HETATM   15  C   UNL     1      -8.652  12.548  66.966  1.00  0.00    -0.188 C  
HETATM   16  C   UNL     1      -8.999   6.841  67.389  1.00  0.00    -0.115 C  
HETATM   17  C   UNL     1     -10.462   8.692  67.734  1.00  0.00    -0.287 C  
HETATM   18  C   UNL     1      -7.959   7.456  66.388  1.00  0.00    -0.108 C  
HETATM   19  C   UNL     1      -8.016  10.102  64.234  1.00  0.00    -0.155 C  
HETATM   20  C   UNL     1      -7.608   8.987  66.489  1.00  0.00    -0.089 C  
HETATM   21  O   UNL     1      -8.180   7.016  65.057  1.00  0.00    -0.149 OA 
HETATM   22  C   UNL     1      -8.399  10.267  65.735  1.00  0.00    -0.152 C  
HETATM   23  H   UNL     1      -7.549   7.388  64.450  1.00  0.00     0.000 HD 
HETATM   24  C   UNL     1      -7.161   9.217  67.955  1.00  0.00    -0.078 C  
HETATM   25  C   UNL     1      -9.927  10.498  65.533  1.00  0.00    -0.342 C  
HETATM   26  C   UNL     1     -10.680  11.531  65.958  1.00  0.00    -0.332 C  
HETATM   27  F   UNL     1      -6.347   8.992  65.832  1.00  0.00    -0.054 F  
HETATM   28  C   UNL     1      -6.686  10.635  68.308  1.00  0.00    -0.063 C  
HETATM   29  C   UNL     1      -6.501  11.492  67.057  1.00  0.00    -0.134 C  
HETATM   30  C   UNL     1      -7.881  11.554  66.467  1.00  0.00    -0.071 C  
ENDROOT
BRANCH   9  31
HETATM   31  C   UNL     1      -9.984   5.971  70.077  1.00  0.00    -0.177 C  
HETATM   32  O   UNL     1     -10.899   5.243  69.713  1.00  0.00    -0.235 OA 
BRANCH  31  33
HETATM   33  C   UNL     1      -8.795   5.456  70.881  1.00  0.00    -0.138 C  
BRANCH  33  34
HETATM   34  O   UNL     1      -7.889   4.680  70.081  1.00  0.00    -0.059 OA 
BRANCH  34  35
HETATM   35  C   UNL     1      -6.670   5.252  69.912  1.00  0.00    -0.047 C  
HETATM   36  O   UNL     1      -6.080   5.353  68.853  1.00  0.00    -0.023 OA 
HETATM   37  C   UNL     1      -6.169   5.828  71.214  1.00  0.00    -0.039 C  
ENDBRANCH  34  35
ENDBRANCH  33  34
ENDBRANCH  31  33
ENDBRANCH   9  31
TORSDOF 4
ENDMDL
MODEL       40
REMARK 921   NORMALIZED FREE ENERGY PREDICTED BY IDOCK:   -5.45 KCAL/MOL
REMARK 922        TOTAL FREE ENERGY PREDICTED BY IDOCK:   -7.29 KCAL/MOL
REMARK 923 INTER-LIGAND FREE ENERGY PREDICTED BY IDOCK:   -7.56 KCAL/MOL
REMARK 924 INTRA-LIGAND FREE ENERGY PREDICTED BY IDOCK:    0.27 KCAL/MOL
REMARK 927      BINDING AFFINITY PREDICTED BY RF-SCORE:    0.00 PKD
ROOT
HETATM    1  C   UNL     1      -8.421  11.195  68.484  1.00  0.00    -0.156 C  
HETATM    2  C   UNL     1      -8.387  12.533  67.785  1.00  0.00    -0.170 C  
HETATM    3  C   UNL     1      -9.831  12.836  67.472  1.00  0.00    -0.211 C  
HETATM    4  O   UNL     1      -9.902  12.850  66.049  1.00  0.00    -0.267 OA 
HETATM    5  C   UNL     1     -11.180  12.333  65.751  1.00  0.00    -0.337 C  
HETATM    6  O   UNL     1     -11.587  11.453  66.805  1.00  0.00    -0.465 OA 
HETATM    7  C   UNL     1     -11.127  11.676  64.373  1.00  0.00    -0.382 C  
HETATM    8  C   UNL     1     -11.707  12.686  63.387  1.00  0.00    -0.571 C  
HETATM    9  C   UNL     1     -10.731  11.687  67.946  1.00  0.00    -0.202 C  
HETATM   10  O   UNL     1      -7.567   8.565  63.244  1.00  0.00    -0.107 OA 
HETATM   11  C   UNL     1     -12.365  13.794  64.192  1.00  0.00    -0.382 C  
HETATM   12  C   UNL     1      -9.789  10.473  68.264  1.00  0.00    -0.162 C  
HETATM   13  C   UNL     1     -12.169  13.485  65.664  1.00  0.00    -0.500 C  
HETATM   14  C   UNL     1      -7.414   8.258  64.399  1.00  0.00    -0.102 C  
HETATM   15  C   UNL     1      -6.277   8.755  65.210  1.00  0.00    -0.060 C  
HETATM   16  C   UNL     1      -9.915   9.602  69.560  1.00  0.00    -0.223 C  
HETATM   17  C   UNL     1     -10.067   9.433  67.186  1.00  0.00    -0.292 C  
HETATM   18  C   UNL     1      -8.586   8.815  69.837  1.00  0.00    -0.133 C  
HETATM   19  C   UNL     1      -6.808   6.474  68.103  1.00  0.00    -0.074 C  
HETATM   20  C   UNL     1      -7.431   8.854  68.767  1.00  0.00    -0.083 C  
HETATM   21  O   UNL     1      -8.836   7.514  70.346  1.00  0.00    -0.143 OA 
HETATM   22  C   UNL     1      -7.224   7.827  67.450  1.00  0.00    -0.091 C  
HETATM   23  H   UNL     1      -8.031   7.037  70.514  1.00  0.00     0.000 HD 
HETATM   24  C   UNL     1      -7.139  10.357  68.525  1.00  0.00    -0.074 C  
HETATM   25  C   UNL     1      -8.292   7.259  66.467  1.00  0.00    -0.121 C  
HETATM   26  C   UNL     1      -8.358   7.406  65.130  1.00  0.00    -0.085 C  
HETATM   27  F   UNL     1      -6.325   8.507  69.590  1.00  0.00    -0.037 F  
HETATM   28  C   UNL     1      -5.985  10.680  67.563  1.00  0.00    -0.048 C  
HETATM   29  C   UNL     1      -5.170   9.432  67.226  1.00  0.00    -0.036 C  
HETATM   30  C   UNL     1      -6.163   8.539  66.541  1.00  0.00    -0.057 C  
ENDROOT
BRANCH   9  31
HETATM   31  C   UNL     1     -11.576  12.059  69.174  1.00  0.00    -0.312 C  
HETATM   32  O   UNL     1     -11.314  13.063  69.824  1.00  0.00    -0.174 OA 
BRANCH  31  33
HETATM   33  C   UNL     1     -12.644  11.059  69.603  1.00  0.00    -0.017 C  
BRANCH  33  34
HETATM   34  O   UNL     1     -12.314  10.403  70.836  1.00  0.00    -0.317 OA 
BRANCH  34  35
HETATM   35  C   UNL     1     -13.249  10.549  71.810  1.00  0.00    -0.417 C  
HETATM   36  O   UNL     1     -13.771   9.640  72.427  1.00  0.00    -0.414 OA 
HETATM   37  C   UNL     1     -13.502  12.011  72.087  1.00  0.00    -0.338 C  
ENDBRANCH  34  35
ENDBRANCH  33  34
ENDBRANCH  31  33
ENDBRANCH   9  31
TORSDOF 4
ENDMDL
MODEL       41
REMARK 921   NORMALIZED FREE ENERGY PREDICTED BY IDOCK:   -5.25 KCAL/MOL
REMARK 922        TOTAL FREE ENERGY PREDICTED BY IDOCK:   -7.04 KCAL/MOL
REMARK 923 INTER-LIGAND FREE ENERGY PREDICTED BY IDOCK:   -6.07 KCAL/MOL
REMARK 924 INTRA-LIGAND FREE ENERGY PREDICTED BY IDOCK:   -0.97 KCAL/MOL
REMARK 927      BINDING AFFINITY PREDICTED BY RF-SCORE:    0.00 PKD
ROOT
HETATM    1  C   UNL     1     -10.203   7.844  69.815  1.00  0.00    -0.212 C  
HETATM    2  C   UNL     1     -11.230   6.737  69.811  1.00  0.00    -0.368 C  
HETATM    3  C   UNL     1     -10.890   5.897  71.015  1.00  0.00    -0.273 C  
HETATM    4  O   UNL     1     -10.507   4.631  70.484  1.00  0.00    -0.130 OA 
HETATM    5  C   UNL     1      -9.499   4.168  71.355  1.00  0.00    -0.160 C  
HETATM    6  O   UNL     1      -8.837   5.292  71.945  1.00  0.00    -0.133 OA 
HETATM    7  C   UNL     1      -8.574   3.237  70.574  1.00  0.00    -0.113 C  
HETATM    8  C   UNL     1      -9.008   1.813  70.908  1.00  0.00    -0.126 C  
HETATM    9  C   UNL     1      -9.655   6.465  71.730  1.00  0.00    -0.152 C  
HETATM   10  O   UNL     1      -6.808   4.556  66.241  1.00  0.00    -0.055 OA 
HETATM   11  C   UNL     1      -9.966   1.884  72.086  1.00  0.00    -0.216 C  
HETATM   12  C   UNL     1      -8.999   7.499  70.749  1.00  0.00    -0.149 C  
HETATM   13  C   UNL     1     -10.143   3.344  72.459  1.00  0.00    -0.232 C  
HETATM   14  C   UNL     1      -6.890   5.726  66.520  1.00  0.00    -0.059 C  
HETATM   15  C   UNL     1      -7.961   6.598  65.982  1.00  0.00    -0.112 C  
HETATM   16  C   UNL     1      -8.511   8.919  71.196  1.00  0.00    -0.250 C  
HETATM   17  C   UNL     1      -7.689   6.871  70.293  1.00  0.00    -0.100 C  
HETATM   18  C   UNL     1      -8.367   9.876  69.961  1.00  0.00    -0.168 C  
HETATM   19  C   UNL     1      -6.479   9.817  67.119  1.00  0.00    -0.069 C  
HETATM   20  C   UNL     1      -8.548   9.293  68.510  1.00  0.00    -0.128 C  
HETATM   21  O   UNL     1      -7.244  10.736  70.085  1.00  0.00    -0.391 OA 
HETATM   22  C   UNL     1      -7.365   8.603  67.532  1.00  0.00    -0.089 C  
HETATM   23  H   UNL     1      -7.158  11.317  69.337  1.00  0.00     0.000 HD 
HETATM   24  C   UNL     1      -9.936   8.600  68.510  1.00  0.00    -0.201 C  
HETATM   25  C   UNL     1      -6.211   7.630  67.920  1.00  0.00    -0.049 C  
HETATM   26  C   UNL     1      -5.971   6.390  67.451  1.00  0.00    -0.020 C  
HETATM   27  F   UNL     1      -8.857  10.487  67.804  1.00  0.00    -0.123 F  
HETATM   28  C   UNL     1     -10.398   8.002  67.173  1.00  0.00    -0.395 C  
HETATM   29  C   UNL     1      -9.495   8.441  66.020  1.00  0.00    -0.224 C  
HETATM   30  C   UNL     1      -8.155   7.874  66.390  1.00  0.00    -0.108 C  
ENDROOT
BRANCH   9  31
HETATM   31  C   UNL     1      -9.997   7.125  73.074  1.00  0.00    -0.208 C  
HETATM   32  O   UNL     1     -10.972   7.860  73.174  1.00  0.00    -0.383 OA 
BRANCH  31  33
HETATM   33  C   UNL     1      -8.998   6.929  74.210  1.00  0.00    -0.197 C  
BRANCH  33  34
HETATM   34  O   UNL     1      -8.021   7.979  74.266  1.00  0.00    -0.204 OA 
BRANCH  34  35
HETATM   35  C   UNL     1      -6.766   7.588  73.927  1.00  0.00    -0.082 C  
HETATM   36  O   UNL     1      -6.411   6.439  73.744  1.00  0.00    -0.068 OA 
HETATM   37  C   UNL     1      -5.874   8.788  73.725  1.00  0.00    -0.118 C  
ENDBRANCH  34  35
ENDBRANCH  33  34
ENDBRANCH  31  33
ENDBRANCH   9  31
TORSDOF 4
ENDMDL
MODEL       42
REMARK 921   NORMALIZED FREE ENERGY PREDICTED BY IDOCK:   -5.24 KCAL/MOL
REMARK 922        TOTAL FREE ENERGY PREDICTED BY IDOCK:   -7.04 KCAL/MOL
REMARK 923 INTER-LIGAND FREE ENERGY PREDICTED BY IDOCK:   -6.14 KCAL/MOL
REMARK 924 INTRA-LIGAND FREE ENERGY PREDICTED BY IDOCK:   -0.89 KCAL/MOL
REMARK 927      BINDING AFFINITY PREDICTED BY RF-SCORE:    0.00 PKD
ROOT
HETATM    1  C   UNL     1      -7.723  11.039  67.883  1.00  0.00    -0.104 C  
HETATM    2  C   UNL     1      -6.841  11.099  69.107  1.00  0.00    -0.102 C  
HETATM    3  C   UNL     1      -6.790   9.678  69.609  1.00  0.00    -0.067 C  
HETATM    4  O   UNL     1      -7.420   9.718  70.887  1.00  0.00    -0.320 OA 
HETATM    5  C   UNL     1      -8.084   8.479  70.996  1.00  0.00    -0.130 C  
HETATM    6  O   UNL     1      -8.418   8.009  69.684  1.00  0.00    -0.128 OA 
HETATM    7  C   UNL     1      -9.286   8.653  71.922  1.00  0.00    -0.357 C  
HETATM    8  C   UNL     1      -8.860   8.130  73.290  1.00  0.00    -0.324 C  
HETATM    9  C   UNL     1      -7.651   8.768  68.722  1.00  0.00    -0.095 C  
HETATM   10  O   UNL     1     -12.374  12.357  71.308  1.00  0.00    -0.248 OA 
HETATM   11  C   UNL     1      -7.546   7.388  73.114  1.00  0.00    -0.107 C  
HETATM   12  C   UNL     1      -8.540   9.708  67.835  1.00  0.00    -0.122 C  
HETATM   13  C   UNL     1      -7.150   7.475  71.652  1.00  0.00    -0.062 C  
HETATM   14  C   UNL     1     -12.121  12.425  70.132  1.00  0.00    -0.290 C  
HETATM   15  C   UNL     1     -11.252  13.485  69.567  1.00  0.00    -0.194 C  
HETATM   16  C   UNL     1      -8.742   9.501  66.295  1.00  0.00    -0.158 C  
HETATM   17  C   UNL     1      -9.966   9.538  68.341  1.00  0.00    -0.184 C  
HETATM   18  C   UNL     1      -9.247  10.821  65.613  1.00  0.00    -0.199 C  
HETATM   19  C   UNL     1     -12.016  12.779  65.993  1.00  0.00    -0.491 C  
HETATM   20  C   UNL     1      -9.629  12.054  66.514  1.00  0.00    -0.224 C  
HETATM   21  O   UNL     1     -10.192  10.559  64.587  1.00  0.00    -0.345 OA 
HETATM   22  C   UNL     1     -11.125  12.385  67.210  1.00  0.00    -0.329 C  
HETATM   23  H   UNL     1     -10.498  11.359  64.174  1.00  0.00     0.000 HD 
HETATM   24  C   UNL     1      -8.381  12.332  67.392  1.00  0.00    -0.177 C  
HETATM   25  C   UNL     1     -12.131  11.409  67.893  1.00  0.00     0.067 C  
HETATM   26  C   UNL     1     -12.604  11.445  69.153  1.00  0.00     0.354 C  
HETATM   27  F   UNL     1      -9.510  13.100  65.559  1.00  0.00    -0.164 F  
HETATM   28  C   UNL     1      -8.463  13.550  68.324  1.00  0.00    -0.168 C  
HETATM   29  C   UNL     1      -9.682  14.416  68.011  1.00  0.00    -0.221 C  
HETATM   30  C   UNL     1     -10.841  13.499  68.277  1.00  0.00    -0.277 C  
ENDROOT
BRANCH   9  31
HETATM   31  C   UNL     1      -6.813   7.822  67.849  1.00  0.00    -0.068 C  
HETATM   32  O   UNL     1      -5.846   8.246  67.228  1.00  0.00    -0.041 OA 
BRANCH  31  33
HETATM   33  C   UNL     1      -7.326   6.394  67.696  1.00  0.00    -0.088 C  
BRANCH  33  34
HETATM   34  O   UNL     1      -8.403   6.299  66.752  1.00  0.00    -0.109 OA 
BRANCH  34  35
HETATM   35  C   UNL     1      -9.417   5.486  67.147  1.00  0.00    -0.122 C  
HETATM   36  O   UNL     1      -9.319   4.294  67.366  1.00  0.00    -0.140 OA 
HETATM   37  C   UNL     1     -10.681   6.283  67.359  1.00  0.00    -0.409 C  
ENDBRANCH  34  35
ENDBRANCH  33  34
ENDBRANCH  31  33
ENDBRANCH   9  31
TORSDOF 4
ENDMDL
MODEL       43
REMARK 921   NORMALIZED FREE ENERGY PREDICTED BY IDOCK:   -5.23 KCAL/MOL
REMARK 922        TOTAL FREE ENERGY PREDICTED BY IDOCK:   -7.02 KCAL/MOL
REMARK 923 INTER-LIGAND FREE ENERGY PREDICTED BY IDOCK:   -6.24 KCAL/MOL
REMARK 924 INTRA-LIGAND FREE ENERGY PREDICTED BY IDOCK:   -0.78 KCAL/MOL
REMARK 927      BINDING AFFINITY PREDICTED BY RF-SCORE:    0.00 PKD
ROOT
HETATM    1  C   UNL     1     -10.592   7.145  70.303  1.00  0.00    -0.245 C  
HETATM    2  C   UNL     1     -11.101   8.556  70.134  1.00  0.00    -0.192 C  
HETATM    3  C   UNL     1     -10.393   9.072  68.906  1.00  0.00    -0.215 C  
HETATM    4  O   UNL     1      -9.575  10.139  69.376  1.00  0.00    -0.210 OA 
HETATM    5  C   UNL     1      -8.420  10.086  68.569  1.00  0.00    -0.115 C  
HETATM    6  O   UNL     1      -8.220   8.739  68.125  1.00  0.00    -0.113 OA 
HETATM    7  C   UNL     1      -7.248  10.664  69.360  1.00  0.00    -0.126 C  
HETATM    8  C   UNL     1      -7.070  12.102  68.884  1.00  0.00    -0.098 C  
HETATM    9  C   UNL     1      -9.443   8.002  68.350  1.00  0.00    -0.145 C  
HETATM   10  O   UNL     1      -6.382   9.218  73.919  1.00  0.00    -0.336 OA 
HETATM   11  C   UNL     1      -7.913  12.285  67.634  1.00  0.00    -0.161 C  
HETATM   12  C   UNL     1      -9.300   6.901  69.459  1.00  0.00    -0.147 C  
HETATM   13  C   UNL     1      -8.627  10.977  67.354  1.00  0.00    -0.132 C  
HETATM   14  C   UNL     1      -6.900   8.148  73.721  1.00  0.00    -0.127 C  
HETATM   15  C   UNL     1      -8.255   7.817  74.222  1.00  0.00    -0.286 C  
HETATM   16  C   UNL     1      -9.384   5.365  69.163  1.00  0.00    -0.158 C  
HETATM   17  C   UNL     1      -7.876   7.019  69.985  1.00  0.00    -0.113 C  
HETATM   18  C   UNL     1      -9.696   4.558  70.473  1.00  0.00    -0.220 C  
HETATM   19  C   UNL     1      -8.094   4.176  73.462  1.00  0.00    -0.090 C  
HETATM   20  C   UNL     1      -9.713   5.312  71.855  1.00  0.00    -0.159 C  
HETATM   21  O   UNL     1      -8.995   3.324  70.514  1.00  0.00    -0.077 OA 
HETATM   22  C   UNL     1      -8.410   5.589  72.883  1.00  0.00    -0.116 C  
HETATM   23  H   UNL     1      -9.184   2.835  71.308  1.00  0.00     0.000 HD 
HETATM   24  C   UNL     1     -10.715   6.482  71.679  1.00  0.00    -0.267 C  
HETATM   25  C   UNL     1      -6.947   5.997  72.531  1.00  0.00    -0.079 C  
HETATM   26  C   UNL     1      -6.266   7.089  72.928  1.00  0.00    -0.057 C  
HETATM   27  F   UNL     1     -10.503   4.409  72.615  1.00  0.00    -0.222 F  
HETATM   28  C   UNL     1     -10.979   7.346  72.921  1.00  0.00    -0.408 C  
HETATM   29  C   UNL     1     -10.384   6.714  74.180  1.00  0.00    -0.347 C  
HETATM   30  C   UNL     1      -8.911   6.679  73.893  1.00  0.00    -0.170 C  
ENDROOT
BRANCH   9  31
HETATM   31  C   UNL     1      -9.942   7.390  67.032  1.00  0.00    -0.231 C  
HETATM   32  O   UNL     1     -11.100   7.004  66.928  1.00  0.00    -0.359 OA 
BRANCH  31  33
HETATM   33  C   UNL     1      -8.902   7.170  65.939  1.00  0.00    -0.103 C  
BRANCH  33  34
HETATM   34  O   UNL     1      -7.911   6.201  66.315  1.00  0.00    -0.100 OA 
BRANCH  34  35
HETATM   35  C   UNL     1      -8.120   4.964  65.797  1.00  0.00    -0.112 C  
HETATM   36  O   UNL     1      -8.957   4.683  64.960  1.00  0.00    -0.144 OA 
HETATM   37  C   UNL     1      -7.110   3.984  66.342  1.00  0.00    -0.064 C  
ENDBRANCH  34  35
ENDBRANCH  33  34
ENDBRANCH  31  33
ENDBRANCH   9  31
TORSDOF 4
ENDMDL
MODEL       44
REMARK 921   NORMALIZED FREE ENERGY PREDICTED BY IDOCK:   -5.21 KCAL/MOL
REMARK 922        TOTAL FREE ENERGY PREDICTED BY IDOCK:   -6.99 KCAL/MOL
REMARK 923 INTER-LIGAND FREE ENERGY PREDICTED BY IDOCK:   -6.24 KCAL/MOL
REMARK 924 INTRA-LIGAND FREE ENERGY PREDICTED BY IDOCK:   -0.75 KCAL/MOL
REMARK 927      BINDING AFFINITY PREDICTED BY RF-SCORE:    0.00 PKD
ROOT
HETATM    1  C   UNL     1      -9.352  12.244  68.934  1.00  0.00     0.228 C  
HETATM    2  C   UNL     1     -10.128  11.191  69.689  1.00  0.00     0.243 C  
HETATM    3  C   UNL     1      -9.426   9.897  69.367  1.00  0.00    -0.213 C  
HETATM    4  O   UNL     1     -10.386   9.128  68.646  1.00  0.00    -0.200 OA 
HETATM    5  C   UNL     1      -9.627   8.397  67.709  1.00  0.00    -0.156 C  
HETATM    6  O   UNL     1      -8.435   9.127  67.400  1.00  0.00    -0.115 OA 
HETATM    7  C   UNL     1     -10.509   8.099  66.498  1.00  0.00    -0.041 C  
HETATM    8  C   UNL     1     -11.007   6.666  66.665  1.00  0.00    -0.121 C  
HETATM    9  C   UNL     1      -8.256  10.150  68.406  1.00  0.00    -0.112 C  
HETATM   10  O   UNL     1     -13.127  11.623  64.410  1.00  0.00    -0.146 OA 
HETATM   11  C   UNL     1     -10.206   6.025  67.785  1.00  0.00    -0.219 C  
HETATM   12  C   UNL     1      -8.437  11.602  67.843  1.00  0.00    -0.148 C  
HETATM   13  C   UNL     1      -9.239   7.062  68.324  1.00  0.00    -0.128 C  
HETATM   14  C   UNL     1     -12.355  12.471  64.781  1.00  0.00    -0.474 C  
HETATM   15  C   UNL     1     -12.652  13.374  65.917  1.00  0.00    -0.412 C  
HETATM   16  C   UNL     1      -7.267  12.639  67.742  1.00  0.00    -0.127 C  
HETATM   17  C   UNL     1      -8.808  11.439  66.375  1.00  0.00    -0.193 C  
HETATM   18  C   UNL     1      -7.823  14.101  67.618  1.00  0.00    -0.179 C  
HETATM   19  C   UNL     1      -9.804  15.702  65.347  1.00  0.00    -0.253 C  
HETATM   20  C   UNL     1      -9.372  14.323  67.446  1.00  0.00    -0.203 C  
HETATM   21  O   UNL     1      -7.040  14.893  66.737  1.00  0.00    -0.262 OA 
HETATM   22  C   UNL     1     -10.244  14.360  66.007  1.00  0.00    -0.328 C  
HETATM   23  H   UNL     1      -7.377  15.779  66.662  1.00  0.00     0.000 HD 
HETATM   24  C   UNL     1     -10.034  13.584  68.637  1.00  0.00    -0.149 C  
HETATM   25  C   UNL     1     -10.102  13.455  64.746  1.00  0.00    -0.262 C  
HETATM   26  C   UNL     1     -11.031  12.662  64.179  1.00  0.00    -0.427 C  
HETATM   27  F   UNL     1      -9.476  15.669  67.889  1.00  0.00    -0.199 F  
HETATM   28  C   UNL     1     -11.560  13.705  68.751  1.00  0.00    -0.359 C  
HETATM   29  C   UNL     1     -12.112  14.763  67.796  1.00  0.00    -0.141 C  
HETATM   30  C   UNL     1     -11.747  14.235  66.438  1.00  0.00    -0.403 C  
ENDROOT
BRANCH   9  31
HETATM   31  C   UNL     1      -6.885   9.992  69.083  1.00  0.00    -0.056 C  
HETATM   32  O   UNL     1      -5.903   9.674  68.425  1.00  0.00    -0.040 OA 
BRANCH  31  33
HETATM   33  C   UNL     1      -6.851  10.115  70.603  1.00  0.00    -0.005 C  
BRANCH  33  34
HETATM   34  O   UNL     1      -6.403   8.908  71.238  1.00  0.00    -0.052 OA 
BRANCH  34  35
HETATM   35  C   UNL     1      -7.360   8.276  71.964  1.00  0.00    -0.097 C  
HETATM   36  O   UNL     1      -8.217   8.825  72.631  1.00  0.00    -0.403 OA 
HETATM   37  C   UNL     1      -7.272   6.782  71.770  1.00  0.00    -0.084 C  
ENDBRANCH  34  35
ENDBRANCH  33  34
ENDBRANCH  31  33
ENDBRANCH   9  31
TORSDOF 4
ENDMDL
MODEL       45
REMARK 921   NORMALIZED FREE ENERGY PREDICTED BY IDOCK:   -5.16 KCAL/MOL
REMARK 922        TOTAL FREE ENERGY PREDICTED BY IDOCK:   -6.93 KCAL/MOL
REMARK 923 INTER-LIGAND FREE ENERGY PREDICTED BY IDOCK:   -6.37 KCAL/MOL
REMARK 924 INTRA-LIGAND FREE ENERGY PREDICTED BY IDOCK:   -0.57 KCAL/MOL
REMARK 927      BINDING AFFINITY PREDICTED BY RF-SCORE:    0.00 PKD
ROOT
HETATM    1  C   UNL     1      -9.640   9.342  67.054  1.00  0.00    -0.223 C  
HETATM    2  C   UNL     1     -10.942  10.035  66.730  1.00  0.00    -0.017 C  
HETATM    3  C   UNL     1     -10.803  11.408  67.338  1.00  0.00    -0.254 C  
HETATM    4  O   UNL     1     -11.803  11.462  68.352  1.00  0.00    -0.463 OA 
HETATM    5  C   UNL     1     -11.233  12.250  69.374  1.00  0.00    -0.176 C  
HETATM    6  O   UNL     1      -9.808  12.121  69.324  1.00  0.00     0.253 OA 
HETATM    7  C   UNL     1     -11.851  11.835  70.707  1.00  0.00    -0.059 C  
HETATM    8  C   UNL     1     -12.935  12.862  71.023  1.00  0.00    -0.180 C  
HETATM    9  C   UNL     1      -9.449  11.542  68.049  1.00  0.00    -0.181 C  
HETATM   10  O   UNL     1     -12.160   7.144  71.945  1.00  0.00    -0.300 OA 
HETATM   11  C   UNL     1     -12.765  14.024  70.059  1.00  0.00    -0.136 C  
HETATM   12  C   UNL     1      -8.859  10.094  68.179  1.00  0.00    -0.126 C  
HETATM   13  C   UNL     1     -11.603  13.705  69.138  1.00  0.00    -0.356 C  
HETATM   14  C   UNL     1     -11.210   6.860  71.260  1.00  0.00    -0.268 C  
HETATM   15  C   UNL     1     -11.349   6.184  69.948  1.00  0.00    -0.454 C  
HETATM   16  C   UNL     1      -7.372   9.737  67.843  1.00  0.00    -0.085 C  
HETATM   17  C   UNL     1      -8.914   9.750  69.661  1.00  0.00    -0.229 C  
HETATM   18  C   UNL     1      -7.208   8.196  67.593  1.00  0.00    -0.092 C  
HETATM   19  C   UNL     1      -7.735   5.414  69.498  1.00  0.00    -0.077 C  
HETATM   20  C   UNL     1      -8.429   7.239  67.860  1.00  0.00    -0.118 C  
HETATM   21  O   UNL     1      -5.982   7.702  68.113  1.00  0.00    -0.037 OA 
HETATM   22  C   UNL     1      -8.843   6.494  69.311  1.00  0.00    -0.132 C  
HETATM   23  H   UNL     1      -5.883   6.769  67.962  1.00  0.00     0.000 HD 
HETATM   24  C   UNL     1      -9.598   7.811  67.018  1.00  0.00    -0.238 C  
HETATM   25  C   UNL     1      -8.812   7.071  70.759  1.00  0.00    -0.149 C  
HETATM   26  C   UNL     1      -9.831   7.194  71.632  1.00  0.00    -0.170 C  
HETATM   27  F   UNL     1      -8.050   6.130  67.056  1.00  0.00    -0.102 F  
HETATM   28  C   UNL     1     -10.909   7.010  67.041  1.00  0.00    -0.413 C  
HETATM   29  C   UNL     1     -10.720   5.643  67.698  1.00  0.00    -0.260 C  
HETATM   30  C   UNL     1     -10.312   5.983  69.103  1.00  0.00    -0.289 C  
ENDROOT
BRANCH   9  31
HETATM   31  C   UNL     1      -8.474  12.465  67.303  1.00  0.00    -0.183 C  
HETATM   32  O   UNL     1      -8.300  12.339  66.097  1.00  0.00     0.159 OA 
BRANCH  31  33
HETATM   33  C   UNL     1      -7.654  13.430  68.153  1.00  0.00    -0.138 C  
BRANCH  33  34
HETATM   34  O   UNL     1      -6.688  14.155  67.378  1.00  0.00    -0.252 OA 
BRANCH  34  35
HETATM   35  C   UNL     1      -6.622  15.479  67.672  1.00  0.00    -0.169 C  
HETATM   36  O   UNL     1      -6.104  16.330  66.974  1.00  0.00    -0.275 OA 
HETATM   37  C   UNL     1      -7.355  15.773  68.957  1.00  0.00    -0.177 C  
ENDBRANCH  34  35
ENDBRANCH  33  34
ENDBRANCH  31  33
ENDBRANCH   9  31
TORSDOF 4
ENDMDL
MODEL       46
REMARK 921   NORMALIZED FREE ENERGY PREDICTED BY IDOCK:   -5.15 KCAL/MOL
REMARK 922        TOTAL FREE ENERGY PREDICTED BY IDOCK:   -6.92 KCAL/MOL
REMARK 923 INTER-LIGAND FREE ENERGY PREDICTED BY IDOCK:   -6.18 KCAL/MOL
REMARK 924 INTRA-LIGAND FREE ENERGY PREDICTED BY IDOCK:   -0.74 KCAL/MOL
REMARK 927      BINDING AFFINITY PREDICTED BY RF-SCORE:    0.00 PKD
ROOT
HETATM    1  C   UNL     1      -9.915  13.789  68.700  1.00  0.00    -0.175 C  
HETATM    2  C   UNL     1     -11.334  13.328  68.468  1.00  0.00    -0.319 C  
HETATM    3  C   UNL     1     -11.240  12.374  67.304  1.00  0.00    -0.303 C  
HETATM    4  O   UNL     1     -11.983  12.996  66.260  1.00  0.00    -0.392 OA 
HETATM    5  C   UNL     1     -11.304  12.639  65.077  1.00  0.00    -0.309 C  
HETATM    6  O   UNL     1      -9.922  12.416  65.380  1.00  0.00    -0.267 OA 
HETATM    7  C   UNL     1     -11.546  13.726  64.032  1.00  0.00    -0.307 C  
HETATM    8  C   UNL     1     -12.654  13.211  63.117  1.00  0.00     0.026 C  
HETATM    9  C   UNL     1      -9.789  12.276  66.813  1.00  0.00    -0.209 C  
HETATM   10  O   UNL     1     -10.963  18.420  65.156  1.00  0.00    -0.604 OA 
HETATM   11  C   UNL     1     -12.857  11.736  63.422  1.00  0.00    -0.310 C  
HETATM   12  C   UNL     1      -9.004  13.463  67.473  1.00  0.00    -0.207 C  
HETATM   13  C   UNL     1     -11.901  11.350  64.535  1.00  0.00     0.131 C  
HETATM   14  C   UNL     1     -10.163  18.155  66.017  1.00  0.00    -0.320 C  
HETATM   15  C   UNL     1     -10.507  18.192  67.459  1.00  0.00    -0.425 C  
HETATM   16  C   UNL     1      -7.597  13.298  68.142  1.00  0.00    -0.141 C  
HETATM   17  C   UNL     1      -8.678  14.431  66.344  1.00  0.00     0.077 C  
HETATM   18  C   UNL     1      -7.297  14.491  69.117  1.00  0.00    -0.133 C  
HETATM   19  C   UNL     1      -7.020  17.869  68.720  1.00  0.00    -0.262 C  
HETATM   20  C   UNL     1      -8.294  15.709  69.172  1.00  0.00    -0.251 C  
HETATM   21  O   UNL     1      -5.933  14.882  69.073  1.00  0.00    -0.094 OA 
HETATM   22  C   UNL     1      -8.271  17.090  68.212  1.00  0.00    -0.227 C  
HETATM   23  H   UNL     1      -5.751  15.604  69.663  1.00  0.00     0.000 HD 
HETATM   24  C   UNL     1      -9.686  15.095  69.468  1.00  0.00    -0.172 C  
HETATM   25  C   UNL     1      -7.988  17.223  66.684  1.00  0.00    -0.296 C  
HETATM   26  C   UNL     1      -8.790  17.727  65.727  1.00  0.00     0.318 C  
HETATM   27  F   UNL     1      -7.967  16.233  70.452  1.00  0.00     0.852 F  
HETATM   28  C   UNL     1     -10.844  16.088  69.648  1.00  0.00    -0.329 C  
HETATM   29  C   UNL     1     -10.338  17.526  69.756  1.00  0.00     0.326 C  
HETATM   30  C   UNL     1      -9.670  17.764  68.433  1.00  0.00    -0.333 C  
ENDROOT
BRANCH   9  31
HETATM   31  C   UNL     1      -9.134  10.929  67.154  1.00  0.00    -0.145 C  
HETATM   32  O   UNL     1      -8.077  10.603  66.629  1.00  0.00    -0.126 OA 
BRANCH  31  33
HETATM   33  C   UNL     1      -9.926   9.989  68.056  1.00  0.00    -0.150 C  
BRANCH  33  34
HETATM   34  O   UNL     1      -9.714  10.261  69.450  1.00  0.00    -0.213 OA 
BRANCH  34  35
HETATM   35  C   UNL     1     -10.575   9.617  70.279  1.00  0.00    -0.278 C  
HETATM   36  O   UNL     1     -10.358   8.558  70.837  1.00  0.00    -0.190 OA 
HETATM   37  C   UNL     1     -11.825  10.437  70.484  1.00  0.00    -0.430 C  
ENDBRANCH  34  35
ENDBRANCH  33  34
ENDBRANCH  31  33
ENDBRANCH   9  31
TORSDOF 4
ENDMDL
MODEL       47
REMARK 921   NORMALIZED FREE ENERGY PREDICTED BY IDOCK:   -5.13 KCAL/MOL
REMARK 922        TOTAL FREE ENERGY PREDICTED BY IDOCK:   -6.89 KCAL/MOL
REMARK 923 INTER-LIGAND FREE ENERGY PREDICTED BY IDOCK:   -6.72 KCAL/MOL
REMARK 924 INTRA-LIGAND FREE ENERGY PREDICTED BY IDOCK:   -0.17 KCAL/MOL
REMARK 927      BINDING AFFINITY PREDICTED BY RF-SCORE:    0.00 PKD
ROOT
HETATM    1  C   UNL     1      -9.485   8.134  67.521  1.00  0.00    -0.184 C  
HETATM    2  C   UNL     1     -10.737   8.691  66.886  1.00  0.00    -0.152 C  
HETATM    3  C   UNL     1     -10.498  10.178  66.813  1.00  0.00    -0.204 C  
HETATM    4  O   UNL     1     -11.484  10.750  67.667  1.00  0.00    -0.477 OA 
HETATM    5  C   UNL     1     -10.854  11.874  68.238  1.00  0.00    -0.224 C  
HETATM    6  O   UNL     1      -9.441  11.644  68.288  1.00  0.00    -0.181 OA 
HETATM    7  C   UNL     1     -11.490  12.149  69.599  1.00  0.00    -0.308 C  
HETATM    8  C   UNL     1     -12.497  13.276  69.389  1.00  0.00     0.081 C  
HETATM    9  C   UNL     1      -9.133  10.528  67.422  1.00  0.00    -0.139 C  
HETATM   10  O   UNL     1     -12.120   8.554  72.811  1.00  0.00    -0.337 OA 
HETATM   11  C   UNL     1     -12.252  13.864  68.010  1.00  0.00    -0.188 C  
HETATM   12  C   UNL     1      -8.646   9.260  68.206  1.00  0.00    -0.125 C  
HETATM   13  C   UNL     1     -11.122  13.088  67.362  1.00  0.00    -0.302 C  
HETATM   14  C   UNL     1     -11.197   7.930  72.353  1.00  0.00    -0.350 C  
HETATM   15  C   UNL     1     -11.392   6.745  71.484  1.00  0.00    -0.316 C  
HETATM   16  C   UNL     1      -7.189   8.693  68.106  1.00  0.00    -0.087 C  
HETATM   17  C   UNL     1      -8.714   9.628  69.682  1.00  0.00    -0.206 C  
HETATM   18  C   UNL     1      -7.135   7.198  68.582  1.00  0.00    -0.085 C  
HETATM   19  C   UNL     1      -7.845   5.619  71.523  1.00  0.00    -0.112 C  
HETATM   20  C   UNL     1      -8.419   6.548  69.221  1.00  0.00    -0.127 C  
HETATM   21  O   UNL     1      -5.944   6.913  69.300  1.00  0.00    -0.018 OA 
HETATM   22  C   UNL     1      -8.875   6.568  70.840  1.00  0.00    -0.147 C  
HETATM   23  H   UNL     1      -5.912   6.008  69.589  1.00  0.00     0.000 HD 
HETATM   24  C   UNL     1      -9.551   6.753  68.181  1.00  0.00    -0.122 C  
HETATM   25  C   UNL     1      -8.794   7.734  71.873  1.00  0.00    -0.155 C  
HETATM   26  C   UNL     1      -9.795   8.304  72.569  1.00  0.00    -0.368 C  
HETATM   27  F   UNL     1      -8.125   5.174  69.013  1.00  0.00    -0.082 F  
HETATM   28  C   UNL     1     -10.915   6.138  68.529  1.00  0.00    -0.404 C  
HETATM   29  C   UNL     1     -10.818   5.206  69.737  1.00  0.00     0.180 C  
HETATM   30  C   UNL     1     -10.377   6.116  70.847  1.00  0.00    -0.267 C  
ENDROOT
BRANCH   9  31
HETATM   31  C   UNL     1      -8.100  10.949  66.365  1.00  0.00    -0.164 C  
HETATM   32  O   UNL     1      -7.013  11.399  66.706  1.00  0.00    -0.132 OA 
BRANCH  31  33
HETATM   33  C   UNL     1      -8.549  10.904  64.908  1.00  0.00    -0.026 C  
BRANCH  33  34
HETATM   34  O   UNL     1      -9.610  11.831  64.635  1.00  0.00    -0.189 OA 
BRANCH  34  35
HETATM   35  C   UNL     1     -10.149  11.709  63.395  1.00  0.00    -0.440 C  
HETATM   36  O   UNL     1      -9.523  11.715  62.352  1.00  0.00    -0.075 OA 
HETATM   37  C   UNL     1     -11.638  11.482  63.484  1.00  0.00    -0.294 C  
ENDBRANCH  34  35
ENDBRANCH  33  34
ENDBRANCH  31  33
ENDBRANCH   9  31
TORSDOF 4
ENDMDL
MODEL       48
REMARK 921   NORMALIZED FREE ENERGY PREDICTED BY IDOCK:   -5.09 KCAL/MOL
REMARK 922        TOTAL FREE ENERGY PREDICTED BY IDOCK:   -6.85 KCAL/MOL
REMARK 923 INTER-LIGAND FREE ENERGY PREDICTED BY IDOCK:   -6.13 KCAL/MOL
REMARK 924 INTRA-LIGAND FREE ENERGY PREDICTED BY IDOCK:   -0.72 KCAL/MOL
REMARK 927      BINDING AFFINITY PREDICTED BY RF-SCORE:    0.00 PKD
ROOT
HETATM    1  C   UNL     1      -8.861   6.616  69.063  1.00  0.00    -0.128 C  
HETATM    2  C   UNL     1     -10.219   7.043  68.559  1.00  0.00    -0.183 C  
HETATM    3  C   UNL     1     -10.452   8.393  69.188  1.00  0.00    -0.206 C  
HETATM    4  O   UNL     1     -11.573   8.209  70.048  1.00  0.00    -0.021 OA 
HETATM    5  C   UNL     1     -11.325   9.060  71.145  1.00  0.00    -0.307 C  
HETATM    6  O   UNL     1      -9.911   9.225  71.300  1.00  0.00    -0.289 OA 
HETATM    7  C   UNL     1     -12.025   8.484  72.374  1.00  0.00    -0.434 C  
HETATM    8  C   UNL     1     -13.329   9.259  72.535  1.00  0.00    -0.463 C  
HETATM    9  C   UNL     1      -9.266   8.774  70.087  1.00  0.00    -0.169 C  
HETATM   10  O   UNL     1     -11.535   3.787  73.531  1.00  0.00    -0.227 OA 
HETATM   11  C   UNL     1     -13.269  10.464  71.612  1.00  0.00    -0.502 C  
HETATM   12  C   UNL     1      -8.416   7.471  70.293  1.00  0.00    -0.138 C  
HETATM   13  C   UNL     1     -11.949  10.418  70.866  1.00  0.00    -0.478 C  
HETATM   14  C   UNL     1     -10.460   3.725  72.988  1.00  0.00    -0.174 C  
HETATM   15  C   UNL     1     -10.274   3.080  71.667  1.00  0.00     0.070 C  
HETATM   16  C   UNL     1      -6.855   7.434  70.172  1.00  0.00    -0.055 C  
HETATM   17  C   UNL     1      -8.605   7.073  71.750  1.00  0.00    -0.114 C  
HETATM   18  C   UNL     1      -6.345   5.968  69.941  1.00  0.00    -0.031 C  
HETATM   19  C   UNL     1      -6.552   3.073  71.736  1.00  0.00    -0.018 C  
HETATM   20  C   UNL     1      -7.370   4.775  70.025  1.00  0.00    -0.054 C  
HETATM   21  O   UNL     1      -5.130   5.715  70.629  1.00  0.00    -0.008 OA 
HETATM   22  C   UNL     1      -7.821   3.913  71.398  1.00  0.00    -0.064 C  
HETATM   23  H   UNL     1      -4.821   4.827  70.489  1.00  0.00     0.000 HD 
HETATM   24  C   UNL     1      -8.502   5.127  69.026  1.00  0.00    -0.090 C  
HETATM   25  C   UNL     1      -8.111   4.434  72.838  1.00  0.00    -0.095 C  
HETATM   26  C   UNL     1      -9.245   4.318  73.556  1.00  0.00    -0.106 C  
HETATM   27  F   UNL     1      -6.663   3.794  69.279  1.00  0.00    -0.037 F  
HETATM   28  C   UNL     1      -9.611   4.078  68.857  1.00  0.00    -0.213 C  
HETATM   29  C   UNL     1      -9.239   2.756  69.528  1.00  0.00    -0.204 C  
HETATM   30  C   UNL     1      -9.109   3.123  70.978  1.00  0.00    -0.184 C  
ENDROOT
BRANCH   9  31
HETATM   31  C   UNL     1      -8.407   9.900  69.493  1.00  0.00    -0.168 C  
HETATM   32  O   UNL     1      -7.704  10.591  70.220  1.00  0.00    -0.082 OA 
BRANCH  31  33
HETATM   33  C   UNL     1      -8.582  10.188  68.006  1.00  0.00    -0.118 C  
BRANCH  33  34
HETATM   34  O   UNL     1      -8.805  11.582  67.742  1.00  0.00    -0.144 OA 
BRANCH  34  35
HETATM   35  C   UNL     1     -10.106  11.906  67.534  1.00  0.00    -0.193 C  
HETATM   36  O   UNL     1     -10.983  11.128  67.208  1.00  0.00    -0.263 OA 
HETATM   37  C   UNL     1     -10.345  13.364  67.842  1.00  0.00    -0.238 C  
ENDBRANCH  34  35
ENDBRANCH  33  34
ENDBRANCH  31  33
ENDBRANCH   9  31
TORSDOF 4
ENDMDL
MODEL       49
REMARK 921   NORMALIZED FREE ENERGY PREDICTED BY IDOCK:   -5.07 KCAL/MOL
REMARK 922        TOTAL FREE ENERGY PREDICTED BY IDOCK:   -6.82 KCAL/MOL
REMARK 923 INTER-LIGAND FREE ENERGY PREDICTED BY IDOCK:   -6.02 KCAL/MOL
REMARK 924 INTRA-LIGAND FREE ENERGY PREDICTED BY IDOCK:   -0.80 KCAL/MOL
REMARK 927      BINDING AFFINITY PREDICTED BY RF-SCORE:    0.00 PKD
ROOT
HETATM    1  C   UNL     1      -8.351   6.845  69.954  1.00  0.00    -0.139 C  
HETATM    2  C   UNL     1      -7.313   6.295  69.005  1.00  0.00    -0.085 C  
HETATM    3  C   UNL     1      -8.105   5.791  67.825  1.00  0.00    -0.102 C  
HETATM    4  O   UNL     1      -7.889   4.383  67.813  1.00  0.00    -0.083 OA 
HETATM    5  C   UNL     1      -9.106   3.839  67.352  1.00  0.00    -0.163 C  
HETATM    6  O   UNL     1     -10.176   4.725  67.700  1.00  0.00    -0.125 OA 
HETATM    7  C   UNL     1      -9.252   2.429  67.920  1.00  0.00    -0.248 C  
HETATM    8  C   UNL     1      -8.826   1.468  66.814  1.00  0.00    -0.127 C  
HETATM    9  C   UNL     1      -9.607   6.003  68.062  1.00  0.00    -0.117 C  
HETATM   10  O   UNL     1      -8.517   1.571  72.648  1.00  0.00    -0.052 OA 
HETATM   11  C   UNL     1      -8.717   2.265  65.525  1.00  0.00    -0.121 C  
HETATM   12  C   UNL     1      -9.783   6.344  69.583  1.00  0.00    -0.170 C  
HETATM   13  C   UNL     1      -9.047   3.712  65.838  1.00  0.00    -0.153 C  
HETATM   14  C   UNL     1      -8.819   2.700  72.941  1.00  0.00    -0.071 C  
HETATM   15  C   UNL     1      -7.811   3.723  73.306  1.00  0.00    -0.079 C  
HETATM   16  C   UNL     1     -10.687   7.512  70.105  1.00  0.00    -0.248 C  
HETATM   17  C   UNL     1     -10.477   5.139  70.205  1.00  0.00    -0.305 C  
HETATM   18  C   UNL     1     -10.292   7.916  71.569  1.00  0.00    -0.201 C  
HETATM   19  C   UNL     1     -10.233   6.260  74.552  1.00  0.00    -0.320 C  
HETATM   20  C   UNL     1      -9.232   7.049  72.346  1.00  0.00    -0.132 C  
HETATM   21  O   UNL     1     -11.428   8.249  72.352  1.00  0.00    -0.355 OA 
HETATM   22  C   UNL     1      -9.522   5.686  73.290  1.00  0.00    -0.143 C  
HETATM   23  H   UNL     1     -11.189   8.494  73.239  1.00  0.00     0.000 HD 
HETATM   24  C   UNL     1      -7.980   7.003  71.432  1.00  0.00    -0.103 C  
HETATM   25  C   UNL     1     -10.496   4.497  73.029  1.00  0.00    -0.258 C  
HETATM   26  C   UNL     1     -10.203   3.187  72.920  1.00  0.00    -0.237 C  
HETATM   27  F   UNL     1      -8.807   7.996  73.317  1.00  0.00    -0.220 F  
HETATM   28  C   UNL     1      -6.753   6.271  71.994  1.00  0.00    -0.067 C  
HETATM   29  C   UNL     1      -6.925   5.945  73.478  1.00  0.00    -0.081 C  
HETATM   30  C   UNL     1      -8.114   5.028  73.500  1.00  0.00    -0.107 C  
ENDROOT
BRANCH   9  31
HETATM   31  C   UNL     1     -10.198   7.114  67.180  1.00  0.00    -0.257 C  
HETATM   32  O   UNL     1     -11.368   7.064  66.822  1.00  0.00    -0.102 OA 
BRANCH  31  33
HETATM   33  C   UNL     1      -9.230   8.180  66.677  1.00  0.00    -0.180 C  
BRANCH  33  34
HETATM   34  O   UNL     1      -9.254   9.365  67.488  1.00  0.00    -0.124 OA 
BRANCH  34  35
HETATM   35  C   UNL     1     -10.038  10.358  66.997  1.00  0.00    -0.215 C  
HETATM   36  O   UNL     1     -10.760  11.080  67.659  1.00  0.00    -0.205 OA 
HETATM   37  C   UNL     1      -9.836  10.506  65.508  1.00  0.00    -0.324 C  
ENDBRANCH  34  35
ENDBRANCH  33  34
ENDBRANCH  31  33
ENDBRANCH   9  31
TORSDOF 4
ENDMDL
MODEL       50
REMARK 921   NORMALIZED FREE ENERGY PREDICTED BY IDOCK:   -5.06 KCAL/MOL
REMARK 922        TOTAL FREE ENERGY PREDICTED BY IDOCK:   -6.81 KCAL/MOL
REMARK 923 INTER-LIGAND FREE ENERGY PREDICTED BY IDOCK:   -6.11 KCAL/MOL
REMARK 924 INTRA-LIGAND FREE ENERGY PREDICTED BY IDOCK:   -0.70 KCAL/MOL
REMARK 927      BINDING AFFINITY PREDICTED BY RF-SCORE:    0.00 PKD
ROOT
HETATM    1  C   UNL     1      -9.966   8.734  68.191  1.00  0.00    -0.206 C  
HETATM    2  C   UNL     1     -10.150   9.978  69.027  1.00  0.00    -0.211 C  
HETATM    3  C   UNL     1      -9.000  10.872  68.637  1.00  0.00    -0.162 C  
HETATM    4  O   UNL     1      -8.219  11.003  69.822  1.00  0.00     0.239 OA 
HETATM    5  C   UNL     1      -6.887  11.083  69.366  1.00  0.00    -0.119 C  
HETATM    6  O   UNL     1      -6.777  10.387  68.119  1.00  0.00    -0.060 OA 
HETATM    7  C   UNL     1      -5.966  10.550  70.462  1.00  0.00    -0.117 C  
HETATM    8  C   UNL     1      -5.405  11.769  71.188  1.00  0.00    -0.063 C  
HETATM    9  C   UNL     1      -8.110  10.173  67.600  1.00  0.00    -0.109 C  
HETATM   10  O   UNL     1      -6.915   6.319  72.659  1.00  0.00    -0.073 OA 
HETATM   11  C   UNL     1      -5.742  12.998  70.360  1.00  0.00    -0.169 C  
HETATM   12  C   UNL     1      -8.527   8.660  67.589  1.00  0.00    -0.125 C  
HETATM   13  C   UNL     1      -6.529  12.544  69.145  1.00  0.00    -0.099 C  
HETATM   14  C   UNL     1      -7.507   5.906  71.695  1.00  0.00    -0.094 C  
HETATM   15  C   UNL     1      -8.987   5.834  71.641  1.00  0.00    -0.141 C  
HETATM   16  C   UNL     1      -8.760   7.841  66.275  1.00  0.00    -0.174 C  
HETATM   17  C   UNL     1      -7.359   7.899  68.203  1.00  0.00    -0.099 C  
HETATM   18  C   UNL     1      -9.618   6.558  66.559  1.00  0.00    -0.140 C  
HETATM   19  C   UNL     1      -9.186   3.804  68.528  1.00  0.00    -0.214 C  
HETATM   20  C   UNL     1      -9.968   6.181  68.047  1.00  0.00    -0.141 C  
HETATM   21  O   UNL     1      -9.185   5.449  65.785  1.00  0.00    -0.158 OA 
HETATM   22  C   UNL     1      -9.054   5.245  69.105  1.00  0.00    -0.136 C  
HETATM   23  H   UNL     1      -9.704   4.671  65.957  1.00  0.00     0.000 HD 
HETATM   24  C   UNL     1     -10.647   7.439  68.647  1.00  0.00    -0.182 C  
HETATM   25  C   UNL     1      -7.511   5.234  69.329  1.00  0.00    -0.062 C  
HETATM   26  C   UNL     1      -6.830   5.478  70.465  1.00  0.00    -0.049 C  
HETATM   27  F   UNL     1     -11.104   5.355  67.828  1.00  0.00    -0.197 F  
HETATM   28  C   UNL     1     -11.162   7.313  70.088  1.00  0.00    -0.264 C  
HETATM   29  C   UNL     1     -11.132   5.863  70.570  1.00  0.00    -0.347 C  
HETATM   30  C   UNL     1      -9.674   5.507  70.522  1.00  0.00    -0.241 C  
ENDROOT
BRANCH   9  31
HETATM   31  C   UNL     1      -8.236  10.785  66.197  1.00  0.00    -0.163 C  
HETATM   32  O   UNL     1      -7.438  10.488  65.317  1.00  0.00    -0.137 OA 
BRANCH  31  33
HETATM   33  C   UNL     1      -9.302  11.861  66.010  1.00  0.00    -0.206 C  
BRANCH  33  34
HETATM   34  O   UNL     1     -10.437  11.382  65.273  1.00  0.00    -0.265 OA 
BRANCH  34  35
HETATM   35  C   UNL     1     -11.611  11.968  65.622  1.00  0.00    -0.296 C  
HETATM   36  O   UNL     1     -12.074  12.004  66.746  1.00  0.00    -0.613 OA 
HETATM   37  C   UNL     1     -12.238  12.648  64.429  1.00  0.00    -0.518 C  
ENDBRANCH  34  35
ENDBRANCH  33  34
ENDBRANCH  31  33
ENDBRANCH   9  31
TORSDOF 4
ENDMDL
MODEL       51
REMARK 921   NORMALIZED FREE ENERGY PREDICTED BY IDOCK:   -5.03 KCAL/MOL
REMARK 922        TOTAL FREE ENERGY PREDICTED BY IDOCK:   -6.76 KCAL/MOL
REMARK 923 INTER-LIGAND FREE ENERGY PREDICTED BY IDOCK:   -6.03 KCAL/MOL
REMARK 924 INTRA-LIGAND FREE ENERGY PREDICTED BY IDOCK:   -0.73 KCAL/MOL
REMARK 927      BINDING AFFINITY PREDICTED BY RF-SCORE:    0.00 PKD
ROOT
HETATM    1  C   UNL     1      -9.704  12.148  68.846  1.00  0.00     0.102 C  
HETATM    2  C   UNL     1     -10.547  11.110  69.546  1.00  0.00    -0.137 C  
HETATM    3  C   UNL     1      -9.794   9.818  69.358  1.00  0.00    -0.205 C  
HETATM    4  O   UNL     1     -10.652   9.005  68.563  1.00  0.00    -0.209 OA 
HETATM    5  C   UNL     1      -9.780   8.254  67.749  1.00  0.00    -0.158 C  
HETATM    6  O   UNL     1      -8.570   8.994  67.551  1.00  0.00    -0.119 OA 
HETATM    7  C   UNL     1     -10.510   7.894  66.457  1.00  0.00    -0.014 C  
HETATM    8  C   UNL     1     -11.004   6.460  66.621  1.00  0.00    -0.192 C  
HETATM    9  C   UNL     1      -8.524  10.057  68.530  1.00  0.00    -0.115 C  
HETATM   10  O   UNL     1     -12.919  11.288  63.944  1.00  0.00     0.360 OA 
HETATM   11  C   UNL     1     -10.328   5.876  67.850  1.00  0.00    -0.262 C  
HETATM   12  C   UNL     1      -8.659  11.484  67.893  1.00  0.00    -0.143 C  
HETATM   13  C   UNL     1      -9.446   6.950  68.456  1.00  0.00    -0.133 C  
HETATM   14  C   UNL     1     -12.207  12.163  64.367  1.00  0.00    -0.346 C  
HETATM   15  C   UNL     1     -12.648  13.103  65.426  1.00  0.00    -0.512 C  
HETATM   16  C   UNL     1      -7.500  12.538  67.888  1.00  0.00    -0.120 C  
HETATM   17  C   UNL     1      -8.855  11.259  66.400  1.00  0.00    -0.184 C  
HETATM   18  C   UNL     1      -8.059  13.984  67.643  1.00  0.00    -0.174 C  
HETATM   19  C   UNL     1      -9.786  15.461  65.098  1.00  0.00    -0.136 C  
HETATM   20  C   UNL     1      -9.581  14.170  67.285  1.00  0.00    -0.234 C  
HETATM   21  O   UNL     1      -7.191  14.757  66.828  1.00  0.00    -0.273 OA 
HETATM   22  C   UNL     1     -10.280  14.137  65.755  1.00  0.00    -0.347 C  
HETATM   23  H   UNL     1      -7.529  15.633  66.680  1.00  0.00     0.000 HD 
HETATM   24  C   UNL     1     -10.366  13.463  68.420  1.00  0.00    -0.253 C  
HETATM   25  C   UNL     1      -9.980  13.189  64.555  1.00  0.00    -0.137 C  
HETATM   26  C   UNL     1     -10.825  12.357  63.915  1.00  0.00    -0.465 C  
HETATM   27  F   UNL     1      -9.755  15.529  67.660  1.00  0.00    -0.209 F  
HETATM   28  C   UNL     1     -11.897  13.560  68.351  1.00  0.00    -0.408 C  
HETATM   29  C   UNL     1     -12.349  14.571  67.298  1.00  0.00    -0.013 C  
HETATM   30  C   UNL     1     -11.821  13.999  66.014  1.00  0.00    -0.401 C  
ENDROOT
BRANCH   9  31
HETATM   31  C   UNL     1      -7.239   9.950  69.366  1.00  0.00    -0.083 C  
HETATM   32  O   UNL     1      -7.067  10.681  70.334  1.00  0.00    -0.249 OA 
BRANCH  31  33
HETATM   33  C   UNL     1      -6.161   9.003  68.851  1.00  0.00    -0.044 C  
BRANCH  33  34
HETATM   34  O   UNL     1      -5.285   9.635  67.905  1.00  0.00    -0.036 OA 
BRANCH  34  35
HETATM   35  C   UNL     1      -5.543   9.315  66.611  1.00  0.00    -0.046 C  
HETATM   36  O   UNL     1      -5.913   8.226  66.215  1.00  0.00    -0.040 OA 
HETATM   37  C   UNL     1      -5.385  10.526  65.724  1.00  0.00    -0.095 C  
ENDBRANCH  34  35
ENDBRANCH  33  34
ENDBRANCH  31  33
ENDBRANCH   9  31
TORSDOF 4
ENDMDL
MODEL       52
REMARK 921   NORMALIZED FREE ENERGY PREDICTED BY IDOCK:   -5.02 KCAL/MOL
REMARK 922        TOTAL FREE ENERGY PREDICTED BY IDOCK:   -6.76 KCAL/MOL
REMARK 923 INTER-LIGAND FREE ENERGY PREDICTED BY IDOCK:   -6.21 KCAL/MOL
REMARK 924 INTRA-LIGAND FREE ENERGY PREDICTED BY IDOCK:   -0.55 KCAL/MOL
REMARK 927      BINDING AFFINITY PREDICTED BY RF-SCORE:    0.00 PKD
ROOT
HETATM    1  C   UNL     1     -10.182   8.057  67.705  1.00  0.00    -0.282 C  
HETATM    2  C   UNL     1     -10.882   7.020  66.859  1.00  0.00    -0.350 C  
HETATM    3  C   UNL     1     -10.533   5.704  67.506  1.00  0.00    -0.229 C  
HETATM    4  O   UNL     1      -9.764   5.008  66.529  1.00  0.00    -0.147 OA 
HETATM    5  C   UNL     1      -8.821   4.271  67.275  1.00  0.00    -0.113 C  
HETATM    6  O   UNL     1      -8.566   4.951  68.510  1.00  0.00    -0.094 OA 
HETATM    7  C   UNL     1      -7.580   4.057  66.412  1.00  0.00    -0.089 C  
HETATM    8  C   UNL     1      -7.686   2.646  65.841  1.00  0.00    -0.080 C  
HETATM    9  C   UNL     1      -9.611   5.930  68.712  1.00  0.00    -0.128 C  
HETATM   10  O   UNL     1      -5.549   7.772  64.024  1.00  0.00    -0.043 OA 
HETATM   11  C   UNL     1      -8.802   1.929  66.581  1.00  0.00    -0.133 C  
HETATM   12  C   UNL     1      -9.093   7.408  68.616  1.00  0.00    -0.134 C  
HETATM   13  C   UNL     1      -9.400   2.899  67.583  1.00  0.00    -0.234 C  
HETATM   14  C   UNL     1      -5.967   8.568  64.826  1.00  0.00    -0.063 C  
HETATM   15  C   UNL     1      -7.126   9.447  64.543  1.00  0.00    -0.101 C  
HETATM   16  C   UNL     1      -9.056   8.388  69.837  1.00  0.00    -0.146 C  
HETATM   17  C   UNL     1      -7.611   7.311  68.276  1.00  0.00    -0.118 C  
HETATM   18  C   UNL     1      -8.968   9.879  69.357  1.00  0.00    -0.195 C  
HETATM   19  C   UNL     1      -6.705  11.649  67.515  1.00  0.00    -0.096 C  
HETATM   20  C   UNL     1      -8.766  10.183  67.825  1.00  0.00    -0.121 C  
HETATM   21  O   UNL     1      -8.134  10.660  70.199  1.00  0.00    -0.348 OA 
HETATM   22  C   UNL     1      -7.309  10.310  66.993  1.00  0.00    -0.092 C  
HETATM   23  H   UNL     1      -8.081  11.563  69.908  1.00  0.00     0.000 HD 
HETATM   24  C   UNL     1      -9.915   9.438  67.097  1.00  0.00    -0.263 C  
HETATM   25  C   UNL     1      -6.021   9.441  67.124  1.00  0.00    -0.049 C  
HETATM   26  C   UNL     1      -5.405   8.713  66.173  1.00  0.00    -0.034 C  
HETATM   27  F   UNL     1      -9.252  11.517  67.775  1.00  0.00    -0.151 F  
HETATM   28  C   UNL     1      -9.995   9.631  65.576  1.00  0.00    -0.279 C  
HETATM   29  C   UNL     1      -9.063  10.746  65.102  1.00  0.00    -0.225 C  
HETATM   30  C   UNL     1      -7.698  10.245  65.475  1.00  0.00    -0.149 C  
ENDROOT
BRANCH   9  31
HETATM   31  C   UNL     1     -10.315   5.683  70.055  1.00  0.00    -0.275 C  
HETATM   32  O   UNL     1     -11.461   6.075  70.235  1.00  0.00    -0.339 OA 
BRANCH  31  33
HETATM   33  C   UNL     1      -9.476   5.060  71.166  1.00  0.00    -0.155 C  
BRANCH  33  34
HETATM   34  O   UNL     1     -10.151   3.971  71.814  1.00  0.00    -0.180 OA 
BRANCH  34  35
HETATM   35  C   UNL     1     -10.661   4.280  73.033  1.00  0.00    -0.192 C  
HETATM   36  O   UNL     1     -11.090   5.371  73.361  1.00  0.00    -0.297 OA 
HETATM   37  C   UNL     1     -10.703   3.057  73.916  1.00  0.00    -0.284 C  
ENDBRANCH  34  35
ENDBRANCH  33  34
ENDBRANCH  31  33
ENDBRANCH   9  31
TORSDOF 4
ENDMDL
MODEL       53
REMARK 921   NORMALIZED FREE ENERGY PREDICTED BY IDOCK:   -4.99 KCAL/MOL
REMARK 922        TOTAL FREE ENERGY PREDICTED BY IDOCK:   -6.72 KCAL/MOL
REMARK 923 INTER-LIGAND FREE ENERGY PREDICTED BY IDOCK:   -5.95 KCAL/MOL
REMARK 924 INTRA-LIGAND FREE ENERGY PREDICTED BY IDOCK:   -0.76 KCAL/MOL
REMARK 927      BINDING AFFINITY PREDICTED BY RF-SCORE:    0.00 PKD
ROOT
HETATM    1  C   UNL     1      -9.733  11.164  66.534  1.00  0.00    -0.228 C  
HETATM    2  C   UNL     1     -11.219  10.920  66.653  1.00  0.00    -0.060 C  
HETATM    3  C   UNL     1     -11.635  11.693  67.878  1.00  0.00    -0.298 C  
HETATM    4  O   UNL     1     -12.079  10.703  68.803  1.00  0.00    -0.389 OA 
HETATM    5  C   UNL     1     -11.706  11.204  70.068  1.00  0.00    -0.356 C  
HETATM    6  O   UNL     1     -10.559  12.048  69.918  1.00  0.00     0.442 OA 
HETATM    7  C   UNL     1     -11.493  10.023  71.012  1.00  0.00    -0.463 C  
HETATM    8  C   UNL     1     -12.766   9.897  71.844  1.00  0.00    -0.501 C  
HETATM    9  C   UNL     1     -10.418  12.376  68.517  1.00  0.00    -0.228 C  
HETATM   10  O   UNL     1      -8.786   6.219  69.658  1.00  0.00    -0.134 OA 
HETATM   11  C   UNL     1     -13.595  11.149  71.615  1.00  0.00     0.044 C  
HETATM   12  C   UNL     1      -9.143  11.736  67.863  1.00  0.00    -0.181 C  
HETATM   13  C   UNL     1     -12.853  12.030  70.628  1.00  0.00    -0.035 C  
HETATM   14  C   UNL     1      -8.142   6.898  68.898  1.00  0.00    -0.120 C  
HETATM   15  C   UNL     1      -8.345   6.858  67.430  1.00  0.00    -0.122 C  
HETATM   16  C   UNL     1      -7.925  12.576  67.348  1.00  0.00    -0.180 C  
HETATM   17  C   UNL     1      -8.483  10.906  68.956  1.00  0.00    -0.110 C  
HETATM   18  C   UNL     1      -7.061  11.747  66.335  1.00  0.00     0.223 C  
HETATM   19  C   UNL     1      -5.311   8.824  66.543  1.00  0.00    -0.035 C  
HETATM   20  C   UNL     1      -7.394  10.225  66.104  1.00  0.00    -0.122 C  
HETATM   21  O   UNL     1      -5.673  12.001  66.489  1.00  0.00    -0.469 OA 
HETATM   22  C   UNL     1      -6.807   8.909  66.973  1.00  0.00    -0.073 C  
HETATM   23  H   UNL     1      -5.149  11.499  65.875  1.00  0.00     0.000 HD 
HETATM   24  C   UNL     1      -8.893  10.182  65.712  1.00  0.00    -0.177 C  
HETATM   25  C   UNL     1      -6.587   8.762  68.510  1.00  0.00    -0.059 C  
HETATM   26  C   UNL     1      -7.131   7.861  69.349  1.00  0.00    -0.064 C  
HETATM   27  F   UNL     1      -6.789  10.033  64.833  1.00  0.00    -0.107 F  
HETATM   28  C   UNL     1      -9.464   8.801  65.356  1.00  0.00    -0.007 C  
HETATM   29  C   UNL     1      -8.357   7.757  65.207  1.00  0.00    -0.128 C  
HETATM   30  C   UNL     1      -7.735   7.709  66.573  1.00  0.00    -0.097 C  
ENDROOT
BRANCH   9  31
HETATM   31  C   UNL     1     -10.423  13.901  68.327  1.00  0.00    -0.250 C  
HETATM   32  O   UNL     1      -9.968  14.634  69.196  1.00  0.00    -0.210 OA 
BRANCH  31  33
HETATM   33  C   UNL     1     -11.134  14.437  67.089  1.00  0.00    -0.312 C  
BRANCH  33  34
HETATM   34  O   UNL     1     -10.262  14.522  65.952  1.00  0.00    -0.292 OA 
BRANCH  34  35
HETATM   35  C   UNL     1      -9.778  15.769  65.716  1.00  0.00    -0.337 C  
HETATM   36  O   UNL     1      -8.650  16.147  65.970  1.00  0.00    -0.330 OA 
HETATM   37  C   UNL     1     -10.812  16.613  65.013  1.00  0.00    -0.190 C  
ENDBRANCH  34  35
ENDBRANCH  33  34
ENDBRANCH  31  33
ENDBRANCH   9  31
TORSDOF 4
ENDMDL
MODEL       54
REMARK 921   NORMALIZED FREE ENERGY PREDICTED BY IDOCK:   -4.98 KCAL/MOL
REMARK 922        TOTAL FREE ENERGY PREDICTED BY IDOCK:   -6.71 KCAL/MOL
REMARK 923 INTER-LIGAND FREE ENERGY PREDICTED BY IDOCK:   -6.18 KCAL/MOL
REMARK 924 INTRA-LIGAND FREE ENERGY PREDICTED BY IDOCK:   -0.52 KCAL/MOL
REMARK 927      BINDING AFFINITY PREDICTED BY RF-SCORE:    0.00 PKD
ROOT
HETATM    1  C   UNL     1      -8.398   7.697  69.350  1.00  0.00    -0.131 C  
HETATM    2  C   UNL     1      -7.213   6.770  69.479  1.00  0.00    -0.081 C  
HETATM    3  C   UNL     1      -7.396   5.762  68.373  1.00  0.00    -0.080 C  
HETATM    4  O   UNL     1      -7.590   4.517  69.040  1.00  0.00    -0.056 OA 
HETATM    5  C   UNL     1      -8.497   3.811  68.222  1.00  0.00    -0.092 C  
HETATM    6  O   UNL     1      -9.313   4.749  67.511  1.00  0.00    -0.125 OA 
HETATM    7  C   UNL     1      -9.282   2.838  69.099  1.00  0.00    -0.215 C  
HETATM    8  C   UNL     1      -8.628   1.471  68.924  1.00  0.00    -0.088 C  
HETATM    9  C   UNL     1      -8.689   6.050  67.597  1.00  0.00    -0.104 C  
HETATM   10  O   UNL     1     -11.314   4.329  73.256  1.00  0.00    -0.259 OA 
HETATM   11  C   UNL     1      -7.670   1.563  67.749  1.00  0.00    -0.058 C  
HETATM   12  C   UNL     1      -9.516   7.070  68.456  1.00  0.00    -0.134 C  
HETATM   13  C   UNL     1      -7.713   2.983  67.217  1.00  0.00    -0.074 C  
HETATM   14  C   UNL     1     -11.408   5.460  72.850  1.00  0.00    -0.303 C  
HETATM   15  C   UNL     1     -10.495   6.541  73.292  1.00  0.00    -0.280 C  
HETATM   16  C   UNL     1     -10.209   8.340  67.855  1.00  0.00    -0.276 C  
HETATM   17  C   UNL     1     -10.722   6.299  68.976  1.00  0.00    -0.362 C  
HETATM   18  C   UNL     1     -10.522   9.392  68.976  1.00  0.00    -0.217 C  
HETATM   19  C   UNL     1     -12.433   9.348  71.803  1.00  0.00    -0.471 C  
HETATM   20  C   UNL     1     -10.281   9.004  70.483  1.00  0.00    -0.219 C  
HETATM   21  O   UNL     1     -11.761  10.049  68.756  1.00  0.00    -0.501 OA 
HETATM   22  C   UNL     1     -11.362   8.250  71.529  1.00  0.00    -0.320 C  
HETATM   23  H   UNL     1     -11.951  10.686  69.436  1.00  0.00     0.000 HD 
HETATM   24  C   UNL     1      -8.804   8.540  70.563  1.00  0.00    -0.168 C  
HETATM   25  C   UNL     1     -12.345   7.072  71.248  1.00  0.00    -0.426 C  
HETATM   26  C   UNL     1     -12.400   5.869  71.850  1.00  0.00     0.225 C  
HETATM   27  F   UNL     1     -10.174  10.301  71.054  1.00  0.00    -0.097 F  
HETATM   28  C   UNL     1      -8.281   8.170  71.959  1.00  0.00    -0.192 C  
HETATM   29  C   UNL     1      -9.263   8.584  73.054  1.00  0.00    -0.143 C  
HETATM   30  C   UNL     1     -10.492   7.780  72.746  1.00  0.00    -0.390 C  
ENDROOT
BRANCH   9  31
HETATM   31  C   UNL     1      -8.428   6.606  66.189  1.00  0.00    -0.135 C  
HETATM   32  O   UNL     1      -9.134   6.267  65.248  1.00  0.00     0.063 OA 
BRANCH  31  33
HETATM   33  C   UNL     1      -7.186   7.474  66.012  1.00  0.00    -0.070 C  
BRANCH  33  34
HETATM   34  O   UNL     1      -7.510   8.819  65.629  1.00  0.00    -0.084 OA 
BRANCH  34  35
HETATM   35  C   UNL     1      -6.934   9.219  64.467  1.00  0.00    -0.093 C  
HETATM   36  O   UNL     1      -6.127  10.122  64.354  1.00  0.00    -0.122 OA 
HETATM   37  C   UNL     1      -7.370   8.331  63.327  1.00  0.00    -0.105 C  
ENDBRANCH  34  35
ENDBRANCH  33  34
ENDBRANCH  31  33
ENDBRANCH   9  31
TORSDOF 4
ENDMDL
MODEL       55
REMARK 921   NORMALIZED FREE ENERGY PREDICTED BY IDOCK:   -4.98 KCAL/MOL
REMARK 922        TOTAL FREE ENERGY PREDICTED BY IDOCK:   -6.70 KCAL/MOL
REMARK 923 INTER-LIGAND FREE ENERGY PREDICTED BY IDOCK:   -6.16 KCAL/MOL
REMARK 924 INTRA-LIGAND FREE ENERGY PREDICTED BY IDOCK:   -0.54 KCAL/MOL
REMARK 927      BINDING AFFINITY PREDICTED BY RF-SCORE:    0.00 PKD
ROOT
HETATM    1  C   UNL     1      -8.815  16.248  68.913  1.00  0.00    -0.253 C  
HETATM    2  C   UNL     1     -10.122  15.501  69.026  1.00  0.00    -0.234 C  
HETATM    3  C   UNL     1     -10.019  14.396  68.006  1.00  0.00    -0.225 C  
HETATM    4  O   UNL     1     -11.037  14.681  67.052  1.00  0.00    -0.315 OA 
HETATM    5  C   UNL     1     -10.499  14.258  65.819  1.00  0.00    -0.316 C  
HETATM    6  O   UNL     1      -9.071  14.348  65.875  1.00  0.00    -0.047 OA 
HETATM    7  C   UNL     1     -11.134  15.086  64.703  1.00  0.00    -0.335 C  
HETATM    8  C   UNL     1     -12.240  14.226  64.099  1.00  0.00    -0.410 C  
HETATM    9  C   UNL     1      -8.680  14.483  67.260  1.00  0.00    -0.210 C  
HETATM   10  O   UNL     1     -11.384  19.929  65.046  1.00  0.00    -0.120 OA 
HETATM   11  C   UNL     1     -12.074  12.814  64.634  1.00  0.00    -0.483 C  
HETATM   12  C   UNL     1      -8.068  15.890  67.589  1.00  0.00    -0.160 C  
HETATM   13  C   UNL     1     -10.890  12.807  65.582  1.00  0.00    -0.300 C  
HETATM   14  C   UNL     1     -10.417  19.968  65.764  1.00  0.00    -0.364 C  
HETATM   15  C   UNL     1     -10.521  20.187  67.226  1.00  0.00    -0.430 C  
HETATM   16  C   UNL     1      -6.568  16.104  67.989  1.00  0.00    -0.142 C  
HETATM   17  C   UNL     1      -8.143  16.692  66.297  1.00  0.00    -0.361 C  
HETATM   18  C   UNL     1      -6.373  17.481  68.716  1.00  0.00    -0.197 C  
HETATM   19  C   UNL     1      -6.887  20.733  67.818  1.00  0.00    -0.359 C  
HETATM   20  C   UNL     1      -7.583  18.486  68.798  1.00  0.00    -0.284 C  
HETATM   21  O   UNL     1      -5.149  18.103  68.355  1.00  0.00    -0.158 OA 
HETATM   22  C   UNL     1      -8.010  19.662  67.673  1.00  0.00    -0.320 C  
HETATM   23  H   UNL     1      -5.031  18.937  68.796  1.00  0.00     0.000 HD 
HETATM   24  C   UNL     1      -8.746  17.686  69.438  1.00  0.00     0.462 C  
HETATM   25  C   UNL     1      -8.014  19.581  66.116  1.00  0.00    -0.340 C  
HETATM   26  C   UNL     1      -9.051  19.756  65.274  1.00  0.00     1.078 C  
HETATM   27  F   UNL     1      -7.170  19.273  69.907  1.00  0.00    -0.192 F  
HETATM   28  C   UNL     1     -10.043  18.465  69.703  1.00  0.00     0.417 C  
HETATM   29  C   UNL     1      -9.843  19.969  69.515  1.00  0.00     0.012 C  
HETATM   30  C   UNL     1      -9.465  20.094  68.068  1.00  0.00    -0.389 C  
ENDROOT
BRANCH   9  31
HETATM   31  C   UNL     1      -7.707  13.359  67.648  1.00  0.00    -0.177 C  
HETATM   32  O   UNL     1      -6.605  13.284  67.120  1.00  0.00    -0.194 OA 
BRANCH  31  33
HETATM   33  C   UNL     1      -8.235  12.291  68.600  1.00  0.00    -0.017 C  
BRANCH  33  34
HETATM   34  O   UNL     1      -8.597  11.081  67.918  1.00  0.00    -0.127 OA 
BRANCH  34  35
HETATM   35  C   UNL     1      -9.724  10.492  68.392  1.00  0.00    -0.159 C  
HETATM   36  O   UNL     1     -10.301  10.799  69.418  1.00  0.00    -0.218 OA 
HETATM   37  C   UNL     1     -10.220   9.443  67.427  1.00  0.00    -0.298 C  
ENDBRANCH  34  35
ENDBRANCH  33  34
ENDBRANCH  31  33
ENDBRANCH   9  31
TORSDOF 4
ENDMDL
MODEL       56
REMARK 921   NORMALIZED FREE ENERGY PREDICTED BY IDOCK:   -4.95 KCAL/MOL
REMARK 922        TOTAL FREE ENERGY PREDICTED BY IDOCK:   -6.68 KCAL/MOL
REMARK 923 INTER-LIGAND FREE ENERGY PREDICTED BY IDOCK:   -6.17 KCAL/MOL
REMARK 924 INTRA-LIGAND FREE ENERGY PREDICTED BY IDOCK:   -0.50 KCAL/MOL
REMARK 927      BINDING AFFINITY PREDICTED BY RF-SCORE:    0.00 PKD
ROOT
HETATM    1  C   UNL     1      -9.928   6.807  67.182  1.00  0.00    -0.220 C  
HETATM    2  C   UNL     1     -11.097   6.549  68.103  1.00  0.00    -0.332 C  
HETATM    3  C   UNL     1     -10.873   7.474  69.272  1.00  0.00    -0.117 C  
HETATM    4  O   UNL     1     -10.668   6.611  70.388  1.00  0.00    -0.226 OA 
HETATM    5  C   UNL     1      -9.732   7.289  71.196  1.00  0.00    -0.171 C  
HETATM    6  O   UNL     1      -8.920   8.130  70.367  1.00  0.00    -0.142 OA 
HETATM    7  C   UNL     1      -8.945   6.254  71.997  1.00  0.00    -0.142 C  
HETATM    8  C   UNL     1      -9.569   6.215  73.389  1.00  0.00    -0.151 C  
HETATM    9  C   UNL     1      -9.571   8.265  69.083  1.00  0.00    -0.160 C  
HETATM   10  O   UNL     1      -7.023   2.361  69.810  1.00  0.00    -0.033 OA 
HETATM   11  C   UNL     1     -10.505   7.406  73.510  1.00  0.00    -0.396 C  
HETATM   12  C   UNL     1      -8.781   7.569  67.920  1.00  0.00    -0.124 C  
HETATM   13  C   UNL     1     -10.480   8.159  72.193  1.00  0.00    -0.352 C  
HETATM   14  C   UNL     1      -6.943   2.943  68.757  1.00  0.00    -0.048 C  
HETATM   15  C   UNL     1      -7.886   2.697  67.640  1.00  0.00    -0.064 C  
HETATM   16  C   UNL     1      -8.102   8.357  66.749  1.00  0.00    -0.098 C  
HETATM   17  C   UNL     1      -7.570   6.912  68.570  1.00  0.00    -0.111 C  
HETATM   18  C   UNL     1      -7.831   7.415  65.523  1.00  0.00    -0.115 C  
HETATM   19  C   UNL     1      -5.974   4.589  65.067  1.00  0.00    -0.022 C  
HETATM   20  C   UNL     1      -8.094   5.870  65.668  1.00  0.00    -0.124 C  
HETATM   21  O   UNL     1      -6.601   7.719  64.883  1.00  0.00    -0.047 OA 
HETATM   22  C   UNL     1      -7.018   4.699  66.219  1.00  0.00    -0.070 C  
HETATM   23  H   UNL     1      -6.437   7.149  64.140  1.00  0.00     0.000 HD 
HETATM   24  C   UNL     1      -9.563   5.739  66.146  1.00  0.00    -0.126 C  
HETATM   25  C   UNL     1      -6.007   4.770  67.404  1.00  0.00    -0.023 C  
HETATM   26  C   UNL     1      -5.941   3.980  68.493  1.00  0.00    -0.027 C  
HETATM   27  F   UNL     1      -8.237   5.518  64.298  1.00  0.00    -0.110 F  
HETATM   28  C   UNL     1     -10.105   4.311  66.298  1.00  0.00    -0.196 C  
HETATM   29  C   UNL     1      -9.153   3.281  65.690  1.00  0.00    -0.152 C  
HETATM   30  C   UNL     1      -7.902   3.436  66.506  1.00  0.00    -0.081 C  
ENDROOT
BRANCH   9  31
HETATM   31  C   UNL     1      -9.816   9.748  68.768  1.00  0.00    -0.169 C  
HETATM   32  O   UNL     1      -9.144  10.616  69.311  1.00  0.00    -0.175 OA 
BRANCH  31  33
HETATM   33  C   UNL     1     -11.005  10.073  67.870  1.00  0.00    -0.252 C  
BRANCH  33  34
HETATM   34  O   UNL     1     -11.921  10.991  68.487  1.00  0.00    -0.535 OA 
BRANCH  34  35
HETATM   35  C   UNL     1     -11.752  12.283  68.106  1.00  0.00    -0.349 C  
HETATM   36  O   UNL     1     -11.747  13.243  68.854  1.00  0.00    -0.285 OA 
HETATM   37  C   UNL     1     -11.488  12.368  66.623  1.00  0.00    -0.429 C  
ENDBRANCH  34  35
ENDBRANCH  33  34
ENDBRANCH  31  33
ENDBRANCH   9  31
TORSDOF 4
ENDMDL
MODEL       57
REMARK 921   NORMALIZED FREE ENERGY PREDICTED BY IDOCK:   -4.92 KCAL/MOL
REMARK 922        TOTAL FREE ENERGY PREDICTED BY IDOCK:   -6.63 KCAL/MOL
REMARK 923 INTER-LIGAND FREE ENERGY PREDICTED BY IDOCK:   -6.07 KCAL/MOL
REMARK 924 INTRA-LIGAND FREE ENERGY PREDICTED BY IDOCK:   -0.56 KCAL/MOL
REMARK 927      BINDING AFFINITY PREDICTED BY RF-SCORE:    0.00 PKD
ROOT
HETATM    1  C   UNL     1     -10.459   5.535  68.757  1.00  0.00    -0.261 C  
HETATM    2  C   UNL     1     -10.924   6.537  67.727  1.00  0.00    -0.407 C  
HETATM    3  C   UNL     1      -9.955   6.385  66.583  1.00  0.00    -0.149 C  
HETATM    4  O   UNL     1      -9.274   7.635  66.511  1.00  0.00    -0.160 OA 
HETATM    5  C   UNL     1      -7.963   7.306  66.109  1.00  0.00    -0.112 C  
HETATM    6  O   UNL     1      -7.657   5.978  66.552  1.00  0.00    -0.091 OA 
HETATM    7  C   UNL     1      -7.011   8.376  66.637  1.00  0.00    -0.072 C  
HETATM    8  C   UNL     1      -6.737   9.326  65.475  1.00  0.00    -0.073 C  
HETATM    9  C   UNL     1      -8.895   5.327  66.920  1.00  0.00    -0.110 C  
HETATM   10  O   UNL     1      -7.216   9.804  71.279  1.00  0.00    -0.309 OA 
HETATM   11  C   UNL     1      -7.267   8.675  64.210  1.00  0.00    -0.094 C  
HETATM   12  C   UNL     1      -9.005   5.047  68.459  1.00  0.00    -0.125 C  
HETATM   13  C   UNL     1      -7.889   7.345  64.590  1.00  0.00    -0.123 C  
HETATM   14  C   UNL     1      -7.668   8.743  71.628  1.00  0.00    -0.074 C  
HETATM   15  C   UNL     1      -9.100   8.559  71.963  1.00  0.00    -0.317 C  
HETATM   16  C   UNL     1      -9.008   3.607  69.075  1.00  0.00    -0.179 C  
HETATM   17  C   UNL     1      -7.742   5.628  69.083  1.00  0.00    -0.088 C  
HETATM   18  C   UNL     1      -9.610   3.618  70.524  1.00  0.00    -0.186 C  
HETATM   19  C   UNL     1      -8.743   5.162  73.442  1.00  0.00    -0.114 C  
HETATM   20  C   UNL     1      -9.952   4.996  71.205  1.00  0.00    -0.207 C  
HETATM   21  O   UNL     1      -8.930   2.718  71.387  1.00  0.00    -0.079 OA 
HETATM   22  C   UNL     1      -8.925   5.966  72.119  1.00  0.00    -0.143 C  
HETATM   23  H   UNL     1      -9.294   2.725  72.265  1.00  0.00     0.000 HD 
HETATM   24  C   UNL     1     -10.894   5.727  70.214  1.00  0.00    -0.373 C  
HETATM   25  C   UNL     1      -7.423   6.309  71.880  1.00  0.00    -0.094 C  
HETATM   26  C   UNL     1      -6.860   7.520  71.709  1.00  0.00    -0.057 C  
HETATM   27  F   UNL     1     -10.891   4.560  72.178  1.00  0.00    -0.229 F  
HETATM   28  C   UNL     1     -11.444   7.085  70.674  1.00  0.00    -0.367 C  
HETATM   29  C   UNL     1     -11.154   7.336  72.153  1.00  0.00    -0.281 C  
HETATM   30  C   UNL     1      -9.654   7.351  72.219  1.00  0.00    -0.186 C  
ENDROOT
BRANCH   9  31
HETATM   31  C   UNL     1      -9.070   4.031  66.114  1.00  0.00    -0.141 C  
HETATM   32  O   UNL     1      -8.176   3.195  66.084  1.00  0.00    -0.091 OA 
BRANCH  31  33
HETATM   33  C   UNL     1     -10.332   3.914  65.266  1.00  0.00    -0.028 C  
BRANCH  33  34
HETATM   34  O   UNL     1     -10.050   3.953  63.859  1.00  0.00    -0.178 OA 
BRANCH  34  35
HETATM   35  C   UNL     1     -10.315   2.792  63.207  1.00  0.00    -0.180 C  
HETATM   36  O   UNL     1     -11.425   2.348  62.982  1.00  0.00    -0.294 OA 
HETATM   37  C   UNL     1      -9.037   2.154  62.721  1.00  0.00    -0.090 C  
ENDBRANCH  34  35
ENDBRANCH  33  34
ENDBRANCH  31  33
ENDBRANCH   9  31
TORSDOF 4
ENDMDL
MODEL       58
REMARK 921   NORMALIZED FREE ENERGY PREDICTED BY IDOCK:   -4.79 KCAL/MOL
REMARK 922        TOTAL FREE ENERGY PREDICTED BY IDOCK:   -6.47 KCAL/MOL
REMARK 923 INTER-LIGAND FREE ENERGY PREDICTED BY IDOCK:   -7.21 KCAL/MOL
REMARK 924 INTRA-LIGAND FREE ENERGY PREDICTED BY IDOCK:    0.73 KCAL/MOL
REMARK 927      BINDING AFFINITY PREDICTED BY RF-SCORE:    0.00 PKD
ROOT
HETATM    1  C   UNL     1     -10.503   8.257  68.810  1.00  0.00    -0.200 C  
HETATM    2  C   UNL     1     -10.145   6.815  68.540  1.00  0.00    -0.166 C  
HETATM    3  C   UNL     1      -9.583   6.311  69.845  1.00  0.00    -0.156 C  
HETATM    4  O   UNL     1      -8.221   6.002  69.563  1.00  0.00    -0.111 OA 
HETATM    5  C   UNL     1      -7.531   6.315  70.752  1.00  0.00    -0.091 C  
HETATM    6  O   UNL     1      -8.241   7.346  71.448  1.00  0.00    -0.103 OA 
HETATM    7  C   UNL     1      -6.092   6.681  70.394  1.00  0.00    -0.024 C  
HETATM    8  C   UNL     1      -5.248   5.439  70.664  1.00  0.00    -0.005 C  
HETATM    9  C   UNL     1      -9.571   7.436  70.889  1.00  0.00    -0.166 C  
HETATM   10  O   UNL     1      -5.151   9.840  66.821  1.00  0.00    -0.039 OA 
HETATM   11  C   UNL     1      -6.105   4.457  71.444  1.00  0.00    -0.018 C  
HETATM   12  C   UNL     1      -9.820   8.778  70.115  1.00  0.00    -0.192 C  
HETATM   13  C   UNL     1      -7.476   5.077  71.632  1.00  0.00    -0.091 C  
HETATM   14  C   UNL     1      -6.213  10.389  66.973  1.00  0.00    -0.067 C  
HETATM   15  C   UNL     1      -7.352  10.184  66.047  1.00  0.00    -0.118 C  
HETATM   16  C   UNL     1     -10.827   9.877  70.598  1.00  0.00    -0.400 C  
HETATM   17  C   UNL     1      -8.505   9.544  70.169  1.00  0.00    -0.227 C  
HETATM   18  C   UNL     1     -11.221  10.833  69.418  1.00  0.00    -0.276 C  
HETATM   19  C   UNL     1      -9.467  12.940  67.384  1.00  0.00    -0.198 C  
HETATM   20  C   UNL     1     -10.481  10.694  68.035  1.00  0.00    -0.196 C  
HETATM   21  O   UNL     1     -11.357  12.179  69.849  1.00  0.00    -0.483 OA 
HETATM   22  C   UNL     1      -9.053  11.447  67.561  1.00  0.00    -0.157 C  
HETATM   23  H   UNL     1     -11.596  12.758  69.134  1.00  0.00     0.000 HD 
HETATM   24  C   UNL     1     -10.651   9.210  67.619  1.00  0.00    -0.307 C  
HETATM   25  C   UNL     1      -7.750  11.693  68.381  1.00  0.00    -0.130 C  
HETATM   26  C   UNL     1      -6.500  11.272  68.108  1.00  0.00    -0.056 C  
HETATM   27  F   UNL     1     -11.437  11.311  67.184  1.00  0.00    -0.347 F  
HETATM   28  C   UNL     1     -10.076   8.816  66.250  1.00  0.00    -0.254 C  
HETATM   29  C   UNL     1      -9.668  10.045  65.439  1.00  0.00    -0.368 C  
HETATM   30  C   UNL     1      -8.592  10.677  66.275  1.00  0.00    -0.156 C  
ENDROOT
BRANCH   9  31
HETATM   31  C   UNL     1     -10.623   7.237  71.992  1.00  0.00    -0.207 C  
HETATM   32  O   UNL     1     -10.946   6.110  72.343  1.00  0.00    -0.232 OA 
BRANCH  31  33
HETATM   33  C   UNL     1     -11.322   8.490  72.509  1.00  0.00    -0.286 C  
BRANCH  33  34
HETATM   34  O   UNL     1     -12.635   8.212  73.019  1.00  0.00    -0.069 OA 
BRANCH  34  35
HETATM   35  C   UNL     1     -13.642   8.735  72.274  1.00  0.00    -0.430 C  
HETATM   36  O   UNL     1     -13.908   9.918  72.180  1.00  0.00    -0.290 OA 
HETATM   37  C   UNL     1     -14.349   7.648  71.501  1.00  0.00    -0.589 C  
ENDBRANCH  34  35
ENDBRANCH  33  34
ENDBRANCH  31  33
ENDBRANCH   9  31
TORSDOF 4
ENDMDL
MODEL       59
REMARK 921   NORMALIZED FREE ENERGY PREDICTED BY IDOCK:   -4.74 KCAL/MOL
REMARK 922        TOTAL FREE ENERGY PREDICTED BY IDOCK:   -6.41 KCAL/MOL
REMARK 923 INTER-LIGAND FREE ENERGY PREDICTED BY IDOCK:   -5.48 KCAL/MOL
REMARK 924 INTRA-LIGAND FREE ENERGY PREDICTED BY IDOCK:   -0.93 KCAL/MOL
REMARK 927      BINDING AFFINITY PREDICTED BY RF-SCORE:    0.00 PKD
ROOT
HETATM    1  C   UNL     1      -7.850   8.122  70.170  1.00  0.00    -0.098 C  
HETATM    2  C   UNL     1      -8.838   9.264  70.143  1.00  0.00    -0.235 C  
HETATM    3  C   UNL     1      -9.780   8.979  71.285  1.00  0.00    -0.301 C  
HETATM    4  O   UNL     1     -11.045   8.755  70.669  1.00  0.00    -0.237 OA 
HETATM    5  C   UNL     1     -11.666   7.776  71.472  1.00  0.00    -0.280 C  
HETATM    6  O   UNL     1     -10.656   6.975  72.097  1.00  0.00    -0.208 OA 
HETATM    7  C   UNL     1     -12.642   6.985  70.605  1.00  0.00    -0.104 C  
HETATM    8  C   UNL     1     -14.029   7.561  70.875  1.00  0.00     0.075 C  
HETATM    9  C   UNL     1      -9.392   7.667  71.981  1.00  0.00    -0.142 C  
HETATM   10  O   UNL     1     -11.264   5.230  66.286  1.00  0.00    -0.032 OA 
HETATM   11  C   UNL     1     -13.925   8.466  72.092  1.00  0.00    -0.426 C  
HETATM   12  C   UNL     1      -8.378   6.934  71.035  1.00  0.00    -0.126 C  
HETATM   13  C   UNL     1     -12.480   8.469  72.553  1.00  0.00    -0.358 C  
HETATM   14  C   UNL     1     -10.111   5.173  66.633  1.00  0.00    -0.237 C  
HETATM   15  C   UNL     1      -9.098   6.159  66.187  1.00  0.00    -0.158 C  
HETATM   16  C   UNL     1      -7.048   6.278  71.541  1.00  0.00    -0.078 C  
HETATM   17  C   UNL     1      -9.115   5.716  70.493  1.00  0.00    -0.164 C  
HETATM   18  C   UNL     1      -6.039   6.071  70.357  1.00  0.00    -0.030 C  
HETATM   19  C   UNL     1      -6.131   4.296  67.444  1.00  0.00    -0.031 C  
HETATM   20  C   UNL     1      -6.512   6.363  68.884  1.00  0.00    -0.043 C  
HETATM   21  O   UNL     1      -5.314   4.858  70.484  1.00  0.00    -0.003 OA 
HETATM   22  C   UNL     1      -7.265   5.296  67.823  1.00  0.00    -0.071 C  
HETATM   23  H   UNL     1      -4.702   4.732  69.767  1.00  0.00     0.000 HD 
HETATM   24  C   UNL     1      -7.050   7.818  68.899  1.00  0.00    -0.075 C  
HETATM   25  C   UNL     1      -8.378   4.243  68.109  1.00  0.00    -0.097 C  
HETATM   26  C   UNL     1      -9.606   4.157  67.563  1.00  0.00    -0.219 C  
HETATM   27  F   UNL     1      -5.251   6.562  68.258  1.00  0.00    -0.006 F  
HETATM   28  C   UNL     1      -7.513   8.387  67.550  1.00  0.00    -0.094 C  
HETATM   29  C   UNL     1      -7.106   7.480  66.389  1.00  0.00    -0.071 C  
HETATM   30  C   UNL     1      -7.835   6.198  66.673  1.00  0.00    -0.104 C  
ENDROOT
BRANCH   9  31
HETATM   31  C   UNL     1      -8.780   7.889  73.372  1.00  0.00    -0.249 C  
HETATM   32  O   UNL     1      -7.875   8.698  73.529  1.00  0.00    -0.403 OA 
BRANCH  31  33
HETATM   33  C   UNL     1      -9.259   6.967  74.489  1.00  0.00    -0.191 C  
BRANCH  33  34
HETATM   34  O   UNL     1      -8.649   5.669  74.425  1.00  0.00    -0.114 OA 
BRANCH  34  35
HETATM   35  C   UNL     1      -9.535   4.641  74.379  1.00  0.00    -0.122 C  
HETATM   36  O   UNL     1     -10.741   4.745  74.495  1.00  0.00    -0.355 OA 
HETATM   37  C   UNL     1      -8.825   3.343  74.081  1.00  0.00    -0.089 C  
ENDBRANCH  34  35
ENDBRANCH  33  34
ENDBRANCH  31  33
ENDBRANCH   9  31
TORSDOF 4
ENDMDL
MODEL       60
REMARK 921   NORMALIZED FREE ENERGY PREDICTED BY IDOCK:   -4.73 KCAL/MOL
REMARK 922        TOTAL FREE ENERGY PREDICTED BY IDOCK:   -6.40 KCAL/MOL
REMARK 923 INTER-LIGAND FREE ENERGY PREDICTED BY IDOCK:   -5.45 KCAL/MOL
REMARK 924 INTRA-LIGAND FREE ENERGY PREDICTED BY IDOCK:   -0.95 KCAL/MOL
REMARK 927      BINDING AFFINITY PREDICTED BY RF-SCORE:    0.00 PKD
ROOT
HETATM    1  C   UNL     1      -6.923   8.218  69.488  1.00  0.00    -0.046 C  
HETATM    2  C   UNL     1      -7.279   8.279  70.954  1.00  0.00    -0.058 C  
HETATM    3  C   UNL     1      -7.984   6.975  71.229  1.00  0.00    -0.103 C  
HETATM    4  O   UNL     1      -9.315   7.345  71.580  1.00  0.00    -0.149 OA 
HETATM    5  C   UNL     1     -10.121   6.307  71.069  1.00  0.00    -0.185 C  
HETATM    6  O   UNL     1      -9.467   5.721  69.937  1.00  0.00    -0.144 OA 
HETATM    7  C   UNL     1     -11.507   6.873  70.767  1.00  0.00    -0.381 C  
HETATM    8  C   UNL     1     -12.399   6.491  71.944  1.00  0.00    -0.339 C  
HETATM    9  C   UNL     1      -8.084   6.142  69.944  1.00  0.00    -0.119 C  
HETATM   10  O   UNL     1     -12.004  11.005  68.255  1.00  0.00    -0.593 OA 
HETATM   11  C   UNL     1     -11.648   5.469  72.782  1.00  0.00    -0.298 C  
HETATM   12  C   UNL     1      -7.729   7.099  68.753  1.00  0.00    -0.116 C  
HETATM   13  C   UNL     1     -10.292   5.242  72.142  1.00  0.00    -0.268 C  
HETATM   14  C   UNL     1     -10.954  10.834  67.690  1.00  0.00    -0.306 C  
HETATM   15  C   UNL     1      -9.727  11.586  68.050  1.00  0.00    -0.187 C  
HETATM   16  C   UNL     1      -6.758   6.702  67.590  1.00  0.00    -0.070 C  
HETATM   17  C   UNL     1      -9.027   7.315  67.987  1.00  0.00    -0.131 C  
HETATM   18  C   UNL     1      -6.223   7.977  66.847  1.00  0.00    -0.054 C  
HETATM   19  C   UNL     1      -7.711  10.511  65.112  1.00  0.00    -0.062 C  
HETATM   20  C   UNL     1      -6.816   9.388  67.217  1.00  0.00    -0.084 C  
HETATM   21  O   UNL     1      -6.106   7.765  65.448  1.00  0.00    -0.038 OA 
HETATM   22  C   UNL     1      -8.171  10.132  66.552  1.00  0.00    -0.124 C  
HETATM   23  H   UNL     1      -5.782   8.537  64.998  1.00  0.00     0.000 HD 
HETATM   24  C   UNL     1      -6.632   9.529  68.750  1.00  0.00    -0.051 C  
HETATM   25  C   UNL     1      -9.548   9.509  66.169  1.00  0.00    -0.302 C  
HETATM   26  C   UNL     1     -10.770   9.839  66.628  1.00  0.00    -0.106 C  
HETATM   27  F   UNL     1      -5.763  10.223  66.754  1.00  0.00    -0.046 F  
HETATM   28  C   UNL     1      -7.068  10.866  69.368  1.00  0.00    -0.131 C  
HETATM   29  C   UNL     1      -7.364  11.911  68.293  1.00  0.00    -0.093 C  
HETATM   30  C   UNL     1      -8.509  11.312  67.528  1.00  0.00    -0.131 C  
ENDROOT
BRANCH   9  31
HETATM   31  C   UNL     1      -7.158   4.916  69.956  1.00  0.00    -0.053 C  
HETATM   32  O   UNL     1      -5.968   5.041  70.216  1.00  0.00    -0.016 OA 
BRANCH  31  33
HETATM   33  C   UNL     1      -7.764   3.592  69.501  1.00  0.00    -0.051 C  
BRANCH  33  34
HETATM   34  O   UNL     1      -7.888   3.510  68.073  1.00  0.00    -0.068 OA 
BRANCH  34  35
HETATM   35  C   UNL     1      -9.086   3.036  67.646  1.00  0.00    -0.181 C  
HETATM   36  O   UNL     1      -9.671   2.076  68.113  1.00  0.00    -0.161 OA 
HETATM   37  C   UNL     1      -9.645   3.915  66.554  1.00  0.00    -0.211 C  
ENDBRANCH  34  35
ENDBRANCH  33  34
ENDBRANCH  31  33
ENDBRANCH   9  31
TORSDOF 4
ENDMDL
MODEL       61
REMARK 921   NORMALIZED FREE ENERGY PREDICTED BY IDOCK:   -4.67 KCAL/MOL
REMARK 922        TOTAL FREE ENERGY PREDICTED BY IDOCK:   -6.33 KCAL/MOL
REMARK 923 INTER-LIGAND FREE ENERGY PREDICTED BY IDOCK:   -5.94 KCAL/MOL
REMARK 924 INTRA-LIGAND FREE ENERGY PREDICTED BY IDOCK:   -0.39 KCAL/MOL
REMARK 927      BINDING AFFINITY PREDICTED BY RF-SCORE:    0.00 PKD
ROOT
HETATM    1  C   UNL     1      -9.818  10.799  66.630  1.00  0.00    -0.241 C  
HETATM    2  C   UNL     1     -11.258  10.375  66.796  1.00  0.00     0.136 C  
HETATM    3  C   UNL     1     -11.740  11.131  68.008  1.00  0.00    -0.212 C  
HETATM    4  O   UNL     1     -12.034  10.125  68.974  1.00  0.00     0.035 OA 
HETATM    5  C   UNL     1     -11.698  10.711  70.212  1.00  0.00    -0.344 C  
HETATM    6  O   UNL     1     -10.670  11.687  70.005  1.00  0.00     0.259 OA 
HETATM    7  C   UNL     1     -11.316   9.599  71.187  1.00  0.00    -0.456 C  
HETATM    8  C   UNL     1     -12.543   9.343  72.056  1.00  0.00    -0.462 C  
HETATM    9  C   UNL     1     -10.604  11.983  68.591  1.00  0.00    -0.229 C  
HETATM   10  O   UNL     1      -8.181   6.122  69.877  1.00  0.00    -0.116 OA 
HETATM   11  C   UNL     1     -13.529  10.472  71.811  1.00  0.00    -0.345 C  
HETATM   12  C   UNL     1      -9.275  11.486  67.923  1.00  0.00    -0.168 C  
HETATM   13  C   UNL     1     -12.927  11.406  70.778  1.00  0.00    -0.135 C  
HETATM   14  C   UNL     1      -7.646   6.850  69.080  1.00  0.00    -0.104 C  
HETATM   15  C   UNL     1      -7.877   6.735  67.620  1.00  0.00    -0.112 C  
HETATM   16  C   UNL     1      -8.185  12.454  67.350  1.00  0.00    -0.180 C  
HETATM   17  C   UNL     1      -8.490  10.783  69.023  1.00  0.00    -0.137 C  
HETATM   18  C   UNL     1      -7.246  11.706  66.339  1.00  0.00     0.133 C  
HETATM   19  C   UNL     1      -5.137   9.035  66.590  1.00  0.00    -0.037 C  
HETATM   20  C   UNL     1      -7.390  10.148  66.165  1.00  0.00    -0.115 C  
HETATM   21  O   UNL     1      -5.898  12.138  66.448  1.00  0.00    -0.489 OA 
HETATM   22  C   UNL     1      -6.621   8.946  67.058  1.00  0.00    -0.061 C  
HETATM   23  H   UNL     1      -5.330  11.685  65.835  1.00  0.00     0.000 HD 
HETATM   24  C   UNL     1      -8.880   9.903  65.815  1.00  0.00    -0.171 C  
HETATM   25  C   UNL     1      -6.348   8.880  68.592  1.00  0.00    -0.053 C  
HETATM   26  C   UNL     1      -6.755   7.947  69.473  1.00  0.00    -0.042 C  
HETATM   27  F   UNL     1      -6.795   9.990  64.884  1.00  0.00    -0.107 F  
HETATM   28  C   UNL     1      -9.280   8.450  65.518  1.00  0.00    -0.057 C  
HETATM   29  C   UNL     1      -8.054   7.549  65.372  1.00  0.00    -0.133 C  
HETATM   30  C   UNL     1      -7.399   7.626  66.720  1.00  0.00    -0.089 C  
ENDROOT
BRANCH   9  31
HETATM   31  C   UNL     1     -10.807  13.487  68.355  1.00  0.00    -0.267 C  
HETATM   32  O   UNL     1     -11.141  13.901  67.252  1.00  0.00    -0.288 OA 
BRANCH  31  33
HETATM   33  C   UNL     1     -10.442  14.419  69.506  1.00  0.00    -0.007 C  
BRANCH  33  34
HETATM   34  O   UNL     1     -11.420  14.399  70.556  1.00  0.00    -0.242 OA 
BRANCH  34  35
HETATM   35  C   UNL     1     -12.061  15.582  70.740  1.00  0.00    -0.390 C  
HETATM   36  O   UNL     1     -12.634  16.215  69.873  1.00  0.00    -0.104 OA 
HETATM   37  C   UNL     1     -12.037  15.976  72.196  1.00  0.00    -0.611 C  
ENDBRANCH  34  35
ENDBRANCH  33  34
ENDBRANCH  31  33
ENDBRANCH   9  31
TORSDOF 4
ENDMDL
MODEL       62
REMARK 921   NORMALIZED FREE ENERGY PREDICTED BY IDOCK:   -4.46 KCAL/MOL
REMARK 922        TOTAL FREE ENERGY PREDICTED BY IDOCK:   -6.06 KCAL/MOL
REMARK 923 INTER-LIGAND FREE ENERGY PREDICTED BY IDOCK:   -5.48 KCAL/MOL
REMARK 924 INTRA-LIGAND FREE ENERGY PREDICTED BY IDOCK:   -0.58 KCAL/MOL
REMARK 927      BINDING AFFINITY PREDICTED BY RF-SCORE:    0.00 PKD
ROOT
HETATM    1  C   UNL     1      -8.125   9.495  68.580  1.00  0.00    -0.097 C  
HETATM    2  C   UNL     1      -7.075   9.935  67.588  1.00  0.00    -0.087 C  
HETATM    3  C   UNL     1      -7.840  10.702  66.540  1.00  0.00    -0.140 C  
HETATM    4  O   UNL     1      -7.688   9.941  65.345  1.00  0.00    -0.118 OA 
HETATM    5  C   UNL     1      -8.907  10.107  64.657  1.00  0.00    -0.196 C  
HETATM    6  O   UNL     1      -9.950  10.354  65.607  1.00  0.00    -0.241 OA 
HETATM    7  C   UNL     1      -9.140   8.879  63.780  1.00  0.00     0.387 C  
HETATM    8  C   UNL     1      -8.713   9.266  62.367  1.00  0.00    -0.241 C  
HETATM    9  C   UNL     1      -9.339  10.705  66.870  1.00  0.00    -0.159 C  
HETATM   10  O   UNL     1      -8.639   4.399  65.600  1.00  0.00    -0.116 OA 
HETATM   11  C   UNL     1      -8.515  10.773  62.340  1.00  0.00    -0.308 C  
HETATM   12  C   UNL     1      -9.562   9.621  67.981  1.00  0.00    -0.161 C  
HETATM   13  C   UNL     1      -8.792  11.308  63.732  1.00  0.00     0.163 C  
HETATM   14  C   UNL     1      -8.901   4.779  66.713  1.00  0.00    -0.110 C  
HETATM   15  C   UNL     1      -7.864   4.964  67.755  1.00  0.00    -0.094 C  
HETATM   16  C   UNL     1     -10.433   9.864  69.260  1.00  0.00    -0.240 C  
HETATM   17  C   UNL     1     -10.335   8.490  67.314  1.00  0.00    -0.372 C  
HETATM   18  C   UNL     1     -10.081   8.828  70.384  1.00  0.00    -0.192 C  
HETATM   19  C   UNL     1     -10.218   5.425  70.601  1.00  0.00    -0.323 C  
HETATM   20  C   UNL     1      -9.093   7.646  70.058  1.00  0.00    -0.151 C  
HETATM   21  O   UNL     1     -11.232   8.416  71.105  1.00  0.00    -0.249 OA 
HETATM   22  C   UNL     1      -9.483   6.136  69.425  1.00  0.00    -0.153 C  
HETATM   23  H   UNL     1     -11.018   7.788  71.786  1.00  0.00     0.000 HD 
HETATM   24  C   UNL     1      -7.808   8.316  69.506  1.00  0.00    -0.103 C  
HETATM   25  C   UNL     1     -10.497   5.771  68.299  1.00  0.00    -0.281 C  
HETATM   26  C   UNL     1     -10.260   5.141  67.133  1.00  0.00    -0.254 C  
HETATM   27  F   UNL     1      -8.667   7.315  71.372  1.00  0.00    -0.123 F  
HETATM   28  C   UNL     1      -6.639   7.377  69.174  1.00  0.00    -0.040 C  
HETATM   29  C   UNL     1      -6.886   5.964  69.704  1.00  0.00    -0.061 C  
HETATM   30  C   UNL     1      -8.115   5.522  68.963  1.00  0.00    -0.095 C  
ENDROOT
BRANCH   9  31
HETATM   31  C   UNL     1      -9.843  12.079  67.337  1.00  0.00    -0.184 C  
HETATM   32  O   UNL     1     -10.948  12.484  66.995  1.00  0.00    -0.251 OA 
BRANCH  31  33
HETATM   33  C   UNL     1      -8.858  12.944  68.117  1.00  0.00    -0.194 C  
BRANCH  33  34
HETATM   34  O   UNL     1      -8.535  14.161  67.427  1.00  0.00    -0.180 OA 
BRANCH  34  35
HETATM   35  C   UNL     1      -8.389  15.238  68.240  1.00  0.00    -0.148 C  
HETATM   36  O   UNL     1      -7.488  16.053  68.176  1.00  0.00    -0.124 OA 
HETATM   37  C   UNL     1      -9.551  15.340  69.198  1.00  0.00    -0.243 C  
ENDBRANCH  34  35
ENDBRANCH  33  34
ENDBRANCH  31  33
ENDBRANCH   9  31
TORSDOF 4
ENDMDL
MODEL       63
REMARK 921   NORMALIZED FREE ENERGY PREDICTED BY IDOCK:   -4.44 KCAL/MOL
REMARK 922        TOTAL FREE ENERGY PREDICTED BY IDOCK:   -6.04 KCAL/MOL
REMARK 923 INTER-LIGAND FREE ENERGY PREDICTED BY IDOCK:   -5.21 KCAL/MOL
REMARK 924 INTRA-LIGAND FREE ENERGY PREDICTED BY IDOCK:   -0.83 KCAL/MOL
REMARK 927      BINDING AFFINITY PREDICTED BY RF-SCORE:    0.00 PKD
ROOT
HETATM    1  C   UNL     1      -6.683  10.088  67.489  1.00  0.00    -0.072 C  
HETATM    2  C   UNL     1      -6.788  10.228  65.989  1.00  0.00    -0.119 C  
HETATM    3  C   UNL     1      -7.639  11.455  65.779  1.00  0.00     0.373 C  
HETATM    4  O   UNL     1      -8.821  10.977  65.145  1.00  0.00    -0.183 OA 
HETATM    5  C   UNL     1      -9.852  11.800  65.644  1.00  0.00    -0.237 C  
HETATM    6  O   UNL     1      -9.487  12.268  66.948  1.00  0.00    -0.204 OA 
HETATM    7  C   UNL     1     -11.161  11.014  65.607  1.00  0.00    -0.008 C  
HETATM    8  C   UNL     1     -11.905  11.467  64.354  1.00  0.00    -0.063 C  
HETATM    9  C   UNL     1      -8.071  12.040  67.131  1.00  0.00    -0.177 C  
HETATM   10  O   UNL     1     -11.387   6.489  67.371  1.00  0.00    -0.304 OA 
HETATM   11  C   UNL     1     -11.202  12.704  63.821  1.00  0.00    -0.519 C  
HETATM   12  C   UNL     1      -7.761  10.952  68.217  1.00  0.00    -0.111 C  
HETATM   13  C   UNL     1     -10.018  12.997  64.722  1.00  0.00    -0.147 C  
HETATM   14  C   UNL     1     -10.479   6.699  68.134  1.00  0.00    -0.214 C  
HETATM   15  C   UNL     1      -9.108   6.187  67.899  1.00  0.00    -0.117 C  
HETATM   16  C   UNL     1      -7.061  11.272  69.582  1.00  0.00    -0.011 C  
HETATM   17  C   UNL     1      -9.114  10.441  68.697  1.00  0.00    -0.157 C  
HETATM   18  C   UNL     1      -6.455   9.972  70.219  1.00  0.00    -0.117 C  
HETATM   19  C   UNL     1      -7.778   7.009  71.277  1.00  0.00    -0.091 C  
HETATM   20  C   UNL     1      -6.751   8.578  69.551  1.00  0.00    -0.041 C  
HETATM   21  O   UNL     1      -6.596   9.960  71.632  1.00  0.00    -0.296 OA 
HETATM   22  C   UNL     1      -8.059   7.561  69.846  1.00  0.00    -0.129 C  
HETATM   23  H   UNL     1      -6.229   9.173  72.018  1.00  0.00     0.000 HD 
HETATM   24  C   UNL     1      -6.308   8.722  68.072  1.00  0.00    -0.056 C  
HETATM   25  C   UNL     1      -9.560   7.924  70.059  1.00  0.00    -0.168 C  
HETATM   26  C   UNL     1     -10.626   7.517  69.343  1.00  0.00    -0.225 C  
HETATM   27  F   UNL     1      -5.666   7.823  70.072  1.00  0.00    -0.023 F  
HETATM   28  C   UNL     1      -6.422   7.463  67.201  1.00  0.00    -0.060 C  
HETATM   29  C   UNL     1      -6.715   6.222  68.044  1.00  0.00    -0.064 C  
HETATM   30  C   UNL     1      -8.047   6.528  68.667  1.00  0.00    -0.118 C  
ENDROOT
BRANCH   9  31
HETATM   31  C   UNL     1      -7.361  13.362  67.462  1.00  0.00    -0.156 C  
HETATM   32  O   UNL     1      -6.171  13.505  67.213  1.00  0.00    -0.313 OA 
BRANCH  31  33
HETATM   33  C   UNL     1      -8.171  14.405  68.225  1.00  0.00    -0.149 C  
BRANCH  33  34
HETATM   34  O   UNL     1      -8.525  15.529  67.405  1.00  0.00    -0.160 OA 
BRANCH  34  35
HETATM   35  C   UNL     1      -9.861  15.763  67.331  1.00  0.00    -0.233 C  
HETATM   36  O   UNL     1     -10.436  16.271  66.387  1.00  0.00    -0.303 OA 
HETATM   37  C   UNL     1     -10.561  15.229  68.557  1.00  0.00    -0.237 C  
ENDBRANCH  34  35
ENDBRANCH  33  34
ENDBRANCH  31  33
ENDBRANCH   9  31
TORSDOF 4
ENDMDL
MODEL       64
REMARK 921   NORMALIZED FREE ENERGY PREDICTED BY IDOCK:   -4.43 KCAL/MOL
REMARK 922        TOTAL FREE ENERGY PREDICTED BY IDOCK:   -6.03 KCAL/MOL
REMARK 923 INTER-LIGAND FREE ENERGY PREDICTED BY IDOCK:   -5.19 KCAL/MOL
REMARK 924 INTRA-LIGAND FREE ENERGY PREDICTED BY IDOCK:   -0.84 KCAL/MOL
REMARK 927      BINDING AFFINITY PREDICTED BY RF-SCORE:    0.00 PKD
ROOT
HETATM    1  C   UNL     1      -9.263  11.653  68.304  1.00  0.00    -0.187 C  
HETATM    2  C   UNL     1      -9.715  10.257  67.948  1.00  0.00    -0.165 C  
HETATM    3  C   UNL     1      -8.625   9.720  67.056  1.00  0.00    -0.124 C  
HETATM    4  O   UNL     1      -9.251   9.521  65.791  1.00  0.00    -0.178 OA 
HETATM    5  C   UNL     1      -8.246   9.813  64.846  1.00  0.00    -0.142 C  
HETATM    6  O   UNL     1      -7.326  10.751  65.416  1.00  0.00    -0.068 OA 
HETATM    7  C   UNL     1      -8.916  10.297  63.561  1.00  0.00    -0.259 C  
HETATM    8  C   UNL     1      -8.950   9.103  62.613  1.00  0.00    -0.094 C  
HETATM    9  C   UNL     1      -7.537  10.782  66.846  1.00  0.00    -0.123 C  
HETATM   10  O   UNL     1     -12.373  13.711  63.700  1.00  0.00    -0.691 OA 
HETATM   11  C   UNL     1      -8.057   8.021  63.197  1.00  0.00    -0.114 C  
HETATM   12  C   UNL     1      -8.129  12.145  67.349  1.00  0.00    -0.171 C  
HETATM   13  C   UNL     1      -7.497   8.533  64.511  1.00  0.00    -0.105 C  
HETATM   14  C   UNL     1     -11.929  14.176  64.719  1.00  0.00    -0.431 C  
HETATM   15  C   UNL     1     -12.563  13.946  66.040  1.00  0.00    -0.467 C  
HETATM   16  C   UNL     1      -7.338  13.143  68.261  1.00  0.00    -0.116 C  
HETATM   17  C   UNL     1      -8.341  12.995  66.103  1.00  0.00     0.921 C  
HETATM   18  C   UNL     1      -8.315  14.135  68.984  1.00  0.00     0.083 C  
HETATM   19  C   UNL     1     -10.557  16.469  67.902  1.00  0.00    -0.329 C  
HETATM   20  C   UNL     1      -9.843  14.126  68.603  1.00  0.00    -0.206 C  
HETATM   21  O   UNL     1      -7.768  15.441  69.081  1.00  0.00    -0.171 OA 
HETATM   22  C   UNL     1     -10.594  15.002  67.378  1.00  0.00    -0.271 C  
HETATM   23  H   UNL     1      -8.359  16.043  69.519  1.00  0.00     0.000 HD 
HETATM   24  C   UNL     1     -10.310  12.660  68.791  1.00  0.00    -0.132 C  
HETATM   25  C   UNL     1     -10.100  15.290  65.928  1.00  0.00    -0.359 C  
HETATM   26  C   UNL     1     -10.698  14.972  64.763  1.00  0.00    -0.354 C  
HETATM   27  F   UNL     1     -10.389  14.723  69.771  1.00  0.00    -0.216 F  
HETATM   28  C   UNL     1     -11.803  12.385  68.553  1.00  0.00    -0.352 C  
HETATM   29  C   UNL     1     -12.598  13.683  68.423  1.00  0.00     0.609 C  
HETATM   30  C   UNL     1     -12.005  14.339  67.209  1.00  0.00    -0.439 C  
ENDROOT
BRANCH   9  31
HETATM   31  C   UNL     1      -6.229  10.448  67.581  1.00  0.00    -0.056 C  
HETATM   32  O   UNL     1      -5.198  11.052  67.314  1.00  0.00    -0.038 OA 
BRANCH  31  33
HETATM   33  C   UNL     1      -6.262   9.260  68.536  1.00  0.00    -0.049 C  
BRANCH  33  34
HETATM   34  O   UNL     1      -6.695   9.630  69.854  1.00  0.00    -0.054 OA 
BRANCH  34  35
HETATM   35  C   UNL     1      -7.252   8.614  70.560  1.00  0.00    -0.053 C  
HETATM   36  O   UNL     1      -6.739   7.529  70.758  1.00  0.00    -0.043 OA 
HETATM   37  C   UNL     1      -8.576   9.040  71.146  1.00  0.00    -0.250 C  
ENDBRANCH  34  35
ENDBRANCH  33  34
ENDBRANCH  31  33
ENDBRANCH   9  31
TORSDOF 4
ENDMDL
MODEL       65
REMARK 921   NORMALIZED FREE ENERGY PREDICTED BY IDOCK:   -4.41 KCAL/MOL
REMARK 922        TOTAL FREE ENERGY PREDICTED BY IDOCK:   -6.01 KCAL/MOL
REMARK 923 INTER-LIGAND FREE ENERGY PREDICTED BY IDOCK:   -5.56 KCAL/MOL
REMARK 924 INTRA-LIGAND FREE ENERGY PREDICTED BY IDOCK:   -0.44 KCAL/MOL
REMARK 927      BINDING AFFINITY PREDICTED BY RF-SCORE:    0.00 PKD
ROOT
HETATM    1  C   UNL     1      -9.830   7.393  70.234  1.00  0.00    -0.187 C  
HETATM    2  C   UNL     1     -10.301   8.821  70.089  1.00  0.00    -0.225 C  
HETATM    3  C   UNL     1      -9.420   9.405  69.015  1.00  0.00    -0.160 C  
HETATM    4  O   UNL     1      -8.671  10.426  69.669  1.00  0.00    -0.146 OA 
HETATM    5  C   UNL     1      -7.412  10.408  69.034  1.00  0.00    -0.106 C  
HETATM    6  O   UNL     1      -7.159   9.091  68.533  1.00  0.00    -0.070 OA 
HETATM    7  C   UNL     1      -6.363  10.913  70.022  1.00  0.00    -0.142 C  
HETATM    8  C   UNL     1      -6.110  12.378  69.676  1.00  0.00    -0.135 C  
HETATM    9  C   UNL     1      -8.406   8.360  68.529  1.00  0.00    -0.131 C  
HETATM   10  O   UNL     1      -6.173   9.154  74.550  1.00  0.00    -0.276 OA 
HETATM   11  C   UNL     1      -6.762  12.656  68.333  1.00  0.00    -0.082 C  
HETATM   12  C   UNL     1      -8.431   7.186  69.569  1.00  0.00    -0.134 C  
HETATM   13  C   UNL     1      -7.437  11.381  67.865  1.00  0.00    -0.095 C  
HETATM   14  C   UNL     1      -6.664   8.109  74.207  1.00  0.00    -0.129 C  
HETATM   15  C   UNL     1      -8.080   7.766  74.484  1.00  0.00    -0.269 C  
HETATM   16  C   UNL     1      -8.481   5.674  69.161  1.00  0.00    -0.102 C  
HETATM   17  C   UNL     1      -7.097   7.245  70.301  1.00  0.00    -0.065 C  
HETATM   18  C   UNL     1      -8.984   4.787  70.354  1.00  0.00    -0.104 C  
HETATM   19  C   UNL     1      -7.833   4.182  73.509  1.00  0.00    -0.085 C  
HETATM   20  C   UNL     1      -9.195   5.448  71.767  1.00  0.00    -0.142 C  
HETATM   21  O   UNL     1      -8.304   3.542  70.412  1.00  0.00    -0.055 OA 
HETATM   22  C   UNL     1      -8.053   5.635  72.988  1.00  0.00    -0.118 C  
HETATM   23  H   UNL     1      -8.609   3.005  71.134  1.00  0.00     0.000 HD 
HETATM   24  C   UNL     1     -10.155   6.643  71.529  1.00  0.00    -0.200 C  
HETATM   25  C   UNL     1      -6.552   6.042  72.879  1.00  0.00    -0.065 C  
HETATM   26  C   UNL     1      -5.929   7.094  73.443  1.00  0.00    -0.057 C  
HETATM   27  F   UNL     1     -10.093   4.509  72.343  1.00  0.00    -0.202 F  
HETATM   28  C   UNL     1     -10.589   7.426  72.777  1.00  0.00    -0.345 C  
HETATM   29  C   UNL     1     -10.187   6.703  74.062  1.00  0.00    -0.395 C  
HETATM   30  C   UNL     1      -8.688   6.664  73.987  1.00  0.00    -0.167 C  
ENDROOT
BRANCH   9  31
HETATM   31  C   UNL     1      -8.714   7.844  67.115  1.00  0.00    -0.131 C  
HETATM   32  O   UNL     1      -7.984   7.015  66.586  1.00  0.00    -0.104 OA 
BRANCH  31  33
HETATM   33  C   UNL     1      -9.869   8.511  66.376  1.00  0.00    -0.257 C  
BRANCH  33  34
HETATM   34  O   UNL     1      -9.542   8.816  65.011  1.00  0.00     0.192 OA 
BRANCH  34  35
HETATM   35  C   UNL     1      -9.790  10.102  64.655  1.00  0.00    -0.291 C  
HETATM   36  O   UNL     1      -9.640  10.566  63.540  1.00  0.00    -0.280 OA 
HETATM   37  C   UNL     1     -10.360  10.874  65.820  1.00  0.00    -0.303 C  
ENDBRANCH  34  35
ENDBRANCH  33  34
ENDBRANCH  31  33
ENDBRANCH   9  31
TORSDOF 4
ENDMDL
MODEL       66
REMARK 921   NORMALIZED FREE ENERGY PREDICTED BY IDOCK:   -4.33 KCAL/MOL
REMARK 922        TOTAL FREE ENERGY PREDICTED BY IDOCK:   -5.91 KCAL/MOL
REMARK 923 INTER-LIGAND FREE ENERGY PREDICTED BY IDOCK:   -5.29 KCAL/MOL
REMARK 924 INTRA-LIGAND FREE ENERGY PREDICTED BY IDOCK:   -0.62 KCAL/MOL
REMARK 927      BINDING AFFINITY PREDICTED BY RF-SCORE:    0.00 PKD
ROOT
HETATM    1  C   UNL     1      -9.888  13.734  68.642  1.00  0.00    -0.158 C  
HETATM    2  C   UNL     1     -11.324  13.324  68.422  1.00  0.00    -0.326 C  
HETATM    3  C   UNL     1     -11.282  12.413  67.222  1.00  0.00    -0.303 C  
HETATM    4  O   UNL     1     -12.026  13.096  66.217  1.00  0.00    -0.387 OA 
HETATM    5  C   UNL     1     -11.381  12.765  65.007  1.00  0.00    -0.309 C  
HETATM    6  O   UNL     1     -10.001  12.489  65.273  1.00  0.00    -0.267 OA 
HETATM    7  C   UNL     1     -11.611  13.898  64.010  1.00  0.00    -0.253 C  
HETATM    8  C   UNL     1     -12.751  13.451  63.099  1.00  0.00     0.396 C  
HETATM    9  C   UNL     1      -9.844  12.291  66.697  1.00  0.00    -0.220 C  
HETATM   10  O   UNL     1     -10.863  18.526  65.297  1.00  0.00    -0.606 OA 
HETATM   11  C   UNL     1     -12.993  11.973  63.352  1.00  0.00    -0.282 C  
HETATM   12  C   UNL     1      -9.011  13.428  67.385  1.00  0.00    -0.215 C  
HETATM   13  C   UNL     1     -12.028  11.516  64.430  1.00  0.00    -0.008 C  
HETATM   14  C   UNL     1     -10.055  18.205  66.131  1.00  0.00    -0.336 C  
HETATM   15  C   UNL     1     -10.369  18.196  67.580  1.00  0.00    -0.405 C  
HETATM   16  C   UNL     1      -7.597  13.196  68.018  1.00  0.00    -0.144 C  
HETATM   17  C   UNL     1      -8.677  14.428  66.286  1.00  0.00     0.221 C  
HETATM   18  C   UNL     1      -7.242  14.341  69.031  1.00  0.00    -0.118 C  
HETATM   19  C   UNL     1      -6.869  17.722  68.755  1.00  0.00    -0.247 C  
HETATM   20  C   UNL     1      -8.199  15.585  69.152  1.00  0.00    -0.247 C  
HETATM   21  O   UNL     1      -5.867  14.693  68.973  1.00  0.00    -0.087 OA 
HETATM   22  C   UNL     1      -8.153  17.001  68.244  1.00  0.00    -0.228 C  
HETATM   23  H   UNL     1      -5.652  15.386  69.586  1.00  0.00     0.000 HD 
HETATM   24  C   UNL     1      -9.604  15.002  69.453  1.00  0.00    -0.145 C  
HETATM   25  C   UNL     1      -7.896  17.184  66.717  1.00  0.00    -0.277 C  
HETATM   26  C   UNL     1      -8.702  17.747  65.797  1.00  0.00     0.311 C  
HETATM   27  F   UNL     1      -7.831  16.050  70.444  1.00  0.00     0.550 F  
HETATM   28  C   UNL     1     -10.727  16.022  69.694  1.00  0.00    -0.316 C  
HETATM   29  C   UNL     1     -10.175  17.439  69.846  1.00  0.00     0.420 C  
HETATM   30  C   UNL     1      -9.526  17.707  68.519  1.00  0.00    -0.298 C  
ENDROOT
BRANCH   9  31
HETATM   31  C   UNL     1      -9.224  10.913  66.974  1.00  0.00    -0.152 C  
HETATM   32  O   UNL     1      -9.271  10.427  68.097  1.00  0.00    -0.141 OA 
BRANCH  31  33
HETATM   33  C   UNL     1      -8.447  10.267  65.832  1.00  0.00    -0.150 C  
BRANCH  33  34
HETATM   34  O   UNL     1      -9.194   9.228  65.182  1.00  0.00    -0.234 OA 
BRANCH  34  35
HETATM   35  C   UNL     1      -8.488   8.089  64.965  1.00  0.00    -0.071 C  
HETATM   36  O   UNL     1      -8.054   7.723  63.889  1.00  0.00    -0.126 OA 
HETATM   37  C   UNL     1      -8.237   7.365  66.265  1.00  0.00    -0.126 C  
ENDBRANCH  34  35
ENDBRANCH  33  34
ENDBRANCH  31  33
ENDBRANCH   9  31
TORSDOF 4
ENDMDL
MODEL       67
REMARK 921   NORMALIZED FREE ENERGY PREDICTED BY IDOCK:   -4.26 KCAL/MOL
REMARK 922        TOTAL FREE ENERGY PREDICTED BY IDOCK:   -5.81 KCAL/MOL
REMARK 923 INTER-LIGAND FREE ENERGY PREDICTED BY IDOCK:   -5.45 KCAL/MOL
REMARK 924 INTRA-LIGAND FREE ENERGY PREDICTED BY IDOCK:   -0.36 KCAL/MOL
REMARK 927      BINDING AFFINITY PREDICTED BY RF-SCORE:    0.00 PKD
ROOT
HETATM    1  C   UNL     1      -8.074   7.710  69.233  1.00  0.00    -0.128 C  
HETATM    2  C   UNL     1      -6.858   6.859  69.514  1.00  0.00    -0.051 C  
HETATM    3  C   UNL     1      -6.946   5.730  68.518  1.00  0.00    -0.068 C  
HETATM    4  O   UNL     1      -7.119   4.557  69.308  1.00  0.00    -0.050 OA 
HETATM    5  C   UNL     1      -7.955   3.725  68.536  1.00  0.00    -0.070 C  
HETATM    6  O   UNL     1      -8.775   4.541  67.691  1.00  0.00    -0.103 OA 
HETATM    7  C   UNL     1      -8.740   2.816  69.479  1.00  0.00    -0.131 C  
HETATM    8  C   UNL     1      -8.021   1.470  69.484  1.00  0.00    -0.051 C  
HETATM    9  C   UNL     1      -8.211   5.872  67.661  1.00  0.00    -0.105 C  
HETATM   10  O   UNL     1     -11.028   4.649  73.357  1.00  0.00    -0.260 OA 
HETATM   11  C   UNL     1      -7.013   1.480  68.347  1.00  0.00    -0.032 C  
HETATM   12  C   UNL     1      -9.120   6.939  68.367  1.00  0.00    -0.126 C  
HETATM   13  C   UNL     1      -7.090   2.831  67.662  1.00  0.00    -0.049 C  
HETATM   14  C   UNL     1     -11.150   5.724  72.826  1.00  0.00    -0.284 C  
HETATM   15  C   UNL     1     -10.305   6.887  73.185  1.00  0.00    -0.293 C  
HETATM   16  C   UNL     1      -9.836   8.102  67.601  1.00  0.00    -0.216 C  
HETATM   17  C   UNL     1     -10.317   6.173  68.916  1.00  0.00    -0.258 C  
HETATM   18  C   UNL     1     -10.246   9.253  68.586  1.00  0.00    -0.199 C  
HETATM   19  C   UNL     1     -12.287   9.425  71.316  1.00  0.00    -0.422 C  
HETATM   20  C   UNL     1     -10.061   9.042  70.135  1.00  0.00    -0.193 C  
HETATM   21  O   UNL     1     -11.500   9.824  68.242  1.00  0.00    -0.519 OA 
HETATM   22  C   UNL     1     -11.159   8.354  71.209  1.00  0.00    -0.307 C  
HETATM   23  H   UNL     1     -11.748  10.521  68.839  1.00  0.00     0.000 HD 
HETATM   24  C   UNL     1      -8.571   8.658  70.328  1.00  0.00    -0.144 C  
HETATM   25  C   UNL     1     -12.077   7.109  71.018  1.00  0.00    -0.391 C  
HETATM   26  C   UNL     1     -12.110   5.976  71.745  1.00  0.00    -0.040 C  
HETATM   27  F   UNL     1     -10.036  10.396  70.564  1.00  0.00    -0.194 F  
HETATM   28  C   UNL     1      -8.101   8.465  71.778  1.00  0.00    -0.192 C  
HETATM   29  C   UNL     1      -9.150   8.949  72.778  1.00  0.00     0.417 C  
HETATM   30  C   UNL     1     -10.329   8.059  72.507  1.00  0.00    -0.374 C  
ENDROOT
BRANCH   9  31
HETATM   31  C   UNL     1      -7.907   6.285  66.213  1.00  0.00    -0.104 C  
HETATM   32  O   UNL     1      -6.970   7.035  65.967  1.00  0.00    -0.062 OA 
BRANCH  31  33
HETATM   33  C   UNL     1      -8.896   5.830  65.146  1.00  0.00    -0.011 C  
BRANCH  33  34
HETATM   34  O   UNL     1      -8.782   4.428  64.858  1.00  0.00    -0.124 OA 
BRANCH  34  35
HETATM   35  C   UNL     1      -9.653   3.981  63.917  1.00  0.00    -0.157 C  
HETATM   36  O   UNL     1     -10.833   4.272  63.855  1.00  0.00    -0.068 OA 
HETATM   37  C   UNL     1      -8.940   3.129  62.896  1.00  0.00    -0.092 C  
ENDBRANCH  34  35
ENDBRANCH  33  34
ENDBRANCH  31  33
ENDBRANCH   9  31
TORSDOF 4
ENDMDL
MODEL       68
REMARK 921   NORMALIZED FREE ENERGY PREDICTED BY IDOCK:   -4.23 KCAL/MOL
REMARK 922        TOTAL FREE ENERGY PREDICTED BY IDOCK:   -5.78 KCAL/MOL
REMARK 923 INTER-LIGAND FREE ENERGY PREDICTED BY IDOCK:   -5.25 KCAL/MOL
REMARK 924 INTRA-LIGAND FREE ENERGY PREDICTED BY IDOCK:   -0.54 KCAL/MOL
REMARK 927      BINDING AFFINITY PREDICTED BY RF-SCORE:    0.00 PKD
ROOT
HETATM    1  C   UNL     1      -9.355   8.269  68.032  1.00  0.00    -0.141 C  
HETATM    2  C   UNL     1      -8.429   7.180  68.520  1.00  0.00    -0.125 C  
HETATM    3  C   UNL     1      -8.781   7.005  69.975  1.00  0.00    -0.142 C  
HETATM    4  O   UNL     1      -7.609   7.392  70.686  1.00  0.00    -0.083 OA 
HETATM    5  C   UNL     1      -8.089   7.995  71.866  1.00  0.00    -0.121 C  
HETATM    6  O   UNL     1      -9.384   8.552  71.614  1.00  0.00    -0.193 OA 
HETATM    7  C   UNL     1      -7.055   9.011  72.347  1.00  0.00     0.255 C  
HETATM    8  C   UNL     1      -6.258   8.330  73.454  1.00  0.00    -0.108 C  
HETATM    9  C   UNL     1      -9.886   7.991  70.379  1.00  0.00    -0.183 C  
HETATM   10  O   UNL     1      -5.141  12.247  69.265  1.00  0.00    -0.066 OA 
HETATM   11  C   UNL     1      -6.989   7.053  73.833  1.00  0.00    -0.080 C  
HETATM   12  C   UNL     1      -9.994   9.049  69.226  1.00  0.00    -0.188 C  
HETATM   13  C   UNL     1      -8.214   6.933  72.947  1.00  0.00    -0.117 C  
HETATM   14  C   UNL     1      -6.118  12.214  68.561  1.00  0.00    -0.051 C  
HETATM   15  C   UNL     1      -6.142  11.489  67.268  1.00  0.00    -0.100 C  
HETATM   16  C   UNL     1     -11.357   9.524  68.617  1.00  0.00     0.176 C  
HETATM   17  C   UNL     1      -9.462  10.354  69.803  1.00  0.00    -0.043 C  
HETATM   18  C   UNL     1     -11.144  10.176  67.206  1.00  0.00    -0.092 C  
HETATM   19  C   UNL     1      -9.386  12.876  66.080  1.00  0.00    -0.102 C  
HETATM   20  C   UNL     1      -9.679  10.417  66.683  1.00  0.00    -0.190 C  
HETATM   21  O   UNL     1     -12.004  11.287  67.000  1.00  0.00    -0.401 OA 
HETATM   22  C   UNL     1      -8.711  11.768  66.945  1.00  0.00    -0.189 C  
HETATM   23  H   UNL     1     -11.876  11.682  66.145  1.00  0.00     0.000 HD 
HETATM   24  C   UNL     1      -8.976   9.037  66.762  1.00  0.00    -0.160 C  
HETATM   25  C   UNL     1      -8.524  12.609  68.244  1.00  0.00    -0.163 C  
HETATM   26  C   UNL     1      -7.390  12.845  68.931  1.00  0.00    -0.014 C  
HETATM   27  F   UNL     1      -9.930  10.499  65.287  1.00  0.00    -0.275 F  
HETATM   28  C   UNL     1      -7.536   8.975  66.233  1.00  0.00    -0.092 C  
HETATM   29  C   UNL     1      -7.159  10.252  65.482  1.00  0.00    -0.142 C  
HETATM   30  C   UNL     1      -7.266  11.321  66.532  1.00  0.00    -0.096 C  
ENDROOT
BRANCH   9  31
HETATM   31  C   UNL     1     -11.239   7.305  70.621  1.00  0.00    -0.274 C  
HETATM   32  O   UNL     1     -11.775   6.661  69.727  1.00  0.00    -0.332 OA 
BRANCH  31  33
HETATM   33  C   UNL     1     -11.921   7.581  71.956  1.00  0.00    -0.294 C  
BRANCH  33  34
HETATM   34  O   UNL     1     -12.153   8.981  72.172  1.00  0.00    -0.363 OA 
BRANCH  34  35
HETATM   35  C   UNL     1     -13.364   9.416  71.739  1.00  0.00    -0.415 C  
HETATM   36  O   UNL     1     -14.205   8.728  71.190  1.00  0.00    -0.251 OA 
HETATM   37  C   UNL     1     -13.568  10.866  72.103  1.00  0.00    -0.092 C  
ENDBRANCH  34  35
ENDBRANCH  33  34
ENDBRANCH  31  33
ENDBRANCH   9  31
TORSDOF 4
ENDMDL
MODEL       69
REMARK 921   NORMALIZED FREE ENERGY PREDICTED BY IDOCK:   -4.17 KCAL/MOL
REMARK 922        TOTAL FREE ENERGY PREDICTED BY IDOCK:   -5.71 KCAL/MOL
REMARK 923 INTER-LIGAND FREE ENERGY PREDICTED BY IDOCK:   -5.66 KCAL/MOL
REMARK 924 INTRA-LIGAND FREE ENERGY PREDICTED BY IDOCK:   -0.05 KCAL/MOL
REMARK 927      BINDING AFFINITY PREDICTED BY RF-SCORE:    0.00 PKD
ROOT
HETATM    1  C   UNL     1      -9.581   6.550  66.526  1.00  0.00    -0.184 C  
HETATM    2  C   UNL     1     -10.943   6.559  67.178  1.00  0.00    -0.480 C  
HETATM    3  C   UNL     1     -10.907   7.737  68.119  1.00  0.00     0.052 C  
HETATM    4  O   UNL     1     -11.029   7.170  69.421  1.00  0.00    -0.225 OA 
HETATM    5  C   UNL     1     -10.242   7.999  70.246  1.00  0.00    -0.200 C  
HETATM    6  O   UNL     1      -9.199   8.587  69.461  1.00  0.00    -0.149 OA 
HETATM    7  C   UNL     1      -9.743   7.172  71.429  1.00  0.00    -0.170 C  
HETATM    8  C   UNL     1     -10.662   7.495  72.604  1.00  0.00    -0.354 C  
HETATM    9  C   UNL     1      -9.534   8.420  68.064  1.00  0.00    -0.143 C  
HETATM   10  O   UNL     1      -7.719   2.809  70.726  1.00  0.00    -0.042 OA 
HETATM   11  C   UNL     1     -11.498   8.704  72.219  1.00  0.00    -0.423 C  
HETATM   12  C   UNL     1      -8.566   7.438  67.316  1.00  0.00    -0.118 C  
HETATM   13  C   UNL     1     -11.117   9.109  70.808  1.00  0.00    -0.336 C  
HETATM   14  C   UNL     1      -7.358   3.111  69.617  1.00  0.00    -0.044 C  
HETATM   15  C   UNL     1      -8.046   2.624  68.397  1.00  0.00    -0.068 C  
HETATM   16  C   UNL     1      -7.580   7.894  66.188  1.00  0.00    -0.083 C  
HETATM   17  C   UNL     1      -7.590   6.928  68.367  1.00  0.00    -0.111 C  
HETATM   18  C   UNL     1      -7.124   6.673  65.314  1.00  0.00    -0.064 C  
HETATM   19  C   UNL     1      -5.457   3.770  65.981  1.00  0.00    -0.013 C  
HETATM   20  C   UNL     1      -7.541   5.218  65.749  1.00  0.00    -0.083 C  
HETATM   21  O   UNL     1      -5.761   6.775  64.930  1.00  0.00    -0.030 OA 
HETATM   22  C   UNL     1      -6.718   4.190  66.796  1.00  0.00    -0.050 C  
HETATM   23  H   UNL     1      -5.484   6.035  64.401  1.00  0.00     0.000 HD 
HETATM   24  C   UNL     1      -9.086   5.251  65.883  1.00  0.00    -0.159 C  
HETATM   25  C   UNL     1      -5.994   4.522  68.136  1.00  0.00    -0.027 C  
HETATM   26  C   UNL     1      -6.238   4.023  69.363  1.00  0.00    -0.028 C  
HETATM   27  F   UNL     1      -7.406   4.544  64.505  1.00  0.00    -0.064 F  
HETATM   28  C   UNL     1      -9.767   3.919  66.231  1.00  0.00    -0.176 C  
HETATM   29  C   UNL     1      -8.794   2.745  66.122  1.00  0.00    -0.140 C  
HETATM   30  C   UNL     1      -7.747   3.061  67.152  1.00  0.00    -0.074 C  
ENDROOT
BRANCH   9  31
HETATM   31  C   UNL     1      -9.576   9.787  67.364  1.00  0.00    -0.155 C  
HETATM   32  O   UNL     1      -9.170  10.790  67.937  1.00  0.00    -0.146 OA 
BRANCH  31  33
HETATM   33  C   UNL     1     -10.263   9.841  66.003  1.00  0.00    -0.193 C  
BRANCH  33  34
HETATM   34  O   UNL     1      -9.323   9.887  64.919  1.00  0.00    -0.232 OA 
BRANCH  34  35
HETATM   35  C   UNL     1      -9.787  10.515  63.808  1.00  0.00    -0.300 C  
HETATM   36  O   UNL     1     -10.617  11.405  63.798  1.00  0.00    -0.343 OA 
HETATM   37  C   UNL     1      -9.070  10.016  62.578  1.00  0.00    -0.309 C  
ENDBRANCH  34  35
ENDBRANCH  33  34
ENDBRANCH  31  33
ENDBRANCH   9  31
TORSDOF 4
ENDMDL
MODEL       70
REMARK 921   NORMALIZED FREE ENERGY PREDICTED BY IDOCK:   -4.09 KCAL/MOL
REMARK 922        TOTAL FREE ENERGY PREDICTED BY IDOCK:   -5.61 KCAL/MOL
REMARK 923 INTER-LIGAND FREE ENERGY PREDICTED BY IDOCK:   -5.07 KCAL/MOL
REMARK 924 INTRA-LIGAND FREE ENERGY PREDICTED BY IDOCK:   -0.54 KCAL/MOL
REMARK 927      BINDING AFFINITY PREDICTED BY RF-SCORE:    0.00 PKD
ROOT
HETATM    1  C   UNL     1      -7.763  10.388  67.415  1.00  0.00    -0.095 C  
HETATM    2  C   UNL     1      -6.824  10.229  68.587  1.00  0.00    -0.057 C  
HETATM    3  C   UNL     1      -7.128   8.859  69.136  1.00  0.00    -0.063 C  
HETATM    4  O   UNL     1      -7.644   9.094  70.443  1.00  0.00    -0.084 OA 
HETATM    5  C   UNL     1      -8.610   8.085  70.633  1.00  0.00    -0.130 C  
HETATM    6  O   UNL     1      -9.140   7.699  69.360  1.00  0.00    -0.143 OA 
HETATM    7  C   UNL     1      -9.660   8.598  71.616  1.00  0.00    -0.344 C  
HETATM    8  C   UNL     1      -9.307   8.006  72.978  1.00  0.00    -0.344 C  
HETATM    9  C   UNL     1      -8.257   8.201  68.331  1.00  0.00    -0.129 C  
HETATM   10  O   UNL     1     -11.662  12.991  71.039  1.00  0.00     0.229 OA 
HETATM   11  C   UNL     1      -8.257   6.931  72.757  1.00  0.00    -0.116 C  
HETATM   12  C   UNL     1      -8.912   9.329  67.459  1.00  0.00    -0.127 C  
HETATM   13  C   UNL     1      -7.944   6.878  71.273  1.00  0.00    -0.108 C  
HETATM   14  C   UNL     1     -11.473  12.964  69.849  1.00  0.00    -0.077 C  
HETATM   15  C   UNL     1     -10.386  13.736  69.200  1.00  0.00     0.010 C  
HETATM   16  C   UNL     1      -9.258   9.154  65.942  1.00  0.00    -0.286 C  
HETATM   17  C   UNL     1     -10.296   9.564  68.048  1.00  0.00    -0.260 C  
HETATM   18  C   UNL     1      -9.428  10.548  65.241  1.00  0.00    -0.229 C  
HETATM   19  C   UNL     1     -11.534  13.194  65.700  1.00  0.00    -0.351 C  
HETATM   20  C   UNL     1      -9.405  11.857  66.116  1.00  0.00    -0.219 C  
HETATM   21  O   UNL     1     -10.471  10.534  64.278  1.00  0.00    -0.384 OA 
HETATM   22  C   UNL     1     -10.709  12.596  66.880  1.00  0.00    -0.264 C  
HETATM   23  H   UNL     1     -10.574  11.378  63.854  1.00  0.00     0.000 HD 
HETATM   24  C   UNL     1      -8.076  11.802  66.914  1.00  0.00    -0.160 C  
HETATM   25  C   UNL     1     -11.897  11.946  67.652  1.00  0.00    -0.265 C  
HETATM   26  C   UNL     1     -12.263  12.134  68.934  1.00  0.00    -0.025 C  
HETATM   27  F   UNL     1      -9.067  12.811  65.119  1.00  0.00     0.223 F  
HETATM   28  C   UNL     1      -7.766  13.014  67.805  1.00  0.00    -0.151 C  
HETATM   29  C   UNL     1      -8.723  14.173  67.528  1.00  0.00    -0.208 C  
HETATM   30  C   UNL     1     -10.068  13.612  67.890  1.00  0.00    -0.244 C  
ENDROOT
BRANCH   9  31
HETATM   31  C   UNL     1      -7.763   7.045  67.447  1.00  0.00    -0.110 C  
HETATM   32  O   UNL     1      -6.709   7.142  66.833  1.00  0.00    -0.056 OA 
BRANCH  31  33
HETATM   33  C   UNL     1      -8.706   5.858  67.277  1.00  0.00    -0.108 C  
BRANCH  33  34
HETATM   34  O   UNL     1      -8.015   4.664  66.879  1.00  0.00    -0.101 OA 
BRANCH  34  35
HETATM   35  C   UNL     1      -7.986   4.462  65.537  1.00  0.00    -0.094 C  
HETATM   36  O   UNL     1      -8.924   4.623  64.779  1.00  0.00    -0.148 OA 
HETATM   37  C   UNL     1      -6.595   4.083  65.089  1.00  0.00    -0.047 C  
ENDBRANCH  34  35
ENDBRANCH  33  34
ENDBRANCH  31  33
ENDBRANCH   9  31
TORSDOF 4
ENDMDL
MODEL       71
REMARK 921   NORMALIZED FREE ENERGY PREDICTED BY IDOCK:   -3.95 KCAL/MOL
REMARK 922        TOTAL FREE ENERGY PREDICTED BY IDOCK:   -5.43 KCAL/MOL
REMARK 923 INTER-LIGAND FREE ENERGY PREDICTED BY IDOCK:   -4.67 KCAL/MOL
REMARK 924 INTRA-LIGAND FREE ENERGY PREDICTED BY IDOCK:   -0.76 KCAL/MOL
REMARK 927      BINDING AFFINITY PREDICTED BY RF-SCORE:    0.00 PKD
ROOT
HETATM    1  C   UNL     1      -7.907  16.662  66.501  1.00  0.00    -0.342 C  
HETATM    2  C   UNL     1      -6.706  15.747  66.458  1.00  0.00     0.977 C  
HETATM    3  C   UNL     1      -7.042  14.633  67.417  1.00  0.00    -0.128 C  
HETATM    4  O   UNL     1      -6.077  14.745  68.460  1.00  0.00    -0.084 OA 
HETATM    5  C   UNL     1      -6.768  14.358  69.627  1.00  0.00    -0.137 C  
HETATM    6  O   UNL     1      -8.162  14.644  69.463  1.00  0.00    -0.019 OA 
HETATM    7  C   UNL     1      -6.124  15.054  70.824  1.00  0.00     0.029 C  
HETATM    8  C   UNL     1      -5.196  14.032  71.474  1.00  0.00    -0.180 C  
HETATM    9  C   UNL     1      -8.414  14.878  68.059  1.00  0.00    -0.151 C  
HETATM   10  O   UNL     1      -5.202  19.826  70.717  1.00  0.00    -0.205 OA 
HETATM   11  C   UNL     1      -5.505  12.674  70.866  1.00  0.00    -0.167 C  
HETATM   12  C   UNL     1      -8.804  16.365  67.746  1.00  0.00    -0.189 C  
HETATM   13  C   UNL     1      -6.595  12.861  69.829  1.00  0.00     0.072 C  
HETATM   14  C   UNL     1      -6.092  20.020  69.928  1.00  0.00    -0.355 C  
HETATM   15  C   UNL     1      -5.838  20.272  68.490  1.00  0.00    -0.305 C  
HETATM   16  C   UNL     1     -10.223  16.795  67.240  1.00  0.00    -0.292 C  
HETATM   17  C   UNL     1      -8.731  17.106  69.074  1.00  0.00    -0.103 C  
HETATM   18  C   UNL     1     -10.171  18.209  66.561  1.00  0.00    -0.391 C  
HETATM   19  C   UNL     1      -9.304  21.329  67.640  1.00  0.00     0.110 C  
HETATM   20  C   UNL     1      -8.835  19.041  66.619  1.00  0.00    -0.318 C  
HETATM   21  O   UNL     1     -11.327  18.980  66.853  1.00  0.00     0.061 OA 
HETATM   22  C   UNL     1      -8.350  20.110  67.825  1.00  0.00    -0.304 C  
HETATM   23  H   UNL     1     -11.295  19.836  66.441  1.00  0.00     0.000 HD 
HETATM   24  C   UNL     1      -7.739  18.112  66.037  1.00  0.00    -0.204 C  
HETATM   25  C   UNL     1      -8.487  19.977  69.372  1.00  0.00     0.441 C  
HETATM   26  C   UNL     1      -7.511  19.981  70.300  1.00  0.00     0.613 C  
HETATM   27  F   UNL     1      -9.045  19.914  65.517  1.00  0.00    -0.256 F  
HETATM   28  C   UNL     1      -6.333  18.715  65.909  1.00  0.00    -0.268 C  
HETATM   29  C   UNL     1      -6.346  20.225  66.147  1.00  0.00    -0.237 C  
HETATM   30  C   UNL     1      -6.823  20.352  67.565  1.00  0.00    -0.327 C  
ENDROOT
BRANCH   9  31
HETATM   31  C   UNL     1      -9.492  13.910  67.547  1.00  0.00    -0.216 C  
HETATM   32  O   UNL     1     -10.353  13.484  68.307  1.00  0.00    -0.239 OA 
BRANCH  31  33
HETATM   33  C   UNL     1      -9.348  13.417  66.112  1.00  0.00    -0.057 C  
BRANCH  33  34
HETATM   34  O   UNL     1     -10.257  14.073  65.215  1.00  0.00    -0.344 OA 
BRANCH  34  35
HETATM   35  C   UNL     1     -11.285  13.290  64.797  1.00  0.00    -0.331 C  
HETATM   36  O   UNL     1     -11.171  12.247  64.182  1.00  0.00    -0.318 OA 
HETATM   37  C   UNL     1     -12.604  13.850  65.271  1.00  0.00    -0.508 C  
ENDBRANCH  34  35
ENDBRANCH  33  34
ENDBRANCH  31  33
ENDBRANCH   9  31
TORSDOF 4
ENDMDL
MODEL       72
REMARK 921   NORMALIZED FREE ENERGY PREDICTED BY IDOCK:   -3.93 KCAL/MOL
REMARK 922        TOTAL FREE ENERGY PREDICTED BY IDOCK:   -5.41 KCAL/MOL
REMARK 923 INTER-LIGAND FREE ENERGY PREDICTED BY IDOCK:   -4.65 KCAL/MOL
REMARK 924 INTRA-LIGAND FREE ENERGY PREDICTED BY IDOCK:   -0.76 KCAL/MOL
REMARK 927      BINDING AFFINITY PREDICTED BY RF-SCORE:    0.00 PKD
ROOT
HETATM    1  C   UNL     1      -7.403  10.031  65.321  1.00  0.00    -0.137 C  
HETATM    2  C   UNL     1      -6.074   9.446  65.736  1.00  0.00    -0.056 C  
HETATM    3  C   UNL     1      -6.147   7.999  65.317  1.00  0.00    -0.045 C  
HETATM    4  O   UNL     1      -6.093   7.261  66.535  1.00  0.00    -0.037 OA 
HETATM    5  C   UNL     1      -6.913   6.137  66.308  1.00  0.00    -0.066 C  
HETATM    6  O   UNL     1      -7.913   6.474  65.340  1.00  0.00    -0.106 OA 
HETATM    7  C   UNL     1      -7.475   5.669  67.649  1.00  0.00    -0.077 C  
HETATM    8  C   UNL     1      -6.612   4.492  68.095  1.00  0.00    -0.042 C  
HETATM    9  C   UNL     1      -7.511   7.697  64.681  1.00  0.00    -0.096 C  
HETATM   10  O   UNL     1      -9.493   8.837  70.735  1.00  0.00    -0.175 OA 
HETATM   11  C   UNL     1      -5.750   4.077  66.915  1.00  0.00    -0.022 C  
HETATM   12  C   UNL     1      -8.448   8.910  65.018  1.00  0.00    -0.194 C  
HETATM   13  C   UNL     1      -6.058   5.007  65.757  1.00  0.00    -0.030 C  
HETATM   14  C   UNL     1      -9.797   9.579  69.836  1.00  0.00    -0.226 C  
HETATM   15  C   UNL     1      -9.054  10.830  69.552  1.00  0.00     0.120 C  
HETATM   16  C   UNL     1      -9.375   9.601  63.961  1.00  0.00    -0.119 C  
HETATM   17  C   UNL     1      -9.478   8.383  66.008  1.00  0.00    -0.224 C  
HETATM   18  C   UNL     1      -9.797  11.035  64.438  1.00  0.00    -0.298 C  
HETATM   19  C   UNL     1     -11.514  12.230  67.134  1.00  0.00    -0.419 C  
HETATM   20  C   UNL     1      -9.411  11.507  65.890  1.00  0.00    -0.230 C  
HETATM   21  O   UNL     1     -11.139  11.338  64.086  1.00  0.00    -0.354 OA 
HETATM   22  C   UNL     1     -10.292  11.278  67.305  1.00  0.00    -0.236 C  
HETATM   23  H   UNL     1     -11.394  12.207  64.375  1.00  0.00     0.000 HD 
HETATM   24  C   UNL     1      -7.875  11.324  65.993  1.00  0.00     0.046 C  
HETATM   25  C   UNL     1     -11.078  10.019  67.783  1.00  0.00    -0.246 C  
HETATM   26  C   UNL     1     -10.897   9.299  68.907  1.00  0.00    -0.128 C  
HETATM   27  F   UNL     1      -9.491  12.916  65.717  1.00  0.00    -0.227 F  
HETATM   28  C   UNL     1      -7.221  11.786  67.304  1.00  0.00    -0.142 C  
HETATM   29  C   UNL     1      -8.196  12.588  68.165  1.00  0.00    -0.170 C  
HETATM   30  C   UNL     1      -9.289  11.604  68.466  1.00  0.00    -0.169 C  
ENDROOT
BRANCH   9  31
HETATM   31  C   UNL     1      -7.425   7.477  63.163  1.00  0.00    -0.104 C  
HETATM   32  O   UNL     1      -6.848   8.289  62.451  1.00  0.00    -0.090 OA 
BRANCH  31  33
HETATM   33  C   UNL     1      -8.198   6.291  62.596  1.00  0.00    -0.049 C  
BRANCH  33  34
HETATM   34  O   UNL     1      -7.372   5.129  62.431  1.00  0.00    -0.037 OA 
BRANCH  34  35
HETATM   35  C   UNL     1      -7.982   3.963  62.764  1.00  0.00    -0.074 C  
HETATM   36  O   UNL     1      -7.450   2.869  62.781  1.00  0.00    -0.050 OA 
HETATM   37  C   UNL     1      -9.406   4.215  63.196  1.00  0.00    -0.140 C  
ENDBRANCH  34  35
ENDBRANCH  33  34
ENDBRANCH  31  33
ENDBRANCH   9  31
TORSDOF 4
ENDMDL
MODEL       73
REMARK 921   NORMALIZED FREE ENERGY PREDICTED BY IDOCK:   -3.92 KCAL/MOL
REMARK 922        TOTAL FREE ENERGY PREDICTED BY IDOCK:   -5.40 KCAL/MOL
REMARK 923 INTER-LIGAND FREE ENERGY PREDICTED BY IDOCK:   -4.86 KCAL/MOL
REMARK 924 INTRA-LIGAND FREE ENERGY PREDICTED BY IDOCK:   -0.55 KCAL/MOL
REMARK 927      BINDING AFFINITY PREDICTED BY RF-SCORE:    0.00 PKD
ROOT
HETATM    1  C   UNL     1      -6.420   8.304  68.572  1.00  0.00    -0.054 C  
HETATM    2  C   UNL     1      -5.590   8.070  67.332  1.00  0.00    -0.038 C  
HETATM    3  C   UNL     1      -5.956   9.205  66.409  1.00  0.00    -0.059 C  
HETATM    4  O   UNL     1      -6.584   8.581  65.292  1.00  0.00    -0.062 OA 
HETATM    5  C   UNL     1      -7.574   9.496  64.881  1.00  0.00    -0.111 C  
HETATM    6  O   UNL     1      -7.992  10.272  66.010  1.00  0.00    -0.126 OA 
HETATM    7  C   UNL     1      -8.702   8.720  64.205  1.00  0.00    -0.024 C  
HETATM    8  C   UNL     1      -8.477   8.848  62.701  1.00  0.00    -0.200 C  
HETATM    9  C   UNL     1      -7.016  10.103  67.063  1.00  0.00    -0.088 C  
HETATM   10  O   UNL     1     -10.598   4.768  66.307  1.00  0.00    -0.301 OA 
HETATM   11  C   UNL     1      -7.423   9.919  62.480  1.00  0.00    -0.126 C  
HETATM   12  C   UNL     1      -7.578   9.316  68.299  1.00  0.00    -0.083 C  
HETATM   13  C   UNL     1      -6.980  10.429  63.838  1.00  0.00     0.022 C  
HETATM   14  C   UNL     1     -10.304   5.163  67.406  1.00  0.00    -0.149 C  
HETATM   15  C   UNL     1      -9.156   4.614  68.167  1.00  0.00    -0.148 C  
HETATM   16  C   UNL     1      -7.789   9.965  69.709  1.00  0.00    -0.169 C  
HETATM   17  C   UNL     1      -9.007   8.934  67.937  1.00  0.00    -0.142 C  
HETATM   18  C   UNL     1      -7.882   8.865  70.824  1.00  0.00    -0.119 C  
HETATM   19  C   UNL     1      -9.993   6.248  71.406  1.00  0.00    -0.210 C  
HETATM   20  C   UNL     1      -7.924   7.348  70.405  1.00  0.00    -0.103 C  
HETATM   21  O   UNL     1      -8.835   9.200  71.821  1.00  0.00    -0.341 OA 
HETATM   22  C   UNL     1      -9.283   6.429  70.030  1.00  0.00    -0.159 C  
HETATM   23  H   UNL     1      -8.891   8.533  72.497  1.00  0.00     0.000 HD 
HETATM   24  C   UNL     1      -6.672   7.125  69.517  1.00  0.00    -0.049 C  
HETATM   25  C   UNL     1     -10.542   6.827  69.201  1.00  0.00    -0.261 C  
HETATM   26  C   UNL     1     -11.019   6.252  68.080  1.00  0.00    -0.412 C  
HETATM   27  F   UNL     1      -7.488   6.749  71.618  1.00  0.00    -0.081 F  
HETATM   28  C   UNL     1      -6.430   5.690  69.028  1.00  0.00    -0.042 C  
HETATM   29  C   UNL     1      -7.347   4.693  69.738  1.00  0.00    -0.054 C  
HETATM   30  C   UNL     1      -8.724   5.137  69.338  1.00  0.00    -0.112 C  
ENDROOT
BRANCH   9  31
HETATM   31  C   UNL     1      -6.457  11.468  67.491  1.00  0.00    -0.079 C  
HETATM   32  O   UNL     1      -5.329  11.556  67.960  1.00  0.00    -0.043 OA 
BRANCH  31  33
HETATM   33  C   UNL     1      -7.415  12.653  67.429  1.00  0.00    -0.146 C  
BRANCH  33  34
HETATM   34  O   UNL     1      -6.725  13.909  67.341  1.00  0.00    -0.233 OA 
BRANCH  34  35
HETATM   35  C   UNL     1      -7.422  14.961  67.841  1.00  0.00    -0.141 C  
HETATM   36  O   UNL     1      -7.643  15.163  69.020  1.00  0.00    -0.135 OA 
HETATM   37  C   UNL     1      -7.823  15.905  66.734  1.00  0.00    -0.273 C  
ENDBRANCH  34  35
ENDBRANCH  33  34
ENDBRANCH  31  33
ENDBRANCH   9  31
TORSDOF 4
ENDMDL
MODEL       74
REMARK 921   NORMALIZED FREE ENERGY PREDICTED BY IDOCK:   -3.92 KCAL/MOL
REMARK 922        TOTAL FREE ENERGY PREDICTED BY IDOCK:   -5.40 KCAL/MOL
REMARK 923 INTER-LIGAND FREE ENERGY PREDICTED BY IDOCK:   -4.98 KCAL/MOL
REMARK 924 INTRA-LIGAND FREE ENERGY PREDICTED BY IDOCK:   -0.42 KCAL/MOL
REMARK 927      BINDING AFFINITY PREDICTED BY RF-SCORE:    0.00 PKD
ROOT
HETATM    1  C   UNL     1      -9.450  10.620  66.181  1.00  0.00    -0.218 C  
HETATM    2  C   UNL     1     -10.943  10.486  66.360  1.00  0.00    -0.019 C  
HETATM    3  C   UNL     1     -11.271  11.399  67.515  1.00  0.00    -0.292 C  
HETATM    4  O   UNL     1     -11.747  10.534  68.542  1.00  0.00    -0.325 OA 
HETATM    5  C   UNL     1     -11.303  11.127  69.742  1.00  0.00    -0.278 C  
HETATM    6  O   UNL     1     -10.110  11.876  69.482  1.00  0.00     0.326 OA 
HETATM    7  C   UNL     1     -11.136  10.031  70.792  1.00  0.00    -0.407 C  
HETATM    8  C   UNL     1     -12.387  10.069  71.664  1.00  0.00    -0.486 C  
HETATM    9  C   UNL     1      -9.993  12.058  68.052  1.00  0.00    -0.197 C  
HETATM   10  O   UNL     1      -8.718   5.945  69.747  1.00  0.00    -0.126 OA 
HETATM   11  C   UNL     1     -13.142  11.346  71.335  1.00  0.00    -0.377 C  
HETATM   12  C   UNL     1      -8.783  11.276  67.432  1.00  0.00    -0.139 C  
HETATM   13  C   UNL     1     -12.377  12.077  70.249  1.00  0.00    -0.275 C  
HETATM   14  C   UNL     1      -8.057   6.504  68.909  1.00  0.00    -0.115 C  
HETATM   15  C   UNL     1      -8.308   6.337  67.457  1.00  0.00    -0.113 C  
HETATM   16  C   UNL     1      -7.531  11.981  66.807  1.00  0.00     0.023 C  
HETATM   17  C   UNL     1      -8.142  10.513  68.584  1.00  0.00    -0.127 C  
HETATM   18  C   UNL     1      -6.753  11.003  65.857  1.00  0.00     0.028 C  
HETATM   19  C   UNL     1      -5.186   8.005  66.306  1.00  0.00    -0.025 C  
HETATM   20  C   UNL     1      -7.189   9.492  65.785  1.00  0.00    -0.097 C  
HETATM   21  O   UNL     1      -5.348  11.179  65.951  1.00  0.00    -0.140 OA 
HETATM   22  C   UNL     1      -6.659   8.230  66.763  1.00  0.00    -0.057 C  
HETATM   23  H   UNL     1      -4.877  10.587  65.376  1.00  0.00     0.000 HD 
HETATM   24  C   UNL     1      -8.700   9.510  65.437  1.00  0.00    -0.190 C  
HETATM   25  C   UNL     1      -6.400   8.216  68.301  1.00  0.00    -0.051 C  
HETATM   26  C   UNL     1      -6.973   7.437  69.237  1.00  0.00    -0.065 C  
HETATM   27  F   UNL     1      -6.638   9.140  64.524  1.00  0.00    -0.075 F  
HETATM   28  C   UNL     1      -9.368   8.142  65.232  1.00  0.00     0.411 C  
HETATM   29  C   UNL     1      -8.334   7.019  65.158  1.00  0.00    -0.078 C  
HETATM   30  C   UNL     1      -7.673   7.061  66.506  1.00  0.00    -0.104 C  
ENDROOT
BRANCH   9  31
HETATM   31  C   UNL     1      -9.908  13.555  67.715  1.00  0.00    -0.233 C  
HETATM   32  O   UNL     1     -10.541  14.014  66.773  1.00  0.00    -0.275 OA 
BRANCH  31  33
HETATM   33  C   UNL     1      -8.909  14.384  68.515  1.00  0.00    -0.182 C  
BRANCH  33  34
HETATM   34  O   UNL     1      -8.994  15.785  68.211  1.00  0.00    -0.177 OA 
BRANCH  34  35
HETATM   35  C   UNL     1      -7.806  16.438  68.270  1.00  0.00    -0.168 C  
HETATM   36  O   UNL     1      -6.741  16.002  67.876  1.00  0.00    -0.121 OA 
HETATM   37  C   UNL     1      -7.994  17.830  68.824  1.00  0.00    -0.240 C  
ENDBRANCH  34  35
ENDBRANCH  33  34
ENDBRANCH  31  33
ENDBRANCH   9  31
TORSDOF 4
ENDMDL
MODEL       75
REMARK 921   NORMALIZED FREE ENERGY PREDICTED BY IDOCK:   -3.87 KCAL/MOL
REMARK 922        TOTAL FREE ENERGY PREDICTED BY IDOCK:   -5.34 KCAL/MOL
REMARK 923 INTER-LIGAND FREE ENERGY PREDICTED BY IDOCK:   -4.78 KCAL/MOL
REMARK 924 INTRA-LIGAND FREE ENERGY PREDICTED BY IDOCK:   -0.56 KCAL/MOL
REMARK 927      BINDING AFFINITY PREDICTED BY RF-SCORE:    0.00 PKD
ROOT
HETATM    1  C   UNL     1     -10.105   6.779  69.125  1.00  0.00    -0.180 C  
HETATM    2  C   UNL     1     -11.309   6.077  69.705  1.00  0.00    -0.344 C  
HETATM    3  C   UNL     1     -10.944   5.819  71.145  1.00  0.00    -0.225 C  
HETATM    4  O   UNL     1     -10.898   4.400  71.264  1.00  0.00     0.285 OA 
HETATM    5  C   UNL     1      -9.868   4.153  72.195  1.00  0.00    -0.169 C  
HETATM    6  O   UNL     1      -8.919   5.224  72.139  1.00  0.00    -0.129 OA 
HETATM    7  C   UNL     1      -9.274   2.776  71.907  1.00  0.00    -0.164 C  
HETATM    8  C   UNL     1      -9.909   1.811  72.903  1.00  0.00    -0.150 C  
HETATM    9  C   UNL     1      -9.525   6.330  71.434  1.00  0.00    -0.156 C  
HETATM   10  O   UNL     1      -8.016   1.516  67.383  1.00  0.00    -0.059 OA 
HETATM   11  C   UNL     1     -10.632   2.638  73.952  1.00  0.00    -0.248 C  
HETATM   12  C   UNL     1      -8.853   6.614  70.045  1.00  0.00    -0.141 C  
HETATM   13  C   UNL     1     -10.469   4.102  73.591  1.00  0.00    -0.263 C  
HETATM   14  C   UNL     1      -7.829   2.665  67.073  1.00  0.00    -0.071 C  
HETATM   15  C   UNL     1      -8.789   3.429  66.241  1.00  0.00    -0.134 C  
HETATM   16  C   UNL     1      -8.040   7.916  69.732  1.00  0.00    -0.116 C  
HETATM   17  C   UNL     1      -7.776   5.550  69.876  1.00  0.00    -0.082 C  
HETATM   18  C   UNL     1      -7.920   8.143  68.184  1.00  0.00    -0.127 C  
HETATM   19  C   UNL     1      -6.562   6.346  65.620  1.00  0.00    -0.047 C  
HETATM   20  C   UNL     1      -8.440   7.029  67.201  1.00  0.00    -0.121 C  
HETATM   21  O   UNL     1      -6.650   8.664  67.821  1.00  0.00    -0.060 OA 
HETATM   22  C   UNL     1      -7.583   5.708  66.610  1.00  0.00    -0.092 C  
HETATM   23  H   UNL     1      -6.577   8.802  66.884  1.00  0.00     0.000 HD 
HETATM   24  C   UNL     1      -9.915   6.772  67.605  1.00  0.00    -0.171 C  
HETATM   25  C   UNL     1      -6.586   4.768  67.353  1.00  0.00    -0.047 C  
HETATM   26  C   UNL     1      -6.663   3.434  67.522  1.00  0.00    -0.042 C  
HETATM   27  F   UNL     1      -8.628   7.809  66.027  1.00  0.00    -0.121 F  
HETATM   28  C   UNL     1     -10.692   5.765  66.743  1.00  0.00    -0.369 C  
HETATM   29  C   UNL     1      -9.921   5.400  65.475  1.00  0.00     0.183 C  
HETATM   30  C   UNL     1      -8.670   4.756  65.999  1.00  0.00    -0.118 C  
ENDROOT
BRANCH   9  31
HETATM   31  C   UNL     1      -9.514   7.589  72.315  1.00  0.00    -0.153 C  
HETATM   32  O   UNL     1     -10.017   8.631  71.913  1.00  0.00    -0.265 OA 
BRANCH  31  33
HETATM   33  C   UNL     1      -8.737   7.504  73.625  1.00  0.00    -0.207 C  
BRANCH  33  34
HETATM   34  O   UNL     1      -8.057   8.730  73.937  1.00  0.00    -0.375 OA 
BRANCH  34  35
HETATM   35  C   UNL     1      -6.725   8.707  73.674  1.00  0.00    -0.002 C  
HETATM   36  O   UNL     1      -6.052   9.672  73.362  1.00  0.00    -0.235 OA 
HETATM   37  C   UNL     1      -6.164   7.325  73.900  1.00  0.00    -0.068 C  
ENDBRANCH  34  35
ENDBRANCH  33  34
ENDBRANCH  31  33
ENDBRANCH   9  31
TORSDOF 4
ENDMDL
MODEL       76
REMARK 921   NORMALIZED FREE ENERGY PREDICTED BY IDOCK:   -3.86 KCAL/MOL
REMARK 922        TOTAL FREE ENERGY PREDICTED BY IDOCK:   -5.33 KCAL/MOL
REMARK 923 INTER-LIGAND FREE ENERGY PREDICTED BY IDOCK:   -4.42 KCAL/MOL
REMARK 924 INTRA-LIGAND FREE ENERGY PREDICTED BY IDOCK:   -0.91 KCAL/MOL
REMARK 927      BINDING AFFINITY PREDICTED BY RF-SCORE:    0.00 PKD
ROOT
HETATM    1  C   UNL     1      -7.181   8.401  66.771  1.00  0.00    -0.078 C  
HETATM    2  C   UNL     1      -6.071   7.395  66.961  1.00  0.00    -0.046 C  
HETATM    3  C   UNL     1      -6.506   6.193  66.161  1.00  0.00    -0.046 C  
HETATM    4  O   UNL     1      -6.695   5.161  67.125  1.00  0.00    -0.052 OA 
HETATM    5  C   UNL     1      -7.773   4.400  66.626  1.00  0.00    -0.094 C  
HETATM    6  O   UNL     1      -8.610   5.243  65.825  1.00  0.00    -0.128 OA 
HETATM    7  C   UNL     1      -8.491   3.746  67.804  1.00  0.00    -0.105 C  
HETATM    8  C   UNL     1      -7.986   2.308  67.877  1.00  0.00    -0.062 C  
HETATM    9  C   UNL     1      -7.875   6.449  65.516  1.00  0.00    -0.103 C  
HETATM   10  O   UNL     1      -9.725   6.356  71.716  1.00  0.00    -0.161 OA 
HETATM   11  C   UNL     1      -7.218   2.022  66.598  1.00  0.00    -0.056 C  
HETATM   12  C   UNL     1      -8.472   7.724  66.208  1.00  0.00    -0.143 C  
HETATM   13  C   UNL     1      -7.225   3.282  65.754  1.00  0.00    -0.071 C  
HETATM   14  C   UNL     1      -9.787   7.370  71.068  1.00  0.00    -0.179 C  
HETATM   15  C   UNL     1      -8.730   8.409  71.115  1.00  0.00    -0.194 C  
HETATM   16  C   UNL     1      -9.142   8.899  65.417  1.00  0.00    -0.222 C  
HETATM   17  C   UNL     1      -9.642   7.235  67.050  1.00  0.00    -0.213 C  
HETATM   18  C   UNL     1      -9.190  10.204  66.287  1.00  0.00    -0.157 C  
HETATM   19  C   UNL     1     -10.638  11.018  69.268  1.00  0.00    -0.236 C  
HETATM   20  C   UNL     1      -8.751  10.138  67.797  1.00  0.00    -0.121 C  
HETATM   21  O   UNL     1     -10.390  10.934  66.081  1.00  0.00    -0.241 OA 
HETATM   22  C   UNL     1      -9.717   9.768  69.125  1.00  0.00    -0.188 C  
HETATM   23  H   UNL     1     -10.419  11.725  66.607  1.00  0.00     0.000 HD 
HETATM   24  C   UNL     1      -7.323   9.535  67.791  1.00  0.00    -0.083 C  
HETATM   25  C   UNL     1     -10.825   8.680  69.265  1.00  0.00    -0.082 C  
HETATM   26  C   UNL     1     -10.885   7.657  70.138  1.00  0.00    -0.255 C  
HETATM   27  F   UNL     1      -8.451  11.509  68.023  1.00  0.00    -0.124 F  
HETATM   28  C   UNL     1      -6.623   9.429  69.154  1.00  0.00    -0.049 C  
HETATM   29  C   UNL     1      -7.386  10.190  70.238  1.00  0.00    -0.108 C  
HETATM   30  C   UNL     1      -8.710   9.485  70.294  1.00  0.00    -0.270 C  
ENDROOT
BRANCH   9  31
HETATM   31  C   UNL     1      -7.789   6.641  63.994  1.00  0.00    -0.112 C  
HETATM   32  O   UNL     1      -8.578   6.069  63.252  1.00  0.00     0.053 OA 
BRANCH  31  33
HETATM   33  C   UNL     1      -6.610   7.454  63.469  1.00  0.00    -0.053 C  
BRANCH  33  34
HETATM   34  O   UNL     1      -6.996   8.366  62.429  1.00  0.00    -0.094 OA 
BRANCH  34  35
HETATM   35  C   UNL     1      -6.870   9.675  62.766  1.00  0.00    -0.102 C  
HETATM   36  O   UNL     1      -7.629  10.565  62.429  1.00  0.00    -0.139 OA 
HETATM   37  C   UNL     1      -5.694   9.874  63.691  1.00  0.00    -0.110 C  
ENDBRANCH  34  35
ENDBRANCH  33  34
ENDBRANCH  31  33
ENDBRANCH   9  31
TORSDOF 4
ENDMDL
MODEL       77
REMARK 921   NORMALIZED FREE ENERGY PREDICTED BY IDOCK:   -3.85 KCAL/MOL
REMARK 922        TOTAL FREE ENERGY PREDICTED BY IDOCK:   -5.31 KCAL/MOL
REMARK 923 INTER-LIGAND FREE ENERGY PREDICTED BY IDOCK:   -5.07 KCAL/MOL
REMARK 924 INTRA-LIGAND FREE ENERGY PREDICTED BY IDOCK:   -0.23 KCAL/MOL
REMARK 927      BINDING AFFINITY PREDICTED BY RF-SCORE:    0.00 PKD
ROOT
HETATM    1  C   UNL     1     -10.525   6.730  69.924  1.00  0.00    -0.242 C  
HETATM    2  C   UNL     1     -10.184   5.301  69.573  1.00  0.00    -0.338 C  
HETATM    3  C   UNL     1      -9.521   4.753  70.811  1.00  0.00    -0.162 C  
HETATM    4  O   UNL     1      -8.184   4.463  70.413  1.00  0.00    -0.068 OA 
HETATM    5  C   UNL     1      -7.403   4.737  71.555  1.00  0.00    -0.069 C  
HETATM    6  O   UNL     1      -8.061   5.736  72.343  1.00  0.00    -0.106 OA 
HETATM    7  C   UNL     1      -5.998   5.126  71.100  1.00  0.00    -0.021 C  
HETATM    8  C   UNL     1      -5.131   3.880  71.256  1.00  0.00     0.000 C  
HETATM    9  C   UNL     1      -9.431   5.839  71.893  1.00  0.00    -0.151 C  
HETATM   10  O   UNL     1      -5.351   8.421  67.585  1.00  0.00    -0.033 OA 
HETATM   11  C   UNL     1      -5.920   2.864  72.064  1.00  0.00    -0.013 C  
HETATM   12  C   UNL     1      -9.745   7.206  71.191  1.00  0.00    -0.168 C  
HETATM   13  C   UNL     1      -7.276   3.467  72.381  1.00  0.00    -0.048 C  
HETATM   14  C   UNL     1      -6.400   8.956  67.839  1.00  0.00    -0.056 C  
HETATM   15  C   UNL     1      -7.608   8.778  66.998  1.00  0.00    -0.088 C  
HETATM   16  C   UNL     1     -10.715   8.280  71.791  1.00  0.00    -0.332 C  
HETATM   17  C   UNL     1      -8.432   7.978  71.171  1.00  0.00    -0.134 C  
HETATM   18  C   UNL     1     -11.203   9.276  70.682  1.00  0.00    -0.276 C  
HETATM   19  C   UNL     1      -9.623  11.468  68.598  1.00  0.00    -0.159 C  
HETATM   20  C   UNL     1     -10.573   9.193  69.241  1.00  0.00    -0.216 C  
HETATM   21  O   UNL     1     -11.311  10.604  71.173  1.00  0.00    -0.246 OA 
HETATM   22  C   UNL     1      -9.190   9.973  68.686  1.00  0.00    -0.152 C  
HETATM   23  H   UNL     1     -11.607  11.208  70.501  1.00  0.00     0.000 HD 
HETATM   24  C   UNL     1     -10.770   7.725  68.785  1.00  0.00    -0.093 C  
HETATM   25  C   UNL     1      -7.827  10.198  69.410  1.00  0.00    -0.150 C  
HETATM   26  C   UNL     1      -6.601   9.795  69.025  1.00  0.00    -0.049 C  
HETATM   27  F   UNL     1     -11.596   9.835  68.491  1.00  0.00    -0.118 F  
HETATM   28  C   UNL     1     -10.302   7.386  67.362  1.00  0.00    -0.340 C  
HETATM   29  C   UNL     1      -9.963   8.647  66.567  1.00  0.00    -0.353 C  
HETATM   30  C   UNL     1      -8.828   9.254  67.340  1.00  0.00    -0.124 C  
ENDROOT
BRANCH   9  31
HETATM   31  C   UNL     1     -10.393   5.592  73.065  1.00  0.00    -0.203 C  
HETATM   32  O   UNL     1     -10.041   5.827  74.214  1.00  0.00    -0.219 OA 
BRANCH  31  33
HETATM   33  C   UNL     1     -11.724   4.925  72.734  1.00  0.00    -0.003 C  
BRANCH  33  34
HETATM   34  O   UNL     1     -12.087   3.925  73.698  1.00  0.00     0.141 OA 
BRANCH  34  35
HETATM   35  C   UNL     1     -11.386   2.768  73.588  1.00  0.00    -0.169 C  
HETATM   36  O   UNL     1     -10.173   2.674  73.614  1.00  0.00    -0.102 OA 
HETATM   37  C   UNL     1     -12.321   1.586  73.509  1.00  0.00    -0.216 C  
ENDBRANCH  34  35
ENDBRANCH  33  34
ENDBRANCH  31  33
ENDBRANCH   9  31
TORSDOF 4
ENDMDL
MODEL       78
REMARK 921   NORMALIZED FREE ENERGY PREDICTED BY IDOCK:   -3.75 KCAL/MOL
REMARK 922        TOTAL FREE ENERGY PREDICTED BY IDOCK:   -5.20 KCAL/MOL
REMARK 923 INTER-LIGAND FREE ENERGY PREDICTED BY IDOCK:   -5.63 KCAL/MOL
REMARK 924 INTRA-LIGAND FREE ENERGY PREDICTED BY IDOCK:    0.44 KCAL/MOL
REMARK 927      BINDING AFFINITY PREDICTED BY RF-SCORE:    0.00 PKD
ROOT
HETATM    1  C   UNL     1     -10.594  13.425  67.016  1.00  0.00    -0.264 C  
HETATM    2  C   UNL     1     -11.330  14.251  68.044  1.00  0.00    -0.318 C  
HETATM    3  C   UNL     1     -11.283  15.658  67.505  1.00  0.00    -0.245 C  
HETATM    4  O   UNL     1     -10.511  16.389  68.454  1.00  0.00    -0.268 OA 
HETATM    5  C   UNL     1      -9.804  17.337  67.686  1.00  0.00    -0.279 C  
HETATM    6  O   UNL     1      -9.611  16.819  66.365  1.00  0.00    -0.254 OA 
HETATM    7  C   UNL     1      -8.509  17.685  68.416  1.00  0.00    -0.287 C  
HETATM    8  C   UNL     1      -8.760  19.002  69.143  1.00  0.00    -0.098 C  
HETATM    9  C   UNL     1     -10.505  15.697  66.183  1.00  0.00    -0.317 C  
HETATM   10  O   UNL     1      -5.617  14.178  70.141  1.00  0.00    -0.101 OA 
HETATM   11  C   UNL     1     -10.064  19.579  68.620  1.00  0.00    -0.535 C  
HETATM   12  C   UNL     1      -9.751  14.327  66.059  1.00  0.00    -0.312 C  
HETATM   13  C   UNL     1     -10.629  18.612  67.597  1.00  0.00    -0.458 C  
HETATM   14  C   UNL     1      -6.006  13.395  69.312  1.00  0.00    -0.093 C  
HETATM   15  C   UNL     1      -6.963  12.310  69.633  1.00  0.00     0.226 C  
HETATM   16  C   UNL     1      -9.723  13.476  64.744  1.00  0.00     0.185 C  
HETATM   17  C   UNL     1      -8.272  14.645  66.232  1.00  0.00     0.796 C  
HETATM   18  C   UNL     1      -9.337  11.986  65.049  1.00  0.00     0.153 C  
HETATM   19  C   UNL     1      -6.597  10.476  66.415  1.00  0.00    -0.106 C  
HETATM   20  C   UNL     1      -8.887  11.590  66.506  1.00  0.00    -0.190 C  
HETATM   21  O   UNL     1      -8.509  11.434  64.036  1.00  0.00    -0.226 OA 
HETATM   22  C   UNL     1      -7.331  11.643  67.143  1.00  0.00    -0.143 C  
HETATM   23  H   UNL     1      -8.275  10.531  64.221  1.00  0.00     0.000 HD 
HETATM   24  C   UNL     1     -10.033  12.063  67.438  1.00  0.00    -0.200 C  
HETATM   25  C   UNL     1      -6.226  12.726  66.956  1.00  0.00     0.292 C  
HETATM   26  C   UNL     1      -5.612  13.464  67.901  1.00  0.00    -0.121 C  
HETATM   27  F   UNL     1      -9.145  10.193  66.469  1.00  0.00    -0.148 F  
HETATM   28  C   UNL     1      -9.878  11.729  68.929  1.00  0.00    -0.019 C  
HETATM   29  C   UNL     1      -8.727  10.753  69.169  1.00  0.00    -0.101 C  
HETATM   30  C   UNL     1      -7.521  11.509  68.694  1.00  0.00    -0.116 C  
ENDROOT
BRANCH   9  31
HETATM   31  C   UNL     1     -11.411  15.935  64.965  1.00  0.00    -0.079 C  
HETATM   32  O   UNL     1     -11.231  16.905  64.239  1.00  0.00    -1.204 OA 
BRANCH  31  33
HETATM   33  C   UNL     1     -12.601  14.996  64.799  1.00  0.00     0.057 C  
BRANCH  33  34
HETATM   34  O   UNL     1     -12.549  14.261  63.567  1.00  0.00    -0.814 OA 
BRANCH  34  35
HETATM   35  C   UNL     1     -12.801  12.934  63.701  1.00  0.00     0.077 C  
HETATM   36  O   UNL     1     -12.939  12.147  62.784  1.00  0.00    -0.117 OA 
HETATM   37  C   UNL     1     -12.810  12.541  65.158  1.00  0.00    -0.005 C  
ENDBRANCH  34  35
ENDBRANCH  33  34
ENDBRANCH  31  33
ENDBRANCH   9  31
TORSDOF 4
ENDMDL
MODEL       79
REMARK 921   NORMALIZED FREE ENERGY PREDICTED BY IDOCK:   -3.74 KCAL/MOL
REMARK 922        TOTAL FREE ENERGY PREDICTED BY IDOCK:   -5.17 KCAL/MOL
REMARK 923 INTER-LIGAND FREE ENERGY PREDICTED BY IDOCK:   -5.23 KCAL/MOL
REMARK 924 INTRA-LIGAND FREE ENERGY PREDICTED BY IDOCK:    0.06 KCAL/MOL
REMARK 927      BINDING AFFINITY PREDICTED BY RF-SCORE:    0.00 PKD
ROOT
HETATM    1  C   UNL     1     -10.216   7.888  68.118  1.00  0.00    -0.248 C  
HETATM    2  C   UNL     1     -11.028   6.950  67.256  1.00  0.00    -0.406 C  
HETATM    3  C   UNL     1     -10.469   5.582  67.550  1.00  0.00    -0.204 C  
HETATM    4  O   UNL     1      -9.901   5.144  66.318  1.00  0.00    -0.162 OA 
HETATM    5  C   UNL     1      -8.775   4.384  66.694  1.00  0.00    -0.112 C  
HETATM    6  O   UNL     1      -8.286   4.861  67.953  1.00  0.00    -0.103 OA 
HETATM    7  C   UNL     1      -7.750   4.445  65.563  1.00  0.00    -0.086 C  
HETATM    8  C   UNL     1      -7.902   3.152  64.768  1.00  0.00    -0.078 C  
HETATM    9  C   UNL     1      -9.312   5.683  68.555  1.00  0.00    -0.123 C  
HETATM   10  O   UNL     1      -6.524   8.700  63.555  1.00  0.00    -0.084 OA 
HETATM   11  C   UNL     1      -8.781   2.212  65.576  1.00  0.00    -0.118 C  
HETATM   12  C   UNL     1      -8.913   7.198  68.636  1.00  0.00    -0.131 C  
HETATM   13  C   UNL     1      -9.191   2.930  66.848  1.00  0.00    -0.161 C  
HETATM   14  C   UNL     1      -6.794   9.299  64.565  1.00  0.00    -0.089 C  
HETATM   15  C   UNL     1      -8.035  10.097  64.707  1.00  0.00    -0.146 C  
HETATM   16  C   UNL     1      -8.658   7.950  69.987  1.00  0.00    -0.135 C  
HETATM   17  C   UNL     1      -7.544   7.307  67.979  1.00  0.00    -0.115 C  
HETATM   18  C   UNL     1      -8.765   9.503  69.792  1.00  0.00    -0.194 C  
HETATM   19  C   UNL     1      -7.079  11.779  67.888  1.00  0.00    -0.087 C  
HETATM   20  C   UNL     1      -8.931  10.087  68.340  1.00  0.00    -0.121 C  
HETATM   21  O   UNL     1      -7.807  10.203  70.573  1.00  0.00    -0.424 OA 
HETATM   22  C   UNL     1      -7.708  10.498  67.259  1.00  0.00    -0.106 C  
HETATM   23  H   UNL     1      -7.872  11.144  70.456  1.00  0.00     0.000 HD 
HETATM   24  C   UNL     1     -10.170   9.372  67.743  1.00  0.00    -0.273 C  
HETATM   25  C   UNL     1      -6.377   9.749  66.946  1.00  0.00    -0.065 C  
HETATM   26  C   UNL     1      -5.951   9.262  65.765  1.00  0.00    -0.055 C  
HETATM   27  F   UNL     1      -9.490  11.356  68.650  1.00  0.00    -0.179 F  
HETATM   28  C   UNL     1     -10.603   9.819  66.338  1.00  0.00    -0.117 C  
HETATM   29  C   UNL     1      -9.866  11.084  65.900  1.00  0.00    -0.278 C  
HETATM   30  C   UNL     1      -8.426  10.661  65.874  1.00  0.00    -0.167 C  
ENDROOT
BRANCH   9  31
HETATM   31  C   UNL     1      -9.680   5.139  69.944  1.00  0.00    -0.199 C  
HETATM   32  O   UNL     1     -10.826   5.234  70.363  1.00  0.00    -0.213 OA 
BRANCH  31  33
HETATM   33  C   UNL     1      -8.534   4.612  70.801  1.00  0.00    -0.096 C  
BRANCH  33  34
HETATM   34  O   UNL     1      -7.606   3.819  70.045  1.00  0.00    -0.048 OA 
BRANCH  34  35
HETATM   35  C   UNL     1      -7.262   2.648  70.641  1.00  0.00    -0.033 C  
HETATM   36  O   UNL     1      -6.340   1.930  70.304  1.00  0.00    -0.023 OA 
HETATM   37  C   UNL     1      -8.137   2.390  71.843  1.00  0.00    -0.053 C  
ENDBRANCH  34  35
ENDBRANCH  33  34
ENDBRANCH  31  33
ENDBRANCH   9  31
TORSDOF 4
ENDMDL
MODEL       80
REMARK 921   NORMALIZED FREE ENERGY PREDICTED BY IDOCK:   -3.73 KCAL/MOL
REMARK 922        TOTAL FREE ENERGY PREDICTED BY IDOCK:   -5.16 KCAL/MOL
REMARK 923 INTER-LIGAND FREE ENERGY PREDICTED BY IDOCK:   -5.22 KCAL/MOL
REMARK 924 INTRA-LIGAND FREE ENERGY PREDICTED BY IDOCK:    0.06 KCAL/MOL
REMARK 927      BINDING AFFINITY PREDICTED BY RF-SCORE:    0.00 PKD
ROOT
HETATM    1  C   UNL     1      -7.934   8.828  70.482  1.00  0.00    -0.117 C  
HETATM    2  C   UNL     1      -6.574   8.811  69.826  1.00  0.00    -0.041 C  
HETATM    3  C   UNL     1      -6.862   8.894  68.349  1.00  0.00    -0.065 C  
HETATM    4  O   UNL     1      -6.393   7.659  67.814  1.00  0.00    -0.047 OA 
HETATM    5  C   UNL     1      -7.288   7.360  66.766  1.00  0.00    -0.092 C  
HETATM    6  O   UNL     1      -8.560   7.954  67.054  1.00  0.00    -0.124 OA 
HETATM    7  C   UNL     1      -7.333   5.845  66.584  1.00  0.00    -0.079 C  
HETATM    8  C   UNL     1      -6.420   5.521  65.406  1.00  0.00    -0.039 C  
HETATM    9  C   UNL     1      -8.377   8.932  68.103  1.00  0.00    -0.125 C  
HETATM   10  O   UNL     1      -7.919   2.904  70.411  1.00  0.00    -0.043 OA 
HETATM   11  C   UNL     1      -6.077   6.829  64.713  1.00  0.00    -0.036 C  
HETATM   12  C   UNL     1      -9.066   8.520  69.450  1.00  0.00    -0.150 C  
HETATM   13  C   UNL     1      -6.751   7.955  65.474  1.00  0.00    -0.045 C  
HETATM   14  C   UNL     1      -8.501   3.759  71.029  1.00  0.00    -0.071 C  
HETATM   15  C   UNL     1      -7.861   4.520  72.128  1.00  0.00    -0.095 C  
HETATM   16  C   UNL     1     -10.287   9.288  70.062  1.00  0.00    -0.245 C  
HETATM   17  C   UNL     1      -9.678   7.147  69.206  1.00  0.00    -0.159 C  
HETATM   18  C   UNL     1     -10.437   8.973  71.592  1.00  0.00    -0.355 C  
HETATM   19  C   UNL     1     -10.977   6.121  73.387  1.00  0.00    -0.181 C  
HETATM   20  C   UNL     1      -9.520   7.872  72.245  1.00  0.00    -0.189 C  
HETATM   21  O   UNL     1     -11.799   8.874  71.982  1.00  0.00    -0.346 OA 
HETATM   22  C   UNL     1      -9.822   6.220  72.345  1.00  0.00    -0.176 C  
HETATM   23  H   UNL     1     -11.890   8.683  72.909  1.00  0.00     0.000 HD 
HETATM   24  C   UNL     1      -8.065   8.290  71.910  1.00  0.00    -0.184 C  
HETATM   25  C   UNL     1     -10.431   5.263  71.274  1.00  0.00    -0.274 C  
HETATM   26  C   UNL     1      -9.879   4.163  70.728  1.00  0.00    -0.248 C  
HETATM   27  F   UNL     1      -9.595   8.269  73.607  1.00  0.00    -0.306 F  
HETATM   28  C   UNL     1      -6.951   7.412  72.501  1.00  0.00    -0.068 C  
HETATM   29  C   UNL     1      -7.501   6.429  73.534  1.00  0.00    -0.089 C  
HETATM   30  C   UNL     1      -8.447   5.577  72.739  1.00  0.00    -0.120 C  
ENDROOT
BRANCH   9  31
HETATM   31  C   UNL     1      -8.869  10.309  67.634  1.00  0.00    -0.121 C  
HETATM   32  O   UNL     1      -9.204  10.484  66.469  1.00  0.00    -0.157 OA 
BRANCH  31  33
HETATM   33  C   UNL     1      -8.787  11.449  68.644  1.00  0.00    -0.125 C  
BRANCH  33  34
HETATM   34  O   UNL     1      -7.462  11.990  68.751  1.00  0.00    -0.114 OA 
BRANCH  34  35
HETATM   35  C   UNL     1      -7.219  13.033  67.916  1.00  0.00    -0.129 C  
HETATM   36  O   UNL     1      -6.231  13.164  67.220  1.00  0.00    -0.298 OA 
HETATM   37  C   UNL     1      -8.391  13.985  67.905  1.00  0.00    -0.168 C  
ENDBRANCH  34  35
ENDBRANCH  33  34
ENDBRANCH  31  33
ENDBRANCH   9  31
TORSDOF 4
ENDMDL
MODEL       81
REMARK 921   NORMALIZED FREE ENERGY PREDICTED BY IDOCK:   -3.38 KCAL/MOL
REMARK 922        TOTAL FREE ENERGY PREDICTED BY IDOCK:   -4.74 KCAL/MOL
REMARK 923 INTER-LIGAND FREE ENERGY PREDICTED BY IDOCK:   -3.95 KCAL/MOL
REMARK 924 INTRA-LIGAND FREE ENERGY PREDICTED BY IDOCK:   -0.79 KCAL/MOL
REMARK 927      BINDING AFFINITY PREDICTED BY RF-SCORE:    0.00 PKD
ROOT
HETATM    1  C   UNL     1      -8.147   7.737  67.439  1.00  0.00    -0.123 C  
HETATM    2  C   UNL     1      -7.270   6.797  68.231  1.00  0.00    -0.088 C  
HETATM    3  C   UNL     1      -8.118   6.384  69.407  1.00  0.00    -0.118 C  
HETATM    4  O   UNL     1      -7.441   6.903  70.548  1.00  0.00    -0.082 OA 
HETATM    5  C   UNL     1      -8.470   7.256  71.445  1.00  0.00    -0.114 C  
HETATM    6  O   UNL     1      -9.650   7.579  70.699  1.00  0.00    -0.171 OA 
HETATM    7  C   UNL     1      -7.968   8.388  72.338  1.00  0.00    -0.164 C  
HETATM    8  C   UNL     1      -7.541   7.746  73.655  1.00  0.00    -0.174 C  
HETATM    9  C   UNL     1      -9.483   7.083  69.351  1.00  0.00    -0.145 C  
HETATM   10  O   UNL     1      -5.774  12.277  70.416  1.00  0.00    -0.148 OA 
HETATM   11  C   UNL     1      -8.054   6.316  73.660  1.00  0.00    -0.109 C  
HETATM   12  C   UNL     1      -9.363   8.231  68.288  1.00  0.00    -0.138 C  
HETATM   13  C   UNL     1      -8.769   6.068  72.346  1.00  0.00    -0.126 C  
HETATM   14  C   UNL     1      -6.359  12.140  69.371  1.00  0.00    -0.116 C  
HETATM   15  C   UNL     1      -5.708  11.584  68.162  1.00  0.00    -0.046 C  
HETATM   16  C   UNL     1     -10.444   8.503  67.187  1.00  0.00    -0.370 C  
HETATM   17  C   UNL     1      -9.410   9.536  69.072  1.00  0.00    -0.155 C  
HETATM   18  C   UNL     1      -9.844   9.348  66.009  1.00  0.00    -0.296 C  
HETATM   19  C   UNL     1      -8.441  12.450  65.788  1.00  0.00     0.845 C  
HETATM   20  C   UNL     1      -8.387   9.927  66.142  1.00  0.00    -0.122 C  
HETATM   21  O   UNL     1     -10.779  10.288  65.502  1.00  0.00    -0.055 OA 
HETATM   22  C   UNL     1      -7.932  11.399  66.820  1.00  0.00    -0.160 C  
HETATM   23  H   UNL     1     -10.416  10.800  64.788  1.00  0.00     0.000 HD 
HETATM   24  C   UNL     1      -7.481   8.710  66.461  1.00  0.00    -0.088 C  
HETATM   25  C   UNL     1      -8.467  12.099  68.106  1.00  0.00    -0.175 C  
HETATM   26  C   UNL     1      -7.780  12.465  69.205  1.00  0.00     0.286 C  
HETATM   27  F   UNL     1      -8.077  10.126  64.770  1.00  0.00    -0.134 F  
HETATM   28  C   UNL     1      -5.975   8.991  66.570  1.00  0.00    -0.056 C  
HETATM   29  C   UNL     1      -5.630  10.397  66.080  1.00  0.00    -0.084 C  
HETATM   30  C   UNL     1      -6.380  11.291  67.024  1.00  0.00    -0.111 C  
ENDROOT
BRANCH   9  31
HETATM   31  C   UNL     1     -10.630   6.125  68.994  1.00  0.00    -0.279 C  
HETATM   32  O   UNL     1     -11.696   6.185  69.592  1.00  0.00    -0.331 OA 
BRANCH  31  33
HETATM   33  C   UNL     1     -10.321   5.034  67.974  1.00  0.00    -0.027 C  
BRANCH  33  34
HETATM   34  O   UNL     1     -10.875   5.323  66.681  1.00  0.00    -0.258 OA 
BRANCH  34  35
HETATM   35  C   UNL     1     -10.314   4.616  65.666  1.00  0.00    -0.238 C  
HETATM   36  O   UNL     1     -10.829   4.409  64.584  1.00  0.00    -0.157 OA 
HETATM   37  C   UNL     1      -8.916   4.184  66.033  1.00  0.00    -0.126 C  
ENDBRANCH  34  35
ENDBRANCH  33  34
ENDBRANCH  31  33
ENDBRANCH   9  31
TORSDOF 4
ENDMDL
MODEL       82
REMARK 921   NORMALIZED FREE ENERGY PREDICTED BY IDOCK:   -3.31 KCAL/MOL
REMARK 922        TOTAL FREE ENERGY PREDICTED BY IDOCK:   -4.64 KCAL/MOL
REMARK 923 INTER-LIGAND FREE ENERGY PREDICTED BY IDOCK:   -4.29 KCAL/MOL
REMARK 924 INTRA-LIGAND FREE ENERGY PREDICTED BY IDOCK:   -0.36 KCAL/MOL
REMARK 927      BINDING AFFINITY PREDICTED BY RF-SCORE:    0.00 PKD
ROOT
HETATM    1  C   UNL     1      -8.986  15.166  66.087  1.00  0.00    -0.201 C  
HETATM    2  C   UNL     1      -9.546  16.381  65.387  1.00  0.00     0.261 C  
HETATM    3  C   UNL     1      -8.773  17.541  65.960  1.00  0.00    -0.034 C  
HETATM    4  O   UNL     1      -9.744  18.323  66.651  1.00  0.00    -0.309 OA 
HETATM    5  C   UNL     1      -9.053  18.848  67.763  1.00  0.00    -0.290 C  
HETATM    6  O   UNL     1      -7.991  17.957  68.118  1.00  0.00    -0.248 OA 
HETATM    7  C   UNL     1     -10.060  19.100  68.884  1.00  0.00    -0.422 C  
HETATM    8  C   UNL     1     -10.390  20.589  68.846  1.00  0.00     0.119 C  
HETATM    9  C   UNL     1      -7.775  17.046  67.016  1.00  0.00    -0.186 C  
HETATM   10  O   UNL     1     -13.266  15.673  70.151  1.00  0.00    -0.168 OA 
HETATM   11  C   UNL     1      -9.384  21.263  67.928  1.00  0.00     0.301 C  
HETATM   12  C   UNL     1      -8.171  15.567  67.358  1.00  0.00    -0.199 C  
HETATM   13  C   UNL     1      -8.457  20.194  67.381  1.00  0.00    -0.398 C  
HETATM   14  C   UNL     1     -12.536  14.793  69.771  1.00  0.00    -0.120 C  
HETATM   15  C   UNL     1     -12.762  14.069  68.498  1.00  0.00     0.874 C  
HETATM   16  C   UNL     1      -7.131  14.400  67.465  1.00  0.00    -0.197 C  
HETATM   17  C   UNL     1      -8.722  15.597  68.777  1.00  0.00    -0.197 C  
HETATM   18  C   UNL     1      -7.837  13.006  67.326  1.00  0.00    -0.127 C  
HETATM   19  C   UNL     1     -10.256  11.383  69.105  1.00  0.00    -0.084 C  
HETATM   20  C   UNL     1      -9.410  12.941  67.275  1.00  0.00    -0.212 C  
HETATM   21  O   UNL     1      -7.263  12.033  68.186  1.00  0.00    -0.077 OA 
HETATM   22  C   UNL     1     -10.470  12.834  68.577  1.00  0.00    -0.252 C  
HETATM   23  H   UNL     1      -7.691  11.188  68.102  1.00  0.00     0.000 HD 
HETATM   24  C   UNL     1      -9.828  13.886  66.119  1.00  0.00    -0.316 C  
HETATM   25  C   UNL     1     -10.415  13.563  69.954  1.00  0.00     0.908 C  
HETATM   26  C   UNL     1     -11.332  14.384  70.502  1.00  0.00    -0.117 C  
HETATM   27  F   UNL     1      -9.581  11.677  66.649  1.00  0.00    -0.191 F  
HETATM   28  C   UNL     1     -11.329  13.952  65.802  1.00  0.00    -0.308 C  
HETATM   29  C   UNL     1     -12.106  12.858  66.535  1.00  0.00    -0.375 C  
HETATM   30  C   UNL     1     -11.881  13.178  67.984  1.00  0.00    -0.398 C  
ENDROOT
BRANCH   9  31
HETATM   31  C   UNL     1      -6.316  17.126  66.541  1.00  0.00    -0.218 C  
HETATM   32  O   UNL     1      -5.409  16.718  67.255  1.00  0.00    -0.125 OA 
BRANCH  31  33
HETATM   33  C   UNL     1      -6.061  17.851  65.224  1.00  0.00     0.066 C  
BRANCH  33  34
HETATM   34  O   UNL     1      -5.787  19.248  65.414  1.00  0.00    -0.171 OA 
BRANCH  34  35
HETATM   35  C   UNL     1      -5.901  19.994  64.285  1.00  0.00    -0.256 C  
HETATM   36  O   UNL     1      -6.470  21.066  64.204  1.00  0.00    -0.322 OA 
HETATM   37  C   UNL     1      -5.151  19.349  63.145  1.00  0.00    -0.300 C  
ENDBRANCH  34  35
ENDBRANCH  33  34
ENDBRANCH  31  33
ENDBRANCH   9  31
TORSDOF 4
ENDMDL
MODEL       83
REMARK 921   NORMALIZED FREE ENERGY PREDICTED BY IDOCK:   -3.17 KCAL/MOL
REMARK 922        TOTAL FREE ENERGY PREDICTED BY IDOCK:   -4.47 KCAL/MOL
REMARK 923 INTER-LIGAND FREE ENERGY PREDICTED BY IDOCK:   -3.90 KCAL/MOL
REMARK 924 INTRA-LIGAND FREE ENERGY PREDICTED BY IDOCK:   -0.58 KCAL/MOL
REMARK 927      BINDING AFFINITY PREDICTED BY RF-SCORE:    0.00 PKD
ROOT
HETATM    1  C   UNL     1      -8.050  16.678  66.387  1.00  0.00    -0.359 C  
HETATM    2  C   UNL     1      -6.872  15.740  66.283  1.00  0.00     1.694 C  
HETATM    3  C   UNL     1      -7.196  14.615  67.233  1.00  0.00    -0.049 C  
HETATM    4  O   UNL     1      -6.193  14.687  68.243  1.00  0.00    -0.101 OA 
HETATM    5  C   UNL     1      -6.850  14.292  69.427  1.00  0.00    -0.122 C  
HETATM    6  O   UNL     1      -8.242  14.610  69.318  1.00  0.00    -0.107 OA 
HETATM    7  C   UNL     1      -6.149  14.952  70.612  1.00  0.00    -0.074 C  
HETATM    8  C   UNL     1      -5.221  13.898  71.210  1.00  0.00    -0.163 C  
HETATM    9  C   UNL     1      -8.540  14.876  67.929  1.00  0.00    -0.160 C  
HETATM   10  O   UNL     1      -5.129  19.705  70.559  1.00  0.00    -0.186 OA 
HETATM   11  C   UNL     1      -5.579  12.559  70.588  1.00  0.00    -0.175 C  
HETATM   12  C   UNL     1      -8.908  16.376  67.657  1.00  0.00    -0.191 C  
HETATM   13  C   UNL     1      -6.702  12.788  69.594  1.00  0.00     0.090 C  
HETATM   14  C   UNL     1      -6.043  19.933  69.807  1.00  0.00    -0.341 C  
HETATM   15  C   UNL     1      -5.835  20.206  68.365  1.00  0.00    -0.288 C  
HETATM   16  C   UNL     1     -10.335  16.845  67.211  1.00  0.00    -0.309 C  
HETATM   17  C   UNL     1      -8.772  17.090  68.995  1.00  0.00    -0.128 C  
HETATM   18  C   UNL     1     -10.277  18.271  66.557  1.00  0.00    -0.394 C  
HETATM   19  C   UNL     1      -9.306  21.351  67.660  1.00  0.00     0.275 C  
HETATM   20  C   UNL     1      -8.923  19.074  66.582  1.00  0.00    -0.326 C  
HETATM   21  O   UNL     1     -11.405  19.059  66.904  1.00  0.00     0.061 OA 
HETATM   22  C   UNL     1      -8.372  20.109  67.789  1.00  0.00    -0.304 C  
HETATM   23  H   UNL     1     -11.370  19.923  66.507  1.00  0.00     0.000 HD 
HETATM   24  C   UNL     1      -7.869  18.133  65.943  1.00  0.00    -0.088 C  
HETATM   25  C   UNL     1      -8.456  19.950  69.337  1.00  0.00     0.330 C  
HETATM   26  C   UNL     1      -7.448  19.916  70.229  1.00  0.00     0.596 C  
HETATM   27  F   UNL     1      -9.153  19.972  65.504  1.00  0.00    -0.280 F  
HETATM   28  C   UNL     1      -6.455  18.710  65.776  1.00  0.00    -0.296 C  
HETATM   29  C   UNL     1      -6.427  20.214  66.041  1.00  0.00    -0.233 C  
HETATM   30  C   UNL     1      -6.850  20.325  67.478  1.00  0.00    -0.304 C  
ENDROOT
BRANCH   9  31
HETATM   31  C   UNL     1      -9.656  13.941  67.439  1.00  0.00    -0.235 C  
HETATM   32  O   UNL     1      -9.718  13.616  66.259  1.00  0.00    -0.289 OA 
BRANCH  31  33
HETATM   33  C   UNL     1     -10.731  13.563  68.452  1.00  0.00    -0.259 C  
BRANCH  33  34
HETATM   34  O   UNL     1     -11.696  12.649  67.910  1.00  0.00    -0.330 OA 
BRANCH  34  35
HETATM   35  C   UNL     1     -11.998  11.610  68.730  1.00  0.00    -0.264 C  
HETATM   36  O   UNL     1     -12.118  10.450  68.383  1.00  0.00    -0.214 OA 
HETATM   37  C   UNL     1     -12.087  12.076  70.163  1.00  0.00    -0.377 C  
ENDBRANCH  34  35
ENDBRANCH  33  34
ENDBRANCH  31  33
ENDBRANCH   9  31
TORSDOF 4
ENDMDL
MODEL       84
REMARK 921   NORMALIZED FREE ENERGY PREDICTED BY IDOCK:   -3.08 KCAL/MOL
REMARK 922        TOTAL FREE ENERGY PREDICTED BY IDOCK:   -4.37 KCAL/MOL
REMARK 923 INTER-LIGAND FREE ENERGY PREDICTED BY IDOCK:   -4.14 KCAL/MOL
REMARK 924 INTRA-LIGAND FREE ENERGY PREDICTED BY IDOCK:   -0.23 KCAL/MOL
REMARK 927      BINDING AFFINITY PREDICTED BY RF-SCORE:    0.00 PKD
ROOT
HETATM    1  C   UNL     1      -6.570  16.421  66.721  1.00  0.00    -0.095 C  
HETATM    2  C   UNL     1      -5.320  15.655  67.081  1.00  0.00     0.343 C  
HETATM    3  C   UNL     1      -5.806  14.516  67.942  1.00  0.00    -0.125 C  
HETATM    4  O   UNL     1      -5.224  14.749  69.221  1.00  0.00    -0.090 OA 
HETATM    5  C   UNL     1      -6.190  14.292  70.141  1.00  0.00    -0.161 C  
HETATM    6  O   UNL     1      -7.490  14.410  69.552  1.00  0.00    -0.083 OA 
HETATM    7  C   UNL     1      -6.023  15.069  71.446  1.00  0.00     0.314 C  
HETATM    8  C   UNL     1      -5.231  14.169  72.389  1.00  0.00    -0.229 C  
HETATM    9  C   UNL     1      -7.327  14.601  68.128  1.00  0.00    -0.125 C  
HETATM   10  O   UNL     1      -5.647  19.915  71.415  1.00  0.00    -0.300 OA 
HETATM   11  C   UNL     1      -5.187  12.779  71.776  1.00  0.00    -0.029 C  
HETATM   12  C   UNL     1      -7.764  16.029  67.648  1.00  0.00    -0.165 C  
HETATM   13  C   UNL     1      -5.923  12.827  70.450  1.00  0.00    -0.104 C  
HETATM   14  C   UNL     1      -6.270  19.997  70.387  1.00  0.00    -0.333 C  
HETATM   15  C   UNL     1      -5.618  20.266  69.083  1.00  0.00    -0.311 C  
HETATM   16  C   UNL     1      -9.000  16.284  66.720  1.00  0.00    -0.259 C  
HETATM   17  C   UNL     1      -8.182  16.784  68.903  1.00  0.00    -0.224 C  
HETATM   18  C   UNL     1      -8.901  17.689  66.028  1.00  0.00    -0.013 C  
HETATM   19  C   UNL     1      -8.755  20.898  67.181  1.00  0.00    -0.124 C  
HETATM   20  C   UNL     1      -7.747  18.674  66.450  1.00  0.00    -0.268 C  
HETATM   21  O   UNL     1     -10.168  18.319  65.923  1.00  0.00    -0.541 OA 
HETATM   22  C   UNL     1      -7.775  19.802  67.698  1.00  0.00    -0.317 C  
HETATM   23  H   UNL     1     -10.108  19.170  65.503  1.00  0.00     0.000 HD 
HETATM   24  C   UNL     1      -6.430  17.877  66.266  1.00  0.00    -0.279 C  
HETATM   25  C   UNL     1      -8.361  19.666  69.136  1.00  0.00    -0.070 C  
HETATM   26  C   UNL     1      -7.720  19.792  70.314  1.00  0.00     0.843 C  
HETATM   27  F   UNL     1      -7.706  19.508  65.299  1.00  0.00    -0.163 F  
HETATM   28  C   UNL     1      -5.127  18.642  66.543  1.00  0.00    -0.150 C  
HETATM   29  C   UNL     1      -5.379  20.141  66.700  1.00  0.00    -0.182 C  
HETATM   30  C   UNL     1      -6.277  20.222  67.901  1.00  0.00    -0.276 C  
ENDROOT
BRANCH   9  31
HETATM   31  C   UNL     1      -8.084  13.509  67.357  1.00  0.00    -0.176 C  
HETATM   32  O   UNL     1      -9.308  13.498  67.340  1.00  0.00    -0.211 OA 
BRANCH  31  33
HETATM   33  C   UNL     1      -7.245  12.390  66.749  1.00  0.00     0.237 C  
BRANCH  33  34
HETATM   34  O   UNL     1      -7.978  11.162  66.625  1.00  0.00    -0.149 OA 
BRANCH  34  35
HETATM   35  C   UNL     1      -8.104  10.472  67.787  1.00  0.00    -0.106 C  
HETATM   36  O   UNL     1      -9.079  10.490  68.516  1.00  0.00    -0.140 OA 
HETATM   37  C   UNL     1      -6.893   9.603  68.021  1.00  0.00    -0.073 C  
ENDBRANCH  34  35
ENDBRANCH  33  34
ENDBRANCH  31  33
ENDBRANCH   9  31
TORSDOF 4
ENDMDL
MODEL       85
REMARK 921   NORMALIZED FREE ENERGY PREDICTED BY IDOCK:   -3.01 KCAL/MOL
REMARK 922        TOTAL FREE ENERGY PREDICTED BY IDOCK:   -4.28 KCAL/MOL
REMARK 923 INTER-LIGAND FREE ENERGY PREDICTED BY IDOCK:   -3.99 KCAL/MOL
REMARK 924 INTRA-LIGAND FREE ENERGY PREDICTED BY IDOCK:   -0.29 KCAL/MOL
REMARK 927      BINDING AFFINITY PREDICTED BY RF-SCORE:    0.00 PKD
ROOT
HETATM    1  C   UNL     1      -7.191   9.535  68.314  1.00  0.00    -0.076 C  
HETATM    2  C   UNL     1      -6.683  10.198  67.056  1.00  0.00    -0.078 C  
HETATM    3  C   UNL     1      -7.726  11.235  66.724  1.00  0.00    -0.155 C  
HETATM    4  O   UNL     1      -8.276  10.815  65.478  1.00  0.00    -0.159 OA 
HETATM    5  C   UNL     1      -9.634  11.188  65.543  1.00  0.00    -0.226 C  
HETATM    6  O   UNL     1     -10.051  11.199  66.913  1.00  0.00    -0.203 OA 
HETATM    7  C   UNL     1     -10.439  10.243  64.653  1.00  0.00     0.133 C  
HETATM    8  C   UNL     1     -10.678  10.982  63.339  1.00  0.00    -0.175 C  
HETATM    9  C   UNL     1      -8.870  11.186  67.747  1.00  0.00    -0.135 C  
HETATM   10  O   UNL     1      -9.824   5.430  64.950  1.00  0.00     0.363 OA 
HETATM   11  C   UNL     1     -10.290  12.436  63.549  1.00  0.00    -0.397 C  
HETATM   12  C   UNL     1      -8.702   9.851  68.553  1.00  0.00    -0.121 C  
HETATM   13  C   UNL     1      -9.790  12.588  64.972  1.00  0.00    -0.111 C  
HETATM   14  C   UNL     1      -9.467   5.506  66.099  1.00  0.00    -0.151 C  
HETATM   15  C   UNL     1      -8.045   5.382  66.499  1.00  0.00    -0.105 C  
HETATM   16  C   UNL     1      -8.815   9.767  70.113  1.00  0.00    -0.226 C  
HETATM   17  C   UNL     1      -9.861   8.957  68.129  1.00  0.00    -0.193 C  
HETATM   18  C   UNL     1      -8.135   8.460  70.654  1.00  0.00    -0.114 C  
HETATM   19  C   UNL     1      -8.670   5.126  70.159  1.00  0.00    -0.128 C  
HETATM   20  C   UNL     1      -7.613   7.384  69.630  1.00  0.00    -0.095 C  
HETATM   21  O   UNL     1      -8.854   7.899  71.742  1.00  0.00    -0.114 OA 
HETATM   22  C   UNL     1      -8.480   6.106  68.962  1.00  0.00    -0.118 C  
HETATM   23  H   UNL     1      -8.442   7.108  72.070  1.00  0.00     0.000 HD 
HETATM   24  C   UNL     1      -6.657   8.145  68.676  1.00  0.00    -0.058 C  
HETATM   25  C   UNL     1      -9.949   6.079  68.441  1.00  0.00    -0.173 C  
HETATM   26  C   UNL     1     -10.392   5.776  67.205  1.00  0.00    -0.284 C  
HETATM   27  F   UNL     1      -6.671   6.705  70.450  1.00  0.00    -0.049 F  
HETATM   28  C   UNL     1      -5.944   7.300  67.610  1.00  0.00    -0.034 C  
HETATM   29  C   UNL     1      -6.122   5.805  67.868  1.00  0.00    -0.022 C  
HETATM   30  C   UNL     1      -7.607   5.605  67.760  1.00  0.00    -0.089 C  
ENDROOT
BRANCH   9  31
HETATM   31  C   UNL     1      -8.876  12.398  68.691  1.00  0.00     0.038 C  
HETATM   32  O   UNL     1      -7.847  12.750  69.255  1.00  0.00     0.287 OA 
BRANCH  31  33
HETATM   33  C   UNL     1     -10.231  13.035  68.984  1.00  0.00     0.119 C  
BRANCH  33  34
HETATM   34  O   UNL     1     -11.275  12.059  69.116  1.00  0.00    -0.234 OA 
BRANCH  34  35
HETATM   35  C   UNL     1     -12.177  12.340  70.091  1.00  0.00    -0.226 C  
HETATM   36  O   UNL     1     -12.799  11.515  70.734  1.00  0.00    -0.245 OA 
HETATM   37  C   UNL     1     -12.248  13.827  70.334  1.00  0.00    -0.433 C  
ENDBRANCH  34  35
ENDBRANCH  33  34
ENDBRANCH  31  33
ENDBRANCH   9  31
TORSDOF 4
ENDMDL
MODEL       86
REMARK 921   NORMALIZED FREE ENERGY PREDICTED BY IDOCK:   -2.91 KCAL/MOL
REMARK 922        TOTAL FREE ENERGY PREDICTED BY IDOCK:   -4.16 KCAL/MOL
REMARK 923 INTER-LIGAND FREE ENERGY PREDICTED BY IDOCK:   -3.38 KCAL/MOL
REMARK 924 INTRA-LIGAND FREE ENERGY PREDICTED BY IDOCK:   -0.77 KCAL/MOL
REMARK 927      BINDING AFFINITY PREDICTED BY RF-SCORE:    0.00 PKD
ROOT
HETATM    1  C   UNL     1      -7.263   8.614  67.014  1.00  0.00    -0.076 C  
HETATM    2  C   UNL     1      -6.051   7.733  67.201  1.00  0.00    -0.052 C  
HETATM    3  C   UNL     1      -6.356   6.491  66.402  1.00  0.00    -0.042 C  
HETATM    4  O   UNL     1      -6.432   5.444  67.366  1.00  0.00    -0.048 OA 
HETATM    5  C   UNL     1      -7.422   4.572  66.870  1.00  0.00    -0.082 C  
HETATM    6  O   UNL     1      -8.346   5.320  66.070  1.00  0.00    -0.113 OA 
HETATM    7  C   UNL     1      -8.064   3.845  68.049  1.00  0.00    -0.088 C  
HETATM    8  C   UNL     1      -7.408   2.470  68.121  1.00  0.00    -0.048 C  
HETATM    9  C   UNL     1      -7.746   6.598  65.760  1.00  0.00    -0.092 C  
HETATM   10  O   UNL     1      -9.563   6.308  71.963  1.00  0.00    -0.153 OA 
HETATM   11  C   UNL     1      -6.616   2.267  66.840  1.00  0.00    -0.039 C  
HETATM   12  C   UNL     1      -8.474   7.802  66.453  1.00  0.00    -0.136 C  
HETATM   13  C   UNL     1      -6.759   3.519  65.996  1.00  0.00    -0.041 C  
HETATM   14  C   UNL     1      -9.735   7.310  71.316  1.00  0.00    -0.166 C  
HETATM   15  C   UNL     1      -8.795   8.456  71.361  1.00  0.00    -0.230 C  
HETATM   16  C   UNL     1      -9.268   8.898  65.663  1.00  0.00    -0.268 C  
HETATM   17  C   UNL     1      -9.584   7.190  67.297  1.00  0.00    -0.179 C  
HETATM   18  C   UNL     1      -9.454  10.191  66.533  1.00  0.00    -0.169 C  
HETATM   19  C   UNL     1     -10.975  10.845  69.517  1.00  0.00    -0.306 C  
HETATM   20  C   UNL     1      -9.008  10.173  68.043  1.00  0.00    -0.125 C  
HETATM   21  O   UNL     1     -10.726  10.788  66.330  1.00  0.00    -0.220 OA 
HETATM   22  C   UNL     1      -9.926   9.702  69.373  1.00  0.00    -0.207 C  
HETATM   23  H   UNL     1     -10.839  11.572  66.856  1.00  0.00     0.000 HD 
HETATM   24  C   UNL     1      -7.524   9.726  68.034  1.00  0.00    -0.082 C  
HETATM   25  C   UNL     1     -10.910   8.501  69.514  1.00  0.00    -0.134 C  
HETATM   26  C   UNL     1     -10.859   7.478  70.388  1.00  0.00    -0.255 C  
HETATM   27  F   UNL     1      -8.856  11.568  68.268  1.00  0.00    -0.140 F  
HETATM   28  C   UNL     1      -6.813   9.696  69.395  1.00  0.00    -0.054 C  
HETATM   29  C   UNL     1      -7.651  10.371  70.480  1.00  0.00     0.613 C  
HETATM   30  C   UNL     1      -8.893   9.528  70.540  1.00  0.00    -0.253 C  
ENDROOT
BRANCH   9  31
HETATM   31  C   UNL     1      -7.684   6.798  64.238  1.00  0.00    -0.109 C  
HETATM   32  O   UNL     1      -6.915   7.617  63.751  1.00  0.00    -0.056 OA 
BRANCH  31  33
HETATM   33  C   UNL     1      -8.709   6.037  63.403  1.00  0.00     0.382 C  
BRANCH  33  34
HETATM   34  O   UNL     1      -8.128   4.923  62.709  1.00  0.00    -0.074 OA 
BRANCH  34  35
HETATM   35  C   UNL     1      -8.700   3.727  63.002  1.00  0.00    -0.097 C  
HETATM   36  O   UNL     1      -8.141   2.647  62.952  1.00  0.00    -0.068 OA 
HETATM   37  C   UNL     1     -10.117   3.922  63.483  1.00  0.00    -0.176 C  
ENDBRANCH  34  35
ENDBRANCH  33  34
ENDBRANCH  31  33
ENDBRANCH   9  31
TORSDOF 4
ENDMDL
MODEL       87
REMARK 921   NORMALIZED FREE ENERGY PREDICTED BY IDOCK:   -2.62 KCAL/MOL
REMARK 922        TOTAL FREE ENERGY PREDICTED BY IDOCK:   -3.80 KCAL/MOL
REMARK 923 INTER-LIGAND FREE ENERGY PREDICTED BY IDOCK:   -4.74 KCAL/MOL
REMARK 924 INTRA-LIGAND FREE ENERGY PREDICTED BY IDOCK:    0.94 KCAL/MOL
REMARK 927      BINDING AFFINITY PREDICTED BY RF-SCORE:    0.00 PKD
ROOT
HETATM    1  C   UNL     1      -6.760   9.936  67.783  1.00  0.00    -0.072 C  
HETATM    2  C   UNL     1      -6.690  10.246  66.307  1.00  0.00    -0.105 C  
HETATM    3  C   UNL     1      -7.596  11.438  66.126  1.00  0.00     0.104 C  
HETATM    4  O   UNL     1      -8.654  10.970  65.293  1.00  0.00    -0.151 OA 
HETATM    5  C   UNL     1      -9.796  11.666  65.742  1.00  0.00    -0.239 C  
HETATM    6  O   UNL     1      -9.628  11.996  67.126  1.00  0.00    -0.187 OA 
HETATM    7  C   UNL     1     -11.029  10.815  65.448  1.00  0.00     0.040 C  
HETATM    8  C   UNL     1     -11.645  11.370  64.167  1.00  0.00    -0.114 C  
HETATM    9  C   UNL     1      -8.233  11.832  67.466  1.00  0.00    -0.152 C  
HETATM   10  O   UNL     1     -11.139   6.107  66.656  1.00  0.00    -0.284 OA 
HETATM   11  C   UNL     1     -10.975  12.700  63.870  1.00  0.00    -0.468 C  
HETATM   12  C   UNL     1      -7.980  10.642  68.456  1.00  0.00    -0.122 C  
HETATM   13  C   UNL     1      -9.934  12.953  64.944  1.00  0.00    -0.151 C  
HETATM   14  C   UNL     1     -10.349   6.278  67.550  1.00  0.00    -0.200 C  
HETATM   15  C   UNL     1      -8.926   5.878  67.440  1.00  0.00    -0.108 C  
HETATM   16  C   UNL     1      -7.478  10.838  69.927  1.00  0.00     0.060 C  
HETATM   17  C   UNL     1      -9.340  10.000  68.696  1.00  0.00    -0.156 C  
HETATM   18  C   UNL     1      -6.861   9.509  70.490  1.00  0.00    -0.112 C  
HETATM   19  C   UNL     1      -8.083   6.369  71.033  1.00  0.00    -0.121 C  
HETATM   20  C   UNL     1      -6.970   8.189  69.639  1.00  0.00    -0.049 C  
HETATM   21  O   UNL     1      -7.172   9.320  71.863  1.00  0.00    -0.326 OA 
HETATM   22  C   UNL     1      -8.226   7.070  69.648  1.00  0.00    -0.131 C  
HETATM   23  H   UNL     1      -6.799   8.516  72.204  1.00  0.00     0.000 HD 
HETATM   24  C   UNL     1      -6.360   8.534  68.256  1.00  0.00    -0.055 C  
HETATM   25  C   UNL     1      -9.765   7.316  69.701  1.00  0.00    -0.159 C  
HETATM   26  C   UNL     1     -10.703   6.936  68.813  1.00  0.00    -0.255 C  
HETATM   27  F   UNL     1      -5.905   7.442  70.211  1.00  0.00    -0.023 F  
HETATM   28  C   UNL     1      -6.274   7.382  67.243  1.00  0.00    -0.051 C  
HETATM   29  C   UNL     1      -6.577   6.035  67.899  1.00  0.00    -0.056 C  
HETATM   30  C   UNL     1      -7.994   6.186  68.372  1.00  0.00    -0.108 C  
ENDROOT
BRANCH   9  31
HETATM   31  C   UNL     1      -7.667  13.144  68.031  1.00  0.00    -0.146 C  
HETATM   32  O   UNL     1      -7.928  14.213  67.493  1.00  0.00    -0.162 OA 
BRANCH  31  33
HETATM   33  C   UNL     1      -6.678  13.025  69.185  1.00  0.00    -0.087 C  
BRANCH  33  34
HETATM   34  O   UNL     1      -6.610  14.225  69.971  1.00  0.00    -0.142 OA 
BRANCH  34  35
HETATM   35  C   UNL     1      -5.668  14.195  70.948  1.00  0.00    -0.202 C  
HETATM   36  O   UNL     1      -5.212  13.189  71.457  1.00  0.00    -0.167 OA 
HETATM   37  C   UNL     1      -5.194  15.592  71.270  1.00  0.00    -0.083 C  
ENDBRANCH  34  35
ENDBRANCH  33  34
ENDBRANCH  31  33
ENDBRANCH   9  31
TORSDOF 4
ENDMDL
MODEL       88
REMARK 921   NORMALIZED FREE ENERGY PREDICTED BY IDOCK:   -2.42 KCAL/MOL
REMARK 922        TOTAL FREE ENERGY PREDICTED BY IDOCK:   -3.55 KCAL/MOL
REMARK 923 INTER-LIGAND FREE ENERGY PREDICTED BY IDOCK:   -3.11 KCAL/MOL
REMARK 924 INTRA-LIGAND FREE ENERGY PREDICTED BY IDOCK:   -0.44 KCAL/MOL
REMARK 927      BINDING AFFINITY PREDICTED BY RF-SCORE:    0.00 PKD
ROOT
HETATM    1  C   UNL     1      -8.676   8.718  67.918  1.00  0.00    -0.136 C  
HETATM    2  C   UNL     1      -7.538   7.790  68.270  1.00  0.00    -0.109 C  
HETATM    3  C   UNL     1      -7.736   7.482  69.732  1.00  0.00    -0.095 C  
HETATM    4  O   UNL     1      -6.595   8.038  70.381  1.00  0.00    -0.037 OA 
HETATM    5  C   UNL     1      -7.076   8.486  71.628  1.00  0.00    -0.094 C  
HETATM    6  O   UNL     1      -8.465   8.814  71.504  1.00  0.00    -0.171 OA 
HETATM    7  C   UNL     1      -6.201   9.646  72.098  1.00  0.00     0.376 C  
HETATM    8  C   UNL     1      -5.210   9.064  73.101  1.00  0.00    -0.076 C  
HETATM    9  C   UNL     1      -8.959   8.234  70.275  1.00  0.00    -0.142 C  
HETATM   10  O   UNL     1      -5.135  13.320  69.098  1.00  0.00    -0.073 OA 
HETATM   11  C   UNL     1      -5.674   7.660  73.449  1.00  0.00    -0.048 C  
HETATM   12  C   UNL     1      -9.342   9.312  69.200  1.00  0.00    -0.157 C  
HETATM   13  C   UNL     1      -6.927   7.366  72.646  1.00  0.00    -0.068 C  
HETATM   14  C   UNL     1      -6.145  13.147  68.464  1.00  0.00    -0.078 C  
HETATM   15  C   UNL     1      -6.146  12.494  67.133  1.00  0.00    -0.036 C  
HETATM   16  C   UNL     1     -10.812   9.564  68.721  1.00  0.00    -0.173 C  
HETATM   17  C   UNL     1      -9.002  10.661  69.819  1.00  0.00     0.275 C  
HETATM   18  C   UNL     1     -10.831  10.313  67.342  1.00  0.00    -0.277 C  
HETATM   19  C   UNL     1      -9.667  13.335  66.267  1.00  0.00    -0.274 C  
HETATM   20  C   UNL     1      -9.477  10.837  66.733  1.00  0.00    -0.173 C  
HETATM   21  O   UNL     1     -11.886  11.261  67.268  1.00  0.00    -0.562 OA 
HETATM   22  C   UNL     1      -8.742  12.325  67.011  1.00  0.00    -0.199 C  
HETATM   23  H   UNL     1     -11.897  11.714  66.432  1.00  0.00     0.000 HD 
HETATM   24  C   UNL     1      -8.541   9.603  66.675  1.00  0.00    -0.137 C  
HETATM   25  C   UNL     1      -8.601  13.121  68.344  1.00  0.00    -0.124 C  
HETATM   26  C   UNL     1      -7.473  13.522  68.962  1.00  0.00     0.046 C  
HETATM   27  F   UNL     1      -9.850  10.942  65.366  1.00  0.00    -0.239 F  
HETATM   28  C   UNL     1      -7.159   9.826  66.043  1.00  0.00    -0.101 C  
HETATM   29  C   UNL     1      -7.072  11.186  65.349  1.00  0.00     0.445 C  
HETATM   30  C   UNL     1      -7.279  12.165  66.469  1.00  0.00     0.367 C  
ENDROOT
BRANCH   9  31
HETATM   31  C   UNL     1     -10.147   7.306  70.567  1.00  0.00    -0.191 C  
HETATM   32  O   UNL     1     -11.138   7.732  71.147  1.00  0.00    -0.241 OA 
BRANCH  31  33
HETATM   33  C   UNL     1      -9.967   5.831  70.226  1.00  0.00    -0.198 C  
BRANCH  33  34
HETATM   34  O   UNL     1      -9.529   5.059  71.354  1.00  0.00    -0.144 OA 
BRANCH  34  35
HETATM   35  C   UNL     1      -8.412   4.324  71.123  1.00  0.00    -0.089 C  
HETATM   36  O   UNL     1      -7.422   4.304  71.831  1.00  0.00    -0.065 OA 
HETATM   37  C   UNL     1      -8.589   3.460  69.899  1.00  0.00    -0.109 C  
ENDBRANCH  34  35
ENDBRANCH  33  34
ENDBRANCH  31  33
ENDBRANCH   9  31
TORSDOF 4
ENDMDL
MODEL       89
REMARK 921   NORMALIZED FREE ENERGY PREDICTED BY IDOCK:   -2.30 KCAL/MOL
REMARK 922        TOTAL FREE ENERGY PREDICTED BY IDOCK:   -3.40 KCAL/MOL
REMARK 923 INTER-LIGAND FREE ENERGY PREDICTED BY IDOCK:   -3.54 KCAL/MOL
REMARK 924 INTRA-LIGAND FREE ENERGY PREDICTED BY IDOCK:    0.14 KCAL/MOL
REMARK 927      BINDING AFFINITY PREDICTED BY RF-SCORE:    0.00 PKD
ROOT
HETATM    1  C   UNL     1      -8.770   6.190  68.388  1.00  0.00    -0.115 C  
HETATM    2  C   UNL     1      -9.336   7.580  68.556  1.00  0.00    -0.142 C  
HETATM    3  C   UNL     1      -8.218   8.500  68.134  1.00  0.00    -0.120 C  
HETATM    4  O   UNL     1      -7.875   9.224  69.313  1.00  0.00    -0.080 OA 
HETATM    5  C   UNL     1      -6.483   9.424  69.217  1.00  0.00    -0.044 C  
HETATM    6  O   UNL     1      -5.910   8.364  68.443  1.00  0.00    -0.039 OA 
HETATM    7  C   UNL     1      -5.912   9.547  70.628  1.00  0.00    -0.066 C  
HETATM    8  C   UNL     1      -5.739  11.038  70.899  1.00  0.00    -0.051 C  
HETATM    9  C   UNL     1      -6.977   7.686  67.742  1.00  0.00    -0.077 C  
HETATM   10  O   UNL     1      -7.080   6.314  74.065  1.00  0.00    -0.086 OA 
HETATM   11  C   UNL     1      -5.916  11.772  69.580  1.00  0.00    -0.112 C  
HETATM   12  C   UNL     1      -7.214   6.222  68.255  1.00  0.00    -0.085 C  
HETATM   13  C   UNL     1      -6.223  10.744  68.508  1.00  0.00    -0.046 C  
HETATM   14  C   UNL     1      -7.288   5.457  73.244  1.00  0.00    -0.095 C  
HETATM   15  C   UNL     1      -8.657   5.045  72.854  1.00  0.00    -0.118 C  
HETATM   16  C   UNL     1      -6.930   4.949  67.387  1.00  0.00    -0.061 C  
HETATM   17  C   UNL     1      -6.233   6.016  69.402  1.00  0.00    -0.030 C  
HETATM   18  C   UNL     1      -7.699   3.703  67.952  1.00  0.00    -0.069 C  
HETATM   19  C   UNL     1      -7.644   2.027  70.924  1.00  0.00    -0.032 C  
HETATM   20  C   UNL     1      -8.467   3.829  69.320  1.00  0.00    -0.068 C  
HETATM   21  O   UNL     1      -6.932   2.513  67.844  1.00  0.00    -0.046 OA 
HETATM   22  C   UNL     1      -7.850   3.571  70.864  1.00  0.00    -0.047 C  
HETATM   23  H   UNL     1      -7.398   1.759  68.186  1.00  0.00     0.000 HD 
HETATM   24  C   UNL     1      -9.426   5.035  69.151  1.00  0.00    -0.196 C  
HETATM   25  C   UNL     1      -6.467   3.984  71.454  1.00  0.00    -0.015 C  
HETATM   26  C   UNL     1      -6.214   4.771  72.518  1.00  0.00    -0.026 C  
HETATM   27  F   UNL     1      -9.383   2.751  69.185  1.00  0.00    -0.176 F  
HETATM   28  C   UNL     1     -10.359   5.335  70.334  1.00  0.00    -0.345 C  
HETATM   29  C   UNL     1     -10.339   4.206  71.364  1.00  0.00     0.017 C  
HETATM   30  C   UNL     1      -8.914   4.189  71.837  1.00  0.00    -0.154 C  
ENDROOT
BRANCH   9  31
HETATM   31  C   UNL     1      -6.710   7.699  66.230  1.00  0.00    -0.057 C  
HETATM   32  O   UNL     1      -6.133   6.761  65.694  1.00  0.00    -0.033 OA 
BRANCH  31  33
HETATM   33  C   UNL     1      -7.072   8.976  65.479  1.00  0.00    -0.081 C  
BRANCH  33  34
HETATM   34  O   UNL     1      -8.066   8.752  64.467  1.00  0.00    -0.140 OA 
BRANCH  34  35
HETATM   35  C   UNL     1      -8.906   9.800  64.274  1.00  0.00    -0.228 C  
HETATM   36  O   UNL     1      -9.281  10.572  65.137  1.00  0.00    -0.180 OA 
HETATM   37  C   UNL     1      -9.257   9.935  62.812  1.00  0.00    -0.292 C  
ENDBRANCH  34  35
ENDBRANCH  33  34
ENDBRANCH  31  33
ENDBRANCH   9  31
TORSDOF 4
ENDMDL
MODEL       90
REMARK 921   NORMALIZED FREE ENERGY PREDICTED BY IDOCK:   -2.15 KCAL/MOL
REMARK 922        TOTAL FREE ENERGY PREDICTED BY IDOCK:   -3.21 KCAL/MOL
REMARK 923 INTER-LIGAND FREE ENERGY PREDICTED BY IDOCK:   -3.05 KCAL/MOL
REMARK 924 INTRA-LIGAND FREE ENERGY PREDICTED BY IDOCK:   -0.16 KCAL/MOL
REMARK 927      BINDING AFFINITY PREDICTED BY RF-SCORE:    0.00 PKD
ROOT
HETATM    1  C   UNL     1      -8.115   6.095  68.313  1.00  0.00    -0.111 C  
HETATM    2  C   UNL     1      -6.963   5.447  69.045  1.00  0.00    -0.056 C  
HETATM    3  C   UNL     1      -7.339   5.538  70.502  1.00  0.00    -0.075 C  
HETATM    4  O   UNL     1      -6.353   6.386  71.083  1.00  0.00    -0.045 OA 
HETATM    5  C   UNL     1      -7.042   7.102  72.083  1.00  0.00    -0.068 C  
HETATM    6  O   UNL     1      -8.422   7.211  71.715  1.00  0.00    -0.113 OA 
HETATM    7  C   UNL     1      -6.343   8.445  72.288  1.00  0.00    -0.070 C  
HETATM    8  C   UNL     1      -5.459   8.290  73.521  1.00  0.00    -0.056 C  
HETATM    9  C   UNL     1      -8.686   6.256  70.661  1.00  0.00    -0.140 C  
HETATM   10  O   UNL     1      -5.179  11.239  68.484  1.00  0.00    -0.044 OA 
HETATM   11  C   UNL     1      -5.847   6.993  74.210  1.00  0.00    -0.069 C  
HETATM   12  C   UNL     1      -9.004   6.936  69.284  1.00  0.00    -0.137 C  
HETATM   13  C   UNL     1      -6.944   6.337  73.394  1.00  0.00    -0.079 C  
HETATM   14  C   UNL     1      -6.071  10.775  67.820  1.00  0.00    -0.047 C  
HETATM   15  C   UNL     1      -5.829   9.782  66.747  1.00  0.00    -0.054 C  
HETATM   16  C   UNL     1     -10.407   6.864  68.592  1.00  0.00    -0.200 C  
HETATM   17  C   UNL     1      -8.870   8.436  69.516  1.00  0.00    -0.145 C  
HETATM   18  C   UNL     1     -10.294   7.191  67.061  1.00  0.00    -0.298 C  
HETATM   19  C   UNL     1      -9.251   9.913  65.287  1.00  0.00    -0.280 C  
HETATM   20  C   UNL     1      -8.917   7.687  66.480  1.00  0.00    -0.158 C  
HETATM   21  O   UNL     1     -11.404   7.945  66.596  1.00  0.00     0.203 OA 
HETATM   22  C   UNL     1      -8.358   9.271  66.391  1.00  0.00    -0.120 C  
HETATM   23  H   UNL     1     -11.336   8.143  65.669  1.00  0.00     0.000 HD 
HETATM   24  C   UNL     1      -7.881   6.609  66.889  1.00  0.00    -0.108 C  
HETATM   25  C   UNL     1      -8.474  10.417  67.441  1.00  0.00    -0.121 C  
HETATM   26  C   UNL     1      -7.484  11.108  68.036  1.00  0.00    -0.094 C  
HETATM   27  F   UNL     1      -9.100   7.360  65.109  1.00  0.00     0.032 F  
HETATM   28  C   UNL     1      -6.447   6.814  66.377  1.00  0.00    -0.047 C  
HETATM   29  C   UNL     1      -6.379   7.926  65.331  1.00  0.00    -0.041 C  
HETATM   30  C   UNL     1      -6.824   9.145  66.086  1.00  0.00    -0.085 C  
ENDROOT
BRANCH   9  31
HETATM   31  C   UNL     1      -9.821   5.308  71.078  1.00  0.00    -0.191 C  
HETATM   32  O   UNL     1     -10.200   4.424  70.320  1.00  0.00    -0.180 OA 
BRANCH  31  33
HETATM   33  C   UNL     1     -10.522   5.613  72.398  1.00  0.00    -0.211 C  
BRANCH  33  34
HETATM   34  O   UNL     1     -11.319   6.805  72.330  1.00  0.00    -0.257 OA 
BRANCH  34  35
HETATM   35  C   UNL     1     -12.519   6.636  71.717  1.00  0.00    -0.311 C  
HETATM   36  O   UNL     1     -12.731   6.788  70.529  1.00  0.00    -0.137 OA 
HETATM   37  C   UNL     1     -13.553   6.148  72.703  1.00  0.00     0.865 C  
ENDBRANCH  34  35
ENDBRANCH  33  34
ENDBRANCH  31  33
ENDBRANCH   9  31
TORSDOF 4
ENDMDL
MODEL       91
REMARK 921   NORMALIZED FREE ENERGY PREDICTED BY IDOCK:   -2.06 KCAL/MOL
REMARK 922        TOTAL FREE ENERGY PREDICTED BY IDOCK:   -3.11 KCAL/MOL
REMARK 923 INTER-LIGAND FREE ENERGY PREDICTED BY IDOCK:   -3.20 KCAL/MOL
REMARK 924 INTRA-LIGAND FREE ENERGY PREDICTED BY IDOCK:    0.08 KCAL/MOL
REMARK 927      BINDING AFFINITY PREDICTED BY RF-SCORE:    0.00 PKD
ROOT
HETATM    1  C   UNL     1     -11.164   8.668  68.595  1.00  0.00     0.439 C  
HETATM    2  C   UNL     1     -10.827   7.515  67.681  1.00  0.00    -0.197 C  
HETATM    3  C   UNL     1      -9.966   6.604  68.519  1.00  0.00    -0.150 C  
HETATM    4  O   UNL     1      -8.694   6.609  67.877  1.00  0.00    -0.118 OA 
HETATM    5  C   UNL     1      -7.762   6.503  68.929  1.00  0.00    -0.109 C  
HETATM    6  O   UNL     1      -8.330   7.068  70.117  1.00  0.00    -0.133 OA 
HETATM    7  C   UNL     1      -6.456   7.161  68.488  1.00  0.00    -0.040 C  
HETATM    8  C   UNL     1      -5.530   6.033  68.043  1.00  0.00    -0.004 C  
HETATM    9  C   UNL     1      -9.755   7.206  69.915  1.00  0.00    -0.170 C  
HETATM   10  O   UNL     1      -6.465  11.581  66.464  1.00  0.00    -0.121 OA 
HETATM   11  C   UNL     1      -6.152   4.720  68.488  1.00  0.00    -0.030 C  
HETATM   12  C   UNL     1     -10.221   8.702  69.840  1.00  0.00    -0.206 C  
HETATM   13  C   UNL     1      -7.465   5.033  69.179  1.00  0.00    -0.061 C  
HETATM   14  C   UNL     1      -7.483  11.883  67.034  1.00  0.00    -0.126 C  
HETATM   15  C   UNL     1      -8.796  11.925  66.346  1.00  0.00    -0.152 C  
HETATM   16  C   UNL     1     -11.128   9.378  70.923  1.00  0.00    -0.389 C  
HETATM   17  C   UNL     1      -8.955   9.542  69.956  1.00  0.00    -0.249 C  
HETATM   18  C   UNL     1     -11.814  10.669  70.354  1.00  0.00    -0.349 C  
HETATM   19  C   UNL     1     -10.645  13.619  69.097  1.00  0.00    -0.082 C  
HETATM   20  C   UNL     1     -11.405  11.192  68.927  1.00  0.00    -0.278 C  
HETATM   21  O   UNL     1     -11.896  11.699  71.328  1.00  0.00    -0.096 OA 
HETATM   22  C   UNL     1     -10.149  12.247  68.547  1.00  0.00    -0.192 C  
HETATM   23  H   UNL     1     -12.311  12.482  70.983  1.00  0.00     0.000 HD 
HETATM   24  C   UNL     1     -11.613   9.992  67.967  1.00  0.00     0.361 C  
HETATM   25  C   UNL     1      -8.703  12.306  69.127  1.00  0.00     0.618 C  
HETATM   26  C   UNL     1      -7.534  12.192  68.467  1.00  0.00    -0.117 C  
HETATM   27  F   UNL     1     -12.551  11.973  68.615  1.00  0.00    -0.051 F  
HETATM   28  C   UNL     1     -11.352  10.258  66.477  1.00  0.00     0.639 C  
HETATM   29  C   UNL     1     -11.183  11.751  66.195  1.00  0.00    -0.363 C  
HETATM   30  C   UNL     1      -9.967  12.123  66.994  1.00  0.00    -0.213 C  
ENDROOT
BRANCH   9  31
HETATM   31  C   UNL     1     -10.521   6.450  71.012  1.00  0.00    -0.223 C  
HETATM   32  O   UNL     1     -11.708   6.676  71.207  1.00  0.00    -0.303 OA 
BRANCH  31  33
HETATM   33  C   UNL     1      -9.703   5.527  71.909  1.00  0.00    -0.162 C  
BRANCH  33  34
HETATM   34  O   UNL     1     -10.384   4.295  72.190  1.00  0.00    -0.181 OA 
BRANCH  34  35
HETATM   35  C   UNL     1     -11.113   4.313  73.336  1.00  0.00    -0.280 C  
HETATM   36  O   UNL     1     -12.323   4.213  73.402  1.00  0.00     0.175 OA 
HETATM   37  C   UNL     1     -10.206   4.394  74.539  1.00  0.00    -0.283 C  
ENDBRANCH  34  35
ENDBRANCH  33  34
ENDBRANCH  31  33
ENDBRANCH   9  31
TORSDOF 4
ENDMDL
MODEL       92
REMARK 921   NORMALIZED FREE ENERGY PREDICTED BY IDOCK:   -1.05 KCAL/MOL
REMARK 922        TOTAL FREE ENERGY PREDICTED BY IDOCK:   -1.87 KCAL/MOL
REMARK 923 INTER-LIGAND FREE ENERGY PREDICTED BY IDOCK:   -2.16 KCAL/MOL
REMARK 924 INTRA-LIGAND FREE ENERGY PREDICTED BY IDOCK:    0.29 KCAL/MOL
REMARK 927      BINDING AFFINITY PREDICTED BY RF-SCORE:    0.00 PKD
ROOT
HETATM    1  C   UNL     1     -10.000  14.718  67.989  1.00  0.00    -0.218 C  
HETATM    2  C   UNL     1     -10.835  15.874  68.486  1.00  0.00    -0.298 C  
HETATM    3  C   UNL     1     -11.183  16.655  67.243  1.00  0.00     0.177 C  
HETATM    4  O   UNL     1     -10.544  17.917  67.413  1.00  0.00    -0.386 OA 
HETATM    5  C   UNL     1     -10.159  18.300  66.112  1.00  0.00    -0.346 C  
HETATM    6  O   UNL     1      -9.947  17.124  65.321  1.00  0.00    -0.423 OA 
HETATM    7  C   UNL     1      -8.937  19.210  66.216  1.00  0.00    -0.320 C  
HETATM    8  C   UNL     1      -9.450  20.642  66.090  1.00  0.00     0.056 C  
HETATM    9  C   UNL     1     -10.546  16.002  66.009  1.00  0.00    -0.316 C  
HETATM   10  O   UNL     1      -5.136  17.954  68.975  1.00  0.00    -0.164 OA 
HETATM   11  C   UNL     1     -10.893  20.577  65.623  1.00  0.00     0.452 C  
HETATM   12  C   UNL     1      -9.487  14.971  66.535  1.00  0.00    -0.306 C  
HETATM   13  C   UNL     1     -11.278  19.116  65.486  1.00  0.00     0.582 C  
HETATM   14  C   UNL     1      -5.383  16.781  68.850  1.00  0.00    -0.128 C  
HETATM   15  C   UNL     1      -6.012  15.982  69.928  1.00  0.00    -0.169 C  
HETATM   16  C   UNL     1      -9.352  13.514  65.975  1.00  0.00    -0.020 C  
HETATM   17  C   UNL     1      -8.125  15.549  66.176  1.00  0.00     0.542 C  
HETATM   18  C   UNL     1      -8.584  12.593  66.988  1.00  0.00    -0.181 C  
HETATM   19  C   UNL     1      -5.457  12.656  68.352  1.00  0.00    -0.058 C  
HETATM   20  C   UNL     1      -7.937  13.235  68.272  1.00  0.00    -0.144 C  
HETATM   21  O   UNL     1      -7.728  11.675  66.325  1.00  0.00    -0.371 OA 
HETATM   22  C   UNL     1      -6.397  13.897  68.416  1.00  0.00    -0.104 C  
HETATM   23  H   UNL     1      -7.263  11.117  66.939  1.00  0.00     0.000 HD 
HETATM   24  C   UNL     1      -9.087  13.994  68.983  1.00  0.00     0.155 C  
HETATM   25  C   UNL     1      -5.615  14.799  67.413  1.00  0.00     0.315 C  
HETATM   26  C   UNL     1      -5.131  16.040  67.609  1.00  0.00    -0.131 C  
HETATM   27  F   UNL     1      -7.841  12.082  69.097  1.00  0.00    -0.056 F  
HETATM   28  C   UNL     1      -8.737  14.660  70.322  1.00  0.00     1.283 C  
HETATM   29  C   UNL     1      -7.364  14.217  70.827  1.00  0.00     1.451 C  
HETATM   30  C   UNL     1      -6.425  14.704  69.761  1.00  0.00    -0.159 C  
ENDROOT
BRANCH   9  31
HETATM   31  C   UNL     1     -11.576  15.314  65.100  1.00  0.00    -0.192 C  
HETATM   32  O   UNL     1     -11.692  15.650  63.929  1.00  0.00    -0.367 OA 
BRANCH  31  33
HETATM   33  C   UNL     1     -12.515  14.311  65.763  1.00  0.00    -0.403 C  
BRANCH  33  34
HETATM   34  O   UNL     1     -12.074  12.955  65.594  1.00  0.00    -0.414 OA 
BRANCH  34  35
HETATM   35  C   UNL     1     -12.484  12.379  64.436  1.00  0.00    -0.433 C  
HETATM   36  O   UNL     1     -13.625  12.043  64.181  1.00  0.00    -0.519 OA 
HETATM   37  C   UNL     1     -11.337  12.279  63.459  1.00  0.00    -0.549 C  
ENDBRANCH  34  35
ENDBRANCH  33  34
ENDBRANCH  31  33
ENDBRANCH   9  31
TORSDOF 4
ENDMDL
MODEL       93
REMARK 921   NORMALIZED FREE ENERGY PREDICTED BY IDOCK:   -0.85 KCAL/MOL
REMARK 922        TOTAL FREE ENERGY PREDICTED BY IDOCK:   -1.62 KCAL/MOL
REMARK 923 INTER-LIGAND FREE ENERGY PREDICTED BY IDOCK:   -1.64 KCAL/MOL
REMARK 924 INTRA-LIGAND FREE ENERGY PREDICTED BY IDOCK:    0.03 KCAL/MOL
REMARK 927      BINDING AFFINITY PREDICTED BY RF-SCORE:    0.00 PKD
ROOT
HETATM    1  C   UNL     1      -9.090  12.884  69.202  1.00  0.00     0.708 C  
HETATM    2  C   UNL     1      -8.017  13.676  69.910  1.00  0.00     1.468 C  
HETATM    3  C   UNL     1      -8.169  15.080  69.383  1.00  0.00    -0.147 C  
HETATM    4  O   UNL     1      -6.957  15.341  68.680  1.00  0.00    -0.105 OA 
HETATM    5  C   UNL     1      -7.340  16.162  67.600  1.00  0.00    -0.142 C  
HETATM    6  O   UNL     1      -8.701  15.880  67.256  1.00  0.00    -0.175 OA 
HETATM    7  C   UNL     1      -6.350  15.951  66.456  1.00  0.00     1.072 C  
HETATM    8  C   UNL     1      -5.363  17.113  66.514  1.00  0.00    -0.172 C  
HETATM    9  C   UNL     1      -9.299  15.140  68.346  1.00  0.00    -0.197 C  
HETATM   10  O   UNL     1      -5.131  11.467  65.029  1.00  0.00    -0.195 OA 
HETATM   11  C   UNL     1      -5.924  18.149  67.474  1.00  0.00    -0.163 C  
HETATM   12  C   UNL     1      -9.644  13.658  67.963  1.00  0.00    -0.216 C  
HETATM   13  C   UNL     1      -7.234  17.618  68.025  1.00  0.00    -0.216 C  
HETATM   14  C   UNL     1      -6.181  11.017  65.412  1.00  0.00     0.188 C  
HETATM   15  C   UNL     1      -6.299  10.231  66.663  1.00  0.00    -0.074 C  
HETATM   16  C   UNL     1     -11.109  13.114  67.862  1.00  0.00    -0.288 C  
HETATM   17  C   UNL     1      -9.164  13.473  66.530  1.00  0.00    -0.187 C  
HETATM   18  C   UNL     1     -11.132  11.547  67.952  1.00  0.00    -0.256 C  
HETATM   19  C   UNL     1      -9.777   9.042  66.073  1.00  0.00    -0.339 C  
HETATM   20  C   UNL     1      -9.770  10.757  67.958  1.00  0.00    -0.162 C  
HETATM   21  O   UNL     1     -12.107  10.981  67.090  1.00  0.00     0.016 OA 
HETATM   22  C   UNL     1      -8.903  10.209  66.624  1.00  0.00    -0.145 C  
HETATM   23  H   UNL     1     -12.122  10.032  67.145  1.00  0.00     0.000 HD 
HETATM   24  C   UNL     1      -8.942  11.362  69.121  1.00  0.00     0.197 C  
HETATM   25  C   UNL     1      -8.633  10.922  65.264  1.00  0.00    -0.103 C  
HETATM   26  C   UNL     1      -7.448  11.238  64.707  1.00  0.00     1.053 C  
HETATM   27  F   UNL     1     -10.198   9.539  68.553  1.00  0.00    -0.182 F  
HETATM   28  C   UNL     1      -7.578  10.711  69.395  1.00  0.00    -0.135 C  
HETATM   29  C   UNL     1      -7.413   9.405  68.619  1.00  0.00    -0.079 C  
HETATM   30  C   UNL     1      -7.485   9.838  67.184  1.00  0.00    -0.088 C  
ENDROOT
BRANCH   9  31
HETATM   31  C   UNL     1     -10.544  15.876  68.864  1.00  0.00    -0.244 C  
HETATM   32  O   UNL     1     -10.856  16.966  68.402  1.00  0.00    -0.356 OA 
BRANCH  31  33
HETATM   33  C   UNL     1     -11.269  15.248  70.049  1.00  0.00    -0.287 C  
BRANCH  33  34
HETATM   34  O   UNL     1     -12.112  16.188  70.734  1.00  0.00    -0.321 OA 
BRANCH  34  35
HETATM   35  C   UNL     1     -12.478  15.799  71.982  1.00  0.00    -0.457 C  
HETATM   36  O   UNL     1     -12.303  16.440  73.000  1.00  0.00    -0.476 OA 
HETATM   37  C   UNL     1     -13.214  14.482  71.931  1.00  0.00    -0.440 C  
ENDBRANCH  34  35
ENDBRANCH  33  34
ENDBRANCH  31  33
ENDBRANCH   9  31
TORSDOF 4
ENDMDL
MODEL       94
REMARK 921   NORMALIZED FREE ENERGY PREDICTED BY IDOCK:   -0.66 KCAL/MOL
REMARK 922        TOTAL FREE ENERGY PREDICTED BY IDOCK:   -1.38 KCAL/MOL
REMARK 923 INTER-LIGAND FREE ENERGY PREDICTED BY IDOCK:   -1.51 KCAL/MOL
REMARK 924 INTRA-LIGAND FREE ENERGY PREDICTED BY IDOCK:    0.13 KCAL/MOL
REMARK 927      BINDING AFFINITY PREDICTED BY RF-SCORE:    0.00 PKD
ROOT
HETATM    1  C   UNL     1      -8.406  14.423  68.722  1.00  0.00    -0.126 C  
HETATM    2  C   UNL     1      -7.611  14.464  70.006  1.00  0.00     0.456 C  
HETATM    3  C   UNL     1      -6.582  13.373  69.851  1.00  0.00     0.081 C  
HETATM    4  O   UNL     1      -6.900  12.422  70.865  1.00  0.00     1.150 OA 
HETATM    5  C   UNL     1      -6.580  11.173  70.296  1.00  0.00     0.053 C  
HETATM    6  O   UNL     1      -6.711  11.259  68.872  1.00  0.00    -0.067 OA 
HETATM    7  C   UNL     1      -7.462  10.106  70.941  1.00  0.00     0.741 C  
HETATM    8  C   UNL     1      -6.612   9.426  72.010  1.00  0.00     0.304 C  
HETATM    9  C   UNL     1      -6.763  12.657  68.506  1.00  0.00    -0.089 C  
HETATM   10  O   UNL     1     -12.260  10.773  71.353  1.00  0.00    -0.338 OA 
HETATM   11  C   UNL     1      -5.172   9.867  71.805  1.00  0.00    -0.070 C  
HETATM   12  C   UNL     1      -8.162  13.091  67.944  1.00  0.00    -0.166 C  
HETATM   13  C   UNL     1      -5.138  10.832  70.636  1.00  0.00    -0.079 C  
HETATM   14  C   UNL     1     -12.280  11.508  70.398  1.00  0.00    -0.355 C  
HETATM   15  C   UNL     1     -12.395  12.980  70.531  1.00  0.00    -0.365 C  
HETATM   16  C   UNL     1      -8.396  13.529  66.458  1.00  0.00     0.426 C  
HETATM   17  C   UNL     1      -9.049  11.855  68.026  1.00  0.00    -0.189 C  
HETATM   18  C   UNL     1      -9.725  14.351  66.319  1.00  0.00    -0.310 C  
HETATM   19  C   UNL     1     -13.013  13.669  66.925  1.00  0.00     1.110 C  
HETATM   20  C   UNL     1     -10.683  14.481  67.561  1.00  0.00    -0.276 C  
HETATM   21  O   UNL     1     -10.408  14.054  65.111  1.00  0.00    -0.362 OA 
HETATM   22  C   UNL     1     -11.920  13.432  68.010  1.00  0.00    -0.357 C  
HETATM   23  H   UNL     1     -11.213  14.552  65.026  1.00  0.00     0.000 HD 
HETATM   24  C   UNL     1      -9.805  15.046  68.708  1.00  0.00    -0.233 C  
HETATM   25  C   UNL     1     -11.945  11.873  67.990  1.00  0.00    -0.204 C  
HETATM   26  C   UNL     1     -12.145  11.028  69.019  1.00  0.00    -0.285 C  
HETATM   27  F   UNL     1     -11.405  15.648  67.191  1.00  0.00    -0.310 F  
HETATM   28  C   UNL     1     -10.523  15.342  70.033  1.00  0.00    -0.266 C  
HETATM   29  C   UNL     1     -12.042  15.260  69.879  1.00  0.00    -0.375 C  
HETATM   30  C   UNL     1     -12.278  13.831  69.484  1.00  0.00    -0.344 C  
ENDROOT
BRANCH   9  31
HETATM   31  C   UNL     1      -5.646  12.983  67.503  1.00  0.00    -0.057 C  
HETATM   32  O   UNL     1      -5.227  14.128  67.393  1.00  0.00    -0.330 OA 
BRANCH  31  33
HETATM   33  C   UNL     1      -5.199  11.854  66.580  1.00  0.00     0.095 C  
BRANCH  33  34
HETATM   34  O   UNL     1      -5.951  10.648  66.789  1.00  0.00    -0.057 OA 
BRANCH  34  35
HETATM   35  C   UNL     1      -6.602  10.202  65.684  1.00  0.00    -0.112 C  
HETATM   36  O   UNL     1      -7.768  10.420  65.418  1.00  0.00    -0.144 OA 
HETATM   37  C   UNL     1      -5.654   9.456  64.777  1.00  0.00    -0.063 C  
ENDBRANCH  34  35
ENDBRANCH  33  34
ENDBRANCH  31  33
ENDBRANCH   9  31
TORSDOF 4
ENDMDL
MODEL       95
REMARK 921   NORMALIZED FREE ENERGY PREDICTED BY IDOCK:   -0.24 KCAL/MOL
REMARK 922        TOTAL FREE ENERGY PREDICTED BY IDOCK:   -0.86 KCAL/MOL
REMARK 923 INTER-LIGAND FREE ENERGY PREDICTED BY IDOCK:   -2.06 KCAL/MOL
REMARK 924 INTRA-LIGAND FREE ENERGY PREDICTED BY IDOCK:    1.19 KCAL/MOL
REMARK 927      BINDING AFFINITY PREDICTED BY RF-SCORE:    0.00 PKD
ROOT
HETATM    1  C   UNL     1      -8.122  11.371  66.879  1.00  0.00    -0.158 C  
HETATM    2  C   UNL     1      -6.747  11.978  66.735  1.00  0.00     0.042 C  
HETATM    3  C   UNL     1      -6.388  12.441  68.125  1.00  0.00    -0.065 C  
HETATM    4  O   UNL     1      -6.290  13.859  68.024  1.00  0.00    -0.111 OA 
HETATM    5  C   UNL     1      -6.754  14.338  69.267  1.00  0.00    -0.123 C  
HETATM    6  O   UNL     1      -7.683  13.395  69.815  1.00  0.00     0.710 OA 
HETATM    7  C   UNL     1      -7.332  15.737  69.062  1.00  0.00    -0.177 C  
HETATM    8  C   UNL     1      -6.252  16.722  69.500  1.00  0.00    -0.227 C  
HETATM    9  C   UNL     1      -7.539  12.148  69.098  1.00  0.00     0.175 C  
HETATM   10  O   UNL     1     -10.466  16.622  65.453  1.00  0.00    -0.571 OA 
HETATM   11  C   UNL     1      -5.175  15.935  70.227  1.00  0.00    -0.150 C  
HETATM   12  C   UNL     1      -8.793  11.795  68.224  1.00  0.00    -0.172 C  
HETATM   13  C   UNL     1      -5.574  14.472  70.216  1.00  0.00    -0.122 C  
HETATM   14  C   UNL     1     -10.843  15.477  65.446  1.00  0.00    -0.390 C  
HETATM   15  C   UNL     1     -10.424  14.509  64.405  1.00  0.00     0.201 C  
HETATM   16  C   UNL     1      -9.734  10.578  68.521  1.00  0.00    -0.170 C  
HETATM   17  C   UNL     1      -9.761  12.959  68.391  1.00  0.00    -0.186 C  
HETATM   18  C   UNL     1     -10.571  10.193  67.251  1.00  0.00    -0.261 C  
HETATM   19  C   UNL     1     -12.853  11.842  65.323  1.00  0.00     1.490 C  
HETATM   20  C   UNL     1     -10.500  11.114  65.976  1.00  0.00    -0.256 C  
HETATM   21  O   UNL     1     -11.892   9.797  67.586  1.00  0.00     0.129 OA 
HETATM   22  C   UNL     1     -11.454  12.457  65.632  1.00  0.00    -0.412 C  
HETATM   23  H   UNL     1     -12.399   9.564  66.816  1.00  0.00     0.000 HD 
HETATM   24  C   UNL     1      -8.994  11.229  65.627  1.00  0.00    -0.173 C  
HETATM   25  C   UNL     1     -11.936  13.592  66.585  1.00  0.00    -0.458 C  
HETATM   26  C   UNL     1     -11.711  14.917  66.487  1.00  0.00    -0.204 C  
HETATM   27  F   UNL     1     -10.924  10.189  64.984  1.00  0.00     0.016 F  
HETATM   28  C   UNL     1      -8.647  12.025  64.361  1.00  0.00     1.447 C  
HETATM   29  C   UNL     1      -9.894  12.338  63.535  1.00  0.00    -0.136 C  
HETATM   30  C   UNL     1     -10.720  13.189  64.456  1.00  0.00    -0.416 C  
ENDROOT
BRANCH   9  31
HETATM   31  C   UNL     1      -7.215  11.009  70.077  1.00  0.00     0.242 C  
HETATM   32  O   UNL     1      -6.171  11.020  70.716  1.00  0.00    -0.343 OA 
BRANCH  31  33
HETATM   33  C   UNL     1      -8.180   9.828  70.101  1.00  0.00    -0.179 C  
BRANCH  33  34
HETATM   34  O   UNL     1      -8.564   9.464  71.435  1.00  0.00    -0.292 OA 
BRANCH  34  35
HETATM   35  C   UNL     1      -9.558   8.541  71.494  1.00  0.00    -0.228 C  
HETATM   36  O   UNL     1     -10.080   8.006  70.534  1.00  0.00    -0.191 OA 
HETATM   37  C   UNL     1      -9.881   8.201  72.928  1.00  0.00    -0.339 C  
ENDBRANCH  34  35
ENDBRANCH  33  34
ENDBRANCH  31  33
ENDBRANCH   9  31
TORSDOF 4
ENDMDL
MODEL       96
REMARK 921   NORMALIZED FREE ENERGY PREDICTED BY IDOCK:   -0.24 KCAL/MOL
REMARK 922        TOTAL FREE ENERGY PREDICTED BY IDOCK:   -0.86 KCAL/MOL
REMARK 923 INTER-LIGAND FREE ENERGY PREDICTED BY IDOCK:   -1.96 KCAL/MOL
REMARK 924 INTRA-LIGAND FREE ENERGY PREDICTED BY IDOCK:    1.11 KCAL/MOL
REMARK 927      BINDING AFFINITY PREDICTED BY RF-SCORE:    0.00 PKD
ROOT
HETATM    1  C   UNL     1      -9.228  15.485  66.294  1.00  0.00    -0.364 C  
HETATM    2  C   UNL     1      -8.918  14.341  65.358  1.00  0.00     1.366 C  
HETATM    3  C   UNL     1      -9.906  13.266  65.732  1.00  0.00    -0.197 C  
HETATM    4  O   UNL     1      -9.110  12.193  66.227  1.00  0.00    -0.206 OA 
HETATM    5  C   UNL     1      -9.892  11.608  67.245  1.00  0.00    -0.187 C  
HETATM    6  O   UNL     1     -10.757  12.605  67.801  1.00  0.00    -0.213 OA 
HETATM    7  C   UNL     1      -8.956  10.956  68.261  1.00  0.00    -0.150 C  
HETATM    8  C   UNL     1      -8.927   9.467  67.932  1.00  0.00    -0.126 C  
HETATM    9  C   UNL     1     -10.787  13.734  66.898  1.00  0.00    -0.285 C  
HETATM   10  O   UNL     1      -5.136  13.387  70.031  1.00  0.00    -0.083 OA 
HETATM   11  C   UNL     1     -10.045   9.189  66.941  1.00  0.00    -0.328 C  
HETATM   12  C   UNL     1     -10.107  15.014  67.496  1.00  0.00    -0.228 C  
HETATM   13  C   UNL     1     -10.742  10.502  66.639  1.00  0.00    -0.222 C  
HETATM   14  C   UNL     1      -5.678  14.449  69.850  1.00  0.00    -0.110 C  
HETATM   15  C   UNL     1      -5.312  15.346  68.728  1.00  0.00    -0.094 C  
HETATM   16  C   UNL     1     -10.896  16.318  67.859  1.00  0.00    -0.330 C  
HETATM   17  C   UNL     1      -9.575  14.606  68.864  1.00  0.00    -0.184 C  
HETATM   18  C   UNL     1      -9.928  17.549  67.959  1.00  0.00    -0.310 C  
HETATM   19  C   UNL     1      -7.238  18.300  69.921  1.00  0.00     0.665 C  
HETATM   20  C   UNL     1      -8.374  17.315  67.863  1.00  0.00    -0.220 C  
HETATM   21  O   UNL     1     -10.299  18.433  69.006  1.00  0.00    -0.471 OA 
HETATM   22  C   UNL     1      -7.315  16.963  69.122  1.00  0.00    -0.197 C  
HETATM   23  H   UNL     1      -9.713  19.178  69.067  1.00  0.00     0.000 HD 
HETATM   24  C   UNL     1      -8.149  16.547  66.535  1.00  0.00    -0.341 C  
HETATM   25  C   UNL     1      -7.514  16.009  70.339  1.00  0.00     1.377 C  
HETATM   26  C   UNL     1      -6.778  14.936  70.688  1.00  0.00     0.251 C  
HETATM   27  F   UNL     1      -7.955  18.618  67.480  1.00  0.00    -0.236 F  
HETATM   28  C   UNL     1      -6.690  16.252  66.157  1.00  0.00     1.177 C  
HETATM   29  C   UNL     1      -5.714  17.014  67.053  1.00  0.00    -0.212 C  
HETATM   30  C   UNL     1      -5.999  16.472  68.423  1.00  0.00    -0.123 C  
ENDROOT
BRANCH   9  31
HETATM   31  C   UNL     1     -12.233  14.031  66.470  1.00  0.00    -0.451 C  
HETATM   32  O   UNL     1     -13.140  14.002  67.292  1.00  0.00     0.889 OA 
BRANCH  31  33
HETATM   33  C   UNL     1     -12.482  14.221  64.978  1.00  0.00    -0.400 C  
BRANCH  33  34
HETATM   34  O   UNL     1     -11.587  13.442  64.170  1.00  0.00    -0.382 OA 
BRANCH  34  35
HETATM   35  C   UNL     1     -12.171  12.377  63.564  1.00  0.00    -0.563 C  
HETATM   36  O   UNL     1     -13.346  12.298  63.257  1.00  0.00    -0.384 OA 
HETATM   37  C   UNL     1     -11.143  11.320  63.243  1.00  0.00    -0.091 C  
ENDBRANCH  34  35
ENDBRANCH  33  34
ENDBRANCH  31  33
ENDBRANCH   9  31
TORSDOF 4
ENDMDL
MODEL       97
REMARK 921   NORMALIZED FREE ENERGY PREDICTED BY IDOCK:   -0.02 KCAL/MOL
REMARK 922        TOTAL FREE ENERGY PREDICTED BY IDOCK:   -0.58 KCAL/MOL
REMARK 923 INTER-LIGAND FREE ENERGY PREDICTED BY IDOCK:   -1.54 KCAL/MOL
REMARK 924 INTRA-LIGAND FREE ENERGY PREDICTED BY IDOCK:    0.95 KCAL/MOL
REMARK 927      BINDING AFFINITY PREDICTED BY RF-SCORE:    0.00 PKD
ROOT
HETATM    1  C   UNL     1     -10.420  15.031  66.187  1.00  0.00    -0.313 C  
HETATM    2  C   UNL     1      -9.712  14.289  65.079  1.00  0.00     0.130 C  
HETATM    3  C   UNL     1      -9.724  12.847  65.518  1.00  0.00    -0.062 C  
HETATM    4  O   UNL     1      -8.352  12.510  65.708  1.00  0.00     0.725 OA 
HETATM    5  C   UNL     1      -8.353  11.604  66.789  1.00  0.00    -0.171 C  
HETATM    6  O   UNL     1      -9.484  11.874  67.625  1.00  0.00    -0.175 OA 
HETATM    7  C   UNL     1      -7.009  11.703  67.506  1.00  0.00    -0.104 C  
HETATM    8  C   UNL     1      -6.162  10.537  67.004  1.00  0.00    -0.066 C  
HETATM    9  C   UNL     1     -10.403  12.712  66.888  1.00  0.00    -0.233 C  
HETATM   10  O   UNL     1      -5.161  16.031  68.725  1.00  0.00    -0.098 OA 
HETATM   11  C   UNL     1      -7.077   9.595  66.239  1.00  0.00    -0.093 C  
HETATM   12  C   UNL     1     -10.521  14.160  67.480  1.00  0.00    -0.249 C  
HETATM   13  C   UNL     1      -8.472  10.189  66.245  1.00  0.00    -0.132 C  
HETATM   14  C   UNL     1      -6.258  16.526  68.786  1.00  0.00    -0.138 C  
HETATM   15  C   UNL     1      -6.787  17.418  67.727  1.00  0.00    -0.176 C  
HETATM   16  C   UNL     1     -11.825  14.713  68.149  1.00  0.00    -0.332 C  
HETATM   17  C   UNL     1      -9.548  14.215  68.650  1.00  0.00    -0.179 C  
HETATM   18  C   UNL     1     -11.811  16.282  68.192  1.00  0.00     0.241 C  
HETATM   19  C   UNL     1      -9.759  18.598  69.632  1.00  0.00     0.396 C  
HETATM   20  C   UNL     1     -10.510  17.052  67.751  1.00  0.00    -0.349 C  
HETATM   21  O   UNL     1     -12.382  16.784  69.391  1.00  0.00     0.225 OA 
HETATM   22  C   UNL     1      -9.196  17.471  68.714  1.00  0.00    -0.227 C  
HETATM   23  H   UNL     1     -12.374  17.735  69.417  1.00  0.00     0.000 HD 
HETATM   24  C   UNL     1     -10.187  16.539  66.324  1.00  0.00    -0.343 C  
HETATM   25  C   UNL     1      -8.484  16.640  69.824  1.00  0.00     0.862 C  
HETATM   26  C   UNL     1      -7.193  16.261  69.885  1.00  0.00     0.348 C  
HETATM   27  F   UNL     1     -11.071  18.322  67.446  1.00  0.00    -0.398 F  
HETATM   28  C   UNL     1      -8.988  17.193  65.621  1.00  0.00     0.414 C  
HETATM   29  C   UNL     1      -8.496  18.425  66.380  1.00  0.00    -0.264 C  
HETATM   30  C   UNL     1      -8.062  17.870  67.706  1.00  0.00    -0.231 C  
ENDROOT
BRANCH   9  31
HETATM   31  C   UNL     1     -11.782  12.041  66.805  1.00  0.00    -0.264 C  
HETATM   32  O   UNL     1     -11.951  10.915  67.255  1.00  0.00    -0.230 OA 
BRANCH  31  33
HETATM   33  C   UNL     1     -12.863  12.784  66.027  1.00  0.00     0.794 C  
BRANCH  33  34
HETATM   34  O   UNL     1     -12.469  13.062  64.675  1.00  0.00    -0.502 OA 
BRANCH  34  35
HETATM   35  C   UNL     1     -12.729  12.055  63.802  1.00  0.00    -0.400 C  
HETATM   36  O   UNL     1     -13.822  11.791  63.338  1.00  0.00     0.179 OA 
HETATM   37  C   UNL     1     -11.454  11.347  63.415  1.00  0.00    -0.124 C  
ENDBRANCH  34  35
ENDBRANCH  33  34
ENDBRANCH  31  33
ENDBRANCH   9  31
TORSDOF 4
ENDMDL
MODEL       98
REMARK 921   NORMALIZED FREE ENERGY PREDICTED BY IDOCK:    0.18 KCAL/MOL
REMARK 922        TOTAL FREE ENERGY PREDICTED BY IDOCK:   -0.35 KCAL/MOL
REMARK 923 INTER-LIGAND FREE ENERGY PREDICTED BY IDOCK:   -1.09 KCAL/MOL
REMARK 924 INTRA-LIGAND FREE ENERGY PREDICTED BY IDOCK:    0.75 KCAL/MOL
REMARK 927      BINDING AFFINITY PREDICTED BY RF-SCORE:    0.00 PKD
ROOT
HETATM    1  C   UNL     1      -8.929  13.218  69.392  1.00  0.00     1.122 C  
HETATM    2  C   UNL     1      -7.801  13.978  70.048  1.00  0.00     1.101 C  
HETATM    3  C   UNL     1      -7.917  15.378  69.502  1.00  0.00    -0.204 C  
HETATM    4  O   UNL     1      -6.721  15.580  68.754  1.00  0.00    -0.108 OA 
HETATM    5  C   UNL     1      -7.110  16.399  67.674  1.00  0.00    -0.135 C  
HETATM    6  O   UNL     1      -8.493  16.165  67.383  1.00  0.00    -0.162 OA 
HETATM    7  C   UNL     1      -6.171  16.130  66.499  1.00  0.00     0.749 C  
HETATM    8  C   UNL     1      -5.138  17.253  66.503  1.00  0.00    -0.195 C  
HETATM    9  C   UNL     1      -9.080  15.467  68.505  1.00  0.00    -0.197 C  
HETATM   10  O   UNL     1      -5.180  11.579  65.107  1.00  0.00    -0.044 OA 
HETATM   11  C   UNL     1      -5.623  18.325  67.465  1.00  0.00    -0.148 C  
HETATM   12  C   UNL     1      -9.496  13.994  68.160  1.00  0.00    -0.215 C  
HETATM   13  C   UNL     1      -6.932  17.856  68.071  1.00  0.00    -0.202 C  
HETATM   14  C   UNL     1      -6.233  11.177  65.534  1.00  0.00     0.258 C  
HETATM   15  C   UNL     1      -6.338  10.417  66.802  1.00  0.00    -0.075 C  
HETATM   16  C   UNL     1     -10.984  13.507  68.120  1.00  0.00    -0.275 C  
HETATM   17  C   UNL     1      -9.076  13.767  66.714  1.00  0.00    -0.235 C  
HETATM   18  C   UNL     1     -11.066  11.944  68.237  1.00  0.00    -0.239 C  
HETATM   19  C   UNL     1      -9.878   9.358  66.354  1.00  0.00    -0.337 C  
HETATM   20  C   UNL     1      -9.737  11.100  68.208  1.00  0.00    -0.188 C  
HETATM   21  O   UNL     1     -12.093  11.404  67.419  1.00  0.00    -0.533 OA 
HETATM   22  C   UNL     1      -8.940  10.498  66.854  1.00  0.00    -0.151 C  
HETATM   23  H   UNL     1     -12.142  10.457  67.491  1.00  0.00     0.000 HD 
HETATM   24  C   UNL     1      -8.845  11.690  69.331  1.00  0.00     0.735 C  
HETATM   25  C   UNL     1      -8.691  11.178  65.474  1.00  0.00    -0.098 C  
HETATM   26  C   UNL     1      -7.515  11.438  64.871  1.00  0.00     1.252 C  
HETATM   27  F   UNL     1     -10.191   9.910  68.838  1.00  0.00    -0.168 F  
HETATM   28  C   UNL     1      -7.498  10.989  69.569  1.00  0.00    -0.031 C  
HETATM   29  C   UNL     1      -7.413   9.666  68.810  1.00  0.00    -0.075 C  
HETATM   30  C   UNL     1      -7.519  10.079  67.370  1.00  0.00    -0.091 C  
ENDROOT
BRANCH   9  31
HETATM   31  C   UNL     1     -10.276  16.259  69.054  1.00  0.00    -0.261 C  
HETATM   32  O   UNL     1     -10.852  15.888  70.069  1.00  0.00    -0.298 OA 
BRANCH  31  33
HETATM   33  C   UNL     1     -10.777  17.424  68.206  1.00  0.00    -0.327 C  
BRANCH  33  34
HETATM   34  O   UNL     1     -10.164  17.457  66.908  1.00  0.00    -0.304 OA 
BRANCH  34  35
HETATM   35  C   UNL     1     -10.379  18.609  66.222  1.00  0.00    -0.444 C  
HETATM   36  O   UNL     1     -10.494  18.698  65.014  1.00  0.00     0.005 OA 
HETATM   37  C   UNL     1     -10.540  19.769  67.173  1.00  0.00    -0.577 C  
ENDBRANCH  34  35
ENDBRANCH  33  34
ENDBRANCH  31  33
ENDBRANCH   9  31
TORSDOF 4
ENDMDL
MODEL       99
REMARK 921   NORMALIZED FREE ENERGY PREDICTED BY IDOCK:    0.73 KCAL/MOL
REMARK 922        TOTAL FREE ENERGY PREDICTED BY IDOCK:    0.33 KCAL/MOL
REMARK 923 INTER-LIGAND FREE ENERGY PREDICTED BY IDOCK:    0.18 KCAL/MOL
REMARK 924 INTRA-LIGAND FREE ENERGY PREDICTED BY IDOCK:    0.15 KCAL/MOL
REMARK 927      BINDING AFFINITY PREDICTED BY RF-SCORE:    0.00 PKD
ROOT
HETATM    1  C   UNL     1      -8.400   6.168  68.188  1.00  0.00    -0.114 C  
HETATM    2  C   UNL     1      -7.266   5.606  69.012  1.00  0.00    -0.073 C  
HETATM    3  C   UNL     1      -7.784   5.615  70.428  1.00  0.00    -0.094 C  
HETATM    4  O   UNL     1      -6.942   6.532  71.121  1.00  0.00    -0.065 OA 
HETATM    5  C   UNL     1      -7.788   7.150  72.066  1.00  0.00    -0.091 C  
HETATM    6  O   UNL     1      -9.131   7.142  71.568  1.00  0.00    -0.142 OA 
HETATM    7  C   UNL     1      -7.241   8.543  72.367  1.00  0.00    -0.080 C  
HETATM    8  C   UNL     1      -6.466   8.433  73.677  1.00  0.00    -0.133 C  
HETATM    9  C   UNL     1      -9.202   6.201  70.473  1.00  0.00    -0.157 C  
HETATM   10  O   UNL     1      -5.995  11.552  68.758  1.00  0.00    -0.046 OA 
HETATM   11  C   UNL     1      -6.792   7.084  74.295  1.00  0.00    -0.085 C  
HETATM   12  C   UNL     1      -9.452   6.892  69.087  1.00  0.00    -0.142 C  
HETATM   13  C   UNL     1      -7.741   6.356  73.362  1.00  0.00    -0.093 C  
HETATM   14  C   UNL     1      -6.772  11.029  68.000  1.00  0.00    -0.063 C  
HETATM   15  C   UNL     1      -6.337  10.097  66.933  1.00  0.00    -0.069 C  
HETATM   16  C   UNL     1     -10.771   6.713  68.260  1.00  0.00    -0.317 C  
HETATM   17  C   UNL     1      -9.484   8.389  69.364  1.00  0.00    -0.158 C  
HETATM   18  C   UNL     1     -10.546   7.097  66.755  1.00  0.00    -0.221 C  
HETATM   19  C   UNL     1      -9.603   9.958  65.152  1.00  0.00    -0.367 C  
HETATM   20  C   UNL     1      -9.173   7.735  66.322  1.00  0.00    -0.166 C  
HETATM   21  O   UNL     1     -11.673   7.760  66.203  1.00  0.00     2.697 OA 
HETATM   22  C   UNL     1      -8.761   9.366  66.323  1.00  0.00    -0.157 C  
HETATM   23  H   UNL     1     -11.537   7.992  65.291  1.00  0.00     0.000 HD 
HETATM   24  C   UNL     1      -8.082   6.745  66.805  1.00  0.00    -0.109 C  
HETATM   25  C   UNL     1      -9.084  10.463  67.382  1.00  0.00    -0.144 C  
HETATM   26  C   UNL     1      -8.224  11.224  68.086  1.00  0.00    -0.140 C  
HETATM   27  F   UNL     1      -9.195   7.437  64.932  1.00  0.00     0.268 F  
HETATM   28  C   UNL     1      -6.633   7.098  66.438  1.00  0.00    -0.052 C  
HETATM   29  C   UNL     1      -6.572   8.244  65.430  1.00  0.00    -0.052 C  
HETATM   30  C   UNL     1      -7.200   9.392  66.165  1.00  0.00    -0.092 C  
ENDROOT
BRANCH   9  31
HETATM   31  C   UNL     1     -10.277   5.140  70.756  1.00  0.00    -0.238 C  
HETATM   32  O   UNL     1     -11.403   5.259  70.291  1.00  0.00     0.311 OA 
BRANCH  31  33
HETATM   33  C   UNL     1      -9.907   4.032  71.738  1.00  0.00    -0.179 C  
BRANCH  33  34
HETATM   34  O   UNL     1     -10.386   2.746  71.316  1.00  0.00     0.248 OA 
BRANCH  34  35
HETATM   35  C   UNL     1      -9.716   2.224  70.257  1.00  0.00     0.070 C  
HETATM   36  O   UNL     1     -10.225   1.831  69.225  1.00  0.00     0.490 OA 
HETATM   37  C   UNL     1      -8.227   2.269  70.499  1.00  0.00    -0.062 C  
ENDBRANCH  34  35
ENDBRANCH  33  34
ENDBRANCH  31  33
ENDBRANCH   9  31
TORSDOF 4
ENDMDL
MODEL      100
REMARK 921   NORMALIZED FREE ENERGY PREDICTED BY IDOCK:    1.73 KCAL/MOL
REMARK 922        TOTAL FREE ENERGY PREDICTED BY IDOCK:    1.57 KCAL/MOL
REMARK 923 INTER-LIGAND FREE ENERGY PREDICTED BY IDOCK:    2.23 KCAL/MOL
REMARK 924 INTRA-LIGAND FREE ENERGY PREDICTED BY IDOCK:   -0.66 KCAL/MOL
REMARK 927      BINDING AFFINITY PREDICTED BY RF-SCORE:    0.00 PKD
ROOT
HETATM    1  C   UNL     1      -7.775  13.531  66.847  1.00  0.00     0.335 C  
HETATM    2  C   UNL     1      -7.504  14.741  65.986  1.00  0.00     3.496 C  
HETATM    3  C   UNL     1      -7.435  15.892  66.958  1.00  0.00    -0.219 C  
HETATM    4  O   UNL     1      -8.536  16.729  66.614  1.00  0.00    -0.208 OA 
HETATM    5  C   UNL     1      -8.973  17.266  67.842  1.00  0.00    -0.235 C  
HETATM    6  O   UNL     1      -8.651  16.350  68.895  1.00  0.00    -0.235 OA 
HETATM    7  C   UNL     1     -10.461  17.588  67.728  1.00  0.00    -0.381 C  
HETATM    8  C   UNL     1     -10.563  19.086  67.455  1.00  0.00    -0.559 C  
HETATM    9  C   UNL     1      -7.689  15.398  68.388  1.00  0.00    -0.120 C  
HETATM   10  O   UNL     1     -13.575  14.318  65.929  1.00  0.00    -0.006 OA 
HETATM   11  C   UNL     1      -9.192  19.695  67.699  1.00  0.00    -0.416 C  
HETATM   12  C   UNL     1      -8.269  13.945  68.271  1.00  0.00    -0.158 C  
HETATM   13  C   UNL     1      -8.245  18.578  68.093  1.00  0.00    -0.315 C  
HETATM   14  C   UNL     1     -12.872  13.401  66.270  1.00  0.00     0.232 C  
HETATM   15  C   UNL     1     -12.033  12.644  65.311  1.00  0.00    -0.487 C  
HETATM   16  C   UNL     1      -7.777  12.747  69.152  1.00  0.00     0.323 C  
HETATM   17  C   UNL     1      -9.728  14.040  68.698  1.00  0.00    -0.179 C  
HETATM   18  C   UNL     1      -8.161  11.374  68.497  1.00  0.00    -0.153 C  
HETATM   19  C   UNL     1     -11.117   9.895  67.648  1.00  0.00    -0.170 C  
HETATM   20  C   UNL     1      -9.079  11.363  67.217  1.00  0.00    -0.162 C  
HETATM   21  O   UNL     1      -8.539  10.410  69.468  1.00  0.00    -0.266 OA 
HETATM   22  C   UNL     1     -10.761  11.334  67.168  1.00  0.00    -0.297 C  
HETATM   23  H   UNL     1      -8.772   9.578  69.071  1.00  0.00     0.000 HD 
HETATM   24  C   UNL     1      -8.372  12.283  66.189  1.00  0.00     0.389 C  
HETATM   25  C   UNL     1     -11.785  12.105  68.055  1.00  0.00    -0.409 C  
HETATM   26  C   UNL     1     -12.738  12.974  67.667  1.00  0.00     1.270 C  
HETATM   27  F   UNL     1      -8.746  10.085  66.691  1.00  0.00    -0.126 F  
HETATM   28  C   UNL     1      -9.031  12.390  64.806  1.00  0.00     1.036 C  
HETATM   29  C   UNL     1     -10.134  11.348  64.627  1.00  0.00    -0.330 C  
HETATM   30  C   UNL     1     -11.132  11.707  65.690  1.00  0.00    -0.308 C  
ENDROOT
BRANCH   9  31
HETATM   31  C   UNL     1      -6.422  15.412  69.257  1.00  0.00    -0.137 C  
HETATM   32  O   UNL     1      -5.340  15.091  68.781  1.00  0.00    -0.084 OA 
BRANCH  31  33
HETATM   33  C   UNL     1      -6.609  15.708  70.741  1.00  0.00     0.729 C  
BRANCH  33  34
HETATM   34  O   UNL     1      -6.828  14.516  71.512  1.00  0.00     0.762 OA 
BRANCH  34  35
HETATM   35  C   UNL     1      -5.762  14.137  72.262  1.00  0.00    -0.040 C  
HETATM   36  O   UNL     1      -5.379  14.693  73.275  1.00  0.00    -0.239 OA 
HETATM   37  C   UNL     1      -5.152  12.871  71.713  1.00  0.00    -0.109 C  
ENDBRANCH  34  35
ENDBRANCH  33  34
ENDBRANCH  31  33
ENDBRANCH   9  31
TORSDOF 4
ENDMDL
MODEL      101
REMARK 921   NORMALIZED FREE ENERGY PREDICTED BY IDOCK:    2.12 KCAL/MOL
REMARK 922        TOTAL FREE ENERGY PREDICTED BY IDOCK:    2.05 KCAL/MOL
REMARK 923 INTER-LIGAND FREE ENERGY PREDICTED BY IDOCK:    2.64 KCAL/MOL
REMARK 924 INTRA-LIGAND FREE ENERGY PREDICTED BY IDOCK:   -0.59 KCAL/MOL
REMARK 927      BINDING AFFINITY PREDICTED BY RF-SCORE:    0.00 PKD
ROOT
HETATM    1  C   UNL     1      -7.580   6.530  69.536  1.00  0.00    -0.095 C  
HETATM    2  C   UNL     1      -6.977   5.812  68.352  1.00  0.00    -0.068 C  
HETATM    3  C   UNL     1      -7.881   6.158  67.196  1.00  0.00    -0.102 C  
HETATM    4  O   UNL     1      -8.460   4.918  66.799  1.00  0.00    -0.107 OA 
HETATM    5  C   UNL     1      -9.763   5.251  66.378  1.00  0.00    -0.169 C  
HETATM    6  O   UNL     1     -10.195   6.425  67.075  1.00  0.00    -0.163 OA 
HETATM    7  C   UNL     1     -10.665   4.036  66.584  1.00  0.00     1.357 C  
HETATM    8  C   UNL     1     -10.793   3.354  65.225  1.00  0.00     1.142 C  
HETATM    9  C   UNL     1      -9.036   7.050  67.672  1.00  0.00    -0.117 C  
HETATM   10  O   UNL     1     -10.647   1.622  70.803  1.00  0.00     0.679 OA 
HETATM   11  C   UNL     1     -10.234   4.302  64.177  1.00  0.00    -0.027 C  
HETATM   12  C   UNL     1      -9.044   6.985  69.239  1.00  0.00    -0.137 C  
HETATM   13  C   UNL     1      -9.738   5.547  64.886  1.00  0.00     0.640 C  
HETATM   14  C   UNL     1     -10.300   2.604  71.409  1.00  0.00     0.538 C  
HETATM   15  C   UNL     1      -8.909   2.792  71.888  1.00  0.00    -0.116 C  
HETATM   16  C   UNL     1      -9.188   8.250  70.153  1.00  0.00    -0.155 C  
HETATM   17  C   UNL     1     -10.297   6.207  69.620  1.00  0.00    -0.277 C  
HETATM   18  C   UNL     1      -8.680   7.951  71.607  1.00  0.00    -0.124 C  
HETATM   19  C   UNL     1      -9.612   5.746  74.040  1.00  0.00    -0.153 C  
HETATM   20  C   UNL     1      -8.280   6.478  71.995  1.00  0.00    -0.107 C  
HETATM   21  O   UNL     1      -9.479   8.593  72.590  1.00  0.00    -0.255 OA 
HETATM   22  C   UNL     1      -9.287   5.270  72.592  1.00  0.00    -0.150 C  
HETATM   23  H   UNL     1      -9.171   8.413  73.471  1.00  0.00     0.000 HD 
HETATM   24  C   UNL     1      -7.225   6.043  70.945  1.00  0.00    -0.074 C  
HETATM   25  C   UNL     1     -10.741   4.901  72.167  1.00  0.00    -0.193 C  
HETATM   26  C   UNL     1     -11.200   3.727  71.692  1.00  0.00     1.810 C  
HETATM   27  F   UNL     1      -7.439   6.740  73.110  1.00  0.00    -0.082 F  
HETATM   28  C   UNL     1      -6.605   4.652  71.139  1.00  0.00    -0.027 C  
HETATM   29  C   UNL     1      -6.969   4.060  72.500  1.00  0.00    -0.051 C  
HETATM   30  C   UNL     1      -8.464   3.943  72.443  1.00  0.00    -0.101 C  
ENDROOT
BRANCH   9  31
HETATM   31  C   UNL     1      -8.907   8.501  67.185  1.00  0.00    -0.129 C  
HETATM   32  O   UNL     1      -9.897   9.219  67.107  1.00  0.00    -0.170 OA 
BRANCH  31  33
HETATM   33  C   UNL     1      -7.534   8.940  66.686  1.00  0.00    -0.086 C  
BRANCH  33  34
HETATM   34  O   UNL     1      -6.707   9.450  67.743  1.00  0.00    -0.066 OA 
BRANCH  34  35
HETATM   35  C   UNL     1      -6.828  10.786  67.947  1.00  0.00    -0.072 C  
HETATM   36  O   UNL     1      -7.878  11.396  68.016  1.00  0.00    -0.110 OA 
HETATM   37  C   UNL     1      -5.472  11.414  68.161  1.00  0.00    -0.042 C  
ENDBRANCH  34  35
ENDBRANCH  33  34
ENDBRANCH  31  33
ENDBRANCH   9  31
TORSDOF 4
ENDMDL
MODEL      102
REMARK 921   NORMALIZED FREE ENERGY PREDICTED BY IDOCK:    2.22 KCAL/MOL
REMARK 922        TOTAL FREE ENERGY PREDICTED BY IDOCK:    2.17 KCAL/MOL
REMARK 923 INTER-LIGAND FREE ENERGY PREDICTED BY IDOCK:    1.32 KCAL/MOL
REMARK 924 INTRA-LIGAND FREE ENERGY PREDICTED BY IDOCK:    0.85 KCAL/MOL
REMARK 927      BINDING AFFINITY PREDICTED BY RF-SCORE:    0.00 PKD
ROOT
HETATM    1  C   UNL     1     -10.486   5.411  69.530  1.00  0.00    -0.343 C  
HETATM    2  C   UNL     1     -10.509   4.050  70.183  1.00  0.00     0.947 C  
HETATM    3  C   UNL     1      -9.526   4.158  71.322  1.00  0.00    -0.160 C  
HETATM    4  O   UNL     1      -8.485   3.242  70.995  1.00  0.00    -0.064 OA 
HETATM    5  C   UNL     1      -7.310   3.845  71.489  1.00  0.00    -0.047 C  
HETATM    6  O   UNL     1      -7.481   5.268  71.495  1.00  0.00    -0.090 OA 
HETATM    7  C   UNL     1      -6.128   3.362  70.652  1.00  0.00    -0.019 C  
HETATM    8  C   UNL     1      -5.455   2.250  71.451  1.00  0.00    -0.008 C  
HETATM    9  C   UNL     1      -8.891   5.555  71.347  1.00  0.00    -0.136 C  
HETATM   10  O   UNL     1      -6.338   3.425  65.796  1.00  0.00    -0.030 OA 
HETATM   11  C   UNL     1      -6.034   2.274  72.856  1.00  0.00    -0.008 C  
HETATM   12  C   UNL     1      -9.236   6.236  69.976  1.00  0.00    -0.157 C  
HETATM   13  C   UNL     1      -7.076   3.374  72.916  1.00  0.00    -0.044 C  
HETATM   14  C   UNL     1      -7.131   4.332  65.802  1.00  0.00    -0.067 C  
HETATM   15  C   UNL     1      -8.575   4.126  65.534  1.00  0.00    -0.118 C  
HETATM   16  C   UNL     1      -9.752   7.710  69.853  1.00  0.00    -0.175 C  
HETATM   17  C   UNL     1      -7.924   6.321  69.208  1.00  0.00    -0.109 C  
HETATM   18  C   UNL     1     -10.462   7.941  68.473  1.00  0.00    -0.167 C  
HETATM   19  C   UNL     1      -9.450   7.731  65.220  1.00  0.00     0.809 C  
HETATM   20  C   UNL     1     -10.421   6.803  67.386  1.00  0.00    -0.262 C  
HETATM   21  O   UNL     1     -10.188   9.231  67.946  1.00  0.00    -0.189 OA 
HETATM   22  C   UNL     1      -9.238   6.551  66.216  1.00  0.00    -0.160 C  
HETATM   23  H   UNL     1     -10.618   9.372  67.110  1.00  0.00     0.000 HD 
HETATM   24  C   UNL     1     -10.982   5.538  68.086  1.00  0.00     0.113 C  
HETATM   25  C   UNL     1      -7.688   6.665  66.341  1.00  0.00    -0.102 C  
HETATM   26  C   UNL     1      -6.760   5.715  66.120  1.00  0.00    -0.057 C  
HETATM   27  F   UNL     1     -11.541   7.179  66.597  1.00  0.00    -0.086 F  
HETATM   28  C   UNL     1     -11.122   4.282  67.213  1.00  0.00     2.866 C  
HETATM   29  C   UNL     1     -10.917   4.602  65.733  1.00  0.00     0.093 C  
HETATM   30  C   UNL     1      -9.502   5.102  65.675  1.00  0.00    -0.129 C  
ENDROOT
BRANCH   9  31
HETATM   31  C   UNL     1      -9.382   6.412  72.523  1.00  0.00    -0.145 C  
HETATM   32  O   UNL     1      -9.973   7.464  72.318  1.00  0.00    -0.163 OA 
BRANCH  31  33
HETATM   33  C   UNL     1      -8.979   5.956  73.921  1.00  0.00    -0.126 C  
BRANCH  33  34
HETATM   34  O   UNL     1      -8.074   6.872  74.555  1.00  0.00    -0.126 OA 
BRANCH  34  35
HETATM   35  C   UNL     1      -6.790   6.768  74.128  1.00  0.00    -0.079 C  
HETATM   36  O   UNL     1      -6.060   5.814  74.318  1.00  0.00    -0.057 OA 
HETATM   37  C   UNL     1      -6.405   7.974  73.306  1.00  0.00    -0.082 C  
ENDBRANCH  34  35
ENDBRANCH  33  34
ENDBRANCH  31  33
ENDBRANCH   9  31
TORSDOF 4
ENDMDL
MODEL      103
REMARK 921   NORMALIZED FREE ENERGY PREDICTED BY IDOCK:    2.50 KCAL/MOL
REMARK 922        TOTAL FREE ENERGY PREDICTED BY IDOCK:    2.52 KCAL/MOL
REMARK 923 INTER-LIGAND FREE ENERGY PREDICTED BY IDOCK:   -1.04 KCAL/MOL
REMARK 924 INTRA-LIGAND FREE ENERGY PREDICTED BY IDOCK:    3.57 KCAL/MOL
REMARK 927      BINDING AFFINITY PREDICTED BY RF-SCORE:    0.00 PKD
ROOT
HETATM    1  C   UNL     1      -7.052  11.752  66.964  1.00  0.00    -0.132 C  
HETATM    2  C   UNL     1      -7.633  12.049  65.602  1.00  0.00     1.560 C  
HETATM    3  C   UNL     1      -8.546  13.228  65.826  1.00  0.00     1.400 C  
HETATM    4  O   UNL     1      -9.853  12.740  65.535  1.00  0.00    -0.242 OA 
HETATM    5  C   UNL     1     -10.698  13.426  66.431  1.00  0.00    -0.286 C  
HETATM    6  O   UNL     1      -9.954  13.772  67.605  1.00  0.00    -0.230 OA 
HETATM    7  C   UNL     1     -11.924  12.558  66.702  1.00  0.00    -0.351 C  
HETATM    8  C   UNL     1     -13.042  13.093  65.812  1.00  0.00     0.488 C  
HETATM    9  C   UNL     1      -8.546  13.627  67.308  1.00  0.00    -0.214 C  
HETATM   10  O   UNL     1     -11.431   7.861  67.854  1.00  0.00     0.664 OA 
HETATM   11  C   UNL     1     -12.586  14.429  65.250  1.00  0.00    -0.333 C  
HETATM   12  C   UNL     1      -7.872  12.449  68.096  1.00  0.00    -0.146 C  
HETATM   13  C   UNL     1     -11.187  14.704  65.767  1.00  0.00    -0.336 C  
HETATM   14  C   UNL     1     -10.335   8.049  68.318  1.00  0.00    -0.197 C  
HETATM   15  C   UNL     1      -9.093   7.666  67.604  1.00  0.00    -0.133 C  
HETATM   16  C   UNL     1      -6.786  12.665  69.204  1.00  0.00    -0.086 C  
HETATM   17  C   UNL     1      -8.985  11.793  68.903  1.00  0.00     0.118 C  
HETATM   18  C   UNL     1      -5.967  11.349  69.450  1.00  0.00    -0.066 C  
HETATM   19  C   UNL     1      -6.787   8.200  70.477  1.00  0.00    -0.037 C  
HETATM   20  C   UNL     1      -6.414  10.020  68.733  1.00  0.00    -0.045 C  
HETATM   21  O   UNL     1      -5.651  11.169  70.822  1.00  0.00    -0.125 OA 
HETATM   22  C   UNL     1      -7.526   8.886  69.288  1.00  0.00    -0.075 C  
HETATM   23  H   UNL     1      -5.155  10.372  70.971  1.00  0.00     0.000 HD 
HETATM   24  C   UNL     1      -6.467  10.359  67.221  1.00  0.00    -0.067 C  
HETATM   25  C   UNL     1      -8.893   9.114  70.001  1.00  0.00    -0.193 C  
HETATM   26  C   UNL     1     -10.117   8.714  69.607  1.00  0.00    -0.201 C  
HETATM   27  F   UNL     1      -5.195   9.292  68.790  1.00  0.00    -0.036 F  
HETATM   28  C   UNL     1      -6.811   9.199  66.275  1.00  0.00    -0.082 C  
HETATM   29  C   UNL     1      -6.780   7.855  67.001  1.00  0.00    -0.068 C  
HETATM   30  C   UNL     1      -7.855   7.993  68.041  1.00  0.00    -0.126 C  
ENDROOT
BRANCH   9  31
HETATM   31  C   UNL     1      -7.812  14.951  67.569  1.00  0.00    -0.185 C  
HETATM   32  O   UNL     1      -7.808  15.834  66.721  1.00  0.00    -0.234 OA 
BRANCH  31  33
HETATM   33  C   UNL     1      -6.995  15.042  68.854  1.00  0.00    -0.114 C  
BRANCH  33  34
HETATM   34  O   UNL     1      -7.151  16.309  69.511  1.00  0.00    -0.219 OA 
BRANCH  34  35
HETATM   35  C   UNL     1      -7.605  17.301  68.703  1.00  0.00    -0.260 C  
HETATM   36  O   UNL     1      -6.905  18.057  68.054  1.00  0.00    -0.198 OA 
HETATM   37  C   UNL     1      -9.113  17.294  68.650  1.00  0.00    -0.260 C  
ENDBRANCH  34  35
ENDBRANCH  33  34
ENDBRANCH  31  33
ENDBRANCH   9  31
TORSDOF 4
ENDMDL
MODEL      104
REMARK 921   NORMALIZED FREE ENERGY PREDICTED BY IDOCK:    2.91 KCAL/MOL
REMARK 922        TOTAL FREE ENERGY PREDICTED BY IDOCK:    3.03 KCAL/MOL
REMARK 923 INTER-LIGAND FREE ENERGY PREDICTED BY IDOCK:    2.32 KCAL/MOL
REMARK 924 INTRA-LIGAND FREE ENERGY PREDICTED BY IDOCK:    0.71 KCAL/MOL
REMARK 927      BINDING AFFINITY PREDICTED BY RF-SCORE:    0.00 PKD
ROOT
HETATM    1  C   UNL     1      -9.730  11.864  68.980  1.00  0.00     0.159 C  
HETATM    2  C   UNL     1      -8.947  12.921  69.722  1.00  0.00     2.467 C  
HETATM    3  C   UNL     1      -9.358  14.221  69.078  1.00  0.00     0.030 C  
HETATM    4  O   UNL     1      -8.169  14.721  68.472  1.00  0.00    -0.139 OA 
HETATM    5  C   UNL     1      -8.610  15.372  67.302  1.00  0.00    -0.195 C  
HETATM    6  O   UNL     1      -9.827  14.760  66.857  1.00  0.00    -0.233 OA 
HETATM    7  C   UNL     1      -7.482  15.338  66.273  1.00  0.00     1.571 C  
HETATM    8  C   UNL     1      -6.798  16.701  66.334  1.00  0.00    -0.004 C  
HETATM    9  C   UNL     1     -10.354  13.959  67.939  1.00  0.00    -0.240 C  
HETATM   10  O   UNL     1      -5.127  11.196  65.309  1.00  0.00    -0.260 OA 
HETATM   11  C   UNL     1      -7.680  17.625  67.156  1.00  0.00    -0.228 C  
HETATM   12  C   UNL     1     -10.309  12.420  67.640  1.00  0.00    -0.223 C  
HETATM   13  C   UNL     1      -8.885  16.832  67.623  1.00  0.00    -0.207 C  
HETATM   14  C   UNL     1      -6.082  10.533  65.627  1.00  0.00    -0.131 C  
HETATM   15  C   UNL     1      -6.152   9.809  66.918  1.00  0.00    -0.063 C  
HETATM   16  C   UNL     1     -11.592  11.543  67.446  1.00  0.00    -0.307 C  
HETATM   17  C   UNL     1      -9.649  12.277  66.275  1.00  0.00    -0.248 C  
HETATM   18  C   UNL     1     -11.268  10.021  67.653  1.00  0.00    -0.024 C  
HETATM   19  C   UNL     1      -9.184   7.808  66.102  1.00  0.00    -0.182 C  
HETATM   20  C   UNL     1      -9.770   9.573  67.844  1.00  0.00    -0.147 C  
HETATM   21  O   UNL     1     -11.990   9.198  66.750  1.00  0.00     2.701 OA 
HETATM   22  C   UNL     1      -8.663   9.175  66.641  1.00  0.00    -0.140 C  
HETATM   23  H   UNL     1     -11.793   8.276  66.875  1.00  0.00     0.000 HD 
HETATM   24  C   UNL     1      -9.231  10.416  69.029  1.00  0.00    -0.194 C  
HETATM   25  C   UNL     1      -8.418   9.858  65.261  1.00  0.00    -0.158 C  
HETATM   26  C   UNL     1      -7.284  10.414  64.794  1.00  0.00    -0.034 C  
HETATM   27  F   UNL     1      -9.971   8.322  68.487  1.00  0.00    -0.170 F  
HETATM   28  C   UNL     1      -7.793  10.118  69.477  1.00  0.00    -0.165 C  
HETATM   29  C   UNL     1      -7.252   8.848  68.821  1.00  0.00    -0.075 C  
HETATM   30  C   UNL     1      -7.267   9.176  67.356  1.00  0.00    -0.080 C  
ENDROOT
BRANCH   9  31
HETATM   31  C   UNL     1     -11.782  14.409  68.283  1.00  0.00    -0.341 C  
HETATM   32  O   UNL     1     -12.125  14.545  69.451  1.00  0.00    -0.308 OA 
BRANCH  31  33
HETATM   33  C   UNL     1     -12.761  14.538  67.120  1.00  0.00     0.803 C  
BRANCH  33  34
HETATM   34  O   UNL     1     -12.307  13.848  65.946  1.00  0.00    -0.436 OA 
BRANCH  34  35
HETATM   35  C   UNL     1     -12.224  14.631  64.840  1.00  0.00    -0.357 C  
HETATM   36  O   UNL     1     -12.056  15.836  64.841  1.00  0.00     0.135 OA 
HETATM   37  C   UNL     1     -12.287  13.789  63.589  1.00  0.00    -0.256 C  
ENDBRANCH  34  35
ENDBRANCH  33  34
ENDBRANCH  31  33
ENDBRANCH   9  31
TORSDOF 4
ENDMDL
MODEL      105
REMARK 921   NORMALIZED FREE ENERGY PREDICTED BY IDOCK:    3.23 KCAL/MOL
REMARK 922        TOTAL FREE ENERGY PREDICTED BY IDOCK:    3.42 KCAL/MOL
REMARK 923 INTER-LIGAND FREE ENERGY PREDICTED BY IDOCK:    3.04 KCAL/MOL
REMARK 924 INTRA-LIGAND FREE ENERGY PREDICTED BY IDOCK:    0.38 KCAL/MOL
REMARK 927      BINDING AFFINITY PREDICTED BY RF-SCORE:    0.00 PKD
ROOT
HETATM    1  C   UNL     1      -7.486  10.616  68.088  1.00  0.00    -0.090 C  
HETATM    2  C   UNL     1      -6.239   9.780  68.246  1.00  0.00    -0.051 C  
HETATM    3  C   UNL     1      -5.882   9.359  66.843  1.00  0.00    -0.055 C  
HETATM    4  O   UNL     1      -6.022   7.941  66.838  1.00  0.00    -0.048 OA 
HETATM    5  C   UNL     1      -6.487   7.633  65.543  1.00  0.00    -0.042 C  
HETATM    6  O   UNL     1      -7.217   8.753  65.028  1.00  0.00    -0.082 OA 
HETATM    7  C   UNL     1      -7.296   6.339  65.613  1.00  0.00    -0.080 C  
HETATM    8  C   UNL     1      -6.367   5.221  65.150  1.00  0.00    -0.035 C  
HETATM    9  C   UNL     1      -6.912   9.906  65.845  1.00  0.00    -0.106 C  
HETATM   10  O   UNL     1     -10.731   5.744  69.000  1.00  0.00    -0.274 OA 
HETATM   11  C   UNL     1      -5.137   5.865  64.533  1.00  0.00    -0.013 C  
HETATM   12  C   UNL     1      -8.140  10.403  66.686  1.00  0.00    -0.122 C  
HETATM   13  C   UNL     1      -5.292   7.370  64.640  1.00  0.00    -0.029 C  
HETATM   14  C   UNL     1     -10.916   6.932  69.078  1.00  0.00    -0.181 C  
HETATM   15  C   UNL     1     -10.405   7.743  70.209  1.00  0.00    -0.215 C  
HETATM   16  C   UNL     1      -8.852  11.777  66.441  1.00  0.00    -0.170 C  
HETATM   17  C   UNL     1      -9.274   9.431  66.387  1.00  0.00    -0.215 C  
HETATM   18  C   UNL     1      -9.685  12.208  67.699  1.00  0.00    -0.188 C  
HETATM   19  C   UNL     1     -12.311  10.834  69.391  1.00  0.00    -0.133 C  
HETATM   20  C   UNL     1      -9.838  11.203  68.902  1.00  0.00    -0.162 C  
HETATM   21  O   UNL     1     -10.903  12.841  67.337  1.00  0.00    -0.233 OA 
HETATM   22  C   UNL     1     -11.016  10.018  69.098  1.00  0.00    -0.256 C  
HETATM   23  H   UNL     1     -11.408  13.102  68.099  1.00  0.00     0.000 HD 
HETATM   24  C   UNL     1      -8.392  10.815  69.307  1.00  0.00    -0.072 C  
HETATM   25  C   UNL     1     -11.622   9.046  68.040  1.00  0.00     1.425 C  
HETATM   26  C   UNL     1     -11.621   7.699  68.046  1.00  0.00     1.284 C  
HETATM   27  F   UNL     1     -10.161  12.116  69.942  1.00  0.00     0.623 F  
HETATM   28  C   UNL     1      -8.252   9.887  70.523  1.00  0.00     0.128 C  
HETATM   29  C   UNL     1      -9.579   9.731  71.266  1.00  0.00     0.599 C  
HETATM   30  C   UNL     1     -10.479   9.094  70.246  1.00  0.00    -0.257 C  
ENDROOT
BRANCH   9  31
HETATM   31  C   UNL     1      -6.352  11.040  64.972  1.00  0.00     0.435 C  
HETATM   32  O   UNL     1      -5.720  11.958  65.479  1.00  0.00     0.644 OA 
BRANCH  31  33
HETATM   33  C   UNL     1      -6.739  11.026  63.496  1.00  0.00     0.744 C  
BRANCH  33  34
HETATM   34  O   UNL     1      -7.958  10.307  63.258  1.00  0.00    -0.153 OA 
BRANCH  34  35
HETATM   35  C   UNL     1      -9.070  11.086  63.256  1.00  0.00    -0.223 C  
HETATM   36  O   UNL     1      -9.103  12.267  62.967  1.00  0.00     0.166 OA 
HETATM   37  C   UNL     1     -10.293  10.265  63.588  1.00  0.00     0.476 C  
ENDBRANCH  34  35
ENDBRANCH  33  34
ENDBRANCH  31  33
ENDBRANCH   9  31
TORSDOF 4
ENDMDL
MODEL      106
REMARK 921   NORMALIZED FREE ENERGY PREDICTED BY IDOCK:    3.56 KCAL/MOL
REMARK 922        TOTAL FREE ENERGY PREDICTED BY IDOCK:    3.83 KCAL/MOL
REMARK 923 INTER-LIGAND FREE ENERGY PREDICTED BY IDOCK:    3.68 KCAL/MOL
REMARK 924 INTRA-LIGAND FREE ENERGY PREDICTED BY IDOCK:    0.14 KCAL/MOL
REMARK 927      BINDING AFFINITY PREDICTED BY RF-SCORE:    0.00 PKD
ROOT
HETATM    1  C   UNL     1      -6.956  12.999  68.709  1.00  0.00    -0.103 C  
HETATM    2  C   UNL     1      -6.670  11.832  69.625  1.00  0.00    -0.034 C  
HETATM    3  C   UNL     1      -6.816  10.615  68.747  1.00  0.00    -0.062 C  
HETATM    4  O   UNL     1      -7.924   9.903  69.290  1.00  0.00    -0.099 OA 
HETATM    5  C   UNL     1      -8.557   9.321  68.173  1.00  0.00    -0.125 C  
HETATM    6  O   UNL     1      -8.305  10.130  67.018  1.00  0.00    -0.124 OA 
HETATM    7  C   UNL     1     -10.039   9.138  68.495  1.00  0.00    -0.212 C  
HETATM    8  C   UNL     1     -10.219   7.677  68.898  1.00  0.00    -0.217 C  
HETATM    9  C   UNL     1      -7.215  11.029  67.324  1.00  0.00    -0.102 C  
HETATM   10  O   UNL     1     -12.631  12.784  70.397  1.00  0.00    -0.181 OA 
HETATM   11  C   UNL     1      -8.943   6.937  68.536  1.00  0.00    -0.122 C  
HETATM   12  C   UNL     1      -7.661  12.531  67.395  1.00  0.00    -0.156 C  
HETATM   13  C   UNL     1      -7.972   7.937  67.940  1.00  0.00    -0.128 C  
HETATM   14  C   UNL     1     -11.909  13.610  69.900  1.00  0.00    -0.320 C  
HETATM   15  C   UNL     1     -10.896  14.357  70.684  1.00  0.00     0.461 C  
HETATM   16  C   UNL     1      -7.196  13.617  66.367  1.00  0.00     2.473 C  
HETATM   17  C   UNL     1      -9.166  12.533  67.161  1.00  0.00    -0.205 C  
HETATM   18  C   UNL     1      -7.385  15.061  66.953  1.00  0.00     0.294 C  
HETATM   19  C   UNL     1     -10.083  16.846  68.039  1.00  0.00    -0.293 C  
HETATM   20  C   UNL     1      -8.125  15.241  68.330  1.00  0.00    -0.137 C  
HETATM   21  O   UNL     1      -7.810  15.984  65.961  1.00  0.00    -0.060 OA 
HETATM   22  C   UNL     1      -9.779  15.418  68.585  1.00  0.00    -0.210 C  
HETATM   23  H   UNL     1      -7.925  16.858  66.316  1.00  0.00     0.000 HD 
HETATM   24  C   UNL     1      -7.364  14.337  69.334  1.00  0.00    -0.011 C  
HETATM   25  C   UNL     1     -10.967  14.680  67.896  1.00  0.00    -0.283 C  
HETATM   26  C   UNL     1     -11.925  13.925  68.467  1.00  0.00    -0.394 C  
HETATM   27  F   UNL     1      -7.630  16.518  68.708  1.00  0.00    -0.170 F  
HETATM   28  C   UNL     1      -7.844  14.384  70.792  1.00  0.00     2.219 C  
HETATM   29  C   UNL     1      -8.831  15.528  71.021  1.00  0.00     2.877 C  
HETATM   30  C   UNL     1      -9.983  15.183  70.122  1.00  0.00     0.025 C  
ENDROOT
BRANCH   9  31
HETATM   31  C   UNL     1      -6.076  10.844  66.309  1.00  0.00    -0.137 C  
HETATM   32  O   UNL     1      -5.257  11.736  66.127  1.00  0.00    -0.323 OA 
BRANCH  31  33
HETATM   33  C   UNL     1      -6.106   9.574  65.466  1.00  0.00    -0.065 C  
BRANCH  33  34
HETATM   34  O   UNL     1      -5.695   9.808  64.110  1.00  0.00    -0.081 OA 
BRANCH  34  35
HETATM   35  C   UNL     1      -6.615   9.444  63.180  1.00  0.00    -0.100 C  
HETATM   36  O   UNL     1      -7.533  10.140  62.788  1.00  0.00    -0.131 OA 
HETATM   37  C   UNL     1      -6.299   8.075  62.630  1.00  0.00    -0.085 C  
ENDBRANCH  34  35
ENDBRANCH  33  34
ENDBRANCH  31  33
ENDBRANCH   9  31
TORSDOF 4
ENDMDL
MODEL      107
REMARK 921   NORMALIZED FREE ENERGY PREDICTED BY IDOCK:    4.30 KCAL/MOL
REMARK 922        TOTAL FREE ENERGY PREDICTED BY IDOCK:    4.75 KCAL/MOL
REMARK 923 INTER-LIGAND FREE ENERGY PREDICTED BY IDOCK:    5.45 KCAL/MOL
REMARK 924 INTRA-LIGAND FREE ENERGY PREDICTED BY IDOCK:   -0.71 KCAL/MOL
REMARK 927      BINDING AFFINITY PREDICTED BY RF-SCORE:    0.00 PKD
ROOT
HETATM    1  C   UNL     1     -11.394  14.853  68.292  1.00  0.00    -0.325 C  
HETATM    2  C   UNL     1     -11.376  16.173  67.560  1.00  0.00     0.002 C  
HETATM    3  C   UNL     1      -9.915  16.452  67.314  1.00  0.00    -0.258 C  
HETATM    4  O   UNL     1      -9.634  17.629  68.065  1.00  0.00    -0.272 OA 
HETATM    5  C   UNL     1      -8.308  17.461  68.513  1.00  0.00    -0.271 C  
HETATM    6  O   UNL     1      -8.027  16.061  68.629  1.00  0.00    -0.153 OA 
HETATM    7  C   UNL     1      -8.131  18.243  69.812  1.00  0.00     1.078 C  
HETATM    8  C   UNL     1      -7.451  19.557  69.440  1.00  0.00    -0.197 C  
HETATM    9  C   UNL     1      -9.051  15.333  67.912  1.00  0.00    -0.175 C  
HETATM   10  O   UNL     1     -11.365  17.823  73.418  1.00  0.00     0.615 OA 
HETATM   11  C   UNL     1      -6.962  19.435  68.007  1.00  0.00    -0.289 C  
HETATM   12  C   UNL     1      -9.982  14.496  68.858  1.00  0.00    -0.206 C  
HETATM   13  C   UNL     1      -7.361  18.067  67.488  1.00  0.00    -0.213 C  
HETATM   14  C   UNL     1     -11.674  16.714  73.065  1.00  0.00    -0.055 C  
HETATM   15  C   UNL     1     -12.937  16.434  72.340  1.00  0.00     0.273 C  
HETATM   16  C   UNL     1     -10.016  12.930  68.867  1.00  0.00     0.091 C  
HETATM   17  C   UNL     1      -9.509  14.785  70.276  1.00  0.00     0.865 C  
HETATM   18  C   UNL     1     -11.341  12.402  69.522  1.00  0.00    -0.180 C  
HETATM   19  C   UNL     1     -12.753  12.726  72.612  1.00  0.00     0.721 C  
HETATM   20  C   UNL     1     -12.325  13.427  70.200  1.00  0.00    -0.252 C  
HETATM   21  O   UNL     1     -11.119  11.236  70.302  1.00  0.00    -0.477 OA 
HETATM   22  C   UNL     1     -12.296  13.971  71.792  1.00  0.00    -0.268 C  
HETATM   23  H   UNL     1     -11.921  10.916  70.699  1.00  0.00     0.000 HD 
HETATM   24  C   UNL     1     -12.636  14.488  69.112  1.00  0.00     0.153 C  
HETATM   25  C   UNL     1     -11.074  14.361  72.677  1.00  0.00     1.924 C  
HETATM   26  C   UNL     1     -10.817  15.542  73.272  1.00  0.00     2.002 C  
HETATM   27  F   UNL     1     -13.526  12.668  70.168  1.00  0.00     0.661 F  
HETATM   28  C   UNL     1     -13.646  15.580  69.495  1.00  0.00     2.014 C  
HETATM   29  C   UNL     1     -14.355  15.253  70.809  1.00  0.00     0.169 C  
HETATM   30  C   UNL     1     -13.238  15.225  71.812  1.00  0.00    -0.512 C  
ENDROOT
BRANCH   9  31
HETATM   31  C   UNL     1      -8.411  14.437  66.841  1.00  0.00    -0.078 C  
HETATM   32  O   UNL     1      -7.283  13.987  67.002  1.00  0.00     0.003 OA 
BRANCH  31  33
HETATM   33  C   UNL     1      -9.187  14.259  65.541  1.00  0.00     0.554 C  
BRANCH  33  34
HETATM   34  O   UNL     1     -10.288  13.347  65.682  1.00  0.00    -0.279 OA 
BRANCH  34  35
HETATM   35  C   UNL     1     -11.345  13.625  64.877  1.00  0.00    -0.344 C  
HETATM   36  O   UNL     1     -11.565  14.698  64.348  1.00  0.00    -0.367 OA 
HETATM   37  C   UNL     1     -12.182  12.388  64.656  1.00  0.00    -0.499 C  
ENDBRANCH  34  35
ENDBRANCH  33  34
ENDBRANCH  31  33
ENDBRANCH   9  31
TORSDOF 4
ENDMDL
MODEL      108
REMARK 921   NORMALIZED FREE ENERGY PREDICTED BY IDOCK:    5.27 KCAL/MOL
REMARK 922        TOTAL FREE ENERGY PREDICTED BY IDOCK:    5.94 KCAL/MOL
REMARK 923 INTER-LIGAND FREE ENERGY PREDICTED BY IDOCK:    6.59 KCAL/MOL
REMARK 924 INTRA-LIGAND FREE ENERGY PREDICTED BY IDOCK:   -0.65 KCAL/MOL
REMARK 927      BINDING AFFINITY PREDICTED BY RF-SCORE:    0.00 PKD
ROOT
HETATM    1  C   UNL     1     -11.269  14.673  68.207  1.00  0.00    -0.301 C  
HETATM    2  C   UNL     1     -11.247  15.986  67.461  1.00  0.00    -0.138 C  
HETATM    3  C   UNL     1      -9.783  16.314  67.311  1.00  0.00    -0.237 C  
HETATM    4  O   UNL     1      -9.595  17.508  68.065  1.00  0.00    -0.267 OA 
HETATM    5  C   UNL     1      -8.297  17.391  68.602  1.00  0.00    -0.264 C  
HETATM    6  O   UNL     1      -7.976  16.003  68.754  1.00  0.00    -0.170 OA 
HETATM    7  C   UNL     1      -8.236  18.192  69.901  1.00  0.00     1.535 C  
HETATM    8  C   UNL     1      -7.578  19.525  69.559  1.00  0.00    -0.042 C  
HETATM    9  C   UNL     1      -8.923  15.232  67.980  1.00  0.00    -0.171 C  
HETATM   10  O   UNL     1     -11.689  17.694  73.286  1.00  0.00     0.427 OA 
HETATM   11  C   UNL     1      -6.990  19.407  68.163  1.00  0.00    -0.306 C  
HETATM   12  C   UNL     1      -9.887  14.372  68.870  1.00  0.00    -0.164 C  
HETATM   13  C   UNL     1      -7.305  18.020  67.637  1.00  0.00    -0.211 C  
HETATM   14  C   UNL     1     -11.936  16.571  72.926  1.00  0.00    -0.395 C  
HETATM   15  C   UNL     1     -13.136  16.239  72.122  1.00  0.00     0.225 C  
HETATM   16  C   UNL     1      -9.867  12.806  68.897  1.00  0.00     0.140 C  
HETATM   17  C   UNL     1      -9.521  14.692  70.314  1.00  0.00     1.059 C  
HETATM   18  C   UNL     1     -11.214  12.238  69.468  1.00  0.00    -0.115 C  
HETATM   19  C   UNL     1     -12.842  12.543  72.452  1.00  0.00     0.134 C  
HETATM   20  C   UNL     1     -12.277  13.234  70.065  1.00  0.00    -0.275 C  
HETATM   21  O   UNL     1     -11.004  11.089  70.275  1.00  0.00    -0.467 OA 
HETATM   22  C   UNL     1     -12.374  13.795  71.649  1.00  0.00    -0.223 C  
HETATM   23  H   UNL     1     -11.820  10.745  70.621  1.00  0.00     0.000 HD 
HETATM   24  C   UNL     1     -12.549  14.273  68.946  1.00  0.00     0.315 C  
HETATM   25  C   UNL     1     -11.229  14.237  72.609  1.00  0.00     1.963 C  
HETATM   26  C   UNL     1     -11.054  15.432  73.205  1.00  0.00     0.977 C  
HETATM   27  F   UNL     1     -13.446  12.433  69.962  1.00  0.00     0.835 F  
HETATM   28  C   UNL     1     -13.621  15.332  69.246  1.00  0.00     2.581 C  
HETATM   29  C   UNL     1     -14.405  14.993  70.513  1.00  0.00     0.787 C  
HETATM   30  C   UNL     1     -13.358  15.015  71.590  1.00  0.00    -0.490 C  
ENDROOT
BRANCH   9  31
HETATM   31  C   UNL     1      -8.181  14.349  66.965  1.00  0.00    -0.109 C  
HETATM   32  O   UNL     1      -8.758  13.932  65.968  1.00  0.00     0.364 OA 
BRANCH  31  33
HETATM   33  C   UNL     1      -6.765  13.919  67.334  1.00  0.00     0.029 C  
BRANCH  33  34
HETATM   34  O   UNL     1      -6.747  12.961  68.403  1.00  0.00    -0.077 OA 
BRANCH  34  35
HETATM   35  C   UNL     1      -6.067  13.371  69.504  1.00  0.00    -0.110 C  
HETATM   36  O   UNL     1      -5.729  14.517  69.737  1.00  0.00    -0.095 OA 
HETATM   37  C   UNL     1      -5.851  12.218  70.453  1.00  0.00    -0.152 C  
ENDBRANCH  34  35
ENDBRANCH  33  34
ENDBRANCH  31  33
ENDBRANCH   9  31
TORSDOF 4
ENDMDL
MODEL      109
REMARK 921   NORMALIZED FREE ENERGY PREDICTED BY IDOCK:    5.30 KCAL/MOL
REMARK 922        TOTAL FREE ENERGY PREDICTED BY IDOCK:    5.97 KCAL/MOL
REMARK 923 INTER-LIGAND FREE ENERGY PREDICTED BY IDOCK:    6.26 KCAL/MOL
REMARK 924 INTRA-LIGAND FREE ENERGY PREDICTED BY IDOCK:   -0.29 KCAL/MOL
REMARK 927      BINDING AFFINITY PREDICTED BY RF-SCORE:    0.00 PKD
ROOT
HETATM    1  C   UNL     1      -9.090  13.635  67.015  1.00  0.00    -0.254 C  
HETATM    2  C   UNL     1      -7.805  12.866  66.821  1.00  0.00     0.251 C  
HETATM    3  C   UNL     1      -7.811  11.831  67.916  1.00  0.00    -0.135 C  
HETATM    4  O   UNL     1      -6.700  12.165  68.743  1.00  0.00    -0.076 OA 
HETATM    5  C   UNL     1      -7.112  11.828  70.049  1.00  0.00     0.682 C  
HETATM    6  O   UNL     1      -8.539  11.931  70.130  1.00  0.00     2.333 OA 
HETATM    7  C   UNL     1      -6.365  12.719  71.039  1.00  0.00     1.161 C  
HETATM    8  C   UNL     1      -5.207  11.888  71.584  1.00  0.00     0.076 C  
HETATM    9  C   UNL     1      -9.067  11.982  68.785  1.00  0.00     0.083 C  
HETATM   10  O   UNL     1      -6.126  17.527  70.357  1.00  0.00    -0.055 OA 
HETATM   11  C   UNL     1      -5.434  10.446  71.161  1.00  0.00    -0.071 C  
HETATM   12  C   UNL     1      -9.702  13.371  68.428  1.00  0.00    -0.201 C  
HETATM   13  C   UNL     1      -6.707  10.392  70.339  1.00  0.00    -0.105 C  
HETATM   14  C   UNL     1      -7.160  17.530  69.739  1.00  0.00     0.434 C  
HETATM   15  C   UNL     1      -7.203  17.654  68.263  1.00  0.00    -0.227 C  
HETATM   16  C   UNL     1     -11.233  13.576  68.168  1.00  0.00    -0.302 C  
HETATM   17  C   UNL     1      -9.493  14.254  69.651  1.00  0.00     0.630 C  
HETATM   18  C   UNL     1     -11.493  14.906  67.376  1.00  0.00    -0.343 C  
HETATM   19  C   UNL     1     -10.875  18.203  68.003  1.00  0.00    -0.189 C  
HETATM   20  C   UNL     1     -10.293  15.889  67.108  1.00  0.00    -0.300 C  
HETATM   21  O   UNL     1     -12.672  15.563  67.816  1.00  0.00     0.538 OA 
HETATM   22  C   UNL     1      -9.749  17.130  68.105  1.00  0.00    -0.276 C  
HETATM   23  H   UNL     1     -12.830  16.369  67.336  1.00  0.00     0.000 HD 
HETATM   24  C   UNL     1      -9.204  15.036  66.407  1.00  0.00    -0.328 C  
HETATM   25  C   UNL     1      -9.588  17.149  69.655  1.00  0.00     0.430 C  
HETATM   26  C   UNL     1      -8.471  17.367  70.376  1.00  0.00     3.661 C  
HETATM   27  F   UNL     1     -10.811  16.608  65.997  1.00  0.00    -0.282 F  
HETATM   28  C   UNL     1      -7.937  15.782  65.963  1.00  0.00     0.779 C  
HETATM   29  C   UNL     1      -8.110  17.296  66.072  1.00  0.00    -0.187 C  
HETATM   30  C   UNL     1      -8.339  17.519  67.539  1.00  0.00    -0.220 C  
ENDROOT
BRANCH   9  31
HETATM   31  C   UNL     1     -10.079  10.846  68.572  1.00  0.00    -0.183 C  
HETATM   32  O   UNL     1     -11.132  10.829  69.196  1.00  0.00    -0.212 OA 
BRANCH  31  33
HETATM   33  C   UNL     1      -9.645   9.700  67.663  1.00  0.00    -0.142 C  
BRANCH  33  34
HETATM   34  O   UNL     1     -10.554   8.589  67.714  1.00  0.00    -0.232 OA 
BRANCH  34  35
HETATM   35  C   UNL     1     -10.097   7.471  67.094  1.00  0.00    -0.247 C  
HETATM   36  O   UNL     1     -10.360   6.328  67.420  1.00  0.00    -0.157 OA 
HETATM   37  C   UNL     1      -9.274   7.835  65.883  1.00  0.00    -0.078 C  
ENDBRANCH  34  35
ENDBRANCH  33  34
ENDBRANCH  31  33
ENDBRANCH   9  31
TORSDOF 4
ENDMDL
MODEL      110
REMARK 921   NORMALIZED FREE ENERGY PREDICTED BY IDOCK:    5.43 KCAL/MOL
REMARK 922        TOTAL FREE ENERGY PREDICTED BY IDOCK:    6.13 KCAL/MOL
REMARK 923 INTER-LIGAND FREE ENERGY PREDICTED BY IDOCK:    5.84 KCAL/MOL
REMARK 924 INTRA-LIGAND FREE ENERGY PREDICTED BY IDOCK:    0.29 KCAL/MOL
REMARK 927      BINDING AFFINITY PREDICTED BY RF-SCORE:    0.00 PKD
ROOT
HETATM    1  C   UNL     1     -10.763   4.930  69.475  1.00  0.00     0.414 C  
HETATM    2  C   UNL     1     -10.450   4.691  70.933  1.00  0.00    -0.028 C  
HETATM    3  C   UNL     1     -10.795   5.990  71.615  1.00  0.00    -0.260 C  
HETATM    4  O   UNL     1      -9.556   6.478  72.122  1.00  0.00    -0.150 OA 
HETATM    5  C   UNL     1      -9.652   7.881  72.012  1.00  0.00    -0.186 C  
HETATM    6  O   UNL     1     -10.535   8.206  70.932  1.00  0.00    -0.200 OA 
HETATM    7  C   UNL     1      -8.245   8.453  71.862  1.00  0.00    -0.210 C  
HETATM    8  C   UNL     1      -7.830   8.956  73.242  1.00  0.00     0.436 C  
HETATM    9  C   UNL     1     -11.284   7.019  70.585  1.00  0.00    -0.288 C  
HETATM   10  O   UNL     1      -5.127   6.558  68.650  1.00  0.00    -0.004 OA 
HETATM   11  C   UNL     1      -9.067   8.960  74.124  1.00  0.00     2.237 C  
HETATM   12  C   UNL     1     -10.915   6.454  69.169  1.00  0.00    -0.416 C  
HETATM   13  C   UNL     1     -10.231   8.438  73.303  1.00  0.00     0.372 C  
HETATM   14  C   UNL     1      -6.025   6.169  67.947  1.00  0.00    -0.017 C  
HETATM   15  C   UNL     1      -6.434   4.745  67.896  1.00  0.00    -0.045 C  
HETATM   16  C   UNL     1     -11.908   6.450  67.958  1.00  0.00     1.492 C  
HETATM   17  C   UNL     1      -9.808   7.354  68.634  1.00  0.00    -0.165 C  
HETATM   18  C   UNL     1     -11.458   5.416  66.867  1.00  0.00     1.510 C  
HETATM   19  C   UNL     1      -8.667   5.067  64.935  1.00  0.00    -0.150 C  
HETATM   20  C   UNL     1     -10.073   4.685  67.025  1.00  0.00    -0.167 C  
HETATM   21  O   UNL     1     -11.694   5.896  65.552  1.00  0.00     0.924 OA 
HETATM   22  C   UNL     1      -8.571   5.216  66.483  1.00  0.00    -0.111 C  
HETATM   23  H   UNL     1     -11.421   5.269  64.891  1.00  0.00     0.000 HD 
HETATM   24  C   UNL     1     -10.108   4.024  68.428  1.00  0.00     0.238 C  
HETATM   25  C   UNL     1      -7.964   6.652  66.514  1.00  0.00    -0.106 C  
HETATM   26  C   UNL     1      -6.831   7.067  67.113  1.00  0.00    -0.065 C  
HETATM   27  F   UNL     1     -10.300   3.550  66.201  1.00  0.00     0.058 F  
HETATM   28  C   UNL     1      -8.888   3.173  68.810  1.00  0.00    -0.167 C  
HETATM   29  C   UNL     1      -7.975   2.930  67.609  1.00  0.00    -0.075 C  
HETATM   30  C   UNL     1      -7.526   4.310  67.224  1.00  0.00    -0.077 C  
ENDROOT
BRANCH   9  31
HETATM   31  C   UNL     1     -12.792   7.295  70.689  1.00  0.00     0.133 C  
HETATM   32  O   UNL     1     -13.580   6.712  69.954  1.00  0.00     2.742 OA 
BRANCH  31  33
HETATM   33  C   UNL     1     -13.223   8.408  71.637  1.00  0.00    -0.339 C  
BRANCH  33  34
HETATM   34  O   UNL     1     -13.594   9.607  70.940  1.00  0.00    -0.253 OA 
BRANCH  34  35
HETATM   35  C   UNL     1     -12.891  10.706  71.314  1.00  0.00    -0.434 C  
HETATM   36  O   UNL     1     -13.110  11.378  72.305  1.00  0.00    -0.365 OA 
HETATM   37  C   UNL     1     -11.736  10.944  70.372  1.00  0.00    -0.444 C  
ENDBRANCH  34  35
ENDBRANCH  33  34
ENDBRANCH  31  33
ENDBRANCH   9  31
TORSDOF 4
ENDMDL
MODEL      111
REMARK 921   NORMALIZED FREE ENERGY PREDICTED BY IDOCK:    5.54 KCAL/MOL
REMARK 922        TOTAL FREE ENERGY PREDICTED BY IDOCK:    6.27 KCAL/MOL
REMARK 923 INTER-LIGAND FREE ENERGY PREDICTED BY IDOCK:    6.81 KCAL/MOL
REMARK 924 INTRA-LIGAND FREE ENERGY PREDICTED BY IDOCK:   -0.54 KCAL/MOL
REMARK 927      BINDING AFFINITY PREDICTED BY RF-SCORE:    0.00 PKD
ROOT
HETATM    1  C   UNL     1     -11.875  12.726  68.549  1.00  0.00    -0.345 C  
HETATM    2  C   UNL     1     -11.785  11.637  67.507  1.00  0.00    -0.288 C  
HETATM    3  C   UNL     1     -10.740  10.688  68.037  1.00  0.00    -0.233 C  
HETATM    4  O   UNL     1      -9.674  10.752  67.094  1.00  0.00    -0.167 OA 
HETATM    5  C   UNL     1      -8.505  10.593  67.865  1.00  0.00    -0.120 C  
HETATM    6  O   UNL     1      -8.750  11.074  69.192  1.00  0.00    -0.108 OA 
HETATM    7  C   UNL     1      -7.353  11.296  67.149  1.00  0.00    -0.130 C  
HETATM    8  C   UNL     1      -6.574  10.212  66.411  1.00  0.00    -0.084 C  
HETATM    9  C   UNL     1     -10.179  11.204  69.370  1.00  0.00    -0.010 C  
HETATM   10  O   UNL     1      -7.868  15.834  65.484  1.00  0.00     1.742 OA 
HETATM   11  C   UNL     1      -7.065   8.865  66.914  1.00  0.00    -0.082 C  
HETATM   12  C   UNL     1     -10.645  12.695  69.512  1.00  0.00     0.381 C  
HETATM   13  C   UNL     1      -8.157   9.114  67.936  1.00  0.00    -0.105 C  
HETATM   14  C   UNL     1      -8.707  16.085  66.313  1.00  0.00    -0.336 C  
HETATM   15  C   UNL     1     -10.151  16.152  65.987  1.00  0.00    -0.372 C  
HETATM   16  C   UNL     1     -11.244  13.288  70.832  1.00  0.00     1.650 C  
HETATM   17  C   UNL     1      -9.390  13.544  69.356  1.00  0.00     0.902 C  
HETATM   18  C   UNL     1     -12.050  14.603  70.541  1.00  0.00    -0.321 C  
HETATM   19  C   UNL     1     -11.234  17.642  69.221  1.00  0.00     1.179 C  
HETATM   20  C   UNL     1     -12.017  15.221  69.093  1.00  0.00    -0.280 C  
HETATM   21  O   UNL     1     -11.878  15.568  71.568  1.00  0.00    -0.325 OA 
HETATM   22  C   UNL     1     -10.898  16.315  68.476  1.00  0.00    -0.330 C  
HETATM   23  H   UNL     1     -12.366  16.365  71.392  1.00  0.00     0.000 HD 
HETATM   24  C   UNL     1     -12.466  14.080  68.144  1.00  0.00     0.229 C  
HETATM   25  C   UNL     1      -9.351  16.358  68.670  1.00  0.00    -0.233 C  
HETATM   26  C   UNL     1      -8.390  16.302  67.729  1.00  0.00    -0.169 C  
HETATM   27  F   UNL     1     -13.203  16.003  69.135  1.00  0.00     0.584 F  
HETATM   28  C   UNL     1     -12.593  14.443  66.657  1.00  0.00     0.078 C  
HETATM   29  C   UNL     1     -12.498  15.953  66.438  1.00  0.00     2.152 C  
HETATM   30  C   UNL     1     -11.118  16.292  66.923  1.00  0.00     0.055 C  
ENDROOT
BRANCH   9  31
HETATM   31  C   UNL     1     -10.641  10.369  70.574  1.00  0.00     0.070 C  
HETATM   32  O   UNL     1      -9.950  10.303  71.583  1.00  0.00     1.549 OA 
BRANCH  31  33
HETATM   33  C   UNL     1     -11.907   9.539  70.390  1.00  0.00    -0.124 C  
BRANCH  33  34
HETATM   34  O   UNL     1     -11.888   8.335  71.170  1.00  0.00    -0.281 OA 
BRANCH  34  35
HETATM   35  C   UNL     1     -13.118   7.895  71.542  1.00  0.00    -0.311 C  
HETATM   36  O   UNL     1     -13.981   7.493  70.784  1.00  0.00     0.018 OA 
HETATM   37  C   UNL     1     -13.248   7.894  73.045  1.00  0.00     0.969 C  
ENDBRANCH  34  35
ENDBRANCH  33  34
ENDBRANCH  31  33
ENDBRANCH   9  31
TORSDOF 4
ENDMDL
MODEL      112
REMARK 921   NORMALIZED FREE ENERGY PREDICTED BY IDOCK:    7.68 KCAL/MOL
REMARK 922        TOTAL FREE ENERGY PREDICTED BY IDOCK:    8.91 KCAL/MOL
REMARK 923 INTER-LIGAND FREE ENERGY PREDICTED BY IDOCK:    7.65 KCAL/MOL
REMARK 924 INTRA-LIGAND FREE ENERGY PREDICTED BY IDOCK:    1.26 KCAL/MOL
REMARK 927      BINDING AFFINITY PREDICTED BY RF-SCORE:    0.00 PKD
ROOT
HETATM    1  C   UNL     1      -9.170  16.545  69.495  1.00  0.00     0.141 C  
HETATM    2  C   UNL     1     -10.267  15.665  70.045  1.00  0.00    -0.277 C  
HETATM    3  C   UNL     1      -9.724  14.263  69.929  1.00  0.00     0.902 C  
HETATM    4  O   UNL     1     -10.588  13.611  69.001  1.00  0.00    -0.213 OA 
HETATM    5  C   UNL     1      -9.749  12.723  68.296  1.00  0.00    -0.216 C  
HETATM    6  O   UNL     1      -8.416  13.246  68.287  1.00  0.00    -0.161 OA 
HETATM    7  C   UNL     1     -10.341  12.498  66.906  1.00  0.00    -0.242 C  
HETATM    8  C   UNL     1     -11.089  11.169  66.963  1.00  0.00    -0.339 C  
HETATM    9  C   UNL     1      -8.328  14.283  69.291  1.00  0.00     0.226 C  
HETATM   10  O   UNL     1     -11.762  16.260  64.176  1.00  0.00    -0.837 OA 
HETATM   11  C   UNL     1     -10.702  10.475  68.258  1.00  0.00    -0.270 C  
HETATM   12  C   UNL     1      -8.129  15.713  68.679  1.00  0.00    -0.158 C  
HETATM   13  C   UNL     1      -9.744  11.380  69.008  1.00  0.00    -0.031 C  
HETATM   14  C   UNL     1     -10.979  17.000  64.717  1.00  0.00     0.219 C  
HETATM   15  C   UNL     1     -11.398  17.998  65.729  1.00  0.00     1.230 C  
HETATM   16  C   UNL     1      -6.819  16.553  68.862  1.00  0.00    -0.186 C  
HETATM   17  C   UNL     1      -8.148  15.529  67.168  1.00  0.00    -0.249 C  
HETATM   18  C   UNL     1      -7.085  18.074  68.581  1.00  0.00    -0.267 C  
HETATM   19  C   UNL     1      -8.161  19.832  65.861  1.00  0.00    -0.236 C  
HETATM   20  C   UNL     1      -8.487  18.519  68.021  1.00  0.00    -0.283 C  
HETATM   21  O   UNL     1      -5.992  18.688  67.914  1.00  0.00    -0.187 OA 
HETATM   22  C   UNL     1      -8.960  18.610  66.408  1.00  0.00    -0.285 C  
HETATM   23  H   UNL     1      -6.153  19.610  67.744  1.00  0.00     0.000 HD 
HETATM   24  C   UNL     1      -9.532  17.954  69.017  1.00  0.00    -0.099 C  
HETATM   25  C   UNL     1      -8.659  17.627  65.237  1.00  0.00     1.989 C  
HETATM   26  C   UNL     1      -9.534  16.955  64.465  1.00  0.00     4.453 C  
HETATM   27  F   UNL     1      -8.479  19.887  68.404  1.00  0.00    -0.356 F  
HETATM   28  C   UNL     1     -11.000  18.313  68.741  1.00  0.00     0.733 C  
HETATM   29  C   UNL     1     -11.121  19.389  67.662  1.00  0.00    -0.201 C  
HETATM   30  C   UNL     1     -10.523  18.738  66.449  1.00  0.00    -0.485 C  
ENDROOT
BRANCH   9  31
HETATM   31  C   UNL     1      -7.211  13.955  70.293  1.00  0.00     0.811 C  
HETATM   32  O   UNL     1      -7.485  13.610  71.436  1.00  0.00     2.974 OA 
BRANCH  31  33
HETATM   33  C   UNL     1      -5.779  14.212  69.835  1.00  0.00    -0.112 C  
BRANCH  33  34
HETATM   34  O   UNL     1      -5.277  13.160  68.998  1.00  0.00    -0.068 OA 
BRANCH  34  35
HETATM   35  C   UNL     1      -5.748  11.926  69.315  1.00  0.00    -0.067 C  
HETATM   36  O   UNL     1      -5.936  11.512  70.443  1.00  0.00    -0.153 OA 
HETATM   37  C   UNL     1      -6.090  11.153  68.064  1.00  0.00    -0.049 C  
ENDBRANCH  34  35
ENDBRANCH  33  34
ENDBRANCH  31  33
ENDBRANCH   9  31
TORSDOF 4
ENDMDL
MODEL      113
REMARK 921   NORMALIZED FREE ENERGY PREDICTED BY IDOCK:    9.51 KCAL/MOL
REMARK 922        TOTAL FREE ENERGY PREDICTED BY IDOCK:   11.17 KCAL/MOL
REMARK 923 INTER-LIGAND FREE ENERGY PREDICTED BY IDOCK:   11.00 KCAL/MOL
REMARK 924 INTRA-LIGAND FREE ENERGY PREDICTED BY IDOCK:    0.17 KCAL/MOL
REMARK 927      BINDING AFFINITY PREDICTED BY RF-SCORE:    0.00 PKD
ROOT
HETATM    1  C   UNL     1      -8.220  14.188  66.908  1.00  0.00     0.007 C  
HETATM    2  C   UNL     1      -6.750  14.162  67.255  1.00  0.00     0.225 C  
HETATM    3  C   UNL     1      -6.681  13.414  68.562  1.00  0.00    -0.096 C  
HETATM    4  O   UNL     1      -6.200  14.368  69.505  1.00  0.00    -0.105 OA 
HETATM    5  C   UNL     1      -6.849  14.036  70.712  1.00  0.00     0.728 C  
HETATM    6  O   UNL     1      -8.102  13.409  70.413  1.00  0.00     2.659 OA 
HETATM    7  C   UNL     1      -6.970  15.300  71.561  1.00  0.00     2.081 C  
HETATM    8  C   UNL     1      -5.837  15.248  72.582  1.00  0.00     0.905 C  
HETATM    9  C   UNL     1      -8.090  13.014  69.022  1.00  0.00     0.348 C  
HETATM   10  O   UNL     1      -8.656  19.431  69.632  1.00  0.00     0.116 OA 
HETATM   11  C   UNL     1      -5.241  13.851  72.541  1.00  0.00    -0.209 C  
HETATM   12  C   UNL     1      -9.103  13.830  68.145  1.00  0.00    -0.194 C  
HETATM   13  C   UNL     1      -5.982  13.054  71.484  1.00  0.00     0.709 C  
HETATM   14  C   UNL     1      -9.296  18.831  68.806  1.00  0.00    -0.315 C  
HETATM   15  C   UNL     1      -8.870  18.728  67.390  1.00  0.00    -0.285 C  
HETATM   16  C   UNL     1     -10.368  13.194  67.475  1.00  0.00    -0.225 C  
HETATM   17  C   UNL     1      -9.748  14.843  69.083  1.00  0.00    -0.184 C  
HETATM   18  C   UNL     1     -10.893  14.094  66.302  1.00  0.00    -0.300 C  
HETATM   19  C   UNL     1     -12.056  17.297  66.105  1.00  0.00     3.710 C  
HETATM   20  C   UNL     1     -10.241  15.508  66.067  1.00  0.00    -0.330 C  
HETATM   21  O   UNL     1     -12.311  14.112  66.240  1.00  0.00    -0.456 OA 
HETATM   22  C   UNL     1     -10.688  16.968  66.775  1.00  0.00    -0.102 C  
HETATM   23  H   UNL     1     -12.629  14.657  65.529  1.00  0.00     0.000 HD 
HETATM   24  C   UNL     1      -8.720  15.247  65.920  1.00  0.00     0.347 C  
HETATM   25  C   UNL     1     -11.105  17.262  68.247  1.00  0.00    -0.064 C  
HETATM   26  C   UNL     1     -10.530  18.105  69.126  1.00  0.00     0.112 C  
HETATM   27  F   UNL     1     -10.598  15.718  64.707  1.00  0.00    -0.414 F  
HETATM   28  C   UNL     1      -7.846  16.470  65.605  1.00  0.00     1.195 C  
HETATM   29  C   UNL     1      -8.695  17.686  65.237  1.00  0.00     1.977 C  
HETATM   30  C   UNL     1      -9.496  17.945  66.481  1.00  0.00    -0.307 C  
ENDROOT
BRANCH   9  31
HETATM   31  C   UNL     1      -8.351  11.505  68.899  1.00  0.00    -0.001 C  
HETATM   32  O   UNL     1      -9.492  11.083  68.762  1.00  0.00    -0.189 OA 
BRANCH  31  33
HETATM   33  C   UNL     1      -7.152  10.582  69.091  1.00  0.00    -0.089 C  
BRANCH  33  34
HETATM   34  O   UNL     1      -7.540   9.259  69.489  1.00  0.00    -0.074 OA 
BRANCH  34  35
HETATM   35  C   UNL     1      -6.977   8.269  68.750  1.00  0.00    -0.067 C  
HETATM   36  O   UNL     1      -6.531   7.226  69.191  1.00  0.00    -0.035 OA 
HETATM   37  C   UNL     1      -7.048   8.601  67.279  1.00  0.00    -0.079 C  
ENDBRANCH  34  35
ENDBRANCH  33  34
ENDBRANCH  31  33
ENDBRANCH   9  31
TORSDOF 4
ENDMDL
MODEL      114
REMARK 921   NORMALIZED FREE ENERGY PREDICTED BY IDOCK:   10.72 KCAL/MOL
REMARK 922        TOTAL FREE ENERGY PREDICTED BY IDOCK:   12.66 KCAL/MOL
REMARK 923 INTER-LIGAND FREE ENERGY PREDICTED BY IDOCK:    9.09 KCAL/MOL
REMARK 924 INTRA-LIGAND FREE ENERGY PREDICTED BY IDOCK:    3.57 KCAL/MOL
REMARK 927      BINDING AFFINITY PREDICTED BY RF-SCORE:    0.00 PKD
ROOT
HETATM    1  C   UNL     1     -10.406  11.870  69.653  1.00  0.00     0.617 C  
HETATM    2  C   UNL     1      -9.681  12.694  70.690  1.00  0.00     6.522 C  
HETATM    3  C   UNL     1      -9.482  14.038  70.037  1.00  0.00     1.742 C  
HETATM    4  O   UNL     1      -8.069  14.179  69.911  1.00  0.00     0.594 OA 
HETATM    5  C   UNL     1      -7.887  14.893  68.709  1.00  0.00    -0.149 C  
HETATM    6  O   UNL     1      -8.988  14.625  67.834  1.00  0.00    -0.166 OA 
HETATM    7  C   UNL     1      -6.523  14.526  68.129  1.00  0.00    -0.143 C  
HETATM    8  C   UNL     1      -5.569  15.651  68.515  1.00  0.00    -0.103 C  
HETATM    9  C   UNL     1     -10.051  14.028  68.612  1.00  0.00    -0.217 C  
HETATM   10  O   UNL     1      -5.167   9.874  67.738  1.00  0.00    -0.036 OA 
HETATM   11  C   UNL     1      -6.403  16.803  69.050  1.00  0.00    -0.187 C  
HETATM   12  C   UNL     1     -10.314  12.527  68.239  1.00  0.00    -0.241 C  
HETATM   13  C   UNL     1      -7.860  16.381  69.020  1.00  0.00    -0.231 C  
HETATM   14  C   UNL     1      -6.312   9.505  67.662  1.00  0.00    -0.058 C  
HETATM   15  C   UNL     1      -7.016   8.863  68.798  1.00  0.00    -0.063 C  
HETATM   16  C   UNL     1     -11.633  12.028  67.556  1.00  0.00    -0.401 C  
HETATM   17  C   UNL     1      -9.284  12.172  67.174  1.00  0.00    -0.193 C  
HETATM   18  C   UNL     1     -11.815  10.482  67.754  1.00  0.00     0.691 C  
HETATM   19  C   UNL     1      -9.988   7.743  66.856  1.00  0.00    -0.331 C  
HETATM   20  C   UNL     1     -10.654   9.648  68.412  1.00  0.00    -0.225 C  
HETATM   21  O   UNL     1     -12.369   9.862  66.602  1.00  0.00     3.796 OA 
HETATM   22  C   UNL     1      -9.345   8.930  67.635  1.00  0.00    -0.156 C  
HETATM   23  H   UNL     1     -12.480   8.925  66.722  1.00  0.00     0.000 HD 
HETATM   24  C   UNL     1     -10.358  10.343  69.766  1.00  0.00    -0.252 C  
HETATM   25  C   UNL     1      -8.464   9.483  66.474  1.00  0.00    -0.130 C  
HETATM   26  C   UNL     1      -7.135   9.696  66.463  1.00  0.00    -0.089 C  
HETATM   27  F   UNL     1     -11.389   8.517  68.859  1.00  0.00     0.074 F  
HETATM   28  C   UNL     1      -9.299   9.676  70.657  1.00  0.00    -0.171 C  
HETATM   29  C   UNL     1      -8.921   8.290  70.137  1.00  0.00    -0.142 C  
HETATM   30  C   UNL     1      -8.337   8.570  68.782  1.00  0.00    -0.122 C  
ENDROOT
BRANCH   9  31
HETATM   31  C   UNL     1     -11.336  14.859  68.477  1.00  0.00    -0.298 C  
HETATM   32  O   UNL     1     -12.183  14.836  69.361  1.00  0.00    -0.283 OA 
BRANCH  31  33
HETATM   33  C   UNL     1     -11.550  15.584  67.153  1.00  0.00     0.026 C  
BRANCH  33  34
HETATM   34  O   UNL     1     -11.575  17.011  67.310  1.00  0.00     0.476 OA 
BRANCH  34  35
HETATM   35  C   UNL     1     -10.603  17.496  68.124  1.00  0.00    -0.366 C  
HETATM   36  O   UNL     1     -10.114  16.905  69.068  1.00  0.00    -0.271 OA 
HETATM   37  C   UNL     1     -10.145  18.854  67.651  1.00  0.00    -0.425 C  
ENDBRANCH  34  35
ENDBRANCH  33  34
ENDBRANCH  31  33
ENDBRANCH   9  31
TORSDOF 4
ENDMDL
MODEL      115
REMARK 921   NORMALIZED FREE ENERGY PREDICTED BY IDOCK:   10.88 KCAL/MOL
REMARK 922        TOTAL FREE ENERGY PREDICTED BY IDOCK:   12.86 KCAL/MOL
REMARK 923 INTER-LIGAND FREE ENERGY PREDICTED BY IDOCK:    9.73 KCAL/MOL
REMARK 924 INTRA-LIGAND FREE ENERGY PREDICTED BY IDOCK:    3.13 KCAL/MOL
REMARK 927      BINDING AFFINITY PREDICTED BY RF-SCORE:    0.00 PKD
ROOT
HETATM    1  C   UNL     1      -9.055  15.992  67.854  1.00  0.00    -0.187 C  
HETATM    2  C   UNL     1      -9.437  14.812  66.993  1.00  0.00    -0.241 C  
HETATM    3  C   UNL     1     -10.689  14.265  67.631  1.00  0.00    -0.258 C  
HETATM    4  O   UNL     1     -10.330  12.962  68.083  1.00  0.00    -0.226 OA 
HETATM    5  C   UNL     1     -11.068  12.780  69.271  1.00  0.00    -0.133 C  
HETATM    6  O   UNL     1     -11.315  14.058  69.869  1.00  0.00    -0.232 OA 
HETATM    7  C   UNL     1     -10.309  11.807  70.170  1.00  0.00     1.657 C  
HETATM    8  C   UNL     1     -10.965  10.442  69.985  1.00  0.00    -0.370 C  
HETATM    9  C   UNL     1     -11.050  15.080  68.881  1.00  0.00    -0.266 C  
HETATM   10  O   UNL     1      -5.560  12.406  71.019  1.00  0.00    -0.292 OA 
HETATM   11  C   UNL     1     -12.267  10.653  69.231  1.00  0.00    -0.108 C  
HETATM   12  C   UNL     1      -9.797  15.958  69.228  1.00  0.00    -0.259 C  
HETATM   13  C   UNL     1     -12.401  12.133  68.929  1.00  0.00     0.199 C  
HETATM   14  C   UNL     1      -5.635  13.594  70.833  1.00  0.00    -0.200 C  
HETATM   15  C   UNL     1      -5.158  14.234  69.584  1.00  0.00    -0.091 C  
HETATM   16  C   UNL     1      -9.886  17.478  69.594  1.00  0.00     0.353 C  
HETATM   17  C   UNL     1      -9.226  15.381  70.517  1.00  0.00     1.140 C  
HETATM   18  C   UNL     1      -8.495  18.181  69.408  1.00  0.00     0.469 C  
HETATM   19  C   UNL     1      -5.410  17.743  70.800  1.00  0.00    -0.240 C  
HETATM   20  C   UNL     1      -7.230  17.307  69.071  1.00  0.00    -0.227 C  
HETATM   21  O   UNL     1      -8.254  19.154  70.414  1.00  0.00     1.411 OA 
HETATM   22  C   UNL     1      -6.189  16.555  70.158  1.00  0.00     0.006 C  
HETATM   23  H   UNL     1      -7.412  19.580  70.302  1.00  0.00     0.000 HD 
HETATM   24  C   UNL     1      -7.609  16.497  67.804  1.00  0.00    -0.162 C  
HETATM   25  C   UNL     1      -6.524  15.794  71.477  1.00  0.00     1.916 C  
HETATM   26  C   UNL     1      -6.247  14.515  71.796  1.00  0.00     0.405 C  
HETATM   27  F   UNL     1      -6.392  18.302  68.499  1.00  0.00    -0.192 F  
HETATM   28  C   UNL     1      -6.509  15.604  67.212  1.00  0.00    -0.093 C  
HETATM   29  C   UNL     1      -5.150  15.891  67.850  1.00  0.00    -0.135 C  
HETATM   30  C   UNL     1      -5.361  15.541  69.295  1.00  0.00    -0.097 C  
ENDROOT
BRANCH   9  31
HETATM   31  C   UNL     1     -12.295  15.958  68.680  1.00  0.00     0.493 C  
HETATM   32  O   UNL     1     -13.268  15.829  69.412  1.00  0.00     0.567 OA 
BRANCH  31  33
HETATM   33  C   UNL     1     -12.299  16.876  67.462  1.00  0.00     2.673 C  
BRANCH  33  34
HETATM   34  O   UNL     1     -11.593  16.309  66.348  1.00  0.00     0.491 OA 
BRANCH  34  35
HETATM   35  C   UNL     1     -12.354  15.511  65.557  1.00  0.00     0.877 C  
HETATM   36  O   UNL     1     -13.565  15.570  65.455  1.00  0.00     1.485 OA 
HETATM   37  C   UNL     1     -11.483  14.582  64.747  1.00  0.00    -0.408 C  
ENDBRANCH  34  35
ENDBRANCH  33  34
ENDBRANCH  31  33
ENDBRANCH   9  31
TORSDOF 4
ENDMDL
MODEL      116
REMARK 921   NORMALIZED FREE ENERGY PREDICTED BY IDOCK:   12.52 KCAL/MOL
REMARK 922        TOTAL FREE ENERGY PREDICTED BY IDOCK:   14.89 KCAL/MOL
REMARK 923 INTER-LIGAND FREE ENERGY PREDICTED BY IDOCK:   10.86 KCAL/MOL
REMARK 924 INTRA-LIGAND FREE ENERGY PREDICTED BY IDOCK:    4.03 KCAL/MOL
REMARK 927      BINDING AFFINITY PREDICTED BY RF-SCORE:    0.00 PKD
ROOT
HETATM    1  C   UNL     1      -8.775  12.334  65.789  1.00  0.00     0.452 C  
HETATM    2  C   UNL     1      -8.597  11.024  65.060  1.00  0.00     0.021 C  
HETATM    3  C   UNL     1      -9.840  10.236  65.384  1.00  0.00    -0.296 C  
HETATM    4  O   UNL     1      -9.378   9.112  66.129  1.00  0.00    -0.190 OA 
HETATM    5  C   UNL     1     -10.404   8.855  67.062  1.00  0.00    -0.269 C  
HETATM    6  O   UNL     1     -11.098  10.076  67.343  1.00  0.00    -0.257 OA 
HETATM    7  C   UNL     1      -9.787   8.190  68.291  1.00  0.00    -0.191 C  
HETATM    8  C   UNL     1     -10.042   6.693  68.148  1.00  0.00    -0.174 C  
HETATM    9  C   UNL     1     -10.751  11.040  66.322  1.00  0.00    -0.212 C  
HETATM   10  O   UNL     1      -5.812  10.048  70.382  1.00  0.00    -0.054 OA 
HETATM   11  C   UNL     1     -11.043   6.498  67.022  1.00  0.00    -0.411 C  
HETATM   12  C   UNL     1      -9.896  12.234  66.872  1.00  0.00    -0.216 C  
HETATM   13  C   UNL     1     -11.384   7.863  66.455  1.00  0.00     2.240 C  
HETATM   14  C   UNL     1      -6.075  11.156  69.989  1.00  0.00    -0.134 C  
HETATM   15  C   UNL     1      -5.367  11.783  68.848  1.00  0.00    -0.050 C  
HETATM   16  C   UNL     1     -10.420  13.709  66.941  1.00  0.00    -0.272 C  
HETATM   17  C   UNL     1      -9.663  11.939  68.348  1.00  0.00    -0.201 C  
HETATM   18  C   UNL     1      -9.228  14.723  67.058  1.00  0.00    -0.233 C  
HETATM   19  C   UNL     1      -6.741  15.207  69.344  1.00  0.00    -0.162 C  
HETATM   20  C   UNL     1      -7.766  14.171  67.254  1.00  0.00    -0.108 C  
HETATM   21  O   UNL     1      -9.539  15.809  67.917  1.00  0.00    -0.212 OA 
HETATM   22  C   UNL     1      -6.998  13.808  68.706  1.00  0.00    -0.109 C  
HETATM   23  H   UNL     1      -8.817  16.424  67.988  1.00  0.00     0.000 HD 
HETATM   24  C   UNL     1      -7.533  13.183  66.082  1.00  0.00     2.527 C  
HETATM   25  C   UNL     1      -7.571  13.108  69.975  1.00  0.00     1.679 C  
HETATM   26  C   UNL     1      -7.147  11.974  70.567  1.00  0.00     2.139 C  
HETATM   27  F   UNL     1      -7.021  15.292  66.797  1.00  0.00    -0.109 F  
HETATM   28  C   UNL     1      -6.137  12.550  65.993  1.00  0.00     2.854 C  
HETATM   29  C   UNL     1      -5.152  13.227  66.945  1.00  0.00     0.993 C  
HETATM   30  C   UNL     1      -5.739  12.965  68.302  1.00  0.00    -0.076 C  
ENDROOT
BRANCH   9  31
HETATM   31  C   UNL     1     -12.021  11.551  65.625  1.00  0.00     0.651 C  
HETATM   32  O   UNL     1     -12.615  10.843  64.822  1.00  0.00     1.859 OA 
BRANCH  31  33
HETATM   33  C   UNL     1     -12.407  13.005  65.880  1.00  0.00    -0.368 C  
BRANCH  33  34
HETATM   34  O   UNL     1     -11.947  13.882  64.841  1.00  0.00    -0.358 OA 
BRANCH  34  35
HETATM   35  C   UNL     1     -11.652  13.254  63.674  1.00  0.00    -0.325 C  
HETATM   36  O   UNL     1     -10.548  13.187  63.169  1.00  0.00     0.360 OA 
HETATM   37  C   UNL     1     -12.877  12.569  63.117  1.00  0.00     0.070 C  
ENDBRANCH  34  35
ENDBRANCH  33  34
ENDBRANCH  31  33
ENDBRANCH   9  31
TORSDOF 4
ENDMDL
MODEL      117
REMARK 921   NORMALIZED FREE ENERGY PREDICTED BY IDOCK:   13.09 KCAL/MOL
REMARK 922        TOTAL FREE ENERGY PREDICTED BY IDOCK:   15.59 KCAL/MOL
REMARK 923 INTER-LIGAND FREE ENERGY PREDICTED BY IDOCK:   14.72 KCAL/MOL
REMARK 924 INTRA-LIGAND FREE ENERGY PREDICTED BY IDOCK:    0.87 KCAL/MOL
REMARK 927      BINDING AFFINITY PREDICTED BY RF-SCORE:    0.00 PKD
ROOT
HETATM    1  C   UNL     1     -10.607  12.283  67.731  1.00  0.00    -0.241 C  
HETATM    2  C   UNL     1     -11.179  13.124  66.616  1.00  0.00    -0.335 C  
HETATM    3  C   UNL     1     -10.256  14.313  66.523  1.00  0.00    -0.276 C  
HETATM    4  O   UNL     1     -11.064  15.433  66.876  1.00  0.00    -0.316 OA 
HETATM    5  C   UNL     1     -10.188  16.304  67.556  1.00  0.00    -0.270 C  
HETATM    6  O   UNL     1      -9.147  15.536  68.171  1.00  0.00    -0.181 OA 
HETATM    7  C   UNL     1     -11.004  17.146  68.534  1.00  0.00    -0.204 C  
HETATM    8  C   UNL     1     -11.236  18.495  67.859  1.00  0.00     0.350 C  
HETATM    9  C   UNL     1      -9.153  14.214  67.585  1.00  0.00    -0.194 C  
HETATM   10  O   UNL     1     -14.218  15.055  71.523  1.00  0.00    -0.459 OA 
HETATM   11  C   UNL     1     -10.330  18.565  66.642  1.00  0.00    -0.442 C  
HETATM   12  C   UNL     1      -9.593  13.099  68.596  1.00  0.00    -0.034 C  
HETATM   13  C   UNL     1      -9.564  17.259  66.550  1.00  0.00    -0.286 C  
HETATM   14  C   UNL     1     -13.610  14.015  71.513  1.00  0.00    -0.306 C  
HETATM   15  C   UNL     1     -14.063  12.838  70.734  1.00  0.00     2.839 C  
HETATM   16  C   UNL     1      -8.629  11.980  69.118  1.00  0.00     0.490 C  
HETATM   17  C   UNL     1      -9.932  13.819  69.895  1.00  0.00     1.318 C  
HETATM   18  C   UNL     1      -9.439  10.766  69.695  1.00  0.00     0.212 C  
HETATM   19  C   UNL     1     -11.682  10.407  72.243  1.00  0.00     1.777 C  
HETATM   20  C   UNL     1     -11.004  10.881  69.833  1.00  0.00    -0.199 C  
HETATM   21  O   UNL     1      -8.814  10.208  70.841  1.00  0.00    -0.140 OA 
HETATM   22  C   UNL     1     -11.871  11.491  71.139  1.00  0.00     0.279 C  
HETATM   23  H   UNL     1      -9.305   9.473  71.191  1.00  0.00     0.000 HD 
HETATM   24  C   UNL     1     -11.519  11.264  68.421  1.00  0.00    -0.377 C  
HETATM   25  C   UNL     1     -11.572  12.739  72.025  1.00  0.00     3.494 C  
HETATM   26  C   UNL     1     -12.344  13.824  72.228  1.00  0.00     0.078 C  
HETATM   27  F   UNL     1     -11.347   9.503  69.868  1.00  0.00    -0.244 F  
HETATM   28  C   UNL     1     -13.043  11.369  68.258  1.00  0.00     4.091 C  
HETATM   29  C   UNL     1     -13.777  10.815  69.478  1.00  0.00     3.060 C  
HETATM   30  C   UNL     1     -13.326  11.711  70.596  1.00  0.00     0.694 C  
ENDROOT
BRANCH   9  31
HETATM   31  C   UNL     1      -7.775  13.896  66.985  1.00  0.00     0.189 C  
HETATM   32  O   UNL     1      -7.664  13.055  66.101  1.00  0.00     1.205 OA 
BRANCH  31  33
HETATM   33  C   UNL     1      -6.570  14.569  67.634  1.00  0.00    -0.153 C  
BRANCH  33  34
HETATM   34  O   UNL     1      -5.332  13.937  67.275  1.00  0.00    -0.309 OA 
BRANCH  34  35
HETATM   35  C   UNL     1      -5.369  12.580  67.320  1.00  0.00    -0.036 C  
HETATM   36  O   UNL     1      -5.271  11.840  66.359  1.00  0.00    -0.302 OA 
HETATM   37  C   UNL     1      -5.468  12.100  68.747  1.00  0.00    -0.050 C  
ENDBRANCH  34  35
ENDBRANCH  33  34
ENDBRANCH  31  33
ENDBRANCH   9  31
TORSDOF 4
ENDMDL
MODEL      118
REMARK 921   NORMALIZED FREE ENERGY PREDICTED BY IDOCK:   13.78 KCAL/MOL
REMARK 922        TOTAL FREE ENERGY PREDICTED BY IDOCK:   16.44 KCAL/MOL
REMARK 923 INTER-LIGAND FREE ENERGY PREDICTED BY IDOCK:   13.57 KCAL/MOL
REMARK 924 INTRA-LIGAND FREE ENERGY PREDICTED BY IDOCK:    2.88 KCAL/MOL
REMARK 927      BINDING AFFINITY PREDICTED BY RF-SCORE:    0.00 PKD
ROOT
HETATM    1  C   UNL     1      -9.410  10.689  67.487  1.00  0.00    -0.158 C  
HETATM    2  C   UNL     1     -10.253   9.493  67.111  1.00  0.00    -0.305 C  
HETATM    3  C   UNL     1     -11.587   9.748  67.764  1.00  0.00     0.990 C  
HETATM    4  O   UNL     1     -11.732   8.704  68.723  1.00  0.00     1.005 OA 
HETATM    5  C   UNL     1     -12.428   9.298  69.796  1.00  0.00     1.228 C  
HETATM    6  O   UNL     1     -12.142  10.701  69.821  1.00  0.00    -0.300 OA 
HETATM    7  C   UNL     1     -12.057   8.562  71.082  1.00  0.00    -0.283 C  
HETATM    8  C   UNL     1     -13.192   7.583  71.366  1.00  0.00    -0.368 C  
HETATM    9  C   UNL     1     -11.553  11.065  68.552  1.00  0.00    -0.310 C  
HETATM   10  O   UNL     1      -7.405   7.663  72.169  1.00  0.00    -0.066 OA 
HETATM   11  C   UNL     1     -14.349   7.935  70.446  1.00  0.00     1.630 C  
HETATM   12  C   UNL     1     -10.045  11.482  68.673  1.00  0.00    -0.214 C  
HETATM   13  C   UNL     1     -13.921   9.106  69.581  1.00  0.00     3.849 C  
HETATM   14  C   UNL     1      -7.030   8.613  71.530  1.00  0.00    -0.087 C  
HETATM   15  C   UNL     1      -6.403   8.476  70.194  1.00  0.00    -0.038 C  
HETATM   16  C   UNL     1      -9.530  12.938  68.410  1.00  0.00    -0.162 C  
HETATM   17  C   UNL     1      -9.678  11.305  70.141  1.00  0.00     1.743 C  
HETATM   18  C   UNL     1      -7.987  12.944  68.127  1.00  0.00    -0.153 C  
HETATM   19  C   UNL     1      -5.241  12.002  69.921  1.00  0.00    -0.081 C  
HETATM   20  C   UNL     1      -7.168  11.611  68.300  1.00  0.00    -0.085 C  
HETATM   21  O   UNL     1      -7.347  14.075  68.699  1.00  0.00    -0.109 OA 
HETATM   22  C   UNL     1      -6.443  11.033  69.705  1.00  0.00    -0.123 C  
HETATM   23  H   UNL     1      -6.412  14.079  68.527  1.00  0.00     0.000 HD 
HETATM   24  C   UNL     1      -7.885  10.562  67.410  1.00  0.00    -0.106 C  
HETATM   25  C   UNL     1      -6.982  11.045  71.167  1.00  0.00     2.341 C  
HETATM   26  C   UNL     1      -7.199   9.998  71.986  1.00  0.00     2.135 C  
HETATM   27  F   UNL     1      -6.041  11.910  67.487  1.00  0.00    -0.056 F  
HETATM   28  C   UNL     1      -7.237   9.172  67.339  1.00  0.00    -0.080 C  
HETATM   29  C   UNL     1      -5.844   9.170  67.968  1.00  0.00    -0.038 C  
HETATM   30  C   UNL     1      -6.105   9.532  69.401  1.00  0.00    -0.036 C  
ENDROOT
BRANCH   9  31
HETATM   31  C   UNL     1     -12.376  12.179  67.886  1.00  0.00     0.671 C  
HETATM   32  O   UNL     1     -13.288  12.724  68.497  1.00  0.00     2.655 OA 
BRANCH  31  33
HETATM   33  C   UNL     1     -12.090  12.460  66.415  1.00  0.00    -0.140 C  
BRANCH  33  34
HETATM   34  O   UNL     1     -10.953  11.730  65.931  1.00  0.00    -0.293 OA 
BRANCH  34  35
HETATM   35  C   UNL     1     -10.676  11.940  64.618  1.00  0.00    -0.307 C  
HETATM   36  O   UNL     1     -10.916  12.961  64.003  1.00  0.00    -0.376 OA 
HETATM   37  C   UNL     1      -9.949  10.754  64.034  1.00  0.00    -0.403 C  
ENDBRANCH  34  35
ENDBRANCH  33  34
ENDBRANCH  31  33
ENDBRANCH   9  31
TORSDOF 4
ENDMDL
MODEL      119
REMARK 921   NORMALIZED FREE ENERGY PREDICTED BY IDOCK:   13.96 KCAL/MOL
REMARK 922        TOTAL FREE ENERGY PREDICTED BY IDOCK:   16.66 KCAL/MOL
REMARK 923 INTER-LIGAND FREE ENERGY PREDICTED BY IDOCK:   11.72 KCAL/MOL
REMARK 924 INTRA-LIGAND FREE ENERGY PREDICTED BY IDOCK:    4.94 KCAL/MOL
REMARK 927      BINDING AFFINITY PREDICTED BY RF-SCORE:    0.00 PKD
ROOT
HETATM    1  C   UNL     1     -10.437   8.046  69.964  1.00  0.00    -0.228 C  
HETATM    2  C   UNL     1     -11.268   9.302  69.857  1.00  0.00    -0.145 C  
HETATM    3  C   UNL     1     -11.313   9.604  68.380  1.00  0.00     0.173 C  
HETATM    4  O   UNL     1     -10.632  10.847  68.239  1.00  0.00    -0.170 OA 
HETATM    5  C   UNL     1      -9.976  10.756  66.994  1.00  0.00    -0.197 C  
HETATM    6  O   UNL     1      -9.700   9.379  66.711  1.00  0.00    -0.170 OA 
HETATM    7  C   UNL     1      -8.736  11.647  67.032  1.00  0.00    -0.173 C  
HETATM    8  C   UNL     1      -9.113  12.946  66.327  1.00  0.00    -0.019 C  
HETATM    9  C   UNL     1     -10.498   8.565  67.599  1.00  0.00    -0.241 C  
HETATM   10  O   UNL     1      -5.639  11.427  70.773  1.00  0.00    -0.158 OA 
HETATM   11  C   UNL     1     -10.440  12.722  65.622  1.00  0.00    -0.297 C  
HETATM   12  C   UNL     1      -9.636   7.780  68.650  1.00  0.00    -0.154 C  
HETATM   13  C   UNL     1     -10.893  11.305  65.913  1.00  0.00    -0.264 C  
HETATM   14  C   UNL     1      -5.939  10.283  71.005  1.00  0.00    -0.016 C  
HETATM   15  C   UNL     1      -6.819   9.907  72.137  1.00  0.00     1.382 C  
HETATM   16  C   UNL     1      -9.498   6.220  68.658  1.00  0.00    -0.121 C  
HETATM   17  C   UNL     1      -8.193   8.199  68.405  1.00  0.00    -0.129 C  
HETATM   18  C   UNL     1      -9.008   5.707  70.057  1.00  0.00    -0.137 C  
HETATM   19  C   UNL     1      -6.207   6.241  71.932  1.00  0.00    -0.042 C  
HETATM   20  C   UNL     1      -8.578   6.754  71.152  1.00  0.00    -0.132 C  
HETATM   21  O   UNL     1      -8.107   4.617  69.937  1.00  0.00    -0.067 OA 
HETATM   22  C   UNL     1      -7.052   7.427  71.376  1.00  0.00    -0.063 C  
HETATM   23  H   UNL     1      -7.810   4.306  70.785  1.00  0.00     0.000 HD 
HETATM   24  C   UNL     1      -9.786   7.712  71.310  1.00  0.00    -0.187 C  
HETATM   25  C   UNL     1      -6.029   7.926  70.311  1.00  0.00    -0.029 C  
HETATM   26  C   UNL     1      -5.505   9.158  70.169  1.00  0.00    -0.027 C  
HETATM   27  F   UNL     1      -8.725   5.959  72.320  1.00  0.00    -0.126 F  
HETATM   28  C   UNL     1      -9.656   8.801  72.386  1.00  0.00    -0.197 C  
HETATM   29  C   UNL     1      -8.441   8.561  73.282  1.00  0.00    -0.074 C  
HETATM   30  C   UNL     1      -7.281   8.649  72.332  1.00  0.00    -0.019 C  
ENDROOT
BRANCH   9  31
HETATM   31  C   UNL     1     -11.379   7.603  66.787  1.00  0.00     1.386 C  
HETATM   32  O   UNL     1     -12.148   8.036  65.938  1.00  0.00     7.190 OA 
BRANCH  31  33
HETATM   33  C   UNL     1     -11.341   6.132  67.187  1.00  0.00     0.124 C  
BRANCH  33  34
HETATM   34  O   UNL     1     -10.131   5.484  66.768  1.00  0.00    -0.165 OA 
BRANCH  34  35
HETATM   35  C   UNL     1      -9.624   5.956  65.600  1.00  0.00     0.220 C  
HETATM   36  O   UNL     1      -8.446   6.165  65.377  1.00  0.00    -0.148 OA 
HETATM   37  C   UNL     1     -10.718   6.115  64.573  1.00  0.00     5.141 C  
ENDBRANCH  34  35
ENDBRANCH  33  34
ENDBRANCH  31  33
ENDBRANCH   9  31
TORSDOF 4
ENDMDL
MODEL      120
REMARK 921   NORMALIZED FREE ENERGY PREDICTED BY IDOCK:   16.51 KCAL/MOL
REMARK 922        TOTAL FREE ENERGY PREDICTED BY IDOCK:   19.80 KCAL/MOL
REMARK 923 INTER-LIGAND FREE ENERGY PREDICTED BY IDOCK:   15.02 KCAL/MOL
REMARK 924 INTRA-LIGAND FREE ENERGY PREDICTED BY IDOCK:    4.78 KCAL/MOL
REMARK 927      BINDING AFFINITY PREDICTED BY RF-SCORE:    0.00 PKD
ROOT
HETATM    1  C   UNL     1      -8.747  16.024  66.522  1.00  0.00    -0.338 C  
HETATM    2  C   UNL     1      -9.621  17.248  66.387  1.00  0.00    -0.290 C  
HETATM    3  C   UNL     1      -9.252  18.112  67.566  1.00  0.00    -0.257 C  
HETATM    4  O   UNL     1     -10.435  18.179  68.357  1.00  0.00    -0.359 OA 
HETATM    5  C   UNL     1      -9.973  18.226  69.689  1.00  0.00     0.419 C  
HETATM    6  O   UNL     1      -8.704  17.565  69.767  1.00  0.00     0.785 OA 
HETATM    7  C   UNL     1     -11.046  17.628  70.596  1.00  0.00     1.929 C  
HETATM    8  C   UNL     1     -11.805  18.803  71.204  1.00  0.00     9.240 C  
HETATM    9  C   UNL     1      -8.188  17.414  68.425  1.00  0.00    -0.262 C  
HETATM   10  O   UNL     1     -13.120  13.368  69.509  1.00  0.00     0.750 OA 
HETATM   11  C   UNL     1     -11.017  20.067  70.906  1.00  0.00     3.838 C  
HETATM   12  C   UNL     1      -8.134  15.918  67.955  1.00  0.00    -0.149 C  
HETATM   13  C   UNL     1      -9.794  19.679  70.097  1.00  0.00     0.587 C  
HETATM   14  C   UNL     1     -12.147  13.005  68.897  1.00  0.00    -0.168 C  
HETATM   15  C   UNL     1     -12.101  12.987  67.416  1.00  0.00    -0.290 C  
HETATM   16  C   UNL     1      -6.797  15.148  67.685  1.00  0.00    -0.204 C  
HETATM   17  C   UNL     1      -8.717  15.098  69.098  1.00  0.00    -0.216 C  
HETATM   18  C   UNL     1      -7.047  13.888  66.784  1.00  0.00     1.326 C  
HETATM   19  C   UNL     1      -8.928  11.061  67.128  1.00  0.00    -0.145 C  
HETATM   20  C   UNL     1      -8.525  13.478  66.429  1.00  0.00     0.511 C  
HETATM   21  O   UNL     1      -6.237  12.789  67.173  1.00  0.00    -0.380 OA 
HETATM   22  C   UNL     1      -9.549  12.479  67.315  1.00  0.00    -0.205 C  
HETATM   23  H   UNL     1      -6.389  12.025  66.627  1.00  0.00     0.000 HD 
HETATM   24  C   UNL     1      -9.167  14.741  65.798  1.00  0.00     0.048 C  
HETATM   25  C   UNL     1      -9.762  12.407  68.857  1.00  0.00     0.149 C  
HETATM   26  C   UNL     1     -10.901  12.591  69.552  1.00  0.00     0.134 C  
HETATM   27  F   UNL     1      -8.289  12.701  65.263  1.00  0.00     1.096 F  
HETATM   28  C   UNL     1     -10.608  14.590  65.287  1.00  0.00    -0.400 C  
HETATM   29  C   UNL     1     -11.045  13.125  65.267  1.00  0.00    -0.304 C  
HETATM   30  C   UNL     1     -10.977  12.719  66.711  1.00  0.00    -0.301 C  
ENDROOT
BRANCH   9  31
HETATM   31  C   UNL     1      -6.805  18.073  68.313  1.00  0.00    -0.217 C  
HETATM   32  O   UNL     1      -5.796  17.385  68.222  1.00  0.00    -0.144 OA 
BRANCH  31  33
HETATM   33  C   UNL     1      -6.753  19.590  68.458  1.00  0.00    -0.288 C  
BRANCH  33  34
HETATM   34  O   UNL     1      -6.764  20.260  67.188  1.00  0.00    -0.215 OA 
BRANCH  34  35
HETATM   35  C   UNL     1      -7.419  19.584  66.209  1.00  0.00    -0.280 C  
HETATM   36  O   UNL     1      -7.061  18.529  65.722  1.00  0.00    -0.370 OA 
HETATM   37  C   UNL     1      -8.710  20.281  65.857  1.00  0.00    -0.006 C  
ENDBRANCH  34  35
ENDBRANCH  33  34
ENDBRANCH  31  33
ENDBRANCH   9  31
TORSDOF 4
ENDMDL
MODEL      121
REMARK 921   NORMALIZED FREE ENERGY PREDICTED BY IDOCK:   16.91 KCAL/MOL
REMARK 922        TOTAL FREE ENERGY PREDICTED BY IDOCK:   20.30 KCAL/MOL
REMARK 923 INTER-LIGAND FREE ENERGY PREDICTED BY IDOCK:   19.27 KCAL/MOL
REMARK 924 INTRA-LIGAND FREE ENERGY PREDICTED BY IDOCK:    1.03 KCAL/MOL
REMARK 927      BINDING AFFINITY PREDICTED BY RF-SCORE:    0.00 PKD
ROOT
HETATM    1  C   UNL     1      -8.318  12.064  70.769  1.00  0.00     7.210 C  
HETATM    2  C   UNL     1      -7.284  13.164  70.797  1.00  0.00     3.001 C  
HETATM    3  C   UNL     1      -7.960  14.338  70.135  1.00  0.00     1.140 C  
HETATM    4  O   UNL     1      -7.204  14.577  68.951  1.00  0.00    -0.112 OA 
HETATM    5  C   UNL     1      -8.153  15.014  68.004  1.00  0.00    -0.130 C  
HETATM    6  O   UNL     1      -9.431  14.454  68.328  1.00  0.00    -0.195 OA 
HETATM    7  C   UNL     1      -7.648  14.652  66.609  1.00  0.00     0.806 C  
HETATM    8  C   UNL     1      -7.027  15.919  66.029  1.00  0.00     2.278 C  
HETATM    9  C   UNL     1      -9.375  13.953  69.683  1.00  0.00     1.115 C  
HETATM   10  O   UNL     1      -6.008  10.177  65.650  1.00  0.00    -0.074 OA 
HETATM   11  C   UNL     1      -7.417  17.080  66.928  1.00  0.00    -0.248 C  
HETATM   12  C   UNL     1      -9.468  12.389  69.763  1.00  0.00     2.227 C  
HETATM   13  C   UNL     1      -8.252  16.530  68.069  1.00  0.00    -0.172 C  
HETATM   14  C   UNL     1      -6.693   9.697  66.517  1.00  0.00    -0.079 C  
HETATM   15  C   UNL     1      -6.136   9.266  67.822  1.00  0.00    -0.053 C  
HETATM   16  C   UNL     1     -10.684  11.629  70.394  1.00  0.00     1.441 C  
HETATM   17  C   UNL     1      -9.535  11.900  68.322  1.00  0.00    -0.197 C  
HETATM   18  C   UNL     1     -10.290  10.158  70.771  1.00  0.00     0.188 C  
HETATM   19  C   UNL     1      -9.179   7.468  68.990  1.00  0.00    -0.146 C  
HETATM   20  C   UNL     1      -8.879   9.605  70.344  1.00  0.00    -0.178 C  
HETATM   21  O   UNL     1     -11.350   9.246  70.524  1.00  0.00    -0.252 OA 
HETATM   22  C   UNL     1      -8.473   8.854  68.894  1.00  0.00    -0.131 C  
HETATM   23  H   UNL     1     -11.111   8.354  70.753  1.00  0.00     0.000 HD 
HETATM   24  C   UNL     1      -7.847  10.613  70.914  1.00  0.00     2.459 C  
HETATM   25  C   UNL     1      -8.918   9.209  67.443  1.00  0.00    -0.128 C  
HETATM   26  C   UNL     1      -8.145   9.535  66.389  1.00  0.00    -0.111 C  
HETATM   27  F   UNL     1      -8.742   8.542  71.277  1.00  0.00    -0.141 F  
HETATM   28  C   UNL     1      -6.367  10.266  70.699  1.00  0.00    -0.077 C  
HETATM   29  C   UNL     1      -6.195   8.838  70.181  1.00  0.00    -0.034 C  
HETATM   30  C   UNL     1      -6.905   8.857  68.858  1.00  0.00    -0.061 C  
ENDROOT
BRANCH   9  31
HETATM   31  C   UNL     1     -10.472  14.610  70.536  1.00  0.00     0.487 C  
HETATM   32  O   UNL     1     -10.204  15.082  71.633  1.00  0.00     0.878 OA 
BRANCH  31  33
HETATM   33  C   UNL     1     -11.900  14.518  70.008  1.00  0.00    -0.313 C  
BRANCH  33  34
HETATM   34  O   UNL     1     -12.487  13.230  70.244  1.00  0.00    -0.270 OA 
BRANCH  34  35
HETATM   35  C   UNL     1     -13.379  13.205  71.268  1.00  0.00    -0.040 C  
HETATM   36  O   UNL     1     -13.481  12.317  72.092  1.00  0.00    -0.509 OA 
HETATM   37  C   UNL     1     -14.185  14.481  71.298  1.00  0.00    -0.311 C  
ENDBRANCH  34  35
ENDBRANCH  33  34
ENDBRANCH  31  33
ENDBRANCH   9  31
TORSDOF 4
ENDMDL
MODEL      122
REMARK 921   NORMALIZED FREE ENERGY PREDICTED BY IDOCK:   19.63 KCAL/MOL
REMARK 922        TOTAL FREE ENERGY PREDICTED BY IDOCK:   23.66 KCAL/MOL
REMARK 923 INTER-LIGAND FREE ENERGY PREDICTED BY IDOCK:   23.48 KCAL/MOL
REMARK 924 INTRA-LIGAND FREE ENERGY PREDICTED BY IDOCK:    0.18 KCAL/MOL
REMARK 927      BINDING AFFINITY PREDICTED BY RF-SCORE:    0.00 PKD
ROOT
HETATM    1  C   UNL     1     -11.496   8.600  69.112  1.00  0.00     0.643 C  
HETATM    2  C   UNL     1     -11.555   8.055  67.705  1.00  0.00     1.761 C  
HETATM    3  C   UNL     1     -10.599   6.889  67.708  1.00  0.00    -0.244 C  
HETATM    4  O   UNL     1      -9.563   7.262  66.802  1.00  0.00    -0.167 OA 
HETATM    5  C   UNL     1      -8.392   6.696  67.346  1.00  0.00    -0.121 C  
HETATM    6  O   UNL     1      -8.542   6.584  68.766  1.00  0.00    -0.121 OA 
HETATM    7  C   UNL     1      -7.197   7.541  66.909  1.00  0.00    -0.085 C  
HETATM    8  C   UNL     1      -6.561   6.815  65.727  1.00  0.00    -0.051 C  
HETATM    9  C   UNL     1      -9.943   6.741  69.088  1.00  0.00    -0.159 C  
HETATM   10  O   UNL     1      -7.289  12.381  67.350  1.00  0.00    -0.133 OA 
HETATM   11  C   UNL     1      -7.173   5.426  65.652  1.00  0.00    -0.068 C  
HETATM   12  C   UNL     1     -10.245   8.062  69.878  1.00  0.00    -0.204 C  
HETATM   13  C   UNL     1      -8.200   5.305  66.762  1.00  0.00    -0.108 C  
HETATM   14  C   UNL     1      -8.069  12.322  68.267  1.00  0.00    -0.166 C  
HETATM   15  C   UNL     1      -9.508  12.638  68.107  1.00  0.00    -0.218 C  
HETATM   16  C   UNL     1     -10.735   8.083  71.366  1.00  0.00    -0.270 C  
HETATM   17  C   UNL     1      -8.914   8.792  70.000  1.00  0.00    -0.162 C  
HETATM   18  C   UNL     1     -11.407   9.457  71.715  1.00  0.00    -0.317 C  
HETATM   19  C   UNL     1     -10.321  12.692  71.739  1.00  0.00    10.851 C  
HETATM   20  C   UNL     1     -11.358  10.627  70.664  1.00  0.00    -0.198 C  
HETATM   21  O   UNL     1     -11.102   9.875  73.037  1.00  0.00     3.503 OA 
HETATM   22  C   UNL     1     -10.151  11.786  70.482  1.00  0.00     3.632 C  
HETATM   23  H   UNL     1     -11.509  10.708  73.249  1.00  0.00     0.000 HD 
HETATM   24  C   UNL     1     -11.955  10.040  69.358  1.00  0.00     0.156 C  
HETATM   25  C   UNL     1      -8.603  11.617  70.561  1.00  0.00     4.950 C  
HETATM   26  C   UNL     1      -7.684  11.890  69.615  1.00  0.00     0.805 C  
HETATM   27  F   UNL     1     -12.453  11.410  71.118  1.00  0.00    -0.433 F  
HETATM   28  C   UNL     1     -12.092  11.011  68.176  1.00  0.00     0.135 C  
HETATM   29  C   UNL     1     -11.847  12.457  68.606  1.00  0.00    -0.348 C  
HETATM   30  C   UNL     1     -10.424  12.444  69.085  1.00  0.00     0.059 C  
ENDROOT
BRANCH   9  31
HETATM   31  C   UNL     1     -10.449   5.513  69.860  1.00  0.00    -0.316 C  
HETATM   32  O   UNL     1     -11.448   5.593  70.563  1.00  0.00    -0.049 OA 
BRANCH  31  33
HETATM   33  C   UNL     1      -9.579   4.262  69.808  1.00  0.00    -0.209 C  
BRANCH  33  34
HETATM   34  O   UNL     1     -10.309   3.075  70.155  1.00  0.00     0.833 OA 
BRANCH  34  35
HETATM   35  C   UNL     1     -10.123   2.664  71.436  1.00  0.00     0.146 C  
HETATM   36  O   UNL     1     -10.974   2.658  72.305  1.00  0.00     0.256 OA 
HETATM   37  C   UNL     1      -8.723   2.131  71.623  1.00  0.00    -0.101 C  
ENDBRANCH  34  35
ENDBRANCH  33  34
ENDBRANCH  31  33
ENDBRANCH   9  31
TORSDOF 4
ENDMDL
MODEL      123
REMARK 921   NORMALIZED FREE ENERGY PREDICTED BY IDOCK:   26.48 KCAL/MOL
REMARK 922        TOTAL FREE ENERGY PREDICTED BY IDOCK:   32.11 KCAL/MOL
REMARK 923 INTER-LIGAND FREE ENERGY PREDICTED BY IDOCK:   21.35 KCAL/MOL
REMARK 924 INTRA-LIGAND FREE ENERGY PREDICTED BY IDOCK:   10.76 KCAL/MOL
REMARK 927      BINDING AFFINITY PREDICTED BY RF-SCORE:    0.00 PKD
ROOT
HETATM    1  C   UNL     1      -8.833  16.026  66.162  1.00  0.00    -0.366 C  
HETATM    2  C   UNL     1      -8.667  17.527  66.162  1.00  0.00    -0.155 C  
HETATM    3  C   UNL     1      -7.818  17.816  67.375  1.00  0.00    -0.207 C  
HETATM    4  O   UNL     1      -8.657  18.582  68.235  1.00  0.00    -0.301 OA 
HETATM    5  C   UNL     1      -8.286  18.191  69.537  1.00  0.00     0.645 C  
HETATM    6  O   UNL     1      -7.783  16.851  69.498  1.00  0.00    -0.021 OA 
HETATM    7  C   UNL     1      -9.487  18.380  70.462  1.00  0.00     2.941 C  
HETATM    8  C   UNL     1      -9.270  19.703  71.191  1.00  0.00     2.610 C  
HETATM    9  C   UNL     1      -7.495  16.515  68.121  1.00  0.00    -0.159 C  
HETATM   10  O   UNL     1     -13.871  16.698  69.206  1.00  0.00     3.947 OA 
HETATM   11  C   UNL     1      -7.838  20.143  70.936  1.00  0.00     1.526 C  
HETATM   12  C   UNL     1      -8.451  15.412  67.547  1.00  0.00    -0.188 C  
HETATM   13  C   UNL     1      -7.184  19.114  70.034  1.00  0.00     0.391 C  
HETATM   14  C   UNL     1     -13.387  15.837  68.516  1.00  0.00     3.669 C  
HETATM   15  C   UNL     1     -13.360  15.925  67.037  1.00  0.00     5.247 C  
HETATM   16  C   UNL     1      -7.969  13.976  67.150  1.00  0.00    -0.083 C  
HETATM   17  C   UNL     1      -9.437  15.089  68.663  1.00  0.00    -0.212 C  
HETATM   18  C   UNL     1      -8.994  13.288  66.180  1.00  0.00     0.239 C  
HETATM   19  C   UNL     1     -12.282  12.413  66.436  1.00  0.00    -0.012 C  
HETATM   20  C   UNL     1     -10.367  14.000  65.882  1.00  0.00    -0.318 C  
HETATM   21  O   UNL     1      -9.126  11.900  66.446  1.00  0.00    -0.211 OA 
HETATM   22  C   UNL     1     -11.799  13.860  66.755  1.00  0.00    -0.452 C  
HETATM   23  H   UNL     1      -9.747  11.484  65.858  1.00  0.00     0.000 HD 
HETATM   24  C   UNL     1     -10.000  15.419  65.377  1.00  0.00    -0.356 C  
HETATM   25  C   UNL     1     -12.011  13.811  68.299  1.00  0.00    -0.392 C  
HETATM   26  C   UNL     1     -12.737  14.643  69.069  1.00  0.00     0.430 C  
HETATM   27  F   UNL     1     -10.706  13.369  64.655  1.00  0.00    -0.321 F  
HETATM   28  C   UNL     1     -11.172  16.310  64.940  1.00  0.00    -0.243 C  
HETATM   29  C   UNL     1     -12.475  15.517  64.846  1.00  0.00     0.446 C  
HETATM   30  C   UNL     1     -12.699  15.042  66.252  1.00  0.00     0.886 C  
ENDROOT
BRANCH   9  31
HETATM   31  C   UNL     1      -6.025  16.094  67.976  1.00  0.00    -0.118 C  
HETATM   32  O   UNL     1      -5.145  16.940  67.874  1.00  0.00    -0.104 OA 
BRANCH  31  33
HETATM   33  C   UNL     1      -5.748  14.602  67.829  1.00  0.00    -0.063 C  
BRANCH  33  34
HETATM   34  O   UNL     1      -5.886  13.896  69.072  1.00  0.00    -0.082 OA 
BRANCH  34  35
HETATM   35  C   UNL     1      -6.840  14.403  69.894  1.00  0.00    -0.060 C  
HETATM   36  O   UNL     1      -6.961  15.575  70.195  1.00  0.00    -0.057 OA 
HETATM   37  C   UNL     1      -7.795  13.318  70.330  1.00  0.00     2.852 C  
ENDBRANCH  34  35
ENDBRANCH  33  34
ENDBRANCH  31  33
ENDBRANCH   9  31
TORSDOF 4
ENDMDL
MODEL      124
REMARK 921   NORMALIZED FREE ENERGY PREDICTED BY IDOCK:   27.57 KCAL/MOL
REMARK 922        TOTAL FREE ENERGY PREDICTED BY IDOCK:   33.45 KCAL/MOL
REMARK 923 INTER-LIGAND FREE ENERGY PREDICTED BY IDOCK:   32.27 KCAL/MOL
REMARK 924 INTRA-LIGAND FREE ENERGY PREDICTED BY IDOCK:    1.18 KCAL/MOL
REMARK 927      BINDING AFFINITY PREDICTED BY RF-SCORE:    0.00 PKD
ROOT
HETATM    1  C   UNL     1      -7.657  12.772  68.400  1.00  0.00    -0.133 C  
HETATM    2  C   UNL     1      -6.724  13.012  67.237  1.00  0.00    -0.020 C  
HETATM    3  C   UNL     1      -7.523  12.621  66.020  1.00  0.00     2.131 C  
HETATM    4  O   UNL     1      -6.833  11.501  65.473  1.00  0.00     0.561 OA 
HETATM    5  C   UNL     1      -7.849  10.682  64.940  1.00  0.00     0.045 C  
HETATM    6  O   UNL     1      -9.061  10.902  65.672  1.00  0.00    -0.192 OA 
HETATM    7  C   UNL     1      -7.364   9.234  64.957  1.00  0.00    -0.102 C  
HETATM    8  C   UNL     1      -6.877   8.921  63.546  1.00  0.00    -0.089 C  
HETATM    9  C   UNL     1      -8.914  12.121  66.434  1.00  0.00    -0.138 C  
HETATM   10  O   UNL     1      -5.369   7.336  68.964  1.00  0.00    -0.014 OA 
HETATM   11  C   UNL     1      -7.337  10.049  62.637  1.00  0.00    -0.133 C  
HETATM   12  C   UNL     1      -8.865  11.874  67.983  1.00  0.00    -0.177 C  
HETATM   13  C   UNL     1      -8.079  11.063  63.486  1.00  0.00     0.342 C  
HETATM   14  C   UNL     1      -5.978   8.094  69.675  1.00  0.00    -0.029 C  
HETATM   15  C   UNL     1      -5.341   9.271  70.312  1.00  0.00    -0.027 C  
HETATM   16  C   UNL     1      -9.986  12.351  68.967  1.00  0.00     0.191 C  
HETATM   17  C   UNL     1      -8.939  10.364  68.168  1.00  0.00    -0.132 C  
HETATM   18  C   UNL     1      -9.452  12.407  70.441  1.00  0.00     5.368 C  
HETATM   19  C   UNL     1      -8.170  10.086  72.590  1.00  0.00     5.290 C  
HETATM   20  C   UNL     1      -8.013  11.852  70.759  1.00  0.00     5.907 C  
HETATM   21  O   UNL     1     -10.434  11.991  71.378  1.00  0.00     4.854 OA 
HETATM   22  C   UNL     1      -7.593  10.271  71.153  1.00  0.00     1.689 C  
HETATM   23  H   UNL     1     -10.110  12.025  72.271  1.00  0.00     0.000 HD 
HETATM   24  C   UNL     1      -7.055  12.603  69.799  1.00  0.00     0.528 C  
HETATM   25  C   UNL     1      -8.118   8.933  70.549  1.00  0.00    -0.145 C  
HETATM   26  C   UNL     1      -7.414   7.958  69.942  1.00  0.00    -0.080 C  
HETATM   27  F   UNL     1      -7.750  12.539  71.974  1.00  0.00     8.282 F  
HETATM   28  C   UNL     1      -5.558  12.297  69.954  1.00  0.00    -0.112 C  
HETATM   29  C   UNL     1      -5.279  11.489  71.221  1.00  0.00    -0.060 C  
HETATM   30  C   UNL     1      -6.034  10.211  70.996  1.00  0.00    -0.034 C  
ENDROOT
BRANCH   9  31
HETATM   31  C   UNL     1     -10.034  13.109  66.073  1.00  0.00    -0.280 C  
HETATM   32  O   UNL     1     -11.092  13.099  66.690  1.00  0.00    -0.282 OA 
BRANCH  31  33
HETATM   33  C   UNL     1      -9.808  13.985  64.845  1.00  0.00     0.037 C  
BRANCH  33  34
HETATM   34  O   UNL     1     -10.635  13.595  63.738  1.00  0.00     0.030 OA 
BRANCH  34  35
HETATM   35  C   UNL     1     -11.913  13.292  64.079  1.00  0.00    -0.465 C  
HETATM   36  O   UNL     1     -12.341  12.172  64.285  1.00  0.00    -0.403 OA 
HETATM   37  C   UNL     1     -12.728  14.551  64.252  1.00  0.00     0.069 C  
ENDBRANCH  34  35
ENDBRANCH  33  34
ENDBRANCH  31  33
ENDBRANCH   9  31
TORSDOF 4
ENDMDL
MODEL      125
REMARK 921   NORMALIZED FREE ENERGY PREDICTED BY IDOCK:   29.27 KCAL/MOL
REMARK 922        TOTAL FREE ENERGY PREDICTED BY IDOCK:   35.55 KCAL/MOL
REMARK 923 INTER-LIGAND FREE ENERGY PREDICTED BY IDOCK:   26.65 KCAL/MOL
REMARK 924 INTRA-LIGAND FREE ENERGY PREDICTED BY IDOCK:    8.90 KCAL/MOL
REMARK 927      BINDING AFFINITY PREDICTED BY RF-SCORE:    0.00 PKD
ROOT
HETATM    1  C   UNL     1     -11.956   8.828  70.782  1.00  0.00    -0.161 C  
HETATM    2  C   UNL     1     -11.319  10.169  71.059  1.00  0.00    -0.385 C  
HETATM    3  C   UNL     1     -10.482  10.452  69.837  1.00  0.00    -0.218 C  
HETATM    4  O   UNL     1      -9.138  10.469  70.309  1.00  0.00     0.427 OA 
HETATM    5  C   UNL     1      -8.379   9.935  69.248  1.00  0.00    -0.151 C  
HETATM    6  O   UNL     1      -9.203   9.046  68.485  1.00  0.00    -0.136 OA 
HETATM    7  C   UNL     1      -7.126   9.283  69.827  1.00  0.00    -0.064 C  
HETATM    8  C   UNL     1      -5.991  10.287  69.649  1.00  0.00    -0.046 C  
HETATM    9  C   UNL     1     -10.583   9.288  68.841  1.00  0.00    -0.199 C  
HETATM   10  O   UNL     1      -7.437   6.228  73.596  1.00  0.00    -0.090 OA 
HETATM   11  C   UNL     1      -6.484  11.383  68.720  1.00  0.00    -0.056 C  
HETATM   12  C   UNL     1     -11.237   8.087  69.610  1.00  0.00     0.080 C  
HETATM   13  C   UNL     1      -7.921  11.072  68.348  1.00  0.00    -0.131 C  
HETATM   14  C   UNL     1      -8.565   5.920  73.304  1.00  0.00    -0.118 C  
HETATM   15  C   UNL     1      -9.745   6.431  74.042  1.00  0.00    -0.246 C  
HETATM   16  C   UNL     1     -12.391   7.211  69.016  1.00  0.00     2.375 C  
HETATM   17  C   UNL     1     -10.137   7.047  69.776  1.00  0.00    -0.197 C  
HETATM   18  C   UNL     1     -13.153   6.442  70.153  1.00  0.00     2.811 C  
HETATM   19  C   UNL     1     -12.228   4.133  72.489  1.00  0.00     1.527 C  
HETATM   20  C   UNL     1     -12.600   6.502  71.626  1.00  0.00    -0.165 C  
HETATM   21  O   UNL     1     -13.533   5.136  69.747  1.00  0.00    11.632 OA 
HETATM   22  C   UNL     1     -11.462   5.482  72.330  1.00  0.00    -0.266 C  
HETATM   23  H   UNL     1     -13.995   4.671  70.435  1.00  0.00     0.000 HD 
HETATM   24  C   UNL     1     -12.482   8.010  71.966  1.00  0.00    -0.357 C  
HETATM   25  C   UNL     1     -10.149   4.901  71.723  1.00  0.00    -0.267 C  
HETATM   26  C   UNL     1      -8.886   5.051  72.166  1.00  0.00    -0.137 C  
HETATM   27  F   UNL     1     -13.781   6.168  72.342  1.00  0.00    -0.179 F  
HETATM   28  C   UNL     1     -12.028   8.352  73.393  1.00  0.00     1.556 C  
HETATM   29  C   UNL     1     -12.028   7.118  74.293  1.00  0.00     5.622 C  
HETATM   30  C   UNL     1     -11.020   6.212  73.647  1.00  0.00    -0.041 C  
ENDROOT
BRANCH   9  31
HETATM   31  C   UNL     1     -11.398   9.645  67.589  1.00  0.00     0.447 C  
HETATM   32  O   UNL     1     -11.731  10.804  67.376  1.00  0.00    -0.462 OA 
BRANCH  31  33
HETATM   33  C   UNL     1     -11.872   8.482  66.723  1.00  0.00     4.898 C  
BRANCH  33  34
HETATM   34  O   UNL     1     -10.835   7.519  66.487  1.00  0.00    -0.005 OA 
BRANCH  34  35
HETATM   35  C   UNL     1      -9.579   7.996  66.685  1.00  0.00    -0.230 C  
HETATM   36  O   UNL     1      -8.790   7.579  67.512  1.00  0.00    -0.127 OA 
HETATM   37  C   UNL     1      -9.256   9.072  65.677  1.00  0.00    -0.288 C  
ENDBRANCH  34  35
ENDBRANCH  33  34
ENDBRANCH  31  33
ENDBRANCH   9  31
TORSDOF 4
ENDMDL
MODEL      126
REMARK 921   NORMALIZED FREE ENERGY PREDICTED BY IDOCK:   30.98 KCAL/MOL
REMARK 922        TOTAL FREE ENERGY PREDICTED BY IDOCK:   37.67 KCAL/MOL
REMARK 923 INTER-LIGAND FREE ENERGY PREDICTED BY IDOCK:   37.82 KCAL/MOL
REMARK 924 INTRA-LIGAND FREE ENERGY PREDICTED BY IDOCK:   -0.16 KCAL/MOL
REMARK 927      BINDING AFFINITY PREDICTED BY RF-SCORE:    0.00 PKD
ROOT
HETATM    1  C   UNL     1      -8.723  15.671  68.250  1.00  0.00    -0.174 C  
HETATM    2  C   UNL     1      -9.404  14.748  67.267  1.00  0.00    -0.211 C  
HETATM    3  C   UNL     1     -10.845  14.718  67.708  1.00  0.00    -0.278 C  
HETATM    4  O   UNL     1     -11.078  13.371  68.107  1.00  0.00    -0.240 OA 
HETATM    5  C   UNL     1     -11.988  13.469  69.180  1.00  0.00    -0.333 C  
HETATM    6  O   UNL     1     -11.809  14.731  69.832  1.00  0.00    -0.279 OA 
HETATM    7  C   UNL     1     -11.793  12.260  70.093  1.00  0.00    -0.352 C  
HETATM    8  C   UNL     1     -12.889  11.262  69.734  1.00  0.00     0.196 C  
HETATM    9  C   UNL     1     -11.038  15.587  68.959  1.00  0.00    -0.267 C  
HETATM   10  O   UNL     1      -7.345  10.951  71.555  1.00  0.00     2.614 OA 
HETATM   11  C   UNL     1     -13.892  11.975  68.844  1.00  0.00     7.793 C  
HETATM   12  C   UNL     1      -9.606  15.902  69.517  1.00  0.00    -0.239 C  
HETATM   13  C   UNL     1     -13.405  13.396  68.633  1.00  0.00     3.881 C  
HETATM   14  C   UNL     1      -6.934  12.078  71.445  1.00  0.00     4.899 C  
HETATM   15  C   UNL     1      -6.078  12.505  70.312  1.00  0.00    -0.066 C  
HETATM   16  C   UNL     1      -9.156  17.331  69.976  1.00  0.00     1.815 C  
HETATM   17  C   UNL     1      -9.485  15.126  70.822  1.00  0.00     1.428 C  
HETATM   18  C   UNL     1      -7.592  17.442  70.012  1.00  0.00     1.537 C  
HETATM   19  C   UNL     1      -5.136  15.814  71.734  1.00  0.00     0.017 C  
HETATM   20  C   UNL     1      -6.724  16.151  69.769  1.00  0.00    -0.103 C  
HETATM   21  O   UNL     1      -7.140  18.225  71.106  1.00  0.00     2.925 OA 
HETATM   22  C   UNL     1      -6.212  15.034  70.919  1.00  0.00     0.166 C  
HETATM   23  H   UNL     1      -6.192  18.293  71.127  1.00  0.00     0.000 HD 
HETATM   24  C   UNL     1      -7.203  15.575  68.412  1.00  0.00    -0.114 C  
HETATM   25  C   UNL     1      -6.993  14.439  72.130  1.00  0.00     2.695 C  
HETATM   26  C   UNL     1      -7.274  13.148  72.390  1.00  0.00     7.784 C  
HETATM   27  F   UNL     1      -5.498  16.752  69.375  1.00  0.00    -0.129 F  
HETATM   28  C   UNL     1      -6.456  14.336  67.896  1.00  0.00    -0.175 C  
HETATM   29  C   UNL     1      -5.195  14.060  68.714  1.00  0.00    -0.084 C  
HETATM   30  C   UNL     1      -5.723  13.793  70.094  1.00  0.00    -0.133 C  
ENDROOT
BRANCH   9  31
HETATM   31  C   UNL     1     -11.811  16.883  68.670  1.00  0.00     0.818 C  
HETATM   32  O   UNL     1     -12.850  17.130  69.268  1.00  0.00     3.248 OA 
BRANCH  31  33
HETATM   33  C   UNL     1     -11.294  17.752  67.529  1.00  0.00     0.557 C  
BRANCH  33  34
HETATM   34  O   UNL     1     -10.657  18.949  67.999  1.00  0.00    -0.375 OA 
BRANCH  34  35
HETATM   35  C   UNL     1      -9.637  19.380  67.213  1.00  0.00    -0.328 C  
HETATM   36  O   UNL     1      -8.936  18.671  66.517  1.00  0.00    -0.296 OA 
HETATM   37  C   UNL     1      -9.536  20.886  67.255  1.00  0.00    -0.377 C  
ENDBRANCH  34  35
ENDBRANCH  33  34
ENDBRANCH  31  33
ENDBRANCH   9  31
TORSDOF 4
ENDMDL
MODEL      127
REMARK 921   NORMALIZED FREE ENERGY PREDICTED BY IDOCK:   42.57 KCAL/MOL
REMARK 922        TOTAL FREE ENERGY PREDICTED BY IDOCK:   51.96 KCAL/MOL
REMARK 923 INTER-LIGAND FREE ENERGY PREDICTED BY IDOCK:   52.40 KCAL/MOL
REMARK 924 INTRA-LIGAND FREE ENERGY PREDICTED BY IDOCK:   -0.44 KCAL/MOL
REMARK 927      BINDING AFFINITY PREDICTED BY RF-SCORE:    0.00 PKD
ROOT
HETATM    1  C   UNL     1     -12.184   8.660  68.893  1.00  0.00     2.997 C  
HETATM    2  C   UNL     1     -12.300   9.036  67.435  1.00  0.00     7.346 C  
HETATM    3  C   UNL     1     -10.982   8.625  66.829  1.00  0.00     0.453 C  
HETATM    4  O   UNL     1     -10.379   9.844  66.402  1.00  0.00    -0.227 OA 
HETATM    5  C   UNL     1      -8.997   9.647  66.602  1.00  0.00    -0.146 C  
HETATM    6  O   UNL     1      -8.807   8.709  67.668  1.00  0.00    -0.134 OA 
HETATM    7  C   UNL     1      -8.344  11.007  66.843  1.00  0.00    -0.138 C  
HETATM    8  C   UNL     1      -7.721  11.431  65.516  1.00  0.00     0.534 C  
HETATM    9  C   UNL     1     -10.062   8.034  67.906  1.00  0.00    -0.194 C  
HETATM   10  O   UNL     1     -10.247  14.141  70.034  1.00  0.00     0.471 OA 
HETATM   11  C   UNL     1      -7.738  10.226  64.591  1.00  0.00    -0.114 C  
HETATM   12  C   UNL     1     -10.698   8.394  69.295  1.00  0.00    -0.139 C  
HETATM   13  C   UNL     1      -8.392   9.074  65.331  1.00  0.00    -0.151 C  
HETATM   14  C   UNL     1     -10.742  13.249  70.675  1.00  0.00     2.604 C  
HETATM   15  C   UNL     1     -12.190  12.938  70.616  1.00  0.00    -0.386 C  
HETATM   16  C   UNL     1     -10.852   7.364  70.465  1.00  0.00    -0.259 C  
HETATM   17  C   UNL     1      -9.766   9.419  69.929  1.00  0.00    -0.236 C  
HETATM   18  C   UNL     1     -11.927   7.849  71.500  1.00  0.00    -0.301 C  
HETATM   19  C   UNL     1     -12.223  10.593  73.507  1.00  0.00     9.132 C  
HETATM   20  C   UNL     1     -12.552   9.285  71.344  1.00  0.00    -0.336 C  
HETATM   21  O   UNL     1     -11.556   7.538  72.834  1.00  0.00    -0.546 OA 
HETATM   22  C   UNL     1     -11.961  10.729  71.976  1.00  0.00     0.992 C  
HETATM   23  H   UNL     1     -12.208   7.831  73.461  1.00  0.00     0.000 HD 
HETATM   24  C   UNL     1     -13.115   9.341  69.901  1.00  0.00     1.741 C  
HETATM   25  C   UNL     1     -10.490  11.236  72.065  1.00  0.00     8.880 C  
HETATM   26  C   UNL     1      -9.960  12.357  71.538  1.00  0.00    11.992 C  
HETATM   27  F   UNL     1     -13.754   9.109  72.082  1.00  0.00    -0.377 F  
HETATM   28  C   UNL     1     -13.855  10.629  69.508  1.00  0.00     3.505 C  
HETATM   29  C   UNL     1     -14.119  11.517  70.723  1.00  0.00     3.186 C  
HETATM   30  C   UNL     1     -12.742  11.857  71.216  1.00  0.00    -0.401 C  
ENDROOT
BRANCH   9  31
HETATM   31  C   UNL     1      -9.880   6.515  67.766  1.00  0.00    -0.123 C  
HETATM   32  O   UNL     1      -8.965   5.944  68.346  1.00  0.00    -0.114 OA 
BRANCH  31  33
HETATM   33  C   UNL     1     -10.798   5.801  66.778  1.00  0.00    -0.248 C  
BRANCH  33  34
HETATM   34  O   UNL     1     -10.829   4.381  66.990  1.00  0.00     0.514 OA 
BRANCH  34  35
HETATM   35  C   UNL     1     -10.079   3.672  66.108  1.00  0.00     0.274 C  
HETATM   36  O   UNL     1      -8.865   3.699  66.034  1.00  0.00    -0.116 OA 
HETATM   37  C   UNL     1     -10.956   2.771  65.272  1.00  0.00     2.465 C  
ENDBRANCH  34  35
ENDBRANCH  33  34
ENDBRANCH  31  33
ENDBRANCH   9  31
TORSDOF 4
ENDMDL
MODEL      128
REMARK 921   NORMALIZED FREE ENERGY PREDICTED BY IDOCK:   49.06 KCAL/MOL
REMARK 922        TOTAL FREE ENERGY PREDICTED BY IDOCK:   59.97 KCAL/MOL
REMARK 923 INTER-LIGAND FREE ENERGY PREDICTED BY IDOCK:   59.39 KCAL/MOL
REMARK 924 INTRA-LIGAND FREE ENERGY PREDICTED BY IDOCK:    0.58 KCAL/MOL
REMARK 927      BINDING AFFINITY PREDICTED BY RF-SCORE:    0.00 PKD
ROOT
HETATM    1  C   UNL     1     -10.617  17.679  68.459  1.00  0.00    -0.281 C  
HETATM    2  C   UNL     1     -11.767  16.894  69.045  1.00  0.00     0.708 C  
HETATM    3  C   UNL     1     -11.134  15.636  69.583  1.00  0.00    -0.299 C  
HETATM    4  O   UNL     1     -11.692  14.583  68.802  1.00  0.00    -0.296 OA 
HETATM    5  C   UNL     1     -10.652  13.638  68.681  1.00  0.00    -0.248 C  
HETATM    6  O   UNL     1      -9.393  14.315  68.768  1.00  0.00    -0.189 OA 
HETATM    7  C   UNL     1     -10.854  12.858  67.384  1.00  0.00    -0.272 C  
HETATM    8  C   UNL     1     -11.514  11.537  67.770  1.00  0.00    -0.357 C  
HETATM    9  C   UNL     1      -9.625  15.637  69.304  1.00  0.00    -0.268 C  
HETATM   10  O   UNL     1     -11.737  15.179  63.205  1.00  0.00     0.709 OA 
HETATM   11  C   UNL     1     -11.434  11.403  69.281  1.00  0.00    -0.370 C  
HETATM   12  C   UNL     1      -9.356  16.778  68.261  1.00  0.00    -0.230 C  
HETATM   13  C   UNL     1     -10.754  12.644  69.827  1.00  0.00     0.604 C  
HETATM   14  C   UNL     1     -11.162  16.167  63.587  1.00  0.00     1.860 C  
HETATM   15  C   UNL     1     -11.883  17.383  64.034  1.00  0.00     4.269 C  
HETATM   16  C   UNL     1      -8.187  17.811  68.397  1.00  0.00    -0.298 C  
HETATM   17  C   UNL     1      -8.976  16.077  66.963  1.00  0.00    -0.236 C  
HETATM   18  C   UNL     1      -8.457  19.082  67.516  1.00  0.00    -0.282 C  
HETATM   19  C   UNL     1      -8.898  19.602  64.172  1.00  0.00     6.694 C  
HETATM   20  C   UNL     1      -9.692  19.092  66.539  1.00  0.00    -0.359 C  
HETATM   21  O   UNL     1      -7.267  19.579  66.923  1.00  0.00    -0.210 OA 
HETATM   22  C   UNL     1      -9.740  18.545  64.949  1.00  0.00     3.246 C  
HETATM   23  H   UNL     1      -7.431  20.349  66.390  1.00  0.00     0.000 HD 
HETATM   24  C   UNL     1     -10.924  18.763  67.421  1.00  0.00    -0.281 C  
HETATM   25  C   UNL     1      -9.093  17.271  64.326  1.00  0.00     8.183 C  
HETATM   26  C   UNL     1      -9.701  16.250  63.692  1.00  0.00     9.037 C  
HETATM   27  F   UNL     1      -9.860  20.494  66.375  1.00  0.00    -0.511 F  
HETATM   28  C   UNL     1     -12.289  18.783  66.718  1.00  0.00     4.708 C  
HETATM   29  C   UNL     1     -12.191  19.385  65.317  1.00  0.00     5.944 C  
HETATM   30  C   UNL     1     -11.265  18.448  64.597  1.00  0.00     2.956 C  
ENDROOT
BRANCH   9  31
HETATM   31  C   UNL     1      -8.785  15.848  70.574  1.00  0.00     1.957 C  
HETATM   32  O   UNL     1      -9.124  16.676  71.410  1.00  0.00     5.542 OA 
BRANCH  31  33
HETATM   33  C   UNL     1      -7.467  15.086  70.660  1.00  0.00     1.006 C  
BRANCH  33  34
HETATM   34  O   UNL     1      -6.505  15.752  71.491  1.00  0.00     1.346 OA 
BRANCH  34  35
HETATM   35  C   UNL     1      -6.348  17.071  71.211  1.00  0.00     2.302 C  
HETATM   36  O   UNL     1      -6.751  17.991  71.898  1.00  0.00     3.531 OA 
HETATM   37  C   UNL     1      -5.526  17.252  69.958  1.00  0.00    -0.227 C  
ENDBRANCH  34  35
ENDBRANCH  33  34
ENDBRANCH  31  33
ENDBRANCH   9  31
TORSDOF 4
ENDMDL
MODEL      129
REMARK 921   NORMALIZED FREE ENERGY PREDICTED BY IDOCK:   59.35 KCAL/MOL
REMARK 922        TOTAL FREE ENERGY PREDICTED BY IDOCK:   72.67 KCAL/MOL
REMARK 923 INTER-LIGAND FREE ENERGY PREDICTED BY IDOCK:   38.68 KCAL/MOL
REMARK 924 INTRA-LIGAND FREE ENERGY PREDICTED BY IDOCK:   33.98 KCAL/MOL
REMARK 927      BINDING AFFINITY PREDICTED BY RF-SCORE:    0.00 PKD
ROOT
HETATM    1  C   UNL     1     -10.502  11.060  66.382  1.00  0.00    -0.312 C  
HETATM    2  C   UNL     1     -11.989  11.277  66.234  1.00  0.00     1.073 C  
HETATM    3  C   UNL     1     -12.111  12.466  65.315  1.00  0.00    -0.391 C  
HETATM    4  O   UNL     1     -12.721  13.481  66.108  1.00  0.00    -0.339 OA 
HETATM    5  C   UNL     1     -12.147  14.685  65.651  1.00  0.00    -0.211 C  
HETATM    6  O   UNL     1     -10.839  14.413  65.134  1.00  0.00    -0.339 OA 
HETATM    7  C   UNL     1     -12.169  15.698  66.793  1.00  0.00     1.131 C  
HETATM    8  C   UNL     1     -13.371  16.604  66.547  1.00  0.00     7.898 C  
HETATM    9  C   UNL     1     -10.720  12.987  64.930  1.00  0.00    -0.332 C  
HETATM   10  O   UNL     1     -10.600  14.468  71.227  1.00  0.00     0.779 OA 
HETATM   11  C   UNL     1     -13.875  16.333  65.140  1.00  0.00     5.607 C  
HETATM   12  C   UNL     1      -9.695  12.311  65.907  1.00  0.00    -0.247 C  
HETATM   13  C   UNL     1     -13.008  15.248  64.531  1.00  0.00     0.840 C  
HETATM   14  C   UNL     1      -9.863  13.628  70.777  1.00  0.00     4.811 C  
HETATM   15  C   UNL     1     -10.173  12.180  70.844  1.00  0.00     5.926 C  
HETATM   16  C   UNL     1      -8.346  11.672  65.432  1.00  0.00     0.553 C  
HETATM   17  C   UNL     1      -9.188  13.422  66.816  1.00  0.00    -0.242 C  
HETATM   18  C   UNL     1      -7.790  10.674  66.508  1.00  0.00    -0.140 C  
HETATM   19  C   UNL     1      -6.815  10.992  69.763  1.00  0.00    -0.116 C  
HETATM   20  C   UNL     1      -8.508  10.570  67.905  1.00  0.00    -0.119 C  
HETATM   21  O   UNL     1      -6.375  10.733  66.606  1.00  0.00    -0.083 OA 
HETATM   22  C   UNL     1      -8.208  11.496  69.278  1.00  0.00     0.283 C  
HETATM   23  H   UNL     1      -6.038  10.128  67.257  1.00  0.00     0.000 HD 
HETATM   24  C   UNL     1      -9.995  10.264  67.588  1.00  0.00    -0.212 C  
HETATM   25  C   UNL     1      -7.923  13.024  69.392  1.00  0.00     0.808 C  
HETATM   26  C   UNL     1      -8.614  13.954  70.079  1.00  0.00     2.006 C  
HETATM   27  F   UNL     1      -8.062   9.284  68.313  1.00  0.00    -0.102 F  
HETATM   28  C   UNL     1     -10.916  10.038  68.796  1.00  0.00    -0.242 C  
HETATM   29  C   UNL     1     -10.118   9.903  70.093  1.00  0.00    -0.309 C  
HETATM   30  C   UNL     1      -9.432  11.233  70.223  1.00  0.00     2.421 C  
ENDROOT
BRANCH   9  31
HETATM   31  C   UNL     1     -10.358  12.691  63.466  1.00  0.00    -0.144 C  
HETATM   32  O   UNL     1      -9.276  13.042  63.013  1.00  0.00     2.325 OA 
BRANCH  31  33
HETATM   33  C   UNL     1     -11.450  12.074  62.599  1.00  0.00     1.008 C  
BRANCH  33  34
HETATM   34  O   UNL     1     -12.553  12.970  62.391  1.00  0.00     0.849 OA 
BRANCH  34  35
HETATM   35  C   UNL     1     -12.833  13.761  63.458  1.00  0.00     0.732 C  
HETATM   36  O   UNL     1     -13.921  13.863  63.993  1.00  0.00     3.401 OA 
HETATM   37  C   UNL     1     -11.583  14.447  63.952  1.00  0.00     0.110 C  
ENDBRANCH  34  35
ENDBRANCH  33  34
ENDBRANCH  31  33
ENDBRANCH   9  31
TORSDOF 4
ENDMDL
MODEL      130
REMARK 921   NORMALIZED FREE ENERGY PREDICTED BY IDOCK:   61.78 KCAL/MOL
REMARK 922        TOTAL FREE ENERGY PREDICTED BY IDOCK:   75.66 KCAL/MOL
REMARK 923 INTER-LIGAND FREE ENERGY PREDICTED BY IDOCK:   73.73 KCAL/MOL
REMARK 924 INTRA-LIGAND FREE ENERGY PREDICTED BY IDOCK:    1.93 KCAL/MOL
REMARK 927      BINDING AFFINITY PREDICTED BY RF-SCORE:    0.00 PKD
ROOT
HETATM    1  C   UNL     1     -11.158  16.639  69.669  1.00  0.00    -0.146 C  
HETATM    2  C   UNL     1     -10.964  18.092  69.307  1.00  0.00     1.178 C  
HETATM    3  C   UNL     1      -9.810  18.093  68.337  1.00  0.00    -0.370 C  
HETATM    4  O   UNL     1      -8.775  18.815  68.998  1.00  0.00    -0.232 OA 
HETATM    5  C   UNL     1      -7.582  18.190  68.582  1.00  0.00    -0.295 C  
HETATM    6  O   UNL     1      -7.856  16.821  68.264  1.00  0.00    -0.179 OA 
HETATM    7  C   UNL     1      -6.529  18.379  69.672  1.00  0.00    -0.155 C  
HETATM    8  C   UNL     1      -5.646  19.541  69.227  1.00  0.00    -0.239 C  
HETATM    9  C   UNL     1      -9.287  16.665  68.131  1.00  0.00    -0.224 C  
HETATM   10  O   UNL     1      -7.581  17.439  74.324  1.00  0.00    10.165 OA 
HETATM   11  C   UNL     1      -5.973  19.841  67.774  1.00  0.00    -0.221 C  
HETATM   12  C   UNL     1      -9.915  15.782  69.266  1.00  0.00    -0.262 C  
HETATM   13  C   UNL     1      -7.069  18.890  67.333  1.00  0.00    -0.216 C  
HETATM   14  C   UNL     1      -8.427  16.640  74.012  1.00  0.00    19.362 C  
HETATM   15  C   UNL     1      -9.876  16.946  74.089  1.00  0.00    12.402 C  
HETATM   16  C   UNL     1     -10.554  14.375  69.009  1.00  0.00    -0.245 C  
HETATM   17  C   UNL     1      -8.767  15.415  70.195  1.00  0.00     0.582 C  
HETATM   18  C   UNL     1     -11.507  13.969  70.187  1.00  0.00    -0.133 C  
HETATM   19  C   UNL     1     -11.062  13.462  73.532  1.00  0.00     7.689 C  
HETATM   20  C   UNL     1     -11.570  14.875  71.473  1.00  0.00    -0.301 C  
HETATM   21  O   UNL     1     -11.427  12.582  70.480  1.00  0.00    -0.421 OA 
HETATM   22  C   UNL     1     -10.592  14.777  72.839  1.00  0.00     2.901 C  
HETATM   23  H   UNL     1     -12.005  12.336  71.194  1.00  0.00     0.000 HD 
HETATM   24  C   UNL     1     -11.904  16.300  70.963  1.00  0.00    -0.246 C  
HETATM   25  C   UNL     1      -9.057  14.521  72.936  1.00  0.00     8.713 C  
HETATM   26  C   UNL     1      -8.112  15.308  73.484  1.00  0.00    10.567 C  
HETATM   27  F   UNL     1     -12.835  14.482  71.987  1.00  0.00    -0.348 F  
HETATM   28  C   UNL     1     -12.098  17.380  72.038  1.00  0.00     2.893 C  
HETATM   29  C   UNL     1     -12.177  16.771  73.438  1.00  0.00    -0.220 C  
HETATM   30  C   UNL     1     -10.836  16.119  73.613  1.00  0.00     3.502 C  
ENDROOT
BRANCH   9  31
HETATM   31  C   UNL     1      -9.631  16.099  66.744  1.00  0.00    -0.240 C  
HETATM   32  O   UNL     1      -8.872  15.314  66.190  1.00  0.00    -0.284 OA 
BRANCH  31  33
HETATM   33  C   UNL     1     -10.871  16.664  66.059  1.00  0.00    -0.041 C  
BRANCH  33  34
HETATM   34  O   UNL     1     -11.628  15.652  65.379  1.00  0.00    -0.053 OA 
BRANCH  34  35
HETATM   35  C   UNL     1     -11.880  14.549  66.130  1.00  0.00    -0.336 C  
HETATM   36  O   UNL     1     -12.087  14.545  67.329  1.00  0.00    -0.392 OA 
HETATM   37  C   UNL     1     -11.950  13.319  65.258  1.00  0.00    -0.422 C  
ENDBRANCH  34  35
ENDBRANCH  33  34
ENDBRANCH  31  33
ENDBRANCH   9  31
TORSDOF 4
ENDMDL
MODEL      131
REMARK 921   NORMALIZED FREE ENERGY PREDICTED BY IDOCK:   76.93 KCAL/MOL
REMARK 922        TOTAL FREE ENERGY PREDICTED BY IDOCK:   94.35 KCAL/MOL
REMARK 923 INTER-LIGAND FREE ENERGY PREDICTED BY IDOCK:   93.41 KCAL/MOL
REMARK 924 INTRA-LIGAND FREE ENERGY PREDICTED BY IDOCK:    0.94 KCAL/MOL
REMARK 927      BINDING AFFINITY PREDICTED BY RF-SCORE:    0.00 PKD
ROOT
HETATM    1  C   UNL     1      -9.122   9.766  65.081  1.00  0.00    -0.270 C  
HETATM    2  C   UNL     1      -9.126   8.432  64.373  1.00  0.00     0.623 C  
HETATM    3  C   UNL     1     -10.586   8.092  64.211  1.00  0.00     9.061 C  
HETATM    4  O   UNL     1     -10.778   6.918  64.996  1.00  0.00     4.237 OA 
HETATM    5  C   UNL     1     -12.084   7.043  65.512  1.00  0.00     8.830 C  
HETATM    6  O   UNL     1     -12.414   8.432  65.620  1.00  0.00    11.308 OA 
HETATM    7  C   UNL     1     -12.159   6.278  66.832  1.00  0.00     2.994 C  
HETATM    8  C   UNL     1     -12.805   4.932  66.518  1.00  0.00    11.707 C  
HETATM    9  C   UNL     1     -11.461   9.186  64.837  1.00  0.00     8.375 C  
HETATM   10  O   UNL     1      -8.757   6.891  70.249  1.00  0.00    -0.142 OA 
HETATM   11  C   UNL     1     -13.374   5.007  65.112  1.00  0.00     8.744 C  
HETATM   12  C   UNL     1     -10.515  10.077  65.717  1.00  0.00    -0.084 C  
HETATM   13  C   UNL     1     -13.059   6.381  64.550  1.00  0.00    11.280 C  
HETATM   14  C   UNL     1      -8.512   8.006  69.861  1.00  0.00    -0.126 C  
HETATM   15  C   UNL     1      -7.302   8.321  69.065  1.00  0.00    -0.089 C  
HETATM   16  C   UNL     1     -10.543  11.643  65.698  1.00  0.00    -0.324 C  
HETATM   17  C   UNL     1     -10.899   9.796  67.163  1.00  0.00    -0.207 C  
HETATM   18  C   UNL     1      -9.208  12.235  66.272  1.00  0.00    -0.171 C  
HETATM   19  C   UNL     1      -7.621  12.024  69.286  1.00  0.00     0.251 C  
HETATM   20  C   UNL     1      -8.148  11.262  66.912  1.00  0.00    -0.155 C  
HETATM   21  O   UNL     1      -9.435  13.405  67.043  1.00  0.00    -0.230 OA 
HETATM   22  C   UNL     1      -8.070  10.747  68.512  1.00  0.00    -0.133 C  
HETATM   23  H   UNL     1      -8.626  13.763  67.391  1.00  0.00     0.000 HD 
HETATM   24  C   UNL     1      -7.854  10.194  65.827  1.00  0.00    -0.139 C  
HETATM   25  C   UNL     1      -9.227  10.325  69.468  1.00  0.00    -0.191 C  
HETATM   26  C   UNL     1      -9.404   9.147  70.096  1.00  0.00    -0.235 C  
HETATM   27  F   UNL     1      -6.982  12.067  66.803  1.00  0.00    -0.133 F  
HETATM   28  C   UNL     1      -6.781   9.150  66.172  1.00  0.00    -0.074 C  
HETATM   29  C   UNL     1      -6.017   9.529  67.440  1.00  0.00    -0.048 C  
HETATM   30  C   UNL     1      -7.079   9.532  68.502  1.00  0.00    -0.070 C  
ENDROOT
BRANCH   9  31
HETATM   31  C   UNL     1     -12.193  10.037  63.788  1.00  0.00     7.904 C  
HETATM   32  O   UNL     1     -12.105   9.762  62.597  1.00  0.00     6.224 OA 
BRANCH  31  33
HETATM   33  C   UNL     1     -12.902  11.290  64.291  1.00  0.00     1.569 C  
BRANCH  33  34
HETATM   34  O   UNL     1     -12.207  12.493  63.929  1.00  0.00    -0.433 OA 
BRANCH  34  35
HETATM   35  C   UNL     1     -13.010  13.581  63.804  1.00  0.00     0.702 C  
HETATM   36  O   UNL     1     -13.719  13.827  62.847  1.00  0.00     2.827 OA 
HETATM   37  C   UNL     1     -12.968  14.416  65.060  1.00  0.00     0.029 C  
ENDBRANCH  34  35
ENDBRANCH  33  34
ENDBRANCH  31  33
ENDBRANCH   9  31
TORSDOF 4
ENDMDL
MODEL      132
REMARK 921   NORMALIZED FREE ENERGY PREDICTED BY IDOCK:   79.29 KCAL/MOL
REMARK 922        TOTAL FREE ENERGY PREDICTED BY IDOCK:   97.26 KCAL/MOL
REMARK 923 INTER-LIGAND FREE ENERGY PREDICTED BY IDOCK:   93.60 KCAL/MOL
REMARK 924 INTRA-LIGAND FREE ENERGY PREDICTED BY IDOCK:    3.66 KCAL/MOL
REMARK 927      BINDING AFFINITY PREDICTED BY RF-SCORE:    0.00 PKD
ROOT
HETATM    1  C   UNL     1      -8.873  17.460  66.900  1.00  0.00    -0.259 C  
HETATM    2  C   UNL     1      -7.766  17.625  67.913  1.00  0.00    -0.216 C  
HETATM    3  C   UNL     1      -7.424  16.218  68.335  1.00  0.00    -0.163 C  
HETATM    4  O   UNL     1      -7.766  16.157  69.717  1.00  0.00    -0.001 OA 
HETATM    5  C   UNL     1      -8.224  14.838  69.913  1.00  0.00     0.377 C  
HETATM    6  O   UNL     1      -8.766  14.343  68.683  1.00  0.00    -0.177 OA 
HETATM    7  C   UNL     1      -9.213  14.836  71.077  1.00  0.00     2.805 C  
HETATM    8  C   UNL     1      -8.439  14.360  72.303  1.00  0.00     7.621 C  
HETATM    9  C   UNL     1      -8.328  15.210  67.613  1.00  0.00    -0.160 C  
HETATM   10  O   UNL     1     -12.817  18.092  71.276  1.00  0.00    10.634 OA 
HETATM   11  C   UNL     1      -7.108  13.806  71.825  1.00  0.00     3.862 C  
HETATM   12  C   UNL     1      -9.501  16.031  66.970  1.00  0.00    -0.230 C  
HETATM   13  C   UNL     1      -7.048  13.963  70.318  1.00  0.00     0.618 C  
HETATM   14  C   UNL     1     -12.831  18.208  70.076  1.00  0.00    15.526 C  
HETATM   15  C   UNL     1     -12.249  19.382  69.384  1.00  0.00     9.233 C  
HETATM   16  C   UNL     1      -9.998  15.816  65.501  1.00  0.00    -0.341 C  
HETATM   17  C   UNL     1     -10.751  15.662  67.758  1.00  0.00    -0.297 C  
HETATM   18  C   UNL     1     -10.805  17.062  64.994  1.00  0.00    -0.006 C  
HETATM   19  C   UNL     1     -13.660  18.620  66.025  1.00  0.00    15.900 C  
HETATM   20  C   UNL     1     -11.143  18.222  66.004  1.00  0.00     0.521 C  
HETATM   21  O   UNL     1     -11.905  16.686  64.179  1.00  0.00    -1.032 OA 
HETATM   22  C   UNL     1     -12.486  18.338  67.011  1.00  0.00     5.333 C  
HETATM   23  H   UNL     1     -12.394  17.442  63.872  1.00  0.00     0.000 HD 
HETATM   24  C   UNL     1      -9.784  18.657  66.610  1.00  0.00    -0.360 C  
HETATM   25  C   UNL     1     -13.187  17.226  67.850  1.00  0.00     6.648 C  
HETATM   26  C   UNL     1     -13.381  17.183  69.182  1.00  0.00     7.717 C  
HETATM   27  F   UNL     1     -11.368  19.285  65.088  1.00  0.00    -0.142 F  
HETATM   28  C   UNL     1      -9.823  19.841  67.587  1.00  0.00    -0.514 C  
HETATM   29  C   UNL     1     -11.184  20.537  67.573  1.00  0.00     1.337 C  
HETATM   30  C   UNL     1     -12.129  19.467  68.039  1.00  0.00     3.266 C  
ENDROOT
BRANCH   9  31
HETATM   31  C   UNL     1      -7.580  14.397  66.546  1.00  0.00     1.360 C  
HETATM   32  O   UNL     1      -7.752  14.630  65.356  1.00  0.00     4.392 OA 
BRANCH  31  33
HETATM   33  C   UNL     1      -6.740  13.223  67.039  1.00  0.00     0.572 C  
BRANCH  33  34
HETATM   34  O   UNL     1      -7.446  12.408  67.987  1.00  0.00    -0.094 OA 
BRANCH  34  35
HETATM   35  C   UNL     1      -8.560  11.814  67.488  1.00  0.00    -0.157 C  
HETATM   36  O   UNL     1      -9.431  11.282  68.149  1.00  0.00    -0.170 OA 
HETATM   37  C   UNL     1      -8.618  11.974  65.988  1.00  0.00     0.197 C  
ENDBRANCH  34  35
ENDBRANCH  33  34
ENDBRANCH  31  33
ENDBRANCH   9  31
TORSDOF 4
ENDMDL
MODEL      133
REMARK 921   NORMALIZED FREE ENERGY PREDICTED BY IDOCK:   87.39 KCAL/MOL
REMARK 922        TOTAL FREE ENERGY PREDICTED BY IDOCK:  107.27 KCAL/MOL
REMARK 923 INTER-LIGAND FREE ENERGY PREDICTED BY IDOCK:  106.88 KCAL/MOL
REMARK 924 INTRA-LIGAND FREE ENERGY PREDICTED BY IDOCK:    0.39 KCAL/MOL
REMARK 927      BINDING AFFINITY PREDICTED BY RF-SCORE:    0.00 PKD
ROOT
HETATM    1  C   UNL     1     -10.424  12.135  69.194  1.00  0.00     0.019 C  
HETATM    2  C   UNL     1      -9.346  11.505  68.345  1.00  0.00    -0.194 C  
HETATM    3  C   UNL     1     -10.095  10.666  67.340  1.00  0.00    -0.194 C  
HETATM    4  O   UNL     1      -9.716   9.323  67.629  1.00  0.00    -0.148 OA 
HETATM    5  C   UNL     1     -10.869   8.560  67.352  1.00  0.00    -0.012 C  
HETATM    6  O   UNL     1     -12.029   9.378  67.543  1.00  0.00     1.887 OA 
HETATM    7  C   UNL     1     -10.840   7.305  68.222  1.00  0.00    -0.114 C  
HETATM    8  C   UNL     1     -10.324   6.174  67.337  1.00  0.00    -0.262 C  
HETATM    9  C   UNL     1     -11.606  10.759  67.589  1.00  0.00     0.000 C  
HETATM   10  O   UNL     1      -9.926   7.611  72.987  1.00  0.00    -0.231 OA 
HETATM   11  C   UNL     1     -10.332   6.670  65.901  1.00  0.00     0.880 C  
HETATM   12  C   UNL     1     -11.794  11.410  69.005  1.00  0.00    -0.415 C  
HETATM   13  C   UNL     1     -10.822   8.105  65.902  1.00  0.00     2.629 C  
HETATM   14  C   UNL     1     -10.352   8.737  73.036  1.00  0.00     0.814 C  
HETATM   15  C   UNL     1      -9.464   9.920  73.124  1.00  0.00     6.865 C  
HETATM   16  C   UNL     1     -12.819  12.559  69.295  1.00  0.00     1.168 C  
HETATM   17  C   UNL     1     -12.332  10.306  69.905  1.00  0.00    -0.090 C  
HETATM   18  C   UNL     1     -12.447  13.320  70.616  1.00  0.00    -0.298 C  
HETATM   19  C   UNL     1     -12.143  12.390  73.885  1.00  0.00    11.022 C  
HETATM   20  C   UNL     1     -11.280  12.771  71.518  1.00  0.00     4.015 C  
HETATM   21  O   UNL     1     -13.601  13.693  71.355  1.00  0.00    -0.262 OA 
HETATM   22  C   UNL     1     -11.392  11.630  72.750  1.00  0.00     9.199 C  
HETATM   23  H   UNL     1     -13.376  14.154  72.155  1.00  0.00     0.000 HD 
HETATM   24  C   UNL     1     -10.048  12.660  70.583  1.00  0.00     5.258 C  
HETATM   25  C   UNL     1     -12.225  10.313  72.800  1.00  0.00     2.304 C  
HETATM   26  C   UNL     1     -11.784   9.052  72.969  1.00  0.00     1.227 C  
HETATM   27  F   UNL     1     -10.952  13.951  72.238  1.00  0.00     1.809 F  
HETATM   28  C   UNL     1      -8.734  12.211  71.239  1.00  0.00    12.816 C  
HETATM   29  C   UNL     1      -8.840  12.207  72.764  1.00  0.00    25.595 C  
HETATM   30  C   UNL     1      -9.913  11.194  73.039  1.00  0.00    17.228 C  
ENDROOT
BRANCH   9  31
HETATM   31  C   UNL     1     -12.338  11.573  66.511  1.00  0.00     1.918 C  
HETATM   32  O   UNL     1     -13.225  12.358  66.823  1.00  0.00     2.370 OA 
BRANCH  31  33
HETATM   33  C   UNL     1     -12.000  11.253  65.059  1.00  0.00     0.807 C  
BRANCH  33  34
HETATM   34  O   UNL     1     -11.507  12.398  64.348  1.00  0.00    -0.316 OA 
BRANCH  34  35
HETATM   35  C   UNL     1     -10.316  12.865  64.804  1.00  0.00    -0.323 C  
HETATM   36  O   UNL     1      -9.247  12.296  64.691  1.00  0.00     0.289 OA 
HETATM   37  C   UNL     1     -10.482  14.238  65.408  1.00  0.00    -0.382 C  
ENDBRANCH  34  35
ENDBRANCH  33  34
ENDBRANCH  31  33
ENDBRANCH   9  31
TORSDOF 4
ENDMDL
MODEL      134
REMARK 921   NORMALIZED FREE ENERGY PREDICTED BY IDOCK:   90.75 KCAL/MOL
REMARK 922        TOTAL FREE ENERGY PREDICTED BY IDOCK:  111.41 KCAL/MOL
REMARK 923 INTER-LIGAND FREE ENERGY PREDICTED BY IDOCK:  108.72 KCAL/MOL
REMARK 924 INTRA-LIGAND FREE ENERGY PREDICTED BY IDOCK:    2.69 KCAL/MOL
REMARK 927      BINDING AFFINITY PREDICTED BY RF-SCORE:    0.00 PKD
ROOT
HETATM    1  C   UNL     1      -7.340  13.321  69.092  1.00  0.00     0.115 C  
HETATM    2  C   UNL     1      -6.999  12.233  68.102  1.00  0.00    -0.087 C  
HETATM    3  C   UNL     1      -8.210  12.138  67.208  1.00  0.00    -0.180 C  
HETATM    4  O   UNL     1      -8.735  10.833  67.440  1.00  0.00    -0.126 OA 
HETATM    5  C   UNL     1     -10.132  10.985  67.323  1.00  0.00    -0.189 C  
HETATM    6  O   UNL     1     -10.488  12.327  67.673  1.00  0.00    -0.209 OA 
HETATM    7  C   UNL     1     -10.808   9.916  68.179  1.00  0.00    -0.282 C  
HETATM    8  C   UNL     1     -11.218   8.794  67.230  1.00  0.00     0.716 C  
HETATM    9  C   UNL     1      -9.287  13.132  67.663  1.00  0.00    -0.205 C  
HETATM   10  O   UNL     1      -9.408   9.166  72.774  1.00  0.00     0.115 OA 
HETATM   11  C   UNL     1     -11.063   9.310  65.809  1.00  0.00     2.448 C  
HETATM   12  C   UNL     1      -8.872  13.630  69.091  1.00  0.00     0.484 C  
HETATM   13  C   UNL     1     -10.536  10.730  65.880  1.00  0.00    -0.270 C  
HETATM   14  C   UNL     1      -9.021  10.301  72.883  1.00  0.00     9.165 C  
HETATM   15  C   UNL     1      -7.583  10.658  72.849  1.00  0.00     8.378 C  
HETATM   16  C   UNL     1      -8.904  15.136  69.521  1.00  0.00    -0.125 C  
HETATM   17  C   UNL     1      -9.886  13.030  70.056  1.00  0.00     2.661 C  
HETATM   18  C   UNL     1      -7.999  15.379  70.780  1.00  0.00     1.990 C  
HETATM   19  C   UNL     1      -8.006  14.180  73.975  1.00  0.00     7.672 C  
HETATM   20  C   UNL     1      -7.352  14.145  71.512  1.00  0.00     3.441 C  
HETATM   21  O   UNL     1      -8.573  16.324  71.671  1.00  0.00     6.430 OA 
HETATM   22  C   UNL     1      -8.028  13.221  72.746  1.00  0.00    12.867 C  
HETATM   23  H   UNL     1      -8.025  16.472  72.433  1.00  0.00     0.000 HD 
HETATM   24  C   UNL     1      -6.574  13.372  70.417  1.00  0.00     0.383 C  
HETATM   25  C   UNL     1      -9.493  12.715  72.909  1.00  0.00    22.750 C  
HETATM   26  C   UNL     1      -9.931  11.445  73.013  1.00  0.00    19.196 C  
HETATM   27  F   UNL     1      -6.280  14.793  72.181  1.00  0.00     0.213 F  
HETATM   28  C   UNL     1      -5.777  12.145  70.885  1.00  0.00    -0.012 C  
HETATM   29  C   UNL     1      -5.699  12.075  72.410  1.00  0.00     1.473 C  
HETATM   30  C   UNL     1      -7.134  11.935  72.828  1.00  0.00    10.301 C  
ENDROOT
BRANCH   9  31
HETATM   31  C   UNL     1      -9.451  14.315  66.697  1.00  0.00    -0.286 C  
HETATM   32  O   UNL     1      -9.885  15.388  67.099  1.00  0.00    -0.219 OA 
BRANCH  31  33
HETATM   33  C   UNL     1      -9.180  14.041  65.221  1.00  0.00     0.943 C  
BRANCH  33  34
HETATM   34  O   UNL     1     -10.386  13.998  64.444  1.00  0.00    -0.342 OA 
BRANCH  34  35
HETATM   35  C   UNL     1     -11.516  14.231  65.159  1.00  0.00    -0.351 C  
HETATM   36  O   UNL     1     -12.259  13.375  65.600  1.00  0.00    -0.409 OA 
HETATM   37  C   UNL     1     -11.690  15.709  65.408  1.00  0.00     0.273 C  
ENDBRANCH  34  35
ENDBRANCH  33  34
ENDBRANCH  31  33
ENDBRANCH   9  31
TORSDOF 4
ENDMDL
MODEL      135
REMARK 921   NORMALIZED FREE ENERGY PREDICTED BY IDOCK:   90.84 KCAL/MOL
REMARK 922        TOTAL FREE ENERGY PREDICTED BY IDOCK:  111.52 KCAL/MOL
REMARK 923 INTER-LIGAND FREE ENERGY PREDICTED BY IDOCK:   35.94 KCAL/MOL
REMARK 924 INTRA-LIGAND FREE ENERGY PREDICTED BY IDOCK:   75.58 KCAL/MOL
REMARK 927      BINDING AFFINITY PREDICTED BY RF-SCORE:    0.00 PKD
ROOT
HETATM    1  C   UNL     1     -10.797  12.996  66.497  1.00  0.00    -0.294 C  
HETATM    2  C   UNL     1      -9.791  11.869  66.519  1.00  0.00    -0.225 C  
HETATM    3  C   UNL     1     -10.133  11.078  67.756  1.00  0.00    -0.177 C  
HETATM    4  O   UNL     1      -8.996  11.213  68.604  1.00  0.00    -0.166 OA 
HETATM    5  C   UNL     1      -9.525  11.233  69.911  1.00  0.00     1.332 C  
HETATM    6  O   UNL     1     -10.859  11.754  69.868  1.00  0.00     0.083 OA 
HETATM    7  C   UNL     1      -8.575  12.024  70.807  1.00  0.00     7.736 C  
HETATM    8  C   UNL     1      -7.730  10.999  71.558  1.00  0.00     6.140 C  
HETATM    9  C   UNL     1     -11.312  11.727  68.495  1.00  0.00    -0.273 C  
HETATM   10  O   UNL     1      -6.906  16.375  69.420  1.00  0.00    -0.210 OA 
HETATM   11  C   UNL     1      -8.362   9.634  71.344  1.00  0.00     0.879 C  
HETATM   12  C   UNL     1     -11.497  13.160  67.884  1.00  0.00    -0.346 C  
HETATM   13  C   UNL     1      -9.571   9.811  70.446  1.00  0.00    -0.223 C  
HETATM   14  C   UNL     1      -7.875  16.572  68.732  1.00  0.00    -0.235 C  
HETATM   15  C   UNL     1      -7.839  16.452  67.255  1.00  0.00    -0.195 C  
HETATM   16  C   UNL     1     -12.892  13.750  67.481  1.00  0.00     1.183 C  
HETATM   17  C   UNL     1     -11.070  14.138  68.970  1.00  0.00    -0.292 C  
HETATM   18  C   UNL     1     -12.725  14.945  66.477  1.00  0.00     0.882 C  
HETATM   19  C   UNL     1     -11.177  17.982  66.639  1.00  0.00     0.702 C  
HETATM   20  C   UNL     1     -11.281  15.483  66.154  1.00  0.00    -0.102 C  
HETATM   21  O   UNL     1     -13.668  15.978  66.723  1.00  0.00     4.948 OA 
HETATM   22  C   UNL     1     -10.421  16.664  66.988  1.00  0.00    -0.283 C  
HETATM   23  H   UNL     1     -13.567  16.702  66.115  1.00  0.00     0.000 HD 
HETATM   24  C   UNL     1     -10.475  14.248  65.676  1.00  0.00    -0.336 C  
HETATM   25  C   UNL     1     -10.304  16.896  68.525  1.00  0.00    -0.336 C  
HETATM   26  C   UNL     1      -9.193  16.901  69.287  1.00  0.00    -0.005 C  
HETATM   27  F   UNL     1     -11.533  16.123  64.910  1.00  0.00    -0.298 F  
HETATM   28  C   UNL     1      -9.032  14.512  65.220  1.00  0.00     1.655 C  
HETATM   29  C   UNL     1      -8.752  16.008  65.083  1.00  0.00     2.445 C  
HETATM   30  C   UNL     1      -8.944  16.531  66.477  1.00  0.00    -0.312 C  
ENDROOT
BRANCH   9  31
HETATM   31  C   UNL     1     -12.609  10.911  68.382  1.00  0.00     1.604 C  
HETATM   32  O   UNL     1     -13.002  10.238  69.326  1.00  0.00     0.355 OA 
BRANCH  31  33
HETATM   33  C   UNL     1     -13.284  10.881  67.015  1.00  0.00     9.988 C  
BRANCH  33  34
HETATM   34  O   UNL     1     -12.375  11.196  65.949  1.00  0.00     1.219 OA 
BRANCH  34  35
HETATM   35  C   UNL     1     -11.392  12.066  66.298  1.00  0.00    -0.357 C  
HETATM   36  O   UNL     1     -10.917  12.920  65.573  1.00  0.00    -0.271 OA 
HETATM   37  C   UNL     1     -11.017  11.887  67.749  1.00  0.00    -0.278 C  
ENDBRANCH  34  35
ENDBRANCH  33  34
ENDBRANCH  31  33
ENDBRANCH   9  31
TORSDOF 4
ENDMDL
