MODEL        1
REMARK 921   NORMALIZED FREE ENERGY PREDICTED BY IDOCK:   -4.58 KCAL/MOL
REMARK 922        TOTAL FREE ENERGY PREDICTED BY IDOCK:   -6.27 KCAL/MOL
REMARK 923 INTER-LIGAND FREE ENERGY PREDICTED BY IDOCK:   -6.19 KCAL/MOL
REMARK 924 INTRA-LIGAND FREE ENERGY PREDICTED BY IDOCK:   -0.08 KCAL/MOL
REMARK 927      BINDING AFFINITY PREDICTED BY RF-SCORE:    0.00 PKD
ROOT
HETATM    1  N   UNL     1     -14.158   8.905  73.087  1.00  0.00    -1.225 NA 
HETATM    2  C   UNL     1     -12.937   9.122  72.320  1.00  0.00    -0.420 C  
HETATM    3  H2  UNL     1     -14.956   8.706  72.482  1.00  0.00     0.000 HD 
HETATM    4  H1  UNL     1     -14.019   8.172  73.783  1.00  0.00     0.000 HD 
ENDROOT
BRANCH   2   5
HETATM    5  C   UNL     1     -13.146  10.219  71.278  1.00  0.00    -0.492 C  
BRANCH   5   6
HETATM    6  C   UNL     1     -11.979  10.251  70.291  1.00  0.00    -0.264 C  
BRANCH   6   7
HETATM    7  N   UNL     1     -12.405  10.870  69.038  1.00  0.00    -0.731 NA 
HETATM    8  H   UNL     1     -13.414  11.017  69.016  1.00  0.00     0.000 HD 
BRANCH   7   9
HETATM    9  C   UNL     1     -11.671  12.114  68.787  1.00  0.00    -0.321 C  
BRANCH   9  10
HETATM   10  C   UNL     1     -11.909  12.624  67.365  1.00  0.00    -0.328 C  
BRANCH  10  11
HETATM   11  S   UNL     1     -11.634  14.419  67.218  1.00  0.00    -0.392 SA 
HETATM   12  P   UNL     1     -11.336  14.586  65.183  1.00  0.00    -0.402 P  
HETATM   13  O   UNL     1     -10.912  16.089  64.830  1.00  0.00    -0.551 OA 
HETATM   14  O   UNL     1     -10.365  13.576  64.663  1.00  0.00    -0.408 OA 
HETATM   15  O   UNL     1     -12.741  14.502  64.426  1.00  0.00    -0.655 OA 
ENDBRANCH  10  11
ENDBRANCH   9  10
ENDBRANCH   7   9
ENDBRANCH   6   7
ENDBRANCH   5   6
ENDBRANCH   2   5
TORSDOF 6
ENDMDL
MODEL        2
REMARK 921   NORMALIZED FREE ENERGY PREDICTED BY IDOCK:   -4.52 KCAL/MOL
REMARK 922        TOTAL FREE ENERGY PREDICTED BY IDOCK:   -6.19 KCAL/MOL
REMARK 923 INTER-LIGAND FREE ENERGY PREDICTED BY IDOCK:   -5.77 KCAL/MOL
REMARK 924 INTRA-LIGAND FREE ENERGY PREDICTED BY IDOCK:   -0.42 KCAL/MOL
REMARK 927      BINDING AFFINITY PREDICTED BY RF-SCORE:    0.00 PKD
ROOT
HETATM    1  N   UNL     1     -12.136  15.510  63.758  1.00  0.00    -0.974 NA 
HETATM    2  C   UNL     1     -12.053  14.111  64.158  1.00  0.00    -0.406 C  
HETATM    3  H2  UNL     1     -11.843  16.137  64.507  1.00  0.00     0.000 HD 
HETATM    4  H1  UNL     1     -11.605  15.669  62.901  1.00  0.00     0.000 HD 
ENDROOT
BRANCH   2   5
HETATM    5  C   UNL     1     -12.849  13.873  65.440  1.00  0.00    -0.466 C  
BRANCH   5   6
HETATM    6  C   UNL     1     -11.908  13.573  66.608  1.00  0.00    -0.407 C  
BRANCH   6   7
HETATM    7  N   UNL     1     -12.246  14.422  67.748  1.00  0.00    -0.624 NA 
HETATM    8  H   UNL     1     -12.818  13.924  68.430  1.00  0.00     0.000 HD 
BRANCH   7   9
HETATM    9  C   UNL     1     -11.039  14.984  68.363  1.00  0.00    -0.278 C  
BRANCH   9  10
HETATM   10  C   UNL     1     -11.143  16.504  68.503  1.00  0.00    -0.335 C  
BRANCH  10  11
HETATM   11  S   UNL     1      -9.544  17.335  68.227  1.00  0.00    -0.300 SA 
HETATM   12  P   UNL     1      -9.954  18.364  66.487  1.00  0.00    -0.395 P  
HETATM   13  O   UNL     1      -8.615  19.063  65.955  1.00  0.00    -0.461 OA 
HETATM   14  O   UNL     1     -10.604  17.502  65.452  1.00  0.00    -0.648 OA 
HETATM   15  O   UNL     1     -10.835  19.656  66.821  1.00  0.00    -0.474 OA 
ENDBRANCH  10  11
ENDBRANCH   9  10
ENDBRANCH   7   9
ENDBRANCH   6   7
ENDBRANCH   5   6
ENDBRANCH   2   5
TORSDOF 6
ENDMDL
MODEL        3
REMARK 921   NORMALIZED FREE ENERGY PREDICTED BY IDOCK:   -4.52 KCAL/MOL
REMARK 922        TOTAL FREE ENERGY PREDICTED BY IDOCK:   -6.19 KCAL/MOL
REMARK 923 INTER-LIGAND FREE ENERGY PREDICTED BY IDOCK:   -5.82 KCAL/MOL
REMARK 924 INTRA-LIGAND FREE ENERGY PREDICTED BY IDOCK:   -0.36 KCAL/MOL
REMARK 927      BINDING AFFINITY PREDICTED BY RF-SCORE:    0.00 PKD
ROOT
HETATM    1  N   UNL     1     -13.493  12.525  72.086  1.00  0.00    -0.513 NA 
HETATM    2  C   UNL     1     -14.107  13.836  72.254  1.00  0.00    -0.531 C  
HETATM    3  H2  UNL     1     -13.155  12.148  72.972  1.00  0.00     0.000 HD 
HETATM    4  H1  UNL     1     -14.138  11.884  71.624  1.00  0.00     0.000 HD 
ENDROOT
BRANCH   2   5
HETATM    5  C   UNL     1     -13.142  14.796  72.947  1.00  0.00    -0.596 C  
BRANCH   5   6
HETATM    6  C   UNL     1     -12.694  15.895  71.983  1.00  0.00    -0.432 C  
BRANCH   6   7
HETATM    7  N   UNL     1     -13.088  15.550  70.619  1.00  0.00    -0.670 NA 
HETATM    8  H   UNL     1     -13.885  16.106  70.306  1.00  0.00     0.000 HD 
BRANCH   7   9
HETATM    9  C   UNL     1     -11.953  15.666  69.697  1.00  0.00    -0.349 C  
BRANCH   9  10
HETATM   10  C   UNL     1     -11.881  14.467  68.751  1.00  0.00    -0.325 C  
BRANCH  10  11
HETATM   11  S   UNL     1     -10.848  14.801  67.287  1.00  0.00    -0.317 SA 
HETATM   12  P   UNL     1     -11.651  13.454  65.947  1.00  0.00    -0.378 P  
HETATM   13  O   UNL     1     -10.780  13.457  64.603  1.00  0.00    -0.365 OA 
HETATM   14  O   UNL     1     -11.802  12.087  66.533  1.00  0.00    -0.585 OA 
HETATM   15  O   UNL     1     -13.039  14.015  65.387  1.00  0.00    -0.763 OA 
ENDBRANCH  10  11
ENDBRANCH   9  10
ENDBRANCH   7   9
ENDBRANCH   6   7
ENDBRANCH   5   6
ENDBRANCH   2   5
TORSDOF 6
ENDMDL
MODEL        4
REMARK 921   NORMALIZED FREE ENERGY PREDICTED BY IDOCK:   -4.48 KCAL/MOL
REMARK 922        TOTAL FREE ENERGY PREDICTED BY IDOCK:   -6.13 KCAL/MOL
REMARK 923 INTER-LIGAND FREE ENERGY PREDICTED BY IDOCK:   -5.72 KCAL/MOL
REMARK 924 INTRA-LIGAND FREE ENERGY PREDICTED BY IDOCK:   -0.42 KCAL/MOL
REMARK 927      BINDING AFFINITY PREDICTED BY RF-SCORE:    0.00 PKD
ROOT
HETATM    1  N   UNL     1      -7.956  20.015  65.610  1.00  0.00    -0.495 NA 
HETATM    2  C   UNL     1      -8.328  20.144  67.014  1.00  0.00    -0.328 C  
HETATM    3  H2  UNL     1      -8.719  20.285  64.989  1.00  0.00     0.000 HD 
HETATM    4  H1  UNL     1      -7.104  20.541  65.416  1.00  0.00     0.000 HD 
ENDROOT
BRANCH   2   5
HETATM    5  C   UNL     1      -9.604  19.356  67.305  1.00  0.00    -0.415 C  
BRANCH   5   6
HETATM    6  C   UNL     1     -10.584  19.471  66.137  1.00  0.00    -0.487 C  
BRANCH   6   7
HETATM    7  N   UNL     1     -10.659  18.197  65.424  1.00  0.00    -0.557 NA 
HETATM    8  H   UNL     1     -10.055  18.191  64.603  1.00  0.00     0.000 HD 
BRANCH   7   9
HETATM    9  C   UNL     1     -10.365  17.074  66.320  1.00  0.00    -0.306 C  
BRANCH   9  10
HETATM   10  C   UNL     1     -10.124  15.784  65.533  1.00  0.00    -0.351 C  
BRANCH  10  11
HETATM   11  S   UNL     1     -11.058  14.374  66.213  1.00  0.00    -0.338 SA 
HETATM   12  P   UNL     1     -12.033  13.719  64.517  1.00  0.00    -0.438 P  
HETATM   13  O   UNL     1     -13.058  12.553  64.910  1.00  0.00    -0.833 OA 
HETATM   14  O   UNL     1     -12.688  14.835  63.768  1.00  0.00    -0.767 OA 
HETATM   15  O   UNL     1     -11.015  12.903  63.594  1.00  0.00    -0.401 OA 
ENDBRANCH  10  11
ENDBRANCH   9  10
ENDBRANCH   7   9
ENDBRANCH   6   7
ENDBRANCH   5   6
ENDBRANCH   2   5
TORSDOF 6
ENDMDL
MODEL        5
REMARK 921   NORMALIZED FREE ENERGY PREDICTED BY IDOCK:   -4.48 KCAL/MOL
REMARK 922        TOTAL FREE ENERGY PREDICTED BY IDOCK:   -6.13 KCAL/MOL
REMARK 923 INTER-LIGAND FREE ENERGY PREDICTED BY IDOCK:   -5.99 KCAL/MOL
REMARK 924 INTRA-LIGAND FREE ENERGY PREDICTED BY IDOCK:   -0.14 KCAL/MOL
REMARK 927      BINDING AFFINITY PREDICTED BY RF-SCORE:    0.00 PKD
ROOT
HETATM    1  N   UNL     1     -12.358  13.964  63.269  1.00  0.00    -1.148 NA 
HETATM    2  C   UNL     1     -12.391  12.631  63.859  1.00  0.00    -0.459 C  
HETATM    3  H2  UNL     1     -11.567  14.510  63.611  1.00  0.00     0.000 HD 
HETATM    4  H1  UNL     1     -12.365  13.905  62.251  1.00  0.00     0.000 HD 
ENDROOT
BRANCH   2   5
HETATM    5  C   UNL     1     -12.380  12.719  65.384  1.00  0.00    -0.528 C  
BRANCH   5   6
HETATM    6  C   UNL     1     -12.414  14.179  65.837  1.00  0.00    -0.453 C  
BRANCH   6   7
HETATM    7  N   UNL     1     -12.372  14.247  67.296  1.00  0.00    -0.592 NA 
HETATM    8  H   UNL     1     -12.136  13.344  67.708  1.00  0.00     0.000 HD 
BRANCH   7   9
HETATM    9  C   UNL     1     -11.460  15.302  67.750  1.00  0.00    -0.303 C  
BRANCH   9  10
HETATM   10  C   UNL     1     -11.324  15.303  69.273  1.00  0.00    -0.298 C  
BRANCH  10  11
HETATM   11  S   UNL     1     -12.219  13.917  70.048  1.00  0.00    -0.329 SA 
HETATM   12  P   UNL     1     -13.043  14.870  71.681  1.00  0.00    -0.418 P  
HETATM   13  O   UNL     1     -13.765  13.790  72.618  1.00  0.00    -0.647 OA 
HETATM   14  O   UNL     1     -12.045  15.701  72.422  1.00  0.00    -0.370 OA 
HETATM   15  O   UNL     1     -14.306  15.734  71.218  1.00  0.00    -0.446 OA 
ENDBRANCH  10  11
ENDBRANCH   9  10
ENDBRANCH   7   9
ENDBRANCH   6   7
ENDBRANCH   5   6
ENDBRANCH   2   5
TORSDOF 6
ENDMDL
MODEL        6
REMARK 921   NORMALIZED FREE ENERGY PREDICTED BY IDOCK:   -4.46 KCAL/MOL
REMARK 922        TOTAL FREE ENERGY PREDICTED BY IDOCK:   -6.10 KCAL/MOL
REMARK 923 INTER-LIGAND FREE ENERGY PREDICTED BY IDOCK:   -5.92 KCAL/MOL
REMARK 924 INTRA-LIGAND FREE ENERGY PREDICTED BY IDOCK:   -0.18 KCAL/MOL
REMARK 927      BINDING AFFINITY PREDICTED BY RF-SCORE:    0.00 PKD
ROOT
HETATM    1  N   UNL     1     -13.473  16.000  73.659  1.00  0.00    -0.872 NA 
HETATM    2  C   UNL     1     -13.092  14.914  72.764  1.00  0.00    -0.462 C  
HETATM    3  H2  UNL     1     -14.466  16.222  73.585  1.00  0.00     0.000 HD 
HETATM    4  H1  UNL     1     -13.204  15.784  74.619  1.00  0.00     0.000 HD 
ENDROOT
BRANCH   2   5
HETATM    5  C   UNL     1     -13.495  15.238  71.327  1.00  0.00    -0.591 C  
BRANCH   5   6
HETATM    6  C   UNL     1     -12.256  15.418  70.449  1.00  0.00    -0.391 C  
BRANCH   6   7
HETATM    7  N   UNL     1     -12.515  14.892  69.111  1.00  0.00    -0.587 NA 
HETATM    8  H   UNL     1     -12.404  15.611  68.396  1.00  0.00     0.000 HD 
BRANCH   7   9
HETATM    9  C   UNL     1     -11.677  13.720  68.834  1.00  0.00    -0.336 C  
BRANCH   9  10
HETATM   10  C   UNL     1     -10.716  13.987  67.674  1.00  0.00    -0.257 C  
BRANCH  10  11
HETATM   11  S   UNL     1     -11.148  15.498  66.750  1.00  0.00    -0.134 SA 
HETATM   12  P   UNL     1     -11.769  14.678  64.962  1.00  0.00    -0.356 P  
HETATM   13  O   UNL     1     -12.059  15.852  63.912  1.00  0.00    -0.768 OA 
HETATM   14  O   UNL     1     -10.810  13.659  64.437  1.00  0.00    -0.396 OA 
HETATM   15  O   UNL     1     -13.241  14.077  65.129  1.00  0.00    -0.768 OA 
ENDBRANCH  10  11
ENDBRANCH   9  10
ENDBRANCH   7   9
ENDBRANCH   6   7
ENDBRANCH   5   6
ENDBRANCH   2   5
TORSDOF 6
ENDMDL
MODEL        7
REMARK 921   NORMALIZED FREE ENERGY PREDICTED BY IDOCK:   -4.46 KCAL/MOL
REMARK 922        TOTAL FREE ENERGY PREDICTED BY IDOCK:   -6.10 KCAL/MOL
REMARK 923 INTER-LIGAND FREE ENERGY PREDICTED BY IDOCK:   -5.97 KCAL/MOL
REMARK 924 INTRA-LIGAND FREE ENERGY PREDICTED BY IDOCK:   -0.13 KCAL/MOL
REMARK 927      BINDING AFFINITY PREDICTED BY RF-SCORE:    0.00 PKD
ROOT
HETATM    1  N   UNL     1     -11.543  16.252  63.748  1.00  0.00    -1.482 NA 
HETATM    2  C   UNL     1     -11.054  15.681  64.997  1.00  0.00    -0.389 C  
HETATM    3  H2  UNL     1     -12.525  16.025  63.586  1.00  0.00     0.000 HD 
HETATM    4  H1  UNL     1     -11.378  17.259  63.725  1.00  0.00     0.000 HD 
ENDROOT
BRANCH   2   5
HETATM    5  C   UNL     1     -11.300  14.174  65.030  1.00  0.00    -0.350 C  
BRANCH   5   6
HETATM    6  C   UNL     1     -12.388  13.831  66.049  1.00  0.00    -0.457 C  
BRANCH   6   7
HETATM    7  N   UNL     1     -12.055  14.414  67.347  1.00  0.00    -0.588 NA 
HETATM    8  H   UNL     1     -12.695  15.169  67.595  1.00  0.00     0.000 HD 
BRANCH   7   9
HETATM    9  C   UNL     1     -12.004  13.384  68.389  1.00  0.00    -0.324 C  
BRANCH   9  10
HETATM   10  C   UNL     1     -11.689  13.993  69.757  1.00  0.00    -0.313 C  
BRANCH  10  11
HETATM   11  S   UNL     1     -12.873  15.299  70.221  1.00  0.00    -0.177 SA 
HETATM   12  P   UNL     1     -13.090  14.907  72.235  1.00  0.00    -0.436 P  
HETATM   13  O   UNL     1     -14.230  15.855  72.841  1.00  0.00    -0.497 OA 
HETATM   14  O   UNL     1     -13.338  13.459  72.512  1.00  0.00    -0.529 OA 
HETATM   15  O   UNL     1     -11.815  15.453  73.030  1.00  0.00    -0.427 OA 
ENDBRANCH  10  11
ENDBRANCH   9  10
ENDBRANCH   7   9
ENDBRANCH   6   7
ENDBRANCH   5   6
ENDBRANCH   2   5
TORSDOF 6
ENDMDL
MODEL        8
REMARK 921   NORMALIZED FREE ENERGY PREDICTED BY IDOCK:   -4.43 KCAL/MOL
REMARK 922        TOTAL FREE ENERGY PREDICTED BY IDOCK:   -6.07 KCAL/MOL
REMARK 923 INTER-LIGAND FREE ENERGY PREDICTED BY IDOCK:   -5.96 KCAL/MOL
REMARK 924 INTRA-LIGAND FREE ENERGY PREDICTED BY IDOCK:   -0.11 KCAL/MOL
REMARK 927      BINDING AFFINITY PREDICTED BY RF-SCORE:    0.00 PKD
ROOT
HETATM    1  N   UNL     1     -13.969   8.938  73.123  1.00  0.00    -1.215 NA 
HETATM    2  C   UNL     1     -13.443   8.796  71.771  1.00  0.00    -0.393 C  
HETATM    3  H2  UNL     1     -14.228   9.903  73.331  1.00  0.00     0.000 HD 
HETATM    4  H1  UNL     1     -14.748   8.296  73.273  1.00  0.00     0.000 HD 
ENDROOT
BRANCH   2   5
HETATM    5  C   UNL     1     -12.277   9.757  71.546  1.00  0.00    -0.493 C  
BRANCH   5   6
HETATM    6  C   UNL     1     -12.786  11.116  71.066  1.00  0.00    -0.378 C  
BRANCH   6   7
HETATM    7  N   UNL     1     -11.785  11.747  70.208  1.00  0.00    -0.501 NA 
HETATM    8  H   UNL     1     -10.848  11.668  70.603  1.00  0.00     0.000 HD 
BRANCH   7   9
HETATM    9  C   UNL     1     -11.844  11.208  68.845  1.00  0.00    -0.337 C  
BRANCH   9  10
HETATM   10  C   UNL     1     -11.765  12.324  67.802  1.00  0.00    -0.337 C  
BRANCH  10  11
HETATM   11  S   UNL     1     -10.763  11.850  66.356  1.00  0.00    -0.278 SA 
HETATM   12  P   UNL     1     -11.748  12.879  64.864  1.00  0.00    -0.400 P  
HETATM   13  O   UNL     1     -11.124  12.483  63.444  1.00  0.00    -0.459 OA 
HETATM   14  O   UNL     1     -13.230  12.683  64.918  1.00  0.00    -0.819 OA 
HETATM   15  O   UNL     1     -11.353  14.426  64.927  1.00  0.00    -0.345 OA 
ENDBRANCH  10  11
ENDBRANCH   9  10
ENDBRANCH   7   9
ENDBRANCH   6   7
ENDBRANCH   5   6
ENDBRANCH   2   5
TORSDOF 6
ENDMDL
MODEL        9
REMARK 921   NORMALIZED FREE ENERGY PREDICTED BY IDOCK:   -4.42 KCAL/MOL
REMARK 922        TOTAL FREE ENERGY PREDICTED BY IDOCK:   -6.06 KCAL/MOL
REMARK 923 INTER-LIGAND FREE ENERGY PREDICTED BY IDOCK:   -5.63 KCAL/MOL
REMARK 924 INTRA-LIGAND FREE ENERGY PREDICTED BY IDOCK:   -0.43 KCAL/MOL
REMARK 927      BINDING AFFINITY PREDICTED BY RF-SCORE:    0.00 PKD
ROOT
HETATM    1  N   UNL     1     -12.533  14.275  63.525  1.00  0.00    -1.102 NA 
HETATM    2  C   UNL     1     -11.981  12.927  63.567  1.00  0.00    -0.556 C  
HETATM    3  H2  UNL     1     -11.991  14.925  64.095  1.00  0.00     0.000 HD 
HETATM    4  H1  UNL     1     -12.619  14.597  62.562  1.00  0.00     0.000 HD 
ENDROOT
BRANCH   2   5
HETATM    5  C   UNL     1     -11.852  12.444  65.011  1.00  0.00    -0.440 C  
BRANCH   5   6
HETATM    6  C   UNL     1     -10.384  12.415  65.438  1.00  0.00    -0.277 C  
BRANCH   6   7
HETATM    7  N   UNL     1      -9.799  13.747  65.297  1.00  0.00    -0.565 NA 
HETATM    8  H   UNL     1     -10.046  14.173  64.404  1.00  0.00     0.000 HD 
BRANCH   7   9
HETATM    9  C   UNL     1     -10.167  14.607  66.427  1.00  0.00    -0.289 C  
BRANCH   9  10
HETATM   10  C   UNL     1     -10.084  16.086  66.049  1.00  0.00    -0.341 C  
BRANCH  10  11
HETATM   11  S   UNL     1     -10.407  17.182  67.470  1.00  0.00    -0.343 SA 
HETATM   12  P   UNL     1      -9.789  18.991  66.694  1.00  0.00    -0.407 P  
HETATM   13  O   UNL     1      -9.836  20.106  67.843  1.00  0.00    -0.379 OA 
HETATM   14  O   UNL     1      -8.452  18.902  66.031  1.00  0.00    -0.468 OA 
HETATM   15  O   UNL     1     -10.906  19.560  65.701  1.00  0.00    -0.458 OA 
ENDBRANCH  10  11
ENDBRANCH   9  10
ENDBRANCH   7   9
ENDBRANCH   6   7
ENDBRANCH   5   6
ENDBRANCH   2   5
TORSDOF 6
ENDMDL
MODEL       10
REMARK 921   NORMALIZED FREE ENERGY PREDICTED BY IDOCK:   -4.38 KCAL/MOL
REMARK 922        TOTAL FREE ENERGY PREDICTED BY IDOCK:   -6.00 KCAL/MOL
REMARK 923 INTER-LIGAND FREE ENERGY PREDICTED BY IDOCK:   -5.89 KCAL/MOL
REMARK 924 INTRA-LIGAND FREE ENERGY PREDICTED BY IDOCK:   -0.11 KCAL/MOL
REMARK 927      BINDING AFFINITY PREDICTED BY RF-SCORE:    0.00 PKD
ROOT
HETATM    1  N   UNL     1     -13.854  13.266  72.512  1.00  0.00    -0.719 NA 
HETATM    2  C   UNL     1     -13.038  14.431  72.830  1.00  0.00    -0.505 C  
HETATM    3  H2  UNL     1     -13.535  12.799  71.663  1.00  0.00     0.000 HD 
HETATM    4  H1  UNL     1     -13.889  12.626  73.306  1.00  0.00     0.000 HD 
ENDROOT
BRANCH   2   5
HETATM    5  C   UNL     1     -12.986  15.390  71.641  1.00  0.00    -0.513 C  
BRANCH   5   6
HETATM    6  C   UNL     1     -11.920  14.946  70.640  1.00  0.00    -0.305 C  
BRANCH   6   7
HETATM    7  N   UNL     1     -12.425  15.098  69.277  1.00  0.00    -0.588 NA 
HETATM    8  H   UNL     1     -12.213  16.021  68.899  1.00  0.00     0.000 HD 
BRANCH   7   9
HETATM    9  C   UNL     1     -11.924  14.029  68.406  1.00  0.00    -0.343 C  
BRANCH   9  10
HETATM   10  C   UNL     1     -12.208  14.333  66.934  1.00  0.00    -0.331 C  
BRANCH  10  11
HETATM   11  S   UNL     1     -10.851  13.794  65.842  1.00  0.00    -0.287 SA 
HETATM   12  P   UNL     1     -11.926  13.135  64.209  1.00  0.00    -0.449 P  
HETATM   13  O   UNL     1     -10.929  12.456  63.156  1.00  0.00    -0.374 OA 
HETATM   14  O   UNL     1     -13.057  12.236  64.594  1.00  0.00    -0.770 OA 
HETATM   15  O   UNL     1     -12.429  14.389  63.355  1.00  0.00    -0.709 OA 
ENDBRANCH  10  11
ENDBRANCH   9  10
ENDBRANCH   7   9
ENDBRANCH   6   7
ENDBRANCH   5   6
ENDBRANCH   2   5
TORSDOF 6
ENDMDL
MODEL       11
REMARK 921   NORMALIZED FREE ENERGY PREDICTED BY IDOCK:   -4.37 KCAL/MOL
REMARK 922        TOTAL FREE ENERGY PREDICTED BY IDOCK:   -5.98 KCAL/MOL
REMARK 923 INTER-LIGAND FREE ENERGY PREDICTED BY IDOCK:   -5.54 KCAL/MOL
REMARK 924 INTRA-LIGAND FREE ENERGY PREDICTED BY IDOCK:   -0.44 KCAL/MOL
REMARK 927      BINDING AFFINITY PREDICTED BY RF-SCORE:    0.00 PKD
ROOT
HETATM    1  N   UNL     1     -11.367  11.301  63.003  1.00  0.00    -0.827 NA 
HETATM    2  C   UNL     1     -12.657  11.884  63.349  1.00  0.00    -0.431 C  
HETATM    3  H2  UNL     1     -10.949  10.808  63.793  1.00  0.00     0.000 HD 
HETATM    4  H1  UNL     1     -11.454  10.699  62.184  1.00  0.00     0.000 HD 
ENDROOT
BRANCH   2   5
HETATM    5  C   UNL     1     -12.527  12.786  64.575  1.00  0.00    -0.501 C  
BRANCH   5   6
HETATM    6  C   UNL     1     -11.784  14.074  64.218  1.00  0.00    -0.367 C  
BRANCH   6   7
HETATM    7  N   UNL     1     -10.365  13.933  64.535  1.00  0.00    -0.652 NA 
HETATM    8  H   UNL     1      -9.807  14.665  64.095  1.00  0.00     0.000 HD 
BRANCH   7   9
HETATM    9  C   UNL     1     -10.151  13.890  65.986  1.00  0.00    -0.313 C  
BRANCH   9  10
HETATM   10  C   UNL     1      -9.249  15.036  66.449  1.00  0.00    -0.295 C  
BRANCH  10  11
HETATM   11  S   UNL     1     -10.138  16.235  67.495  1.00  0.00    -0.264 SA 
HETATM   12  P   UNL     1      -9.982  17.932  66.332  1.00  0.00    -0.323 P  
HETATM   13  O   UNL     1     -10.570  19.184  67.139  1.00  0.00    -0.422 OA 
HETATM   14  O   UNL     1      -8.588  18.164  65.844  1.00  0.00    -0.507 OA 
HETATM   15  O   UNL     1     -11.028  17.855  65.126  1.00  0.00    -0.642 OA 
ENDBRANCH  10  11
ENDBRANCH   9  10
ENDBRANCH   7   9
ENDBRANCH   6   7
ENDBRANCH   5   6
ENDBRANCH   2   5
TORSDOF 6
ENDMDL
MODEL       12
REMARK 921   NORMALIZED FREE ENERGY PREDICTED BY IDOCK:   -4.36 KCAL/MOL
REMARK 922        TOTAL FREE ENERGY PREDICTED BY IDOCK:   -5.97 KCAL/MOL
REMARK 923 INTER-LIGAND FREE ENERGY PREDICTED BY IDOCK:   -5.57 KCAL/MOL
REMARK 924 INTRA-LIGAND FREE ENERGY PREDICTED BY IDOCK:   -0.40 KCAL/MOL
REMARK 927      BINDING AFFINITY PREDICTED BY RF-SCORE:    0.00 PKD
ROOT
HETATM    1  N   UNL     1      -8.776  20.276  65.999  1.00  0.00    -0.580 NA 
HETATM    2  C   UNL     1      -9.618  20.302  67.189  1.00  0.00    -0.443 C  
HETATM    3  H2  UNL     1      -9.327  20.174  65.146  1.00  0.00     0.000 HD 
HETATM    4  H1  UNL     1      -8.176  21.101  65.967  1.00  0.00     0.000 HD 
ENDROOT
BRANCH   2   5
HETATM    5  C   UNL     1     -10.515  19.067  67.238  1.00  0.00    -0.533 C  
BRANCH   5   6
HETATM    6  C   UNL     1     -10.700  18.482  65.837  1.00  0.00    -0.198 C  
BRANCH   6   7
HETATM    7  N   UNL     1     -10.037  17.183  65.750  1.00  0.00    -0.574 NA 
HETATM    8  H   UNL     1      -9.097  17.266  65.364  1.00  0.00     0.000 HD 
BRANCH   7   9
HETATM    9  C   UNL     1     -10.030  16.506  67.051  1.00  0.00    -0.268 C  
BRANCH   9  10
HETATM   10  C   UNL     1     -10.534  15.067  66.931  1.00  0.00    -0.279 C  
BRANCH  10  11
HETATM   11  S   UNL     1     -10.631  14.509  65.198  1.00  0.00    -0.433 SA 
HETATM   12  P   UNL     1     -12.249  13.234  65.306  1.00  0.00    -0.495 P  
HETATM   13  O   UNL     1     -12.432  12.489  63.900  1.00  0.00    -0.554 OA 
HETATM   14  O   UNL     1     -12.151  12.283  66.455  1.00  0.00    -0.623 OA 
HETATM   15  O   UNL     1     -13.601  14.085  65.354  1.00  0.00    -0.593 OA 
ENDBRANCH  10  11
ENDBRANCH   9  10
ENDBRANCH   7   9
ENDBRANCH   6   7
ENDBRANCH   5   6
ENDBRANCH   2   5
TORSDOF 6
ENDMDL
MODEL       13
REMARK 921   NORMALIZED FREE ENERGY PREDICTED BY IDOCK:   -4.32 KCAL/MOL
REMARK 922        TOTAL FREE ENERGY PREDICTED BY IDOCK:   -5.92 KCAL/MOL
REMARK 923 INTER-LIGAND FREE ENERGY PREDICTED BY IDOCK:   -5.53 KCAL/MOL
REMARK 924 INTRA-LIGAND FREE ENERGY PREDICTED BY IDOCK:   -0.40 KCAL/MOL
REMARK 927      BINDING AFFINITY PREDICTED BY RF-SCORE:    0.00 PKD
ROOT
HETATM    1  N   UNL     1     -14.129   8.886  73.146  1.00  0.00    -1.225 NA 
HETATM    2  C   UNL     1     -13.552   8.982  71.811  1.00  0.00    -0.413 C  
HETATM    3  H2  UNL     1     -14.799   9.635  73.324  1.00  0.00     0.000 HD 
HETATM    4  H1  UNL     1     -14.543   7.965  73.292  1.00  0.00     0.000 HD 
ENDROOT
BRANCH   2   5
HETATM    5  C   UNL     1     -12.933  10.361  71.592  1.00  0.00    -0.581 C  
BRANCH   5   6
HETATM    6  C   UNL     1     -11.823  10.291  70.543  1.00  0.00    -0.329 C  
BRANCH   6   7
HETATM    7  N   UNL     1     -11.371  11.639  70.207  1.00  0.00    -0.468 NA 
HETATM    8  H   UNL     1     -11.222  11.747  69.204  1.00  0.00     0.000 HD 
BRANCH   7   9
HETATM    9  C   UNL     1     -12.296  12.651  70.728  1.00  0.00    -0.283 C  
BRANCH   9  10
HETATM   10  C   UNL     1     -12.365  13.868  69.805  1.00  0.00    -0.275 C  
BRANCH  10  11
HETATM   11  S   UNL     1     -10.843  14.081  68.825  1.00  0.00    -0.266 SA 
HETATM   12  P   UNL     1     -11.440  13.267  67.026  1.00  0.00    -0.380 P  
HETATM   13  O   UNL     1     -10.188  13.201  66.031  1.00  0.00    -0.275 OA 
HETATM   14  O   UNL     1     -12.114  11.942  67.194  1.00  0.00    -0.590 OA 
HETATM   15  O   UNL     1     -12.369  14.309  66.246  1.00  0.00    -0.443 OA 
ENDBRANCH  10  11
ENDBRANCH   9  10
ENDBRANCH   7   9
ENDBRANCH   6   7
ENDBRANCH   5   6
ENDBRANCH   2   5
TORSDOF 6
ENDMDL
MODEL       14
REMARK 921   NORMALIZED FREE ENERGY PREDICTED BY IDOCK:   -4.31 KCAL/MOL
REMARK 922        TOTAL FREE ENERGY PREDICTED BY IDOCK:   -5.91 KCAL/MOL
REMARK 923 INTER-LIGAND FREE ENERGY PREDICTED BY IDOCK:   -5.37 KCAL/MOL
REMARK 924 INTRA-LIGAND FREE ENERGY PREDICTED BY IDOCK:   -0.53 KCAL/MOL
REMARK 927      BINDING AFFINITY PREDICTED BY RF-SCORE:    0.00 PKD
ROOT
HETATM    1  N   UNL     1     -12.358  14.025  63.284  1.00  0.00    -1.145 NA 
HETATM    2  C   UNL     1     -12.295  12.630  63.702  1.00  0.00    -0.492 C  
HETATM    3  H2  UNL     1     -11.466  14.502  63.417  1.00  0.00     0.000 HD 
HETATM    4  H1  UNL     1     -12.685  14.096  62.320  1.00  0.00     0.000 HD 
ENDROOT
BRANCH   2   5
HETATM    5  C   UNL     1     -11.805  12.525  65.145  1.00  0.00    -0.450 C  
BRANCH   5   6
HETATM    6  C   UNL     1     -10.292  12.737  65.215  1.00  0.00    -0.296 C  
BRANCH   6   7
HETATM    7  N   UNL     1     -10.001  14.129  65.552  1.00  0.00    -0.475 NA 
HETATM    8  H   UNL     1     -10.851  14.692  65.590  1.00  0.00     0.000 HD 
BRANCH   7   9
HETATM    9  C   UNL     1      -9.236  14.220  66.800  1.00  0.00    -0.264 C  
BRANCH   9  10
HETATM   10  C   UNL     1      -9.690  15.412  67.644  1.00  0.00    -0.211 C  
BRANCH  10  11
HETATM   11  S   UNL     1      -8.649  16.885  67.378  1.00  0.00    -0.205 SA 
HETATM   12  P   UNL     1      -9.976  18.103  66.373  1.00  0.00    -0.342 P  
HETATM   13  O   UNL     1      -9.218  19.427  65.887  1.00  0.00    -0.423 OA 
HETATM   14  O   UNL     1     -10.670  17.393  65.256  1.00  0.00    -0.646 OA 
HETATM   15  O   UNL     1     -11.015  18.736  67.410  1.00  0.00    -0.422 OA 
ENDBRANCH  10  11
ENDBRANCH   9  10
ENDBRANCH   7   9
ENDBRANCH   6   7
ENDBRANCH   5   6
ENDBRANCH   2   5
TORSDOF 6
ENDMDL
MODEL       15
REMARK 921   NORMALIZED FREE ENERGY PREDICTED BY IDOCK:   -4.28 KCAL/MOL
REMARK 922        TOTAL FREE ENERGY PREDICTED BY IDOCK:   -5.86 KCAL/MOL
REMARK 923 INTER-LIGAND FREE ENERGY PREDICTED BY IDOCK:   -5.47 KCAL/MOL
REMARK 924 INTRA-LIGAND FREE ENERGY PREDICTED BY IDOCK:   -0.40 KCAL/MOL
REMARK 927      BINDING AFFINITY PREDICTED BY RF-SCORE:    0.00 PKD
ROOT
HETATM    1  N   UNL     1     -14.260   8.876  73.091  1.00  0.00    -1.200 NA 
HETATM    2  C   UNL     1     -14.291   8.176  71.813  1.00  0.00    -0.484 C  
HETATM    3  H2  UNL     1     -13.599   9.654  73.082  1.00  0.00     0.000 HD 
HETATM    4  H1  UNL     1     -15.197   9.179  73.356  1.00  0.00     0.000 HD 
ENDROOT
BRANCH   2   5
HETATM    5  C   UNL     1     -12.887   7.722  71.417  1.00  0.00    -0.328 C  
BRANCH   5   6
HETATM    6  C   UNL     1     -11.954   8.925  71.276  1.00  0.00    -0.307 C  
BRANCH   6   7
HETATM    7  N   UNL     1     -12.691  10.065  70.735  1.00  0.00    -0.480 NA 
HETATM    8  H   UNL     1     -13.486  10.312  71.323  1.00  0.00     0.000 HD 
BRANCH   7   9
HETATM    9  C   UNL     1     -11.803  11.212  70.517  1.00  0.00    -0.351 C  
BRANCH   9  10
HETATM   10  C   UNL     1     -12.591  12.521  70.457  1.00  0.00    -0.098 C  
BRANCH  10  11
HETATM   11  S   UNL     1     -13.347  12.948  72.059  1.00  0.00    -0.407 SA 
HETATM   12  P   UNL     1     -12.841  14.944  72.191  1.00  0.00    -0.383 P  
HETATM   13  O   UNL     1     -13.277  15.508  73.625  1.00  0.00    -0.469 OA 
HETATM   14  O   UNL     1     -11.397  15.188  71.890  1.00  0.00    -0.413 OA 
HETATM   15  O   UNL     1     -13.797  15.805  71.244  1.00  0.00    -0.547 OA 
ENDBRANCH  10  11
ENDBRANCH   9  10
ENDBRANCH   7   9
ENDBRANCH   6   7
ENDBRANCH   5   6
ENDBRANCH   2   5
TORSDOF 6
ENDMDL
MODEL       16
REMARK 921   NORMALIZED FREE ENERGY PREDICTED BY IDOCK:   -4.26 KCAL/MOL
REMARK 922        TOTAL FREE ENERGY PREDICTED BY IDOCK:   -5.84 KCAL/MOL
REMARK 923 INTER-LIGAND FREE ENERGY PREDICTED BY IDOCK:   -5.67 KCAL/MOL
REMARK 924 INTRA-LIGAND FREE ENERGY PREDICTED BY IDOCK:   -0.17 KCAL/MOL
REMARK 927      BINDING AFFINITY PREDICTED BY RF-SCORE:    0.00 PKD
ROOT
HETATM    1  N   UNL     1     -14.204   8.893  73.229  1.00  0.00    -1.237 NA 
HETATM    2  C   UNL     1     -13.723   8.867  71.853  1.00  0.00    -0.439 C  
HETATM    3  H2  UNL     1     -14.821   9.688  73.400  1.00  0.00     0.000 HD 
HETATM    4  H1  UNL     1     -14.651   8.008  73.470  1.00  0.00     0.000 HD 
ENDROOT
BRANCH   2   5
HETATM    5  C   UNL     1     -13.053  10.192  71.494  1.00  0.00    -0.529 C  
BRANCH   5   6
HETATM    6  C   UNL     1     -11.750   9.946  70.733  1.00  0.00    -0.341 C  
BRANCH   6   7
HETATM    7  N   UNL     1     -11.209  11.215  70.252  1.00  0.00    -0.479 NA 
HETATM    8  H   UNL     1     -10.203  11.158  70.094  1.00  0.00     0.000 HD 
BRANCH   7   9
HETATM    9  C   UNL     1     -11.920  11.671  69.053  1.00  0.00    -0.305 C  
BRANCH   9  10
HETATM   10  C   UNL     1     -11.398  10.971  67.797  1.00  0.00    -0.292 C  
BRANCH  10  11
HETATM   11  S   UNL     1     -10.235  12.012  66.857  1.00  0.00    -0.210 SA 
HETATM   12  P   UNL     1     -11.559  13.200  65.812  1.00  0.00    -0.388 P  
HETATM   13  O   UNL     1     -10.749  14.114  64.775  1.00  0.00    -0.398 OA 
HETATM   14  O   UNL     1     -12.643  12.407  65.156  1.00  0.00    -0.622 OA 
HETATM   15  O   UNL     1     -12.150  14.326  66.780  1.00  0.00    -0.430 OA 
ENDBRANCH  10  11
ENDBRANCH   9  10
ENDBRANCH   7   9
ENDBRANCH   6   7
ENDBRANCH   5   6
ENDBRANCH   2   5
TORSDOF 6
ENDMDL
MODEL       17
REMARK 921   NORMALIZED FREE ENERGY PREDICTED BY IDOCK:   -4.21 KCAL/MOL
REMARK 922        TOTAL FREE ENERGY PREDICTED BY IDOCK:   -5.77 KCAL/MOL
REMARK 923 INTER-LIGAND FREE ENERGY PREDICTED BY IDOCK:   -5.62 KCAL/MOL
REMARK 924 INTRA-LIGAND FREE ENERGY PREDICTED BY IDOCK:   -0.15 KCAL/MOL
REMARK 927      BINDING AFFINITY PREDICTED BY RF-SCORE:    0.00 PKD
ROOT
HETATM    1  N   UNL     1     -12.361  11.695  63.120  1.00  0.00    -0.966 NA 
HETATM    2  C   UNL     1     -11.634  12.536  64.062  1.00  0.00    -0.413 C  
HETATM    3  H2  UNL     1     -13.207  12.152  62.777  1.00  0.00     0.000 HD 
HETATM    4  H1  UNL     1     -11.752  11.403  62.356  1.00  0.00     0.000 HD 
ENDROOT
BRANCH   2   5
HETATM    5  C   UNL     1     -12.547  12.972  65.207  1.00  0.00    -0.516 C  
BRANCH   5   6
HETATM    6  C   UNL     1     -11.836  13.987  66.103  1.00  0.00    -0.407 C  
BRANCH   6   7
HETATM    7  N   UNL     1     -12.328  13.869  67.474  1.00  0.00    -0.474 NA 
HETATM    8  H   UNL     1     -12.628  12.917  67.685  1.00  0.00     0.000 HD 
BRANCH   7   9
HETATM    9  C   UNL     1     -11.329  14.347  68.436  1.00  0.00    -0.287 C  
BRANCH   9  10
HETATM   10  C   UNL     1     -11.863  15.526  69.251  1.00  0.00    -0.353 C  
BRANCH  10  11
HETATM   11  S   UNL     1     -11.448  15.388  71.020  1.00  0.00    -0.394 SA 
HETATM   12  P   UNL     1     -13.111  14.388  71.718  1.00  0.00    -0.410 P  
HETATM   13  O   UNL     1     -13.041  14.288  73.314  1.00  0.00    -0.583 OA 
HETATM   14  O   UNL     1     -14.389  14.996  71.233  1.00  0.00    -0.454 OA 
HETATM   15  O   UNL     1     -13.009  12.840  71.332  1.00  0.00    -0.360 OA 
ENDBRANCH  10  11
ENDBRANCH   9  10
ENDBRANCH   7   9
ENDBRANCH   6   7
ENDBRANCH   5   6
ENDBRANCH   2   5
TORSDOF 6
ENDMDL
MODEL       18
REMARK 921   NORMALIZED FREE ENERGY PREDICTED BY IDOCK:   -4.19 KCAL/MOL
REMARK 922        TOTAL FREE ENERGY PREDICTED BY IDOCK:   -5.75 KCAL/MOL
REMARK 923 INTER-LIGAND FREE ENERGY PREDICTED BY IDOCK:   -5.28 KCAL/MOL
REMARK 924 INTRA-LIGAND FREE ENERGY PREDICTED BY IDOCK:   -0.46 KCAL/MOL
REMARK 927      BINDING AFFINITY PREDICTED BY RF-SCORE:    0.00 PKD
ROOT
HETATM    1  N   UNL     1     -12.512  13.962  63.169  1.00  0.00    -1.079 NA 
HETATM    2  C   UNL     1     -11.932  12.662  63.482  1.00  0.00    -0.548 C  
HETATM    3  H2  UNL     1     -11.872  14.544  62.629  1.00  0.00     0.000 HD 
HETATM    4  H1  UNL     1     -13.410  13.849  62.699  1.00  0.00     0.000 HD 
ENDROOT
BRANCH   2   5
HETATM    5  C   UNL     1     -10.587  12.831  64.188  1.00  0.00    -0.441 C  
BRANCH   5   6
HETATM    6  C   UNL     1     -10.526  14.177  64.910  1.00  0.00    -0.438 C  
BRANCH   6   7
HETATM    7  N   UNL     1      -9.604  14.092  66.041  1.00  0.00    -0.470 NA 
HETATM    8  H   UNL     1      -8.631  14.127  65.737  1.00  0.00     0.000 HD 
BRANCH   7   9
HETATM    9  C   UNL     1      -9.897  15.127  67.039  1.00  0.00    -0.230 C  
BRANCH   9  10
HETATM   10  C   UNL     1     -11.364  15.086  67.467  1.00  0.00    -0.333 C  
BRANCH  10  11
HETATM   11  S   UNL     1     -11.589  14.301  69.096  1.00  0.00    -0.327 SA 
HETATM   12  P   UNL     1     -11.305  12.319  68.598  1.00  0.00    -0.341 P  
HETATM   13  O   UNL     1     -11.614  11.401  69.873  1.00  0.00    -0.293 OA 
HETATM   14  O   UNL     1     -12.091  11.915  67.392  1.00  0.00    -0.577 OA 
HETATM   15  O   UNL     1      -9.744  12.030  68.412  1.00  0.00    -0.208 OA 
ENDBRANCH  10  11
ENDBRANCH   9  10
ENDBRANCH   7   9
ENDBRANCH   6   7
ENDBRANCH   5   6
ENDBRANCH   2   5
TORSDOF 6
ENDMDL
MODEL       19
REMARK 921   NORMALIZED FREE ENERGY PREDICTED BY IDOCK:   -4.18 KCAL/MOL
REMARK 922        TOTAL FREE ENERGY PREDICTED BY IDOCK:   -5.73 KCAL/MOL
REMARK 923 INTER-LIGAND FREE ENERGY PREDICTED BY IDOCK:   -5.22 KCAL/MOL
REMARK 924 INTRA-LIGAND FREE ENERGY PREDICTED BY IDOCK:   -0.51 KCAL/MOL
REMARK 927      BINDING AFFINITY PREDICTED BY RF-SCORE:    0.00 PKD
ROOT
HETATM    1  N   UNL     1      -9.516  11.951  63.728  1.00  0.00    -0.531 NA 
HETATM    2  C   UNL     1     -10.821  11.308  63.646  1.00  0.00    -0.333 C  
HETATM    3  H2  UNL     1      -9.512  12.718  64.402  1.00  0.00     0.000 HD 
HETATM    4  H1  UNL     1      -8.790  11.265  63.932  1.00  0.00     0.000 HD 
ENDROOT
BRANCH   2   5
HETATM    5  C   UNL     1     -11.908  12.336  63.341  1.00  0.00    -0.563 C  
BRANCH   5   6
HETATM    6  C   UNL     1     -12.565  12.822  64.633  1.00  0.00    -0.419 C  
BRANCH   6   7
HETATM    7  N   UNL     1     -11.950  12.162  65.782  1.00  0.00    -0.550 NA 
HETATM    8  H   UNL     1     -11.116  11.641  65.513  1.00  0.00     0.000 HD 
BRANCH   7   9
HETATM    9  C   UNL     1     -11.666  13.123  66.853  1.00  0.00    -0.387 C  
BRANCH   9  10
HETATM   10  C   UNL     1     -10.776  14.263  66.355  1.00  0.00    -0.297 C  
BRANCH  10  11
HETATM   11  S   UNL     1     -11.103  15.829  67.228  1.00  0.00    -0.141 SA 
HETATM   12  P   UNL     1     -10.155  17.162  65.973  1.00  0.00    -0.175 P  
HETATM   13  O   UNL     1     -10.177  18.621  66.633  1.00  0.00    -0.356 OA 
HETATM   14  O   UNL     1      -8.776  16.718  65.603  1.00  0.00    -0.441 OA 
HETATM   15  O   UNL     1     -11.060  17.422  64.681  1.00  0.00    -1.029 OA 
ENDBRANCH  10  11
ENDBRANCH   9  10
ENDBRANCH   7   9
ENDBRANCH   6   7
ENDBRANCH   5   6
ENDBRANCH   2   5
TORSDOF 6
ENDMDL
MODEL       20
REMARK 921   NORMALIZED FREE ENERGY PREDICTED BY IDOCK:   -4.18 KCAL/MOL
REMARK 922        TOTAL FREE ENERGY PREDICTED BY IDOCK:   -5.73 KCAL/MOL
REMARK 923 INTER-LIGAND FREE ENERGY PREDICTED BY IDOCK:   -5.15 KCAL/MOL
REMARK 924 INTRA-LIGAND FREE ENERGY PREDICTED BY IDOCK:   -0.58 KCAL/MOL
REMARK 927      BINDING AFFINITY PREDICTED BY RF-SCORE:    0.00 PKD
ROOT
HETATM    1  N   UNL     1      -8.772  19.986  65.925  1.00  0.00    -0.502 NA 
HETATM    2  C   UNL     1      -8.663  20.454  67.301  1.00  0.00    -0.333 C  
HETATM    3  H2  UNL     1      -9.704  20.150  65.541  1.00  0.00     0.000 HD 
HETATM    4  H1  UNL     1      -8.045  20.404  65.345  1.00  0.00     0.000 HD 
ENDROOT
BRANCH   2   5
HETATM    5  C   UNL     1      -9.752  19.827  68.169  1.00  0.00    -0.506 C  
BRANCH   5   6
HETATM    6  C   UNL     1      -9.354  18.413  68.593  1.00  0.00    -0.318 C  
BRANCH   6   7
HETATM    7  N   UNL     1      -9.872  17.442  67.632  1.00  0.00    -0.274 NA 
HETATM    8  H   UNL     1      -9.120  16.924  67.179  1.00  0.00     0.000 HD 
BRANCH   7   9
HETATM    9  C   UNL     1     -10.844  16.543  68.263  1.00  0.00    -0.352 C  
BRANCH   9  10
HETATM   10  C   UNL     1     -10.620  15.092  67.834  1.00  0.00    -0.257 C  
BRANCH  10  11
HETATM   11  S   UNL     1     -12.003  14.443  66.839  1.00  0.00    -0.341 SA 
HETATM   12  P   UNL     1     -11.325  14.863  64.937  1.00  0.00    -0.368 P  
HETATM   13  O   UNL     1     -12.472  14.514  63.875  1.00  0.00    -0.814 OA 
HETATM   14  O   UNL     1     -10.826  16.266  64.805  1.00  0.00    -0.671 OA 
HETATM   15  O   UNL     1     -10.212  13.796  64.515  1.00  0.00    -0.414 OA 
ENDBRANCH  10  11
ENDBRANCH   9  10
ENDBRANCH   7   9
ENDBRANCH   6   7
ENDBRANCH   5   6
ENDBRANCH   2   5
TORSDOF 6
ENDMDL
MODEL       21
REMARK 921   NORMALIZED FREE ENERGY PREDICTED BY IDOCK:   -4.18 KCAL/MOL
REMARK 922        TOTAL FREE ENERGY PREDICTED BY IDOCK:   -5.72 KCAL/MOL
REMARK 923 INTER-LIGAND FREE ENERGY PREDICTED BY IDOCK:   -5.61 KCAL/MOL
REMARK 924 INTRA-LIGAND FREE ENERGY PREDICTED BY IDOCK:   -0.11 KCAL/MOL
REMARK 927      BINDING AFFINITY PREDICTED BY RF-SCORE:    0.00 PKD
ROOT
HETATM    1  N   UNL     1     -14.213   8.881  73.176  1.00  0.00    -1.200 NA 
HETATM    2  C   UNL     1     -13.527   8.908  71.890  1.00  0.00    -0.414 C  
HETATM    3  H2  UNL     1     -14.854   9.668  73.281  1.00  0.00     0.000 HD 
HETATM    4  H1  UNL     1     -14.686   7.987  73.310  1.00  0.00     0.000 HD 
ENDROOT
BRANCH   2   5
HETATM    5  C   UNL     1     -12.819  10.247  71.689  1.00  0.00    -0.568 C  
BRANCH   5   6
HETATM    6  C   UNL     1     -11.504  10.050  70.933  1.00  0.00    -0.371 C  
BRANCH   6   7
HETATM    7  N   UNL     1     -11.208  11.238  70.135  1.00  0.00    -0.490 NA 
HETATM    8  H   UNL     1     -10.913  12.020  70.721  1.00  0.00     0.000 HD 
BRANCH   7   9
HETATM    9  C   UNL     1     -10.220  10.941  69.093  1.00  0.00    -0.195 C  
BRANCH   9  10
HETATM   10  C   UNL     1     -10.148  12.065  68.059  1.00  0.00    -0.198 C  
BRANCH  10  11
HETATM   11  S   UNL     1     -11.384  11.866  66.733  1.00  0.00    -0.310 SA 
HETATM   12  P   UNL     1     -11.831  13.841  66.340  1.00  0.00    -0.444 P  
HETATM   13  O   UNL     1     -13.038  13.913  65.290  1.00  0.00    -0.777 OA 
HETATM   14  O   UNL     1     -12.101  14.624  67.584  1.00  0.00    -0.333 OA 
HETATM   15  O   UNL     1     -10.659  14.494  65.471  1.00  0.00    -0.310 OA 
ENDBRANCH  10  11
ENDBRANCH   9  10
ENDBRANCH   7   9
ENDBRANCH   6   7
ENDBRANCH   5   6
ENDBRANCH   2   5
TORSDOF 6
ENDMDL
MODEL       22
REMARK 921   NORMALIZED FREE ENERGY PREDICTED BY IDOCK:   -4.13 KCAL/MOL
REMARK 922        TOTAL FREE ENERGY PREDICTED BY IDOCK:   -5.66 KCAL/MOL
REMARK 923 INTER-LIGAND FREE ENERGY PREDICTED BY IDOCK:   -5.15 KCAL/MOL
REMARK 924 INTRA-LIGAND FREE ENERGY PREDICTED BY IDOCK:   -0.51 KCAL/MOL
REMARK 927      BINDING AFFINITY PREDICTED BY RF-SCORE:    0.00 PKD
ROOT
HETATM    1  N   UNL     1     -14.000   8.989  73.155  1.00  0.00    -1.215 NA 
HETATM    2  C   UNL     1     -14.321   8.532  71.809  1.00  0.00    -0.437 C  
HETATM    3  H2  UNL     1     -13.005   8.897  73.361  1.00  0.00     0.000 HD 
HETATM    4  H1  UNL     1     -14.330   9.944  73.298  1.00  0.00     0.000 HD 
ENDROOT
BRANCH   2   5
HETATM    5  C   UNL     1     -13.827   7.102  71.596  1.00  0.00    -0.418 C  
BRANCH   5   6
HETATM    6  C   UNL     1     -12.317   7.086  71.353  1.00  0.00    -0.377 C  
BRANCH   6   7
HETATM    7  N   UNL     1     -11.885   8.380  70.830  1.00  0.00    -0.447 NA 
HETATM    8  H   UNL     1     -12.616   9.085  70.919  1.00  0.00     0.000 HD 
BRANCH   7   9
HETATM    9  C   UNL     1     -10.635   8.814  71.463  1.00  0.00    -0.309 C  
BRANCH   9  10
HETATM   10  C   UNL     1      -9.743   9.566  70.474  1.00  0.00    -0.263 C  
BRANCH  10  11
HETATM   11  S   UNL     1     -10.416   9.545  68.781  1.00  0.00    -0.217 SA 
HETATM   12  P   UNL     1     -11.173  11.460  68.656  1.00  0.00    -0.304 P  
HETATM   13  O   UNL     1     -11.970  11.628  67.278  1.00  0.00    -0.627 OA 
HETATM   14  O   UNL     1     -11.998  11.827  69.848  1.00  0.00    -0.312 OA 
HETATM   15  O   UNL     1      -9.978  12.496  68.420  1.00  0.00    -0.224 OA 
ENDBRANCH  10  11
ENDBRANCH   9  10
ENDBRANCH   7   9
ENDBRANCH   6   7
ENDBRANCH   5   6
ENDBRANCH   2   5
TORSDOF 6
ENDMDL
MODEL       23
REMARK 921   NORMALIZED FREE ENERGY PREDICTED BY IDOCK:   -4.12 KCAL/MOL
REMARK 922        TOTAL FREE ENERGY PREDICTED BY IDOCK:   -5.65 KCAL/MOL
REMARK 923 INTER-LIGAND FREE ENERGY PREDICTED BY IDOCK:   -5.26 KCAL/MOL
REMARK 924 INTRA-LIGAND FREE ENERGY PREDICTED BY IDOCK:   -0.39 KCAL/MOL
REMARK 927      BINDING AFFINITY PREDICTED BY RF-SCORE:    0.00 PKD
ROOT
HETATM    1  N   UNL     1     -11.319  11.289  63.155  1.00  0.00    -0.836 NA 
HETATM    2  C   UNL     1     -12.477  12.117  63.466  1.00  0.00    -0.555 C  
HETATM    3  H2  UNL     1     -11.221  10.512  63.809  1.00  0.00     0.000 HD 
HETATM    4  H1  UNL     1     -11.359  10.968  62.187  1.00  0.00     0.000 HD 
ENDROOT
BRANCH   2   5
HETATM    5  C   UNL     1     -12.418  12.599  64.915  1.00  0.00    -0.564 C  
BRANCH   5   6
HETATM    6  C   UNL     1     -10.972  12.865  65.333  1.00  0.00    -0.278 C  
BRANCH   6   7
HETATM    7  N   UNL     1     -10.378  13.870  64.454  1.00  0.00    -0.673 NA 
HETATM    8  H   UNL     1     -10.589  13.684  63.474  1.00  0.00     0.000 HD 
BRANCH   7   9
HETATM    9  C   UNL     1     -10.787  15.223  64.848  1.00  0.00    -0.425 C  
BRANCH   9  10
HETATM   10  C   UNL     1     -10.720  15.404  66.365  1.00  0.00    -0.311 C  
BRANCH  10  11
HETATM   11  S   UNL     1      -9.135  16.124  66.907  1.00  0.00    -0.235 SA 
HETATM   12  P   UNL     1      -9.812  17.735  68.003  1.00  0.00    -0.357 P  
HETATM   13  O   UNL     1      -8.565  18.628  68.461  1.00  0.00    -0.330 OA 
HETATM   14  O   UNL     1     -10.851  18.526  67.274  1.00  0.00    -0.408 OA 
HETATM   15  O   UNL     1     -10.340  17.234  69.426  1.00  0.00    -0.287 OA 
ENDBRANCH  10  11
ENDBRANCH   9  10
ENDBRANCH   7   9
ENDBRANCH   6   7
ENDBRANCH   5   6
ENDBRANCH   2   5
TORSDOF 6
ENDMDL
MODEL       24
REMARK 921   NORMALIZED FREE ENERGY PREDICTED BY IDOCK:   -4.09 KCAL/MOL
REMARK 922        TOTAL FREE ENERGY PREDICTED BY IDOCK:   -5.60 KCAL/MOL
REMARK 923 INTER-LIGAND FREE ENERGY PREDICTED BY IDOCK:   -5.46 KCAL/MOL
REMARK 924 INTRA-LIGAND FREE ENERGY PREDICTED BY IDOCK:   -0.15 KCAL/MOL
REMARK 927      BINDING AFFINITY PREDICTED BY RF-SCORE:    0.00 PKD
ROOT
HETATM    1  N   UNL     1     -12.974  16.383  74.195  1.00  0.00    -0.888 NA 
HETATM    2  C   UNL     1     -13.296  15.261  73.321  1.00  0.00    -0.407 C  
HETATM    3  H2  UNL     1     -13.179  17.280  73.752  1.00  0.00     0.000 HD 
HETATM    4  H1  UNL     1     -13.448  16.286  75.092  1.00  0.00     0.000 HD 
ENDROOT
BRANCH   2   5
HETATM    5  C   UNL     1     -12.585  15.407  71.977  1.00  0.00    -0.448 C  
BRANCH   5   6
HETATM    6  C   UNL     1     -13.086  14.353  70.989  1.00  0.00    -0.353 C  
BRANCH   6   7
HETATM    7  N   UNL     1     -12.576  14.645  69.651  1.00  0.00    -0.576 NA 
HETATM    8  H   UNL     1     -13.302  15.032  69.048  1.00  0.00     0.000 HD 
BRANCH   7   9
HETATM    9  C   UNL     1     -11.402  15.523  69.714  1.00  0.00    -0.319 C  
BRANCH   9  10
HETATM   10  C   UNL     1     -11.228  16.313  68.416  1.00  0.00    -0.349 C  
BRANCH  10  11
HETATM   11  S   UNL     1      -9.705  17.314  68.414  1.00  0.00    -0.307 SA 
HETATM   12  P   UNL     1      -9.965  18.385  66.670  1.00  0.00    -0.407 P  
HETATM   13  O   UNL     1      -8.645  19.242  66.372  1.00  0.00    -0.322 OA 
HETATM   14  O   UNL     1     -10.360  17.516  65.520  1.00  0.00    -0.620 OA 
HETATM   15  O   UNL     1     -11.018  19.562  66.913  1.00  0.00    -0.462 OA 
ENDBRANCH  10  11
ENDBRANCH   9  10
ENDBRANCH   7   9
ENDBRANCH   6   7
ENDBRANCH   5   6
ENDBRANCH   2   5
TORSDOF 6
ENDMDL
MODEL       25
REMARK 921   NORMALIZED FREE ENERGY PREDICTED BY IDOCK:   -4.08 KCAL/MOL
REMARK 922        TOTAL FREE ENERGY PREDICTED BY IDOCK:   -5.59 KCAL/MOL
REMARK 923 INTER-LIGAND FREE ENERGY PREDICTED BY IDOCK:   -5.39 KCAL/MOL
REMARK 924 INTRA-LIGAND FREE ENERGY PREDICTED BY IDOCK:   -0.20 KCAL/MOL
REMARK 927      BINDING AFFINITY PREDICTED BY RF-SCORE:    0.00 PKD
ROOT
HETATM    1  N   UNL     1     -14.158   8.840  73.193  1.00  0.00    -1.183 NA 
HETATM    2  C   UNL     1     -13.333   8.668  72.003  1.00  0.00    -0.392 C  
HETATM    3  H2  UNL     1     -15.082   9.208  72.963  1.00  0.00     0.000 HD 
HETATM    4  H1  UNL     1     -14.217   7.967  73.717  1.00  0.00     0.000 HD 
ENDROOT
BRANCH   2   5
HETATM    5  C   UNL     1     -13.244   9.975  71.218  1.00  0.00    -0.469 C  
BRANCH   5   6
HETATM    6  C   UNL     1     -11.814  10.215  70.735  1.00  0.00    -0.351 C  
BRANCH   6   7
HETATM    7  N   UNL     1     -11.733   9.998  69.292  1.00  0.00    -0.477 NA 
HETATM    8  H   UNL     1     -12.472   9.377  68.964  1.00  0.00     0.000 HD 
BRANCH   7   9
HETATM    9  C   UNL     1     -11.737  11.273  68.567  1.00  0.00    -0.308 C  
BRANCH   9  10
HETATM   10  C   UNL     1     -11.228  12.415  69.447  1.00  0.00    -0.158 C  
BRANCH  10  11
HETATM   11  S   UNL     1     -12.138  13.968  69.161  1.00  0.00    -0.283 SA 
HETATM   12  P   UNL     1     -12.701  14.433  71.090  1.00  0.00    -0.396 P  
HETATM   13  O   UNL     1     -13.668  15.709  71.069  1.00  0.00    -0.582 OA 
HETATM   14  O   UNL     1     -13.301  13.266  71.807  1.00  0.00    -0.400 OA 
HETATM   15  O   UNL     1     -11.451  15.037  71.884  1.00  0.00    -0.389 OA 
ENDBRANCH  10  11
ENDBRANCH   9  10
ENDBRANCH   7   9
ENDBRANCH   6   7
ENDBRANCH   5   6
ENDBRANCH   2   5
TORSDOF 6
ENDMDL
MODEL       26
REMARK 921   NORMALIZED FREE ENERGY PREDICTED BY IDOCK:   -4.07 KCAL/MOL
REMARK 922        TOTAL FREE ENERGY PREDICTED BY IDOCK:   -5.58 KCAL/MOL
REMARK 923 INTER-LIGAND FREE ENERGY PREDICTED BY IDOCK:   -4.77 KCAL/MOL
REMARK 924 INTRA-LIGAND FREE ENERGY PREDICTED BY IDOCK:   -0.81 KCAL/MOL
REMARK 927      BINDING AFFINITY PREDICTED BY RF-SCORE:    0.00 PKD
ROOT
HETATM    1  N   UNL     1     -13.364  10.612  71.957  1.00  0.00    -0.515 NA 
HETATM    2  C   UNL     1     -12.099  10.113  71.432  1.00  0.00    -0.382 C  
HETATM    3  H2  UNL     1     -14.164  10.192  71.482  1.00  0.00     0.000 HD 
HETATM    4  H1  UNL     1     -13.409  10.479  72.967  1.00  0.00     0.000 HD 
ENDROOT
BRANCH   2   5
HETATM    5  C   UNL     1     -12.030  10.313  69.919  1.00  0.00    -0.222 C  
BRANCH   5   6
HETATM    6  C   UNL     1     -11.207  11.556  69.578  1.00  0.00    -0.236 C  
BRANCH   6   7
HETATM    7  N   UNL     1     -11.741  12.715  70.291  1.00  0.00    -0.552 NA 
HETATM    8  H   UNL     1     -11.053  13.113  70.931  1.00  0.00     0.000 HD 
BRANCH   7   9
HETATM    9  C   UNL     1     -12.252  13.721  69.354  1.00  0.00    -0.278 C  
BRANCH   9  10
HETATM   10  C   UNL     1     -12.000  15.139  69.869  1.00  0.00    -0.337 C  
BRANCH  10  11
HETATM   11  S   UNL     1     -11.310  15.150  71.556  1.00  0.00    -0.249 SA 
HETATM   12  P   UNL     1     -13.039  14.985  72.668  1.00  0.00    -0.510 P  
HETATM   13  O   UNL     1     -12.687  15.133  74.223  1.00  0.00    -0.449 OA 
HETATM   14  O   UNL     1     -14.098  15.942  72.224  1.00  0.00    -0.413 OA 
HETATM   15  O   UNL     1     -13.557  13.473  72.637  1.00  0.00    -0.629 OA 
ENDBRANCH  10  11
ENDBRANCH   9  10
ENDBRANCH   7   9
ENDBRANCH   6   7
ENDBRANCH   5   6
ENDBRANCH   2   5
TORSDOF 6
ENDMDL
MODEL       27
REMARK 921   NORMALIZED FREE ENERGY PREDICTED BY IDOCK:   -4.06 KCAL/MOL
REMARK 922        TOTAL FREE ENERGY PREDICTED BY IDOCK:   -5.57 KCAL/MOL
REMARK 923 INTER-LIGAND FREE ENERGY PREDICTED BY IDOCK:   -5.35 KCAL/MOL
REMARK 924 INTRA-LIGAND FREE ENERGY PREDICTED BY IDOCK:   -0.22 KCAL/MOL
REMARK 927      BINDING AFFINITY PREDICTED BY RF-SCORE:    0.00 PKD
ROOT
HETATM    1  N   UNL     1     -10.054  10.569  62.465  1.00  0.00    -0.752 NA 
HETATM    2  C   UNL     1     -10.598  11.398  63.533  1.00  0.00    -0.402 C  
HETATM    3  H2  UNL     1     -10.006  11.074  61.579  1.00  0.00     0.000 HD 
HETATM    4  H1  UNL     1      -9.147  10.188  62.734  1.00  0.00     0.000 HD 
ENDROOT
BRANCH   2   5
HETATM    5  C   UNL     1     -11.957  11.968  63.130  1.00  0.00    -0.323 C  
BRANCH   5   6
HETATM    6  C   UNL     1     -12.519  12.853  64.244  1.00  0.00    -0.349 C  
BRANCH   6   7
HETATM    7  N   UNL     1     -12.518  14.250  63.816  1.00  0.00    -1.040 NA 
HETATM    8  H   UNL     1     -13.466  14.611  63.708  1.00  0.00     0.000 HD 
BRANCH   7   9
HETATM    9  C   UNL     1     -11.724  15.080  64.729  1.00  0.00    -0.370 C  
BRANCH   9  10
HETATM   10  C   UNL     1     -10.985  14.223  65.758  1.00  0.00    -0.305 C  
BRANCH  10  11
HETATM   11  S   UNL     1     -11.424  14.665  67.471  1.00  0.00    -0.371 SA 
HETATM   12  P   UNL     1     -11.311  12.814  68.375  1.00  0.00    -0.346 P  
HETATM   13  O   UNL     1     -11.819  12.931  69.889  1.00  0.00    -0.323 OA 
HETATM   14  O   UNL     1     -12.035  11.757  67.604  1.00  0.00    -0.599 OA 
HETATM   15  O   UNL     1      -9.780  12.427  68.618  1.00  0.00    -0.166 OA 
ENDBRANCH  10  11
ENDBRANCH   9  10
ENDBRANCH   7   9
ENDBRANCH   6   7
ENDBRANCH   5   6
ENDBRANCH   2   5
TORSDOF 6
ENDMDL
MODEL       28
REMARK 921   NORMALIZED FREE ENERGY PREDICTED BY IDOCK:   -4.06 KCAL/MOL
REMARK 922        TOTAL FREE ENERGY PREDICTED BY IDOCK:   -5.56 KCAL/MOL
REMARK 923 INTER-LIGAND FREE ENERGY PREDICTED BY IDOCK:   -5.38 KCAL/MOL
REMARK 924 INTRA-LIGAND FREE ENERGY PREDICTED BY IDOCK:   -0.18 KCAL/MOL
REMARK 927      BINDING AFFINITY PREDICTED BY RF-SCORE:    0.00 PKD
ROOT
HETATM    1  N   UNL     1     -11.907  11.779  67.394  1.00  0.00    -0.624 NA 
HETATM    2  C   UNL     1     -11.392  11.830  66.032  1.00  0.00    -0.273 C  
HETATM    3  H2  UNL     1     -12.828  11.340  67.436  1.00  0.00     0.000 HD 
HETATM    4  H1  UNL     1     -11.240  11.319  68.013  1.00  0.00     0.000 HD 
ENDROOT
BRANCH   2   5
HETATM    5  C   UNL     1     -12.392  12.520  65.105  1.00  0.00    -0.496 C  
BRANCH   5   6
HETATM    6  C   UNL     1     -11.663  13.389  64.081  1.00  0.00    -0.419 C  
BRANCH   6   7
HETATM    7  N   UNL     1     -12.405  14.629  63.864  1.00  0.00    -1.060 NA 
HETATM    8  H   UNL     1     -13.340  14.583  64.269  1.00  0.00     0.000 HD 
BRANCH   7   9
HETATM    9  C   UNL     1     -11.656  15.787  64.363  1.00  0.00    -0.240 C  
BRANCH   9  10
HETATM   10  C   UNL     1     -10.423  15.351  65.155  1.00  0.00    -0.411 C  
BRANCH  10  11
HETATM   11  S   UNL     1     -10.415  16.025  66.849  1.00  0.00    -0.295 SA 
HETATM   12  P   UNL     1      -9.433  17.811  66.536  1.00  0.00    -0.252 P  
HETATM   13  O   UNL     1      -9.166  18.525  67.944  1.00  0.00    -0.280 OA 
HETATM   14  O   UNL     1      -8.186  17.644  65.728  1.00  0.00    -0.543 OA 
HETATM   15  O   UNL     1     -10.433  18.865  65.869  1.00  0.00    -0.486 OA 
ENDBRANCH  10  11
ENDBRANCH   9  10
ENDBRANCH   7   9
ENDBRANCH   6   7
ENDBRANCH   5   6
ENDBRANCH   2   5
TORSDOF 6
ENDMDL
MODEL       29
REMARK 921   NORMALIZED FREE ENERGY PREDICTED BY IDOCK:   -4.04 KCAL/MOL
REMARK 922        TOTAL FREE ENERGY PREDICTED BY IDOCK:   -5.53 KCAL/MOL
REMARK 923 INTER-LIGAND FREE ENERGY PREDICTED BY IDOCK:   -5.09 KCAL/MOL
REMARK 924 INTRA-LIGAND FREE ENERGY PREDICTED BY IDOCK:   -0.45 KCAL/MOL
REMARK 927      BINDING AFFINITY PREDICTED BY RF-SCORE:    0.00 PKD
ROOT
HETATM    1  N   UNL     1     -13.363  15.883  73.329  1.00  0.00    -0.640 NA 
HETATM    2  C   UNL     1     -13.591  14.556  72.770  1.00  0.00    -0.433 C  
HETATM    3  H2  UNL     1     -13.609  16.620  72.668  1.00  0.00     0.000 HD 
HETATM    4  H1  UNL     1     -13.857  15.988  74.215  1.00  0.00     0.000 HD 
ENDROOT
BRANCH   2   5
HETATM    5  C   UNL     1     -12.851  14.398  71.443  1.00  0.00    -0.410 C  
BRANCH   5   6
HETATM    6  C   UNL     1     -12.625  15.762  70.790  1.00  0.00    -0.357 C  
BRANCH   6   7
HETATM    7  N   UNL     1     -12.282  15.586  69.380  1.00  0.00    -0.568 NA 
HETATM    8  H   UNL     1     -11.540  16.223  69.092  1.00  0.00     0.000 HD 
BRANCH   7   9
HETATM    9  C   UNL     1     -11.938  14.190  69.091  1.00  0.00    -0.349 C  
BRANCH   9  10
HETATM   10  C   UNL     1     -10.805  14.097  68.068  1.00  0.00    -0.246 C  
BRANCH  10  11
HETATM   11  S   UNL     1     -11.363  14.501  66.380  1.00  0.00    -0.352 SA 
HETATM   12  P   UNL     1     -10.514  16.366  66.142  1.00  0.00    -0.236 P  
HETATM   13  O   UNL     1     -11.008  17.002  64.758  1.00  0.00    -0.835 OA 
HETATM   14  O   UNL     1     -10.767  17.262  67.312  1.00  0.00    -0.310 OA 
HETATM   15  O   UNL     1      -8.952  16.211  65.842  1.00  0.00    -0.351 OA 
ENDBRANCH  10  11
ENDBRANCH   9  10
ENDBRANCH   7   9
ENDBRANCH   6   7
ENDBRANCH   5   6
ENDBRANCH   2   5
TORSDOF 6
ENDMDL
MODEL       30
REMARK 921   NORMALIZED FREE ENERGY PREDICTED BY IDOCK:   -4.04 KCAL/MOL
REMARK 922        TOTAL FREE ENERGY PREDICTED BY IDOCK:   -5.53 KCAL/MOL
REMARK 923 INTER-LIGAND FREE ENERGY PREDICTED BY IDOCK:   -5.38 KCAL/MOL
REMARK 924 INTRA-LIGAND FREE ENERGY PREDICTED BY IDOCK:   -0.15 KCAL/MOL
REMARK 927      BINDING AFFINITY PREDICTED BY RF-SCORE:    0.00 PKD
ROOT
HETATM    1  N   UNL     1     -12.406  14.151  63.224  1.00  0.00    -1.133 NA 
HETATM    2  C   UNL     1     -11.919  13.493  64.429  1.00  0.00    -0.422 C  
HETATM    3  H2  UNL     1     -12.419  15.167  63.324  1.00  0.00     0.000 HD 
HETATM    4  H1  UNL     1     -11.864  13.858  62.411  1.00  0.00     0.000 HD 
ENDROOT
BRANCH   2   5
HETATM    5  C   UNL     1     -12.731  13.933  65.646  1.00  0.00    -0.534 C  
BRANCH   5   6
HETATM    6  C   UNL     1     -12.035  13.507  66.939  1.00  0.00    -0.399 C  
BRANCH   6   7
HETATM    7  N   UNL     1     -11.998  14.627  67.876  1.00  0.00    -0.544 NA 
HETATM    8  H   UNL     1     -12.259  14.338  68.818  1.00  0.00     0.000 HD 
BRANCH   7   9
HETATM    9  C   UNL     1     -10.689  15.288  67.856  1.00  0.00    -0.275 C  
BRANCH   9  10
HETATM   10  C   UNL     1     -10.827  16.801  68.034  1.00  0.00    -0.341 C  
BRANCH  10  11
HETATM   11  S   UNL     1      -9.987  17.733  66.712  1.00  0.00    -0.349 SA 
HETATM   12  P   UNL     1      -9.229  19.317  67.795  1.00  0.00    -0.329 P  
HETATM   13  O   UNL     1      -8.566  20.376  66.794  1.00  0.00    -0.277 OA 
HETATM   14  O   UNL     1     -10.251  19.935  68.694  1.00  0.00    -0.447 OA 
HETATM   15  O   UNL     1      -7.936  18.843  68.606  1.00  0.00    -0.331 OA 
ENDBRANCH  10  11
ENDBRANCH   9  10
ENDBRANCH   7   9
ENDBRANCH   6   7
ENDBRANCH   5   6
ENDBRANCH   2   5
TORSDOF 6
ENDMDL
MODEL       31
REMARK 921   NORMALIZED FREE ENERGY PREDICTED BY IDOCK:   -4.03 KCAL/MOL
REMARK 922        TOTAL FREE ENERGY PREDICTED BY IDOCK:   -5.52 KCAL/MOL
REMARK 923 INTER-LIGAND FREE ENERGY PREDICTED BY IDOCK:   -4.61 KCAL/MOL
REMARK 924 INTRA-LIGAND FREE ENERGY PREDICTED BY IDOCK:   -0.91 KCAL/MOL
REMARK 927      BINDING AFFINITY PREDICTED BY RF-SCORE:    0.00 PKD
ROOT
HETATM    1  N   UNL     1     -12.886  13.648  65.098  1.00  0.00    -0.738 NA 
HETATM    2  C   UNL     1     -12.247  13.514  63.795  1.00  0.00    -0.388 C  
HETATM    3  H2  UNL     1     -12.429  13.073  65.807  1.00  0.00     0.000 HD 
HETATM    4  H1  UNL     1     -12.931  14.628  65.376  1.00  0.00     0.000 HD 
ENDROOT
BRANCH   2   5
HETATM    5  C   UNL     1     -12.181  12.045  63.379  1.00  0.00    -0.627 C  
BRANCH   5   6
HETATM    6  C   UNL     1     -10.926  11.382  63.946  1.00  0.00    -0.366 C  
BRANCH   6   7
HETATM    7  N   UNL     1      -9.993  12.404  64.415  1.00  0.00    -0.516 NA 
HETATM    8  H   UNL     1     -10.466  13.289  64.598  1.00  0.00     0.000 HD 
BRANCH   7   9
HETATM    9  C   UNL     1      -9.248  11.938  65.589  1.00  0.00    -0.053 C  
BRANCH   9  10
HETATM   10  C   UNL     1      -9.064  13.060  66.612  1.00  0.00    -0.176 C  
BRANCH  10  11
HETATM   11  S   UNL     1      -9.427  12.512  68.313  1.00  0.00    -0.171 SA 
HETATM   12  P   UNL     1     -11.461  12.847  68.387  1.00  0.00    -0.360 P  
HETATM   13  O   UNL     1     -11.990  12.578  69.874  1.00  0.00    -0.326 OA 
HETATM   14  O   UNL     1     -11.836  14.202  67.878  1.00  0.00    -0.345 OA 
HETATM   15  O   UNL     1     -12.226  11.686  67.598  1.00  0.00    -0.544 OA 
ENDBRANCH  10  11
ENDBRANCH   9  10
ENDBRANCH   7   9
ENDBRANCH   6   7
ENDBRANCH   5   6
ENDBRANCH   2   5
TORSDOF 6
ENDMDL
MODEL       32
REMARK 921   NORMALIZED FREE ENERGY PREDICTED BY IDOCK:   -3.99 KCAL/MOL
REMARK 922        TOTAL FREE ENERGY PREDICTED BY IDOCK:   -5.48 KCAL/MOL
REMARK 923 INTER-LIGAND FREE ENERGY PREDICTED BY IDOCK:   -5.32 KCAL/MOL
REMARK 924 INTRA-LIGAND FREE ENERGY PREDICTED BY IDOCK:   -0.15 KCAL/MOL
REMARK 927      BINDING AFFINITY PREDICTED BY RF-SCORE:    0.00 PKD
ROOT
HETATM    1  N   UNL     1     -13.562  14.097  72.949  1.00  0.00    -0.657 NA 
HETATM    2  C   UNL     1     -13.330  13.394  71.694  1.00  0.00    -0.338 C  
HETATM    3  H2  UNL     1     -12.777  13.994  73.593  1.00  0.00     0.000 HD 
HETATM    4  H1  UNL     1     -13.783  15.077  72.775  1.00  0.00     0.000 HD 
ENDROOT
BRANCH   2   5
HETATM    5  C   UNL     1     -12.999  11.926  71.954  1.00  0.00    -0.434 C  
BRANCH   5   6
HETATM    6  C   UNL     1     -12.316  11.305  70.735  1.00  0.00    -0.398 C  
BRANCH   6   7
HETATM    7  N   UNL     1     -11.602  12.337  69.986  1.00  0.00    -0.524 NA 
HETATM    8  H   UNL     1     -10.846  12.744  70.536  1.00  0.00     0.000 HD 
BRANCH   7   9
HETATM    9  C   UNL     1     -11.119  11.817  68.703  1.00  0.00    -0.238 C  
BRANCH   9  10
HETATM   10  C   UNL     1     -11.419  12.790  67.561  1.00  0.00    -0.336 C  
BRANCH  10  11
HETATM   11  S   UNL     1     -11.374  11.978  65.930  1.00  0.00    -0.313 SA 
HETATM   12  P   UNL     1     -12.080  13.503  64.734  1.00  0.00    -0.429 P  
HETATM   13  O   UNL     1     -12.278  12.958  63.241  1.00  0.00    -0.594 OA 
HETATM   14  O   UNL     1     -13.317  14.136  65.286  1.00  0.00    -0.715 OA 
HETATM   15  O   UNL     1     -10.922  14.577  64.492  1.00  0.00    -0.347 OA 
ENDBRANCH  10  11
ENDBRANCH   9  10
ENDBRANCH   7   9
ENDBRANCH   6   7
ENDBRANCH   5   6
ENDBRANCH   2   5
TORSDOF 6
ENDMDL
MODEL       33
REMARK 921   NORMALIZED FREE ENERGY PREDICTED BY IDOCK:   -3.98 KCAL/MOL
REMARK 922        TOTAL FREE ENERGY PREDICTED BY IDOCK:   -5.46 KCAL/MOL
REMARK 923 INTER-LIGAND FREE ENERGY PREDICTED BY IDOCK:   -4.92 KCAL/MOL
REMARK 924 INTRA-LIGAND FREE ENERGY PREDICTED BY IDOCK:   -0.54 KCAL/MOL
REMARK 927      BINDING AFFINITY PREDICTED BY RF-SCORE:    0.00 PKD
ROOT
HETATM    1  N   UNL     1     -10.070   7.640  68.653  1.00  0.00    -0.185 NA 
HETATM    2  C   UNL     1     -10.665   7.824  67.335  1.00  0.00    -0.230 C  
HETATM    3  H2  UNL     1      -9.973   8.524  69.153  1.00  0.00     0.000 HD 
HETATM    4  H1  UNL     1     -10.599   6.955  69.193  1.00  0.00     0.000 HD 
ENDROOT
BRANCH   2   5
HETATM    5  C   UNL     1      -9.873   8.850  66.527  1.00  0.00    -0.344 C  
BRANCH   5   6
HETATM    6  C   UNL     1     -10.443  10.253  66.734  1.00  0.00    -0.214 C  
BRANCH   6   7
HETATM    7  N   UNL     1     -11.358  10.254  67.873  1.00  0.00    -0.575 NA 
HETATM    8  H   UNL     1     -10.987   9.714  68.655  1.00  0.00     0.000 HD 
BRANCH   7   9
HETATM    9  C   UNL     1     -11.698  11.623  68.275  1.00  0.00    -0.304 C  
BRANCH   9  10
HETATM   10  C   UNL     1     -10.824  12.648  67.550  1.00  0.00    -0.239 C  
BRANCH  10  11
HETATM   11  S   UNL     1     -11.799  14.029  66.867  1.00  0.00    -0.446 SA 
HETATM   12  P   UNL     1     -11.871  13.487  64.878  1.00  0.00    -0.425 P  
HETATM   13  O   UNL     1     -12.562  14.659  64.033  1.00  0.00    -0.819 OA 
HETATM   14  O   UNL     1     -10.529  13.104  64.342  1.00  0.00    -0.393 OA 
HETATM   15  O   UNL     1     -12.945  12.321  64.677  1.00  0.00    -0.741 OA 
ENDBRANCH  10  11
ENDBRANCH   9  10
ENDBRANCH   7   9
ENDBRANCH   6   7
ENDBRANCH   5   6
ENDBRANCH   2   5
TORSDOF 6
ENDMDL
MODEL       34
REMARK 921   NORMALIZED FREE ENERGY PREDICTED BY IDOCK:   -3.97 KCAL/MOL
REMARK 922        TOTAL FREE ENERGY PREDICTED BY IDOCK:   -5.45 KCAL/MOL
REMARK 923 INTER-LIGAND FREE ENERGY PREDICTED BY IDOCK:   -5.27 KCAL/MOL
REMARK 924 INTRA-LIGAND FREE ENERGY PREDICTED BY IDOCK:   -0.18 KCAL/MOL
REMARK 927      BINDING AFFINITY PREDICTED BY RF-SCORE:    0.00 PKD
ROOT
HETATM    1  N   UNL     1     -10.387  18.791  68.966  1.00  0.00    -0.459 NA 
HETATM    2  C   UNL     1     -10.050  19.949  68.147  1.00  0.00    -0.441 C  
HETATM    3  H2  UNL     1      -9.667  18.069  68.917  1.00  0.00     0.000 HD 
HETATM    4  H1  UNL     1     -10.575  19.074  69.927  1.00  0.00     0.000 HD 
ENDROOT
BRANCH   2   5
HETATM    5  C   UNL     1      -9.769  19.525  66.707  1.00  0.00    -0.464 C  
BRANCH   5   6
HETATM    6  C   UNL     1      -8.796  18.346  66.675  1.00  0.00    -0.289 C  
BRANCH   6   7
HETATM    7  N   UNL     1      -9.212  17.386  65.654  1.00  0.00    -0.346 NA 
HETATM    8  H   UNL     1      -8.419  16.863  65.284  1.00  0.00     0.000 HD 
BRANCH   7   9
HETATM    9  C   UNL     1     -10.257  16.493  66.165  1.00  0.00    -0.346 C  
BRANCH   9  10
HETATM   10  C   UNL     1     -10.287  15.173  65.393  1.00  0.00    -0.388 C  
BRANCH  10  11
HETATM   11  S   UNL     1     -11.907  14.860  64.618  1.00  0.00    -0.352 SA 
HETATM   12  P   UNL     1     -11.872  12.801  64.498  1.00  0.00    -0.440 P  
HETATM   13  O   UNL     1     -13.158  12.295  63.689  1.00  0.00    -0.780 OA 
HETATM   14  O   UNL     1     -10.591  12.284  63.926  1.00  0.00    -0.354 OA 
HETATM   15  O   UNL     1     -12.175  12.173  65.936  1.00  0.00    -0.604 OA 
ENDBRANCH  10  11
ENDBRANCH   9  10
ENDBRANCH   7   9
ENDBRANCH   6   7
ENDBRANCH   5   6
ENDBRANCH   2   5
TORSDOF 6
ENDMDL
MODEL       35
REMARK 921   NORMALIZED FREE ENERGY PREDICTED BY IDOCK:   -3.97 KCAL/MOL
REMARK 922        TOTAL FREE ENERGY PREDICTED BY IDOCK:   -5.45 KCAL/MOL
REMARK 923 INTER-LIGAND FREE ENERGY PREDICTED BY IDOCK:   -5.06 KCAL/MOL
REMARK 924 INTRA-LIGAND FREE ENERGY PREDICTED BY IDOCK:   -0.39 KCAL/MOL
REMARK 927      BINDING AFFINITY PREDICTED BY RF-SCORE:    0.00 PKD
ROOT
HETATM    1  N   UNL     1     -14.076   8.993  73.259  1.00  0.00    -1.211 NA 
HETATM    2  C   UNL     1     -13.623   9.146  71.883  1.00  0.00    -0.432 C  
HETATM    3  H2  UNL     1     -14.740   9.721  73.524  1.00  0.00     0.000 HD 
HETATM    4  H1  UNL     1     -14.459   8.059  73.408  1.00  0.00     0.000 HD 
ENDROOT
BRANCH   2   5
HETATM    5  C   UNL     1     -13.050  10.545  71.660  1.00  0.00    -0.551 C  
BRANCH   5   6
HETATM    6  C   UNL     1     -11.691  10.463  70.963  1.00  0.00    -0.337 C  
BRANCH   6   7
HETATM    7  N   UNL     1     -11.864   9.992  69.591  1.00  0.00    -0.470 NA 
HETATM    8  H   UNL     1     -12.181  10.739  68.974  1.00  0.00     0.000 HD 
BRANCH   7   9
HETATM    9  C   UNL     1     -10.636   9.363  69.091  1.00  0.00    -0.218 C  
BRANCH   9  10
HETATM   10  C   UNL     1      -9.708  10.393  68.445  1.00  0.00    -0.158 C  
BRANCH  10  11
HETATM   11  S   UNL     1      -9.827  10.386  66.626  1.00  0.00    -0.210 SA 
HETATM   12  P   UNL     1     -10.923  12.106  66.317  1.00  0.00    -0.322 P  
HETATM   13  O   UNL     1     -11.293  12.228  64.764  1.00  0.00    -0.307 OA 
HETATM   14  O   UNL     1     -12.125  12.184  67.203  1.00  0.00    -0.575 OA 
HETATM   15  O   UNL     1      -9.978  13.384  66.486  1.00  0.00    -0.270 OA 
ENDBRANCH  10  11
ENDBRANCH   9  10
ENDBRANCH   7   9
ENDBRANCH   6   7
ENDBRANCH   5   6
ENDBRANCH   2   5
TORSDOF 6
ENDMDL
MODEL       36
REMARK 921   NORMALIZED FREE ENERGY PREDICTED BY IDOCK:   -3.97 KCAL/MOL
REMARK 922        TOTAL FREE ENERGY PREDICTED BY IDOCK:   -5.44 KCAL/MOL
REMARK 923 INTER-LIGAND FREE ENERGY PREDICTED BY IDOCK:   -5.29 KCAL/MOL
REMARK 924 INTRA-LIGAND FREE ENERGY PREDICTED BY IDOCK:   -0.15 KCAL/MOL
REMARK 927      BINDING AFFINITY PREDICTED BY RF-SCORE:    0.00 PKD
ROOT
HETATM    1  N   UNL     1     -12.175   7.133  70.092  1.00  0.00    -0.539 NA 
HETATM    2  C   UNL     1     -11.648   8.207  70.925  1.00  0.00    -0.267 C  
HETATM    3  H2  UNL     1     -11.466   6.760  69.461  1.00  0.00     0.000 HD 
HETATM    4  H1  UNL     1     -12.591   6.402  70.670  1.00  0.00     0.000 HD 
ENDROOT
BRANCH   2   5
HETATM    5  C   UNL     1     -11.027   9.301  70.060  1.00  0.00    -0.254 C  
BRANCH   5   6
HETATM    6  C   UNL     1     -11.958  10.510  69.971  1.00  0.00    -0.288 C  
BRANCH   6   7
HETATM    7  N   UNL     1     -12.372  10.718  68.586  1.00  0.00    -0.786 NA 
HETATM    8  H   UNL     1     -12.968  11.541  68.491  1.00  0.00     0.000 HD 
BRANCH   7   9
HETATM    9  C   UNL     1     -11.211  10.786  67.693  1.00  0.00    -0.299 C  
BRANCH   9  10
HETATM   10  C   UNL     1     -11.127  12.142  66.992  1.00  0.00    -0.294 C  
BRANCH  10  11
HETATM   11  S   UNL     1     -11.235  11.992  65.178  1.00  0.00    -0.296 SA 
HETATM   12  P   UNL     1     -12.089  13.809  64.703  1.00  0.00    -0.420 P  
HETATM   13  O   UNL     1     -12.429  13.843  63.138  1.00  0.00    -0.766 OA 
HETATM   14  O   UNL     1     -13.274  14.124  65.558  1.00  0.00    -0.688 OA 
HETATM   15  O   UNL     1     -10.981  14.959  64.777  1.00  0.00    -0.390 OA 
ENDBRANCH  10  11
ENDBRANCH   9  10
ENDBRANCH   7   9
ENDBRANCH   6   7
ENDBRANCH   5   6
ENDBRANCH   2   5
TORSDOF 6
ENDMDL
MODEL       37
REMARK 921   NORMALIZED FREE ENERGY PREDICTED BY IDOCK:   -3.96 KCAL/MOL
REMARK 922        TOTAL FREE ENERGY PREDICTED BY IDOCK:   -5.44 KCAL/MOL
REMARK 923 INTER-LIGAND FREE ENERGY PREDICTED BY IDOCK:   -5.12 KCAL/MOL
REMARK 924 INTRA-LIGAND FREE ENERGY PREDICTED BY IDOCK:   -0.32 KCAL/MOL
REMARK 927      BINDING AFFINITY PREDICTED BY RF-SCORE:    0.00 PKD
ROOT
HETATM    1  N   UNL     1     -13.427  12.619  72.137  1.00  0.00    -0.531 NA 
HETATM    2  C   UNL     1     -13.733  13.989  72.530  1.00  0.00    -0.547 C  
HETATM    3  H2  UNL     1     -12.584  12.567  71.565  1.00  0.00     0.000 HD 
HETATM    4  H1  UNL     1     -13.366  12.016  72.957  1.00  0.00     0.000 HD 
ENDROOT
BRANCH   2   5
HETATM    5  C   UNL     1     -13.825  14.891  71.300  1.00  0.00    -0.500 C  
BRANCH   5   6
HETATM    6  C   UNL     1     -12.429  15.281  70.815  1.00  0.00    -0.402 C  
BRANCH   6   7
HETATM    7  N   UNL     1     -11.714  14.094  70.352  1.00  0.00    -0.437 NA 
HETATM    8  H   UNL     1     -12.306  13.264  70.381  1.00  0.00     0.000 HD 
BRANCH   7   9
HETATM    9  C   UNL     1     -11.148  14.307  69.016  1.00  0.00    -0.259 C  
BRANCH   9  10
HETATM   10  C   UNL     1     -11.620  15.633  68.417  1.00  0.00    -0.350 C  
BRANCH  10  11
HETATM   11  S   UNL     1     -10.252  16.817  68.191  1.00  0.00    -0.318 SA 
HETATM   12  P   UNL     1      -9.685  16.368  66.260  1.00  0.00    -0.337 P  
HETATM   13  O   UNL     1      -8.365  17.195  65.888  1.00  0.00    -0.527 OA 
HETATM   14  O   UNL     1      -9.524  14.898  66.038  1.00  0.00    -0.296 OA 
HETATM   15  O   UNL     1     -10.724  17.012  65.230  1.00  0.00    -0.616 OA 
ENDBRANCH  10  11
ENDBRANCH   9  10
ENDBRANCH   7   9
ENDBRANCH   6   7
ENDBRANCH   5   6
ENDBRANCH   2   5
TORSDOF 6
ENDMDL
MODEL       38
REMARK 921   NORMALIZED FREE ENERGY PREDICTED BY IDOCK:   -3.96 KCAL/MOL
REMARK 922        TOTAL FREE ENERGY PREDICTED BY IDOCK:   -5.43 KCAL/MOL
REMARK 923 INTER-LIGAND FREE ENERGY PREDICTED BY IDOCK:   -5.08 KCAL/MOL
REMARK 924 INTRA-LIGAND FREE ENERGY PREDICTED BY IDOCK:   -0.34 KCAL/MOL
REMARK 927      BINDING AFFINITY PREDICTED BY RF-SCORE:    0.00 PKD
ROOT
HETATM    1  N   UNL     1     -13.076   9.298  71.006  1.00  0.00    -0.541 NA 
HETATM    2  C   UNL     1     -13.056  10.735  71.253  1.00  0.00    -0.330 C  
HETATM    3  H2  UNL     1     -12.150   8.882  71.108  1.00  0.00     0.000 HD 
HETATM    4  H1  UNL     1     -13.764   8.842  71.604  1.00  0.00     0.000 HD 
ENDROOT
BRANCH   2   5
HETATM    5  C   UNL     1     -12.025  11.418  70.357  1.00  0.00    -0.465 C  
BRANCH   5   6
HETATM    6  C   UNL     1     -11.124  10.381  69.687  1.00  0.00    -0.276 C  
BRANCH   6   7
HETATM    7  N   UNL     1     -11.397  10.338  68.252  1.00  0.00    -0.506 NA 
HETATM    8  H   UNL     1     -12.389  10.190  68.062  1.00  0.00     0.000 HD 
BRANCH   7   9
HETATM    9  C   UNL     1     -10.893  11.542  67.583  1.00  0.00    -0.227 C  
BRANCH   9  10
HETATM   10  C   UNL     1     -10.730  11.316  66.079  1.00  0.00    -0.242 C  
BRANCH  10  11
HETATM   11  S   UNL     1     -10.470  12.873  65.169  1.00  0.00    -0.316 SA 
HETATM   12  P   UNL     1     -12.425  13.458  64.863  1.00  0.00    -0.335 P  
HETATM   13  O   UNL     1     -12.451  14.755  63.924  1.00  0.00    -0.811 OA 
HETATM   14  O   UNL     1     -13.277  12.348  64.336  1.00  0.00    -0.816 OA 
HETATM   15  O   UNL     1     -13.020  14.072  66.213  1.00  0.00    -0.217 OA 
ENDBRANCH  10  11
ENDBRANCH   9  10
ENDBRANCH   7   9
ENDBRANCH   6   7
ENDBRANCH   5   6
ENDBRANCH   2   5
TORSDOF 6
ENDMDL
MODEL       39
REMARK 921   NORMALIZED FREE ENERGY PREDICTED BY IDOCK:   -3.95 KCAL/MOL
REMARK 922        TOTAL FREE ENERGY PREDICTED BY IDOCK:   -5.42 KCAL/MOL
REMARK 923 INTER-LIGAND FREE ENERGY PREDICTED BY IDOCK:   -5.11 KCAL/MOL
REMARK 924 INTRA-LIGAND FREE ENERGY PREDICTED BY IDOCK:   -0.31 KCAL/MOL
REMARK 927      BINDING AFFINITY PREDICTED BY RF-SCORE:    0.00 PKD
ROOT
HETATM    1  N   UNL     1     -11.896   8.755  70.251  1.00  0.00    -0.466 NA 
HETATM    2  C   UNL     1     -11.377   9.948  70.909  1.00  0.00    -0.370 C  
HETATM    3  H2  UNL     1     -12.294   8.970  69.336  1.00  0.00     0.000 HD 
HETATM    4  H1  UNL     1     -11.175   8.037  70.191  1.00  0.00     0.000 HD 
ENDROOT
BRANCH   2   5
HETATM    5  C   UNL     1     -12.457  11.024  71.000  1.00  0.00    -0.512 C  
BRANCH   5   6
HETATM    6  C   UNL     1     -12.206  12.124  69.967  1.00  0.00    -0.198 C  
BRANCH   6   7
HETATM    7  N   UNL     1     -10.906  11.922  69.332  1.00  0.00    -0.448 NA 
HETATM    8  H   UNL     1     -10.943  11.191  68.623  1.00  0.00     0.000 HD 
BRANCH   7   9
HETATM    9  C   UNL     1     -10.385  13.180  68.786  1.00  0.00    -0.130 C  
BRANCH   9  10
HETATM   10  C   UNL     1     -10.459  13.195  67.259  1.00  0.00    -0.243 C  
BRANCH  10  11
HETATM   11  S   UNL     1     -11.568  14.499  66.633  1.00  0.00    -0.360 SA 
HETATM   12  P   UNL     1     -11.886  13.828  64.708  1.00  0.00    -0.439 P  
HETATM   13  O   UNL     1     -12.728  14.922  63.896  1.00  0.00    -0.789 OA 
HETATM   14  O   UNL     1     -10.615  13.450  64.018  1.00  0.00    -0.335 OA 
HETATM   15  O   UNL     1     -12.933  12.620  64.726  1.00  0.00    -0.816 OA 
ENDBRANCH  10  11
ENDBRANCH   9  10
ENDBRANCH   7   9
ENDBRANCH   6   7
ENDBRANCH   5   6
ENDBRANCH   2   5
TORSDOF 6
ENDMDL
MODEL       40
REMARK 921   NORMALIZED FREE ENERGY PREDICTED BY IDOCK:   -3.94 KCAL/MOL
REMARK 922        TOTAL FREE ENERGY PREDICTED BY IDOCK:   -5.41 KCAL/MOL
REMARK 923 INTER-LIGAND FREE ENERGY PREDICTED BY IDOCK:   -4.95 KCAL/MOL
REMARK 924 INTRA-LIGAND FREE ENERGY PREDICTED BY IDOCK:   -0.46 KCAL/MOL
REMARK 927      BINDING AFFINITY PREDICTED BY RF-SCORE:    0.00 PKD
ROOT
HETATM    1  N   UNL     1     -12.434  11.689  63.136  1.00  0.00    -0.949 NA 
HETATM    2  C   UNL     1     -11.191  11.942  63.855  1.00  0.00    -0.420 C  
HETATM    3  H2  UNL     1     -12.671  12.457  62.507  1.00  0.00     0.000 HD 
HETATM    4  H1  UNL     1     -12.388  10.797  62.645  1.00  0.00     0.000 HD 
ENDROOT
BRANCH   2   5
HETATM    5  C   UNL     1     -11.259  13.279  64.590  1.00  0.00    -0.370 C  
BRANCH   5   6
HETATM    6  C   UNL     1     -12.646  13.486  65.200  1.00  0.00    -0.436 C  
BRANCH   6   7
HETATM    7  N   UNL     1     -12.518  13.891  66.598  1.00  0.00    -0.474 NA 
HETATM    8  H   UNL     1     -12.705  13.116  67.233  1.00  0.00     0.000 HD 
BRANCH   7   9
HETATM    9  C   UNL     1     -11.206  14.495  66.854  1.00  0.00    -0.336 C  
BRANCH   9  10
HETATM   10  C   UNL     1     -10.549  13.890  68.096  1.00  0.00    -0.252 C  
BRANCH  10  11
HETATM   11  S   UNL     1     -11.771  13.404  69.358  1.00  0.00    -0.333 SA 
HETATM   12  P   UNL     1     -11.764  11.355  69.114  1.00  0.00    -0.370 P  
HETATM   13  O   UNL     1     -12.903  10.707  70.034  1.00  0.00    -0.235 OA 
HETATM   14  O   UNL     1     -11.881  10.950  67.680  1.00  0.00    -0.572 OA 
HETATM   15  O   UNL     1     -10.460  10.737  69.800  1.00  0.00    -0.198 OA 
ENDBRANCH  10  11
ENDBRANCH   9  10
ENDBRANCH   7   9
ENDBRANCH   6   7
ENDBRANCH   5   6
ENDBRANCH   2   5
TORSDOF 6
ENDMDL
MODEL       41
REMARK 921   NORMALIZED FREE ENERGY PREDICTED BY IDOCK:   -3.91 KCAL/MOL
REMARK 922        TOTAL FREE ENERGY PREDICTED BY IDOCK:   -5.36 KCAL/MOL
REMARK 923 INTER-LIGAND FREE ENERGY PREDICTED BY IDOCK:   -5.09 KCAL/MOL
REMARK 924 INTRA-LIGAND FREE ENERGY PREDICTED BY IDOCK:   -0.27 KCAL/MOL
REMARK 927      BINDING AFFINITY PREDICTED BY RF-SCORE:    0.00 PKD
ROOT
HETATM    1  N   UNL     1     -10.156  19.981  68.156  1.00  0.00    -0.427 NA 
HETATM    2  C   UNL     1      -9.929  20.044  66.718  1.00  0.00    -0.454 C  
HETATM    3  H2  UNL     1      -9.774  19.127  68.564  1.00  0.00     0.000 HD 
HETATM    4  H1  UNL     1      -9.789  20.816  68.614  1.00  0.00     0.000 HD 
ENDROOT
BRANCH   2   5
HETATM    5  C   UNL     1     -10.479  18.794  66.033  1.00  0.00    -0.483 C  
BRANCH   5   6
HETATM    6  C   UNL     1      -9.725  17.550  66.502  1.00  0.00    -0.295 C  
BRANCH   6   7
HETATM    7  N   UNL     1     -10.460  16.904  67.588  1.00  0.00    -0.325 NA 
HETATM    8  H   UNL     1     -11.254  17.467  67.891  1.00  0.00     0.000 HD 
BRANCH   7   9
HETATM    9  C   UNL     1     -10.871  15.547  67.212  1.00  0.00    -0.313 C  
BRANCH   9  10
HETATM   10  C   UNL     1     -11.224  15.466  65.726  1.00  0.00    -0.196 C  
BRANCH  10  11
HETATM   11  S   UNL     1     -10.320  14.133  64.872  1.00  0.00    -0.333 SA 
HETATM   12  P   UNL     1     -11.896  13.022  64.139  1.00  0.00    -0.482 P  
HETATM   13  O   UNL     1     -11.334  11.682  63.467  1.00  0.00    -0.417 OA 
HETATM   14  O   UNL     1     -12.938  12.754  65.177  1.00  0.00    -0.768 OA 
HETATM   15  O   UNL     1     -12.513  13.747  62.854  1.00  0.00    -0.601 OA 
ENDBRANCH  10  11
ENDBRANCH   9  10
ENDBRANCH   7   9
ENDBRANCH   6   7
ENDBRANCH   5   6
ENDBRANCH   2   5
TORSDOF 6
ENDMDL
MODEL       42
REMARK 921   NORMALIZED FREE ENERGY PREDICTED BY IDOCK:   -3.91 KCAL/MOL
REMARK 922        TOTAL FREE ENERGY PREDICTED BY IDOCK:   -5.36 KCAL/MOL
REMARK 923 INTER-LIGAND FREE ENERGY PREDICTED BY IDOCK:   -4.57 KCAL/MOL
REMARK 924 INTRA-LIGAND FREE ENERGY PREDICTED BY IDOCK:   -0.79 KCAL/MOL
REMARK 927      BINDING AFFINITY PREDICTED BY RF-SCORE:    0.00 PKD
ROOT
HETATM    1  N   UNL     1     -11.641  10.514  68.323  1.00  0.00    -0.672 NA 
HETATM    2  C   UNL     1     -10.746   9.665  67.546  1.00  0.00    -0.256 C  
HETATM    3  H2  UNL     1     -11.269  11.459  68.431  1.00  0.00     0.000 HD 
HETATM    4  H1  UNL     1     -12.575  10.519  67.915  1.00  0.00     0.000 HD 
ENDROOT
BRANCH   2   5
HETATM    5  C   UNL     1      -9.347   9.658  68.158  1.00  0.00    -0.140 C  
BRANCH   5   6
HETATM    6  C   UNL     1      -8.761  11.070  68.176  1.00  0.00    -0.141 C  
BRANCH   6   7
HETATM    7  N   UNL     1      -9.338  11.860  67.091  1.00  0.00    -0.177 NA 
HETATM    8  H   UNL     1     -10.355  11.796  67.078  1.00  0.00     0.000 HD 
BRANCH   7   9
HETATM    9  C   UNL     1      -8.885  13.254  67.155  1.00  0.00    -0.222 C  
BRANCH   9  10
HETATM   10  C   UNL     1      -9.958  14.212  66.637  1.00  0.00    -0.277 C  
BRANCH  10  11
HETATM   11  S   UNL     1     -10.300  13.975  64.862  1.00  0.00    -0.348 SA 
HETATM   12  P   UNL     1     -12.209  13.198  64.949  1.00  0.00    -0.448 P  
HETATM   13  O   UNL     1     -12.670  12.756  63.481  1.00  0.00    -0.713 OA 
HETATM   14  O   UNL     1     -12.331  12.093  65.949  1.00  0.00    -0.561 OA 
HETATM   15  O   UNL     1     -13.255  14.373  65.234  1.00  0.00    -0.619 OA 
ENDBRANCH  10  11
ENDBRANCH   9  10
ENDBRANCH   7   9
ENDBRANCH   6   7
ENDBRANCH   5   6
ENDBRANCH   2   5
TORSDOF 6
ENDMDL
MODEL       43
REMARK 921   NORMALIZED FREE ENERGY PREDICTED BY IDOCK:   -3.89 KCAL/MOL
REMARK 922        TOTAL FREE ENERGY PREDICTED BY IDOCK:   -5.34 KCAL/MOL
REMARK 923 INTER-LIGAND FREE ENERGY PREDICTED BY IDOCK:   -4.88 KCAL/MOL
REMARK 924 INTRA-LIGAND FREE ENERGY PREDICTED BY IDOCK:   -0.46 KCAL/MOL
REMARK 927      BINDING AFFINITY PREDICTED BY RF-SCORE:    0.00 PKD
ROOT
HETATM    1  N   UNL     1     -13.023  12.028  63.386  1.00  0.00    -0.728 NA 
HETATM    2  C   UNL     1     -11.862  12.909  63.417  1.00  0.00    -0.507 C  
HETATM    3  H2  UNL     1     -13.312  11.748  64.324  1.00  0.00     0.000 HD 
HETATM    4  H1  UNL     1     -13.787  12.460  62.867  1.00  0.00     0.000 HD 
ENDROOT
BRANCH   2   5
HETATM    5  C   UNL     1     -10.717  12.261  64.194  1.00  0.00    -0.412 C  
BRANCH   5   6
HETATM    6  C   UNL     1     -11.241  11.598  65.468  1.00  0.00    -0.205 C  
BRANCH   6   7
HETATM    7  N   UNL     1     -12.071  12.541  66.214  1.00  0.00    -0.605 NA 
HETATM    8  H   UNL     1     -12.914  12.095  66.576  1.00  0.00     0.000 HD 
BRANCH   7   9
HETATM    9  C   UNL     1     -11.302  13.190  67.281  1.00  0.00    -0.306 C  
BRANCH   9  10
HETATM   10  C   UNL     1     -11.478  14.709  67.248  1.00  0.00    -0.372 C  
BRANCH  10  11
HETATM   11  S   UNL     1     -10.507  15.489  65.917  1.00  0.00    -0.363 SA 
HETATM   12  P   UNL     1      -9.738  17.119  66.921  1.00  0.00    -0.292 P  
HETATM   13  O   UNL     1      -8.957  18.060  65.888  1.00  0.00    -0.506 OA 
HETATM   14  O   UNL     1     -10.783  17.856  67.697  1.00  0.00    -0.399 OA 
HETATM   15  O   UNL     1      -8.526  16.653  67.854  1.00  0.00    -0.188 OA 
ENDBRANCH  10  11
ENDBRANCH   9  10
ENDBRANCH   7   9
ENDBRANCH   6   7
ENDBRANCH   5   6
ENDBRANCH   2   5
TORSDOF 6
ENDMDL
MODEL       44
REMARK 921   NORMALIZED FREE ENERGY PREDICTED BY IDOCK:   -3.89 KCAL/MOL
REMARK 922        TOTAL FREE ENERGY PREDICTED BY IDOCK:   -5.34 KCAL/MOL
REMARK 923 INTER-LIGAND FREE ENERGY PREDICTED BY IDOCK:   -5.14 KCAL/MOL
REMARK 924 INTRA-LIGAND FREE ENERGY PREDICTED BY IDOCK:   -0.20 KCAL/MOL
REMARK 927      BINDING AFFINITY PREDICTED BY RF-SCORE:    0.00 PKD
ROOT
HETATM    1  N   UNL     1     -13.274   9.647  70.726  1.00  0.00    -0.589 NA 
HETATM    2  C   UNL     1     -12.878  10.878  71.399  1.00  0.00    -0.449 C  
HETATM    3  H2  UNL     1     -12.466   9.126  70.382  1.00  0.00     0.000 HD 
HETATM    4  H1  UNL     1     -13.859   9.077  71.337  1.00  0.00     0.000 HD 
ENDROOT
BRANCH   2   5
HETATM    5  C   UNL     1     -12.001  11.731  70.485  1.00  0.00    -0.383 C  
BRANCH   5   6
HETATM    6  C   UNL     1     -12.468  13.187  70.498  1.00  0.00    -0.248 C  
BRANCH   6   7
HETATM    7  N   UNL     1     -11.340  14.068  70.795  1.00  0.00    -0.451 NA 
HETATM    8  H   UNL     1     -10.470  13.545  70.889  1.00  0.00     0.000 HD 
BRANCH   7   9
HETATM    9  C   UNL     1     -11.226  15.133  69.793  1.00  0.00    -0.279 C  
BRANCH   9  10
HETATM   10  C   UNL     1     -11.990  14.779  68.516  1.00  0.00    -0.248 C  
BRANCH  10  11
HETATM   11  S   UNL     1     -10.926  14.825  67.037  1.00  0.00    -0.331 SA 
HETATM   12  P   UNL     1     -11.810  13.354  65.894  1.00  0.00    -0.425 P  
HETATM   13  O   UNL     1     -10.931  13.102  64.579  1.00  0.00    -0.333 OA 
HETATM   14  O   UNL     1     -12.059  12.100  66.669  1.00  0.00    -0.622 OA 
HETATM   15  O   UNL     1     -13.152  13.918  65.234  1.00  0.00    -0.777 OA 
ENDBRANCH  10  11
ENDBRANCH   9  10
ENDBRANCH   7   9
ENDBRANCH   6   7
ENDBRANCH   5   6
ENDBRANCH   2   5
TORSDOF 6
ENDMDL
MODEL       45
REMARK 921   NORMALIZED FREE ENERGY PREDICTED BY IDOCK:   -3.86 KCAL/MOL
REMARK 922        TOTAL FREE ENERGY PREDICTED BY IDOCK:   -5.30 KCAL/MOL
REMARK 923 INTER-LIGAND FREE ENERGY PREDICTED BY IDOCK:   -4.98 KCAL/MOL
REMARK 924 INTRA-LIGAND FREE ENERGY PREDICTED BY IDOCK:   -0.31 KCAL/MOL
REMARK 927      BINDING AFFINITY PREDICTED BY RF-SCORE:    0.00 PKD
ROOT
HETATM    1  N   UNL     1      -7.545  11.209  65.796  1.00  0.00    -0.368 NA 
HETATM    2  C   UNL     1      -7.643   9.853  65.271  1.00  0.00    -0.130 C  
HETATM    3  H2  UNL     1      -8.323  11.433  66.418  1.00  0.00     0.000 HD 
HETATM    4  H1  UNL     1      -6.643  11.353  66.250  1.00  0.00     0.000 HD 
ENDROOT
BRANCH   2   5
HETATM    5  C   UNL     1      -8.994   9.637  64.591  1.00  0.00    -0.274 C  
BRANCH   5   6
HETATM    6  C   UNL     1      -8.908   9.983  63.105  1.00  0.00    -0.237 C  
BRANCH   6   7
HETATM    7  N   UNL     1     -10.158  10.598  62.664  1.00  0.00    -0.763 NA 
HETATM    8  H   UNL     1     -10.752   9.931  62.171  1.00  0.00     0.000 HD 
BRANCH   7   9
HETATM    9  C   UNL     1     -10.864  11.221  63.789  1.00  0.00    -0.350 C  
BRANCH   9  10
HETATM   10  C   UNL     1     -11.114  12.708  63.532  1.00  0.00    -0.395 C  
BRANCH  10  11
HETATM   11  S   UNL     1     -10.525  13.756  64.902  1.00  0.00    -0.411 SA 
HETATM   12  P   UNL     1     -12.140  13.644  66.180  1.00  0.00    -0.433 P  
HETATM   13  O   UNL     1     -11.910  14.636  67.415  1.00  0.00    -0.385 OA 
HETATM   14  O   UNL     1     -13.440  13.885  65.481  1.00  0.00    -0.657 OA 
HETATM   15  O   UNL     1     -12.128  12.237  66.939  1.00  0.00    -0.583 OA 
ENDBRANCH  10  11
ENDBRANCH   9  10
ENDBRANCH   7   9
ENDBRANCH   6   7
ENDBRANCH   5   6
ENDBRANCH   2   5
TORSDOF 6
ENDMDL
MODEL       46
REMARK 921   NORMALIZED FREE ENERGY PREDICTED BY IDOCK:   -3.84 KCAL/MOL
REMARK 922        TOTAL FREE ENERGY PREDICTED BY IDOCK:   -5.27 KCAL/MOL
REMARK 923 INTER-LIGAND FREE ENERGY PREDICTED BY IDOCK:   -5.01 KCAL/MOL
REMARK 924 INTRA-LIGAND FREE ENERGY PREDICTED BY IDOCK:   -0.26 KCAL/MOL
REMARK 927      BINDING AFFINITY PREDICTED BY RF-SCORE:    0.00 PKD
ROOT
HETATM    1  N   UNL     1     -11.188  11.235  63.319  1.00  0.00    -0.832 NA 
HETATM    2  C   UNL     1     -11.850  12.530  63.408  1.00  0.00    -0.503 C  
HETATM    3  H2  UNL     1     -11.848  10.463  63.421  1.00  0.00     0.000 HD 
HETATM    4  H1  UNL     1     -10.653  11.164  62.453  1.00  0.00     0.000 HD 
ENDROOT
BRANCH   2   5
HETATM    5  C   UNL     1     -12.650  12.635  64.705  1.00  0.00    -0.530 C  
BRANCH   5   6
HETATM    6  C   UNL     1     -11.713  12.772  65.905  1.00  0.00    -0.414 C  
BRANCH   6   7
HETATM    7  N   UNL     1     -11.692  11.523  66.664  1.00  0.00    -0.445 NA 
HETATM    8  H   UNL     1     -11.236  10.774  66.143  1.00  0.00     0.000 HD 
BRANCH   7   9
HETATM    9  C   UNL     1     -11.077  11.717  67.981  1.00  0.00    -0.242 C  
BRANCH   9  10
HETATM   10  C   UNL     1     -12.036  11.321  69.105  1.00  0.00    -0.336 C  
BRANCH  10  11
HETATM   11  S   UNL     1     -11.367   9.982  70.146  1.00  0.00    -0.298 SA 
HETATM   12  P   UNL     1     -12.786   9.927  71.642  1.00  0.00    -0.482 P  
HETATM   13  O   UNL     1     -12.317   8.905  72.782  1.00  0.00    -0.250 OA 
HETATM   14  O   UNL     1     -13.102  11.286  72.180  1.00  0.00    -0.458 OA 
HETATM   15  O   UNL     1     -14.096   9.180  71.113  1.00  0.00    -0.219 OA 
ENDBRANCH  10  11
ENDBRANCH   9  10
ENDBRANCH   7   9
ENDBRANCH   6   7
ENDBRANCH   5   6
ENDBRANCH   2   5
TORSDOF 6
ENDMDL
MODEL       47
REMARK 921   NORMALIZED FREE ENERGY PREDICTED BY IDOCK:   -3.83 KCAL/MOL
REMARK 922        TOTAL FREE ENERGY PREDICTED BY IDOCK:   -5.26 KCAL/MOL
REMARK 923 INTER-LIGAND FREE ENERGY PREDICTED BY IDOCK:   -5.09 KCAL/MOL
REMARK 924 INTRA-LIGAND FREE ENERGY PREDICTED BY IDOCK:   -0.17 KCAL/MOL
REMARK 927      BINDING AFFINITY PREDICTED BY RF-SCORE:    0.00 PKD
ROOT
HETATM    1  N   UNL     1     -12.124  10.778  68.544  1.00  0.00    -0.826 NA 
HETATM    2  C   UNL     1     -11.159  10.604  67.466  1.00  0.00    -0.300 C  
HETATM    3  H2  UNL     1     -13.073  10.897  68.188  1.00  0.00     0.000 HD 
HETATM    4  H1  UNL     1     -12.062  10.007  69.209  1.00  0.00     0.000 HD 
ENDROOT
BRANCH   2   5
HETATM    5  C   UNL     1     -11.252  11.759  66.470  1.00  0.00    -0.380 C  
BRANCH   5   6
HETATM    6  C   UNL     1      -9.911  11.973  65.769  1.00  0.00    -0.242 C  
BRANCH   6   7
HETATM    7  N   UNL     1     -10.109  12.738  64.540  1.00  0.00    -0.547 NA 
HETATM    8  H   UNL     1     -10.626  12.202  63.843  1.00  0.00     0.000 HD 
BRANCH   7   9
HETATM    9  C   UNL     1     -10.754  14.025  64.819  1.00  0.00    -0.427 C  
BRANCH   9  10
HETATM   10  C   UNL     1      -9.796  14.984  65.527  1.00  0.00    -0.317 C  
BRANCH  10  11
HETATM   11  S   UNL     1     -10.633  15.981  66.803  1.00  0.00    -0.262 SA 
HETATM   12  P   UNL     1     -10.105  17.882  66.199  1.00  0.00    -0.202 P  
HETATM   13  O   UNL     1     -10.611  18.944  67.284  1.00  0.00    -0.417 OA 
HETATM   14  O   UNL     1      -8.643  18.004  65.910  1.00  0.00    -0.507 OA 
HETATM   15  O   UNL     1     -10.995  18.313  64.943  1.00  0.00    -0.660 OA 
ENDBRANCH  10  11
ENDBRANCH   9  10
ENDBRANCH   7   9
ENDBRANCH   6   7
ENDBRANCH   5   6
ENDBRANCH   2   5
TORSDOF 6
ENDMDL
MODEL       48
REMARK 921   NORMALIZED FREE ENERGY PREDICTED BY IDOCK:   -3.82 KCAL/MOL
REMARK 922        TOTAL FREE ENERGY PREDICTED BY IDOCK:   -5.24 KCAL/MOL
REMARK 923 INTER-LIGAND FREE ENERGY PREDICTED BY IDOCK:   -4.72 KCAL/MOL
REMARK 924 INTRA-LIGAND FREE ENERGY PREDICTED BY IDOCK:   -0.52 KCAL/MOL
REMARK 927      BINDING AFFINITY PREDICTED BY RF-SCORE:    0.00 PKD
ROOT
HETATM    1  N   UNL     1     -12.765  11.607  62.958  1.00  0.00    -0.865 NA 
HETATM    2  C   UNL     1     -11.694  12.378  63.577  1.00  0.00    -0.510 C  
HETATM    3  H2  UNL     1     -13.256  12.145  62.244  1.00  0.00     0.000 HD 
HETATM    4  H1  UNL     1     -12.406  10.726  62.590  1.00  0.00     0.000 HD 
ENDROOT
BRANCH   2   5
HETATM    5  C   UNL     1     -12.232  13.697  64.129  1.00  0.00    -0.450 C  
BRANCH   5   6
HETATM    6  C   UNL     1     -12.597  13.551  65.606  1.00  0.00    -0.459 C  
BRANCH   6   7
HETATM    7  N   UNL     1     -12.066  12.293  66.127  1.00  0.00    -0.627 NA 
HETATM    8  H   UNL     1     -11.277  11.960  65.574  1.00  0.00     0.000 HD 
BRANCH   7   9
HETATM    9  C   UNL     1     -11.718  12.415  67.547  1.00  0.00    -0.357 C  
BRANCH   9  10
HETATM   10  C   UNL     1     -11.367  11.055  68.152  1.00  0.00    -0.307 C  
BRANCH  10  11
HETATM   11  S   UNL     1      -9.597  10.656  67.978  1.00  0.00    -0.161 SA 
HETATM   12  P   UNL     1      -9.681   9.225  66.494  1.00  0.00    -0.281 P  
HETATM   13  O   UNL     1      -8.223   8.600  66.276  1.00  0.00    -0.110 OA 
HETATM   14  O   UNL     1     -10.720   8.184  66.763  1.00  0.00    -0.278 OA 
HETATM   15  O   UNL     1      -9.902   9.931  65.078  1.00  0.00    -0.317 OA 
ENDBRANCH  10  11
ENDBRANCH   9  10
ENDBRANCH   7   9
ENDBRANCH   6   7
ENDBRANCH   5   6
ENDBRANCH   2   5
TORSDOF 6
ENDMDL
MODEL       49
REMARK 921   NORMALIZED FREE ENERGY PREDICTED BY IDOCK:   -3.81 KCAL/MOL
REMARK 922        TOTAL FREE ENERGY PREDICTED BY IDOCK:   -5.23 KCAL/MOL
REMARK 923 INTER-LIGAND FREE ENERGY PREDICTED BY IDOCK:   -4.24 KCAL/MOL
REMARK 924 INTRA-LIGAND FREE ENERGY PREDICTED BY IDOCK:   -1.00 KCAL/MOL
REMARK 927      BINDING AFFINITY PREDICTED BY RF-SCORE:    0.00 PKD
ROOT
HETATM    1  N   UNL     1     -10.410  18.696  68.495  1.00  0.00    -0.396 NA 
HETATM    2  C   UNL     1     -10.835  19.241  67.212  1.00  0.00    -0.449 C  
HETATM    3  H2  UNL     1     -10.041  19.420  69.112  1.00  0.00     0.000 HD 
HETATM    4  H1  UNL     1     -11.171  18.176  68.933  1.00  0.00     0.000 HD 
ENDROOT
BRANCH   2   5
HETATM    5  C   UNL     1      -9.696  20.019  66.556  1.00  0.00    -0.564 C  
BRANCH   5   6
HETATM    6  C   UNL     1      -8.426  19.169  66.503  1.00  0.00    -0.317 C  
BRANCH   6   7
HETATM    7  N   UNL     1      -8.731  17.854  65.943  1.00  0.00    -0.501 NA 
HETATM    8  H   UNL     1      -8.869  17.898  64.934  1.00  0.00     0.000 HD 
BRANCH   7   9
HETATM    9  C   UNL     1      -7.702  16.874  66.306  1.00  0.00    -0.297 C  
BRANCH   9  10
HETATM   10  C   UNL     1      -8.145  16.017  67.493  1.00  0.00    -0.148 C  
BRANCH  10  11
HETATM   11  S   UNL     1      -8.887  14.438  66.967  1.00  0.00    -0.226 SA 
HETATM   12  P   UNL     1     -10.854  15.011  66.727  1.00  0.00    -0.316 P  
HETATM   13  O   UNL     1     -11.748  13.721  66.409  1.00  0.00    -0.343 OA 
HETATM   14  O   UNL     1     -11.367  15.794  67.893  1.00  0.00    -0.338 OA 
HETATM   15  O   UNL     1     -11.017  15.814  65.355  1.00  0.00    -0.345 OA 
ENDBRANCH  10  11
ENDBRANCH   9  10
ENDBRANCH   7   9
ENDBRANCH   6   7
ENDBRANCH   5   6
ENDBRANCH   2   5
TORSDOF 6
ENDMDL
MODEL       50
REMARK 921   NORMALIZED FREE ENERGY PREDICTED BY IDOCK:   -3.81 KCAL/MOL
REMARK 922        TOTAL FREE ENERGY PREDICTED BY IDOCK:   -5.23 KCAL/MOL
REMARK 923 INTER-LIGAND FREE ENERGY PREDICTED BY IDOCK:   -4.88 KCAL/MOL
REMARK 924 INTRA-LIGAND FREE ENERGY PREDICTED BY IDOCK:   -0.36 KCAL/MOL
REMARK 927      BINDING AFFINITY PREDICTED BY RF-SCORE:    0.00 PKD
ROOT
HETATM    1  N   UNL     1      -9.206  20.376  65.966  1.00  0.00    -0.611 NA 
HETATM    2  C   UNL     1      -9.101  20.002  67.371  1.00  0.00    -0.357 C  
HETATM    3  H2  UNL     1     -10.024  19.958  65.522  1.00  0.00     0.000 HD 
HETATM    4  H1  UNL     1      -9.197  21.391  65.865  1.00  0.00     0.000 HD 
ENDROOT
BRANCH   2   5
HETATM    5  C   UNL     1      -9.114  18.482  67.524  1.00  0.00    -0.289 C  
BRANCH   5   6
HETATM    6  C   UNL     1     -10.450  17.907  67.051  1.00  0.00    -0.340 C  
BRANCH   6   7
HETATM    7  N   UNL     1     -10.327  17.434  65.674  1.00  0.00    -0.624 NA 
HETATM    8  H   UNL     1      -9.484  17.794  65.227  1.00  0.00     0.000 HD 
BRANCH   7   9
HETATM    9  C   UNL     1     -10.390  15.970  65.611  1.00  0.00    -0.392 C  
BRANCH   9  10
HETATM   10  C   UNL     1     -10.917  15.380  66.920  1.00  0.00    -0.294 C  
BRANCH  10  11
HETATM   11  S   UNL     1     -12.003  13.943  66.643  1.00  0.00    -0.447 SA 
HETATM   12  P   UNL     1     -11.424  12.730  68.208  1.00  0.00    -0.360 P  
HETATM   13  O   UNL     1     -12.152  11.310  68.077  1.00  0.00    -0.638 OA 
HETATM   14  O   UNL     1      -9.938  12.609  68.317  1.00  0.00    -0.223 OA 
HETATM   15  O   UNL     1     -12.077  13.258  69.568  1.00  0.00    -0.303 OA 
ENDBRANCH  10  11
ENDBRANCH   9  10
ENDBRANCH   7   9
ENDBRANCH   6   7
ENDBRANCH   5   6
ENDBRANCH   2   5
TORSDOF 6
ENDMDL
MODEL       51
REMARK 921   NORMALIZED FREE ENERGY PREDICTED BY IDOCK:   -3.78 KCAL/MOL
REMARK 922        TOTAL FREE ENERGY PREDICTED BY IDOCK:   -5.18 KCAL/MOL
REMARK 923 INTER-LIGAND FREE ENERGY PREDICTED BY IDOCK:   -4.78 KCAL/MOL
REMARK 924 INTRA-LIGAND FREE ENERGY PREDICTED BY IDOCK:   -0.41 KCAL/MOL
REMARK 927      BINDING AFFINITY PREDICTED BY RF-SCORE:    0.00 PKD
ROOT
HETATM    1  N   UNL     1      -7.832  18.249  68.536  1.00  0.00    -0.293 NA 
HETATM    2  C   UNL     1      -6.820  18.464  67.510  1.00  0.00    -0.202 C  
HETATM    3  H2  UNL     1      -7.840  17.283  68.864  1.00  0.00     0.000 HD 
HETATM    4  H1  UNL     1      -7.709  18.908  69.305  1.00  0.00     0.000 HD 
ENDROOT
BRANCH   2   5
HETATM    5  C   UNL     1      -7.005  17.477  66.359  1.00  0.00    -0.315 C  
BRANCH   5   6
HETATM    6  C   UNL     1      -8.183  16.543  66.637  1.00  0.00    -0.271 C  
BRANCH   6   7
HETATM    7  N   UNL     1      -9.386  17.053  65.982  1.00  0.00    -0.497 NA 
HETATM    8  H   UNL     1      -9.180  17.425  65.055  1.00  0.00     0.000 HD 
BRANCH   7   9
HETATM    9  C   UNL     1     -10.434  16.028  65.934  1.00  0.00    -0.359 C  
BRANCH   9  10
HETATM   10  C   UNL     1      -9.835  14.626  65.811  1.00  0.00    -0.328 C  
BRANCH  10  11
HETATM   11  S   UNL     1     -10.502  13.712  64.382  1.00  0.00    -0.123 SA 
HETATM   12  P   UNL     1     -12.262  12.995  65.185  1.00  0.00    -0.492 P  
HETATM   13  O   UNL     1     -12.962  12.009  64.135  1.00  0.00    -0.581 OA 
HETATM   14  O   UNL     1     -12.062  12.363  66.525  1.00  0.00    -0.599 OA 
HETATM   15  O   UNL     1     -13.346  14.168  65.239  1.00  0.00    -0.715 OA 
ENDBRANCH  10  11
ENDBRANCH   9  10
ENDBRANCH   7   9
ENDBRANCH   6   7
ENDBRANCH   5   6
ENDBRANCH   2   5
TORSDOF 6
ENDMDL
MODEL       52
REMARK 921   NORMALIZED FREE ENERGY PREDICTED BY IDOCK:   -3.76 KCAL/MOL
REMARK 922        TOTAL FREE ENERGY PREDICTED BY IDOCK:   -5.16 KCAL/MOL
REMARK 923 INTER-LIGAND FREE ENERGY PREDICTED BY IDOCK:   -4.83 KCAL/MOL
REMARK 924 INTRA-LIGAND FREE ENERGY PREDICTED BY IDOCK:   -0.33 KCAL/MOL
REMARK 927      BINDING AFFINITY PREDICTED BY RF-SCORE:    0.00 PKD
ROOT
HETATM    1  N   UNL     1     -10.791  15.345  64.610  1.00  0.00    -0.640 NA 
HETATM    2  C   UNL     1     -10.131  14.484  65.584  1.00  0.00    -0.359 C  
HETATM    3  H2  UNL     1     -10.120  15.794  63.985  1.00  0.00     0.000 HD 
HETATM    4  H1  UNL     1     -11.500  14.824  64.094  1.00  0.00     0.000 HD 
ENDROOT
BRANCH   2   5
HETATM    5  C   UNL     1      -9.069  15.265  66.357  1.00  0.00    -0.347 C  
BRANCH   5   6
HETATM    6  C   UNL     1      -9.724  16.207  67.367  1.00  0.00    -0.233 C  
BRANCH   6   7
HETATM    7  N   UNL     1     -10.977  15.629  67.846  1.00  0.00    -0.310 NA 
HETATM    8  H   UNL     1     -10.856  14.659  68.139  1.00  0.00     0.000 HD 
BRANCH   7   9
HETATM    9  C   UNL     1     -11.562  16.447  68.913  1.00  0.00    -0.147 C  
BRANCH   9  10
HETATM   10  C   UNL     1     -12.366  15.591  69.893  1.00  0.00    -0.277 C  
BRANCH  10  11
HETATM   11  S   UNL     1     -11.565  15.471  71.526  1.00  0.00    -0.452 SA 
HETATM   12  P   UNL     1     -13.135  14.763  72.661  1.00  0.00    -0.513 P  
HETATM   13  O   UNL     1     -12.701  14.724  74.202  1.00  0.00    -0.457 OA 
HETATM   14  O   UNL     1     -14.396  15.533  72.436  1.00  0.00    -0.558 OA 
HETATM   15  O   UNL     1     -13.337  13.201  72.384  1.00  0.00    -0.533 OA 
ENDBRANCH  10  11
ENDBRANCH   9  10
ENDBRANCH   7   9
ENDBRANCH   6   7
ENDBRANCH   5   6
ENDBRANCH   2   5
TORSDOF 6
ENDMDL
MODEL       53
REMARK 921   NORMALIZED FREE ENERGY PREDICTED BY IDOCK:   -3.75 KCAL/MOL
REMARK 922        TOTAL FREE ENERGY PREDICTED BY IDOCK:   -5.15 KCAL/MOL
REMARK 923 INTER-LIGAND FREE ENERGY PREDICTED BY IDOCK:   -4.80 KCAL/MOL
REMARK 924 INTRA-LIGAND FREE ENERGY PREDICTED BY IDOCK:   -0.35 KCAL/MOL
REMARK 927      BINDING AFFINITY PREDICTED BY RF-SCORE:    0.00 PKD
ROOT
HETATM    1  N   UNL     1     -12.507  11.504  63.027  1.00  0.00    -0.914 NA 
HETATM    2  C   UNL     1     -11.155  11.817  63.471  1.00  0.00    -0.422 C  
HETATM    3  H2  UNL     1     -12.820  12.136  62.290  1.00  0.00     0.000 HD 
HETATM    4  H1  UNL     1     -12.574  10.527  62.742  1.00  0.00     0.000 HD 
ENDROOT
BRANCH   2   5
HETATM    5  C   UNL     1     -11.055  13.280  63.899  1.00  0.00    -0.272 C  
BRANCH   5   6
HETATM    6  C   UNL     1     -11.011  13.391  65.423  1.00  0.00    -0.286 C  
BRANCH   6   7
HETATM    7  N   UNL     1     -11.914  12.409  66.020  1.00  0.00    -0.602 NA 
HETATM    8  H   UNL     1     -11.869  11.514  65.534  1.00  0.00     0.000 HD 
BRANCH   7   9
HETATM    9  C   UNL     1     -11.656  12.259  67.456  1.00  0.00    -0.353 C  
BRANCH   9  10
HETATM   10  C   UNL     1     -12.201  13.450  68.246  1.00  0.00    -0.085 C  
BRANCH  10  11
HETATM   11  S   UNL     1     -11.853  13.314  70.030  1.00  0.00    -0.249 SA 
HETATM   12  P   UNL     1     -11.849  15.307  70.563  1.00  0.00    -0.399 P  
HETATM   13  O   UNL     1     -11.400  15.447  72.093  1.00  0.00    -0.434 OA 
HETATM   14  O   UNL     1     -11.021  16.143  69.640  1.00  0.00    -0.299 OA 
HETATM   15  O   UNL     1     -13.352  15.841  70.658  1.00  0.00    -0.486 OA 
ENDBRANCH  10  11
ENDBRANCH   9  10
ENDBRANCH   7   9
ENDBRANCH   6   7
ENDBRANCH   5   6
ENDBRANCH   2   5
TORSDOF 6
ENDMDL
MODEL       54
REMARK 921   NORMALIZED FREE ENERGY PREDICTED BY IDOCK:   -3.75 KCAL/MOL
REMARK 922        TOTAL FREE ENERGY PREDICTED BY IDOCK:   -5.15 KCAL/MOL
REMARK 923 INTER-LIGAND FREE ENERGY PREDICTED BY IDOCK:   -4.79 KCAL/MOL
REMARK 924 INTRA-LIGAND FREE ENERGY PREDICTED BY IDOCK:   -0.36 KCAL/MOL
REMARK 927      BINDING AFFINITY PREDICTED BY RF-SCORE:    0.00 PKD
ROOT
HETATM    1  N   UNL     1     -13.477   9.596  70.749  1.00  0.00    -0.596 NA 
HETATM    2  C   UNL     1     -12.467   9.611  71.800  1.00  0.00    -0.402 C  
HETATM    3  H2  UNL     1     -13.333   8.827  70.095  1.00  0.00     0.000 HD 
HETATM    4  H1  UNL     1     -14.414   9.581  71.152  1.00  0.00     0.000 HD 
ENDROOT
BRANCH   2   5
HETATM    5  C   UNL     1     -11.064   9.634  71.197  1.00  0.00    -0.444 C  
BRANCH   5   6
HETATM    6  C   UNL     1     -11.096  10.225  69.787  1.00  0.00    -0.287 C  
BRANCH   6   7
HETATM    7  N   UNL     1     -11.226  11.679  69.861  1.00  0.00    -0.486 NA 
HETATM    8  H   UNL     1     -10.343  12.123  70.115  1.00  0.00     0.000 HD 
BRANCH   7   9
HETATM    9  C   UNL     1     -11.764  12.225  68.610  1.00  0.00    -0.328 C  
BRANCH   9  10
HETATM   10  C   UNL     1     -10.963  13.441  68.144  1.00  0.00    -0.255 C  
BRANCH  10  11
HETATM   11  S   UNL     1     -11.332  13.892  66.417  1.00  0.00    -0.339 SA 
HETATM   12  P   UNL     1     -10.406  15.732  66.306  1.00  0.00    -0.336 P  
HETATM   13  O   UNL     1     -10.736  16.408  64.892  1.00  0.00    -0.675 OA 
HETATM   14  O   UNL     1     -10.750  16.616  67.462  1.00  0.00    -0.325 OA 
HETATM   15  O   UNL     1      -8.827  15.532  66.162  1.00  0.00    -0.320 OA 
ENDBRANCH  10  11
ENDBRANCH   9  10
ENDBRANCH   7   9
ENDBRANCH   6   7
ENDBRANCH   5   6
ENDBRANCH   2   5
TORSDOF 6
ENDMDL
MODEL       55
REMARK 921   NORMALIZED FREE ENERGY PREDICTED BY IDOCK:   -3.74 KCAL/MOL
REMARK 922        TOTAL FREE ENERGY PREDICTED BY IDOCK:   -5.13 KCAL/MOL
REMARK 923 INTER-LIGAND FREE ENERGY PREDICTED BY IDOCK:   -4.99 KCAL/MOL
REMARK 924 INTRA-LIGAND FREE ENERGY PREDICTED BY IDOCK:   -0.15 KCAL/MOL
REMARK 927      BINDING AFFINITY PREDICTED BY RF-SCORE:    0.00 PKD
ROOT
HETATM    1  N   UNL     1     -13.957  16.167  73.130  1.00  0.00    -0.595 NA 
HETATM    2  C   UNL     1     -14.208  15.205  72.064  1.00  0.00    -0.577 C  
HETATM    3  H2  UNL     1     -13.908  17.122  72.776  1.00  0.00     0.000 HD 
HETATM    4  H1  UNL     1     -14.653  16.072  73.870  1.00  0.00     0.000 HD 
ENDROOT
BRANCH   2   5
HETATM    5  C   UNL     1     -13.165  15.347  70.957  1.00  0.00    -0.560 C  
BRANCH   5   6
HETATM    6  C   UNL     1     -11.755  15.182  71.524  1.00  0.00    -0.390 C  
BRANCH   6   7
HETATM    7  N   UNL     1     -10.811  14.923  70.439  1.00  0.00    -0.486 NA 
HETATM    8  H   UNL     1     -10.716  13.924  70.254  1.00  0.00     0.000 HD 
BRANCH   7   9
HETATM    9  C   UNL     1     -11.181  15.665  69.229  1.00  0.00    -0.320 C  
BRANCH   9  10
HETATM   10  C   UNL     1     -10.043  16.575  68.766  1.00  0.00    -0.255 C  
BRANCH  10  11
HETATM   11  S   UNL     1     -10.626  17.907  67.666  1.00  0.00    -0.337 SA 
HETATM   12  P   UNL     1      -8.831  18.569  66.896  1.00  0.00    -0.298 P  
HETATM   13  O   UNL     1      -9.085  19.871  65.999  1.00  0.00    -0.374 OA 
HETATM   14  O   UNL     1      -7.801  18.792  67.957  1.00  0.00    -0.260 OA 
HETATM   15  O   UNL     1      -8.317  17.550  65.777  1.00  0.00    -0.538 OA 
ENDBRANCH  10  11
ENDBRANCH   9  10
ENDBRANCH   7   9
ENDBRANCH   6   7
ENDBRANCH   5   6
ENDBRANCH   2   5
TORSDOF 6
ENDMDL
MODEL       56
REMARK 921   NORMALIZED FREE ENERGY PREDICTED BY IDOCK:   -3.72 KCAL/MOL
REMARK 922        TOTAL FREE ENERGY PREDICTED BY IDOCK:   -5.10 KCAL/MOL
REMARK 923 INTER-LIGAND FREE ENERGY PREDICTED BY IDOCK:   -4.87 KCAL/MOL
REMARK 924 INTRA-LIGAND FREE ENERGY PREDICTED BY IDOCK:   -0.23 KCAL/MOL
REMARK 927      BINDING AFFINITY PREDICTED BY RF-SCORE:    0.00 PKD
ROOT
HETATM    1  N   UNL     1     -12.520  13.635  63.100  1.00  0.00    -1.045 NA 
HETATM    2  C   UNL     1     -11.772  13.000  64.178  1.00  0.00    -0.412 C  
HETATM    3  H2  UNL     1     -11.904  14.107  62.437  1.00  0.00     0.000 HD 
HETATM    4  H1  UNL     1     -13.126  12.957  62.637  1.00  0.00     0.000 HD 
ENDROOT
BRANCH   2   5
HETATM    5  C   UNL     1     -10.865  14.016  64.871  1.00  0.00    -0.421 C  
BRANCH   5   6
HETATM    6  C   UNL     1     -11.358  15.440  64.612  1.00  0.00    -0.355 C  
BRANCH   6   7
HETATM    7  N   UNL     1     -10.378  16.403  65.111  1.00  0.00    -0.620 NA 
HETATM    8  H   UNL     1     -10.829  17.200  65.558  1.00  0.00     0.000 HD 
BRANCH   7   9
HETATM    9  C   UNL     1      -9.411  15.756  66.004  1.00  0.00    -0.357 C  
BRANCH   9  10
HETATM   10  C   UNL     1      -9.277  16.519  67.323  1.00  0.00    -0.216 C  
BRANCH  10  11
HETATM   11  S   UNL     1     -10.592  17.763  67.539  1.00  0.00    -0.315 SA 
HETATM   12  P   UNL     1      -9.456  19.449  67.893  1.00  0.00    -0.365 P  
HETATM   13  O   UNL     1     -10.421  20.669  68.274  1.00  0.00    -0.068 OA 
HETATM   14  O   UNL     1      -8.390  19.215  68.915  1.00  0.00    -0.352 OA 
HETATM   15  O   UNL     1      -8.849  19.987  66.516  1.00  0.00    -0.346 OA 
ENDBRANCH  10  11
ENDBRANCH   9  10
ENDBRANCH   7   9
ENDBRANCH   6   7
ENDBRANCH   5   6
ENDBRANCH   2   5
TORSDOF 6
ENDMDL
MODEL       57
REMARK 921   NORMALIZED FREE ENERGY PREDICTED BY IDOCK:   -3.69 KCAL/MOL
REMARK 922        TOTAL FREE ENERGY PREDICTED BY IDOCK:   -5.07 KCAL/MOL
REMARK 923 INTER-LIGAND FREE ENERGY PREDICTED BY IDOCK:   -4.41 KCAL/MOL
REMARK 924 INTRA-LIGAND FREE ENERGY PREDICTED BY IDOCK:   -0.66 KCAL/MOL
REMARK 927      BINDING AFFINITY PREDICTED BY RF-SCORE:    0.00 PKD
ROOT
HETATM    1  N   UNL     1     -14.352   8.861  73.128  1.00  0.00    -1.145 NA 
HETATM    2  C   UNL     1     -13.878   8.658  71.764  1.00  0.00    -0.425 C  
HETATM    3  H2  UNL     1     -14.220   9.824  73.437  1.00  0.00     0.000 HD 
HETATM    4  H1  UNL     1     -15.324   8.564  73.217  1.00  0.00     0.000 HD 
ENDROOT
BRANCH   2   5
HETATM    5  C   UNL     1     -12.423   9.102  71.631  1.00  0.00    -0.434 C  
BRANCH   5   6
HETATM    6  C   UNL     1     -11.510   8.208  72.470  1.00  0.00    -0.404 C  
BRANCH   6   7
HETATM    7  N   UNL     1     -12.125   6.894  72.644  1.00  0.00    -0.490 NA 
HETATM    8  H   UNL     1     -12.715   6.647  71.849  1.00  0.00     0.000 HD 
BRANCH   7   9
HETATM    9  C   UNL     1     -11.110   5.867  72.904  1.00  0.00    -0.269 C  
BRANCH   9  10
HETATM   10  C   UNL     1      -9.726   6.324  72.438  1.00  0.00    -0.153 C  
BRANCH  10  11
HETATM   11  S   UNL     1      -9.052   5.258  71.122  1.00  0.00    -0.146 SA 
HETATM   12  P   UNL     1     -10.065   6.000  69.485  1.00  0.00    -0.234 P  
HETATM   13  O   UNL     1      -9.742   5.093  68.205  1.00  0.00    -0.129 OA 
HETATM   14  O   UNL     1     -11.532   6.141  69.737  1.00  0.00    -0.433 OA 
HETATM   15  O   UNL     1      -9.407   7.382  69.027  1.00  0.00    -0.146 OA 
ENDBRANCH  10  11
ENDBRANCH   9  10
ENDBRANCH   7   9
ENDBRANCH   6   7
ENDBRANCH   5   6
ENDBRANCH   2   5
TORSDOF 6
ENDMDL
MODEL       58
REMARK 921   NORMALIZED FREE ENERGY PREDICTED BY IDOCK:   -3.68 KCAL/MOL
REMARK 922        TOTAL FREE ENERGY PREDICTED BY IDOCK:   -5.06 KCAL/MOL
REMARK 923 INTER-LIGAND FREE ENERGY PREDICTED BY IDOCK:   -4.23 KCAL/MOL
REMARK 924 INTRA-LIGAND FREE ENERGY PREDICTED BY IDOCK:   -0.82 KCAL/MOL
REMARK 927      BINDING AFFINITY PREDICTED BY RF-SCORE:    0.00 PKD
ROOT
HETATM    1  N   UNL     1     -12.990  10.053  70.311  1.00  0.00    -0.571 NA 
HETATM    2  C   UNL     1     -12.175   9.937  71.514  1.00  0.00    -0.416 C  
HETATM    3  H2  UNL     1     -13.182   9.143  69.893  1.00  0.00     0.000 HD 
HETATM    4  H1  UNL     1     -13.849  10.567  70.509  1.00  0.00     0.000 HD 
ENDROOT
BRANCH   2   5
HETATM    5  C   UNL     1     -10.889   9.167  71.217  1.00  0.00    -0.402 C  
BRANCH   5   6
HETATM    6  C   UNL     1     -10.454   9.388  69.768  1.00  0.00    -0.226 C  
BRANCH   6   7
HETATM    7  N   UNL     1      -9.877  10.722  69.620  1.00  0.00    -0.438 NA 
HETATM    8  H   UNL     1      -9.782  11.192  70.520  1.00  0.00     0.000 HD 
BRANCH   7   9
HETATM    9  C   UNL     1      -8.600  10.668  68.901  1.00  0.00    -0.158 C  
BRANCH   9  10
HETATM   10  C   UNL     1      -8.685  11.398  67.560  1.00  0.00    -0.140 C  
BRANCH  10  11
HETATM   11  S   UNL     1      -9.552  12.995  67.696  1.00  0.00    -0.214 SA 
HETATM   12  P   UNL     1     -11.355  12.518  66.814  1.00  0.00    -0.373 P  
HETATM   13  O   UNL     1     -12.246  13.842  66.677  1.00  0.00    -0.426 OA 
HETATM   14  O   UNL     1     -11.183  11.802  65.513  1.00  0.00    -0.309 OA 
HETATM   15  O   UNL     1     -12.250  11.679  67.839  1.00  0.00    -0.560 OA 
ENDBRANCH  10  11
ENDBRANCH   9  10
ENDBRANCH   7   9
ENDBRANCH   6   7
ENDBRANCH   5   6
ENDBRANCH   2   5
TORSDOF 6
ENDMDL
MODEL       59
REMARK 921   NORMALIZED FREE ENERGY PREDICTED BY IDOCK:   -3.68 KCAL/MOL
REMARK 922        TOTAL FREE ENERGY PREDICTED BY IDOCK:   -5.05 KCAL/MOL
REMARK 923 INTER-LIGAND FREE ENERGY PREDICTED BY IDOCK:   -4.12 KCAL/MOL
REMARK 924 INTRA-LIGAND FREE ENERGY PREDICTED BY IDOCK:   -0.93 KCAL/MOL
REMARK 927      BINDING AFFINITY PREDICTED BY RF-SCORE:    0.00 PKD
ROOT
HETATM    1  N   UNL     1     -12.748  15.328  69.902  1.00  0.00    -0.625 NA 
HETATM    2  C   UNL     1     -11.923  14.148  70.126  1.00  0.00    -0.332 C  
HETATM    3  H2  UNL     1     -13.617  15.098  69.417  1.00  0.00     0.000 HD 
HETATM    4  H1  UNL     1     -12.922  15.816  70.780  1.00  0.00     0.000 HD 
ENDROOT
BRANCH   2   5
HETATM    5  C   UNL     1     -11.662  13.418  68.810  1.00  0.00    -0.377 C  
BRANCH   5   6
HETATM    6  C   UNL     1     -10.210  13.605  68.371  1.00  0.00    -0.245 C  
BRANCH   6   7
HETATM    7  N   UNL     1      -9.560  14.603  69.218  1.00  0.00    -0.400 NA 
HETATM    8  H   UNL     1      -9.534  14.308  70.194  1.00  0.00     0.000 HD 
BRANCH   7   9
HETATM    9  C   UNL     1      -8.221  14.929  68.716  1.00  0.00    -0.161 C  
BRANCH   9  10
HETATM   10  C   UNL     1      -7.945  16.430  68.804  1.00  0.00    -0.233 C  
BRANCH  10  11
HETATM   11  S   UNL     1      -8.214  17.278  67.213  1.00  0.00    -0.201 SA 
HETATM   12  P   UNL     1     -10.135  17.980  67.484  1.00  0.00    -0.386 P  
HETATM   13  O   UNL     1     -10.655  18.642  66.122  1.00  0.00    -0.436 OA 
HETATM   14  O   UNL     1     -11.060  16.926  68.003  1.00  0.00    -0.336 OA 
HETATM   15  O   UNL     1     -10.109  19.265  68.433  1.00  0.00    -0.389 OA 
ENDBRANCH  10  11
ENDBRANCH   9  10
ENDBRANCH   7   9
ENDBRANCH   6   7
ENDBRANCH   5   6
ENDBRANCH   2   5
TORSDOF 6
ENDMDL
MODEL       60
REMARK 921   NORMALIZED FREE ENERGY PREDICTED BY IDOCK:   -3.66 KCAL/MOL
REMARK 922        TOTAL FREE ENERGY PREDICTED BY IDOCK:   -5.02 KCAL/MOL
REMARK 923 INTER-LIGAND FREE ENERGY PREDICTED BY IDOCK:   -4.78 KCAL/MOL
REMARK 924 INTRA-LIGAND FREE ENERGY PREDICTED BY IDOCK:   -0.24 KCAL/MOL
REMARK 927      BINDING AFFINITY PREDICTED BY RF-SCORE:    0.00 PKD
ROOT
HETATM    1  N   UNL     1     -10.285  18.706  68.898  1.00  0.00    -0.475 NA 
HETATM    2  C   UNL     1     -10.213  19.835  67.977  1.00  0.00    -0.451 C  
HETATM    3  H2  UNL     1      -9.610  17.979  68.661  1.00  0.00     0.000 HD 
HETATM    4  H1  UNL     1     -10.179  19.023  69.861  1.00  0.00     0.000 HD 
ENDROOT
BRANCH   2   5
HETATM    5  C   UNL     1     -10.373  19.360  66.534  1.00  0.00    -0.564 C  
BRANCH   5   6
HETATM    6  C   UNL     1      -9.789  17.958  66.362  1.00  0.00    -0.337 C  
BRANCH   6   7
HETATM    7  N   UNL     1     -10.482  17.260  65.281  1.00  0.00    -0.656 NA 
HETATM    8  H   UNL     1     -10.103  17.512  64.368  1.00  0.00     0.000 HD 
BRANCH   7   9
HETATM    9  C   UNL     1     -10.463  15.809  65.493  1.00  0.00    -0.403 C  
BRANCH   9  10
HETATM   10  C   UNL     1     -10.622  15.462  66.974  1.00  0.00    -0.309 C  
BRANCH  10  11
HETATM   11  S   UNL     1      -9.593  14.039  67.465  1.00  0.00    -0.235 SA 
HETATM   12  P   UNL     1     -11.053  12.718  68.082  1.00  0.00    -0.298 P  
HETATM   13  O   UNL     1     -10.361  11.422  68.718  1.00  0.00    -0.201 OA 
HETATM   14  O   UNL     1     -12.045  13.353  69.003  1.00  0.00    -0.325 OA 
HETATM   15  O   UNL     1     -11.761  12.066  66.807  1.00  0.00    -0.523 OA 
ENDBRANCH  10  11
ENDBRANCH   9  10
ENDBRANCH   7   9
ENDBRANCH   6   7
ENDBRANCH   5   6
ENDBRANCH   2   5
TORSDOF 6
ENDMDL
MODEL       61
REMARK 921   NORMALIZED FREE ENERGY PREDICTED BY IDOCK:   -3.65 KCAL/MOL
REMARK 922        TOTAL FREE ENERGY PREDICTED BY IDOCK:   -5.02 KCAL/MOL
REMARK 923 INTER-LIGAND FREE ENERGY PREDICTED BY IDOCK:   -4.75 KCAL/MOL
REMARK 924 INTRA-LIGAND FREE ENERGY PREDICTED BY IDOCK:   -0.26 KCAL/MOL
REMARK 927      BINDING AFFINITY PREDICTED BY RF-SCORE:    0.00 PKD
ROOT
HETATM    1  N   UNL     1      -7.851  14.858  69.931  1.00  0.00    -0.381 NA 
HETATM    2  C   UNL     1      -8.920  15.449  69.136  1.00  0.00    -0.245 C  
HETATM    3  H2  UNL     1      -7.621  15.430  70.744  1.00  0.00     0.000 HD 
HETATM    4  H1  UNL     1      -8.089  13.902  70.195  1.00  0.00     0.000 HD 
ENDROOT
BRANCH   2   5
HETATM    5  C   UNL     1      -8.564  16.881  68.739  1.00  0.00    -0.246 C  
BRANCH   5   6
HETATM    6  C   UNL     1      -9.830  17.716  68.549  1.00  0.00    -0.346 C  
BRANCH   6   7
HETATM    7  N   UNL     1     -10.710  17.071  67.577  1.00  0.00    -0.307 NA 
HETATM    8  H   UNL     1     -11.680  17.362  67.697  1.00  0.00     0.000 HD 
BRANCH   7   9
HETATM    9  C   UNL     1     -10.241  17.303  66.207  1.00  0.00    -0.342 C  
BRANCH   9  10
HETATM   10  C   UNL     1     -10.708  16.193  65.264  1.00  0.00    -0.368 C  
BRANCH  10  11
HETATM   11  S   UNL     1     -11.256  14.706  66.165  1.00  0.00    -0.341 SA 
HETATM   12  P   UNL     1     -11.755  13.476  64.586  1.00  0.00    -0.424 P  
HETATM   13  O   UNL     1     -12.424  12.134  65.148  1.00  0.00    -0.508 OA 
HETATM   14  O   UNL     1     -12.610  14.165  63.572  1.00  0.00    -0.834 OA 
HETATM   15  O   UNL     1     -10.425  12.876  63.931  1.00  0.00    -0.413 OA 
ENDBRANCH  10  11
ENDBRANCH   9  10
ENDBRANCH   7   9
ENDBRANCH   6   7
ENDBRANCH   5   6
ENDBRANCH   2   5
TORSDOF 6
ENDMDL
MODEL       62
REMARK 921   NORMALIZED FREE ENERGY PREDICTED BY IDOCK:   -3.65 KCAL/MOL
REMARK 922        TOTAL FREE ENERGY PREDICTED BY IDOCK:   -5.01 KCAL/MOL
REMARK 923 INTER-LIGAND FREE ENERGY PREDICTED BY IDOCK:   -4.64 KCAL/MOL
REMARK 924 INTRA-LIGAND FREE ENERGY PREDICTED BY IDOCK:   -0.37 KCAL/MOL
REMARK 927      BINDING AFFINITY PREDICTED BY RF-SCORE:    0.00 PKD
ROOT
HETATM    1  N   UNL     1      -8.320   6.572  67.044  1.00  0.00    -0.112 NA 
HETATM    2  C   UNL     1      -9.177   7.322  67.954  1.00  0.00    -0.131 C  
HETATM    3  H2  UNL     1      -8.054   7.127  66.230  1.00  0.00     0.000 HD 
HETATM    4  H1  UNL     1      -7.504   6.209  67.537  1.00  0.00     0.000 HD 
ENDROOT
BRANCH   2   5
HETATM    5  C   UNL     1     -10.398   7.866  67.215  1.00  0.00    -0.377 C  
BRANCH   5   6
HETATM    6  C   UNL     1     -10.070   9.202  66.548  1.00  0.00    -0.287 C  
BRANCH   6   7
HETATM    7  N   UNL     1      -9.364   8.969  65.290  1.00  0.00    -0.434 NA 
HETATM    8  H   UNL     1      -9.692   8.122  64.826  1.00  0.00     0.000 HD 
BRANCH   7   9
HETATM    9  C   UNL     1      -9.455  10.138  64.409  1.00  0.00    -0.308 C  
BRANCH   9  10
HETATM   10  C   UNL     1     -10.570  11.085  64.856  1.00  0.00    -0.258 C  
BRANCH  10  11
HETATM   11  S   UNL     1     -10.606  12.623  63.879  1.00  0.00    -0.395 SA 
HETATM   12  P   UNL     1     -12.217  13.578  64.744  1.00  0.00    -0.402 P  
HETATM   13  O   UNL     1     -12.543  14.916  63.926  1.00  0.00    -0.831 OA 
HETATM   14  O   UNL     1     -13.406  12.682  64.881  1.00  0.00    -0.741 OA 
HETATM   15  O   UNL     1     -11.781  14.203  66.149  1.00  0.00    -0.363 OA 
ENDBRANCH  10  11
ENDBRANCH   9  10
ENDBRANCH   7   9
ENDBRANCH   6   7
ENDBRANCH   5   6
ENDBRANCH   2   5
TORSDOF 6
ENDMDL
MODEL       63
REMARK 921   NORMALIZED FREE ENERGY PREDICTED BY IDOCK:   -3.64 KCAL/MOL
REMARK 922        TOTAL FREE ENERGY PREDICTED BY IDOCK:   -5.00 KCAL/MOL
REMARK 923 INTER-LIGAND FREE ENERGY PREDICTED BY IDOCK:   -4.83 KCAL/MOL
REMARK 924 INTRA-LIGAND FREE ENERGY PREDICTED BY IDOCK:   -0.17 KCAL/MOL
REMARK 927      BINDING AFFINITY PREDICTED BY RF-SCORE:    0.00 PKD
ROOT
HETATM    1  N   UNL     1     -13.324  15.995  73.675  1.00  0.00    -0.860 NA 
HETATM    2  C   UNL     1     -13.506  14.861  72.777  1.00  0.00    -0.466 C  
HETATM    3  H2  UNL     1     -13.447  16.885  73.192  1.00  0.00     0.000 HD 
HETATM    4  H1  UNL     1     -13.940  15.913  74.484  1.00  0.00     0.000 HD 
ENDROOT
BRANCH   2   5
HETATM    5  C   UNL     1     -12.582  14.983  71.566  1.00  0.00    -0.410 C  
BRANCH   5   6
HETATM    6  C   UNL     1     -12.522  13.660  70.802  1.00  0.00    -0.359 C  
BRANCH   6   7
HETATM    7  N   UNL     1     -11.359  13.650  69.917  1.00  0.00    -0.478 NA 
HETATM    8  H   UNL     1     -11.482  12.998  69.142  1.00  0.00     0.000 HD 
BRANCH   7   9
HETATM    9  C   UNL     1     -11.048  15.002  69.441  1.00  0.00    -0.278 C  
BRANCH   9  10
HETATM   10  C   UNL     1     -11.583  15.230  68.026  1.00  0.00    -0.312 C  
BRANCH  10  11
HETATM   11  S   UNL     1     -10.246  15.400  66.799  1.00  0.00    -0.279 SA 
HETATM   12  P   UNL     1      -9.577  17.302  67.238  1.00  0.00    -0.269 P  
HETATM   13  O   UNL     1      -8.477  17.740  66.159  1.00  0.00    -0.447 OA 
HETATM   14  O   UNL     1     -10.695  18.288  67.355  1.00  0.00    -0.412 OA 
HETATM   15  O   UNL     1      -8.679  17.265  68.559  1.00  0.00    -0.260 OA 
ENDBRANCH  10  11
ENDBRANCH   9  10
ENDBRANCH   7   9
ENDBRANCH   6   7
ENDBRANCH   5   6
ENDBRANCH   2   5
TORSDOF 6
ENDMDL
MODEL       64
REMARK 921   NORMALIZED FREE ENERGY PREDICTED BY IDOCK:   -3.64 KCAL/MOL
REMARK 922        TOTAL FREE ENERGY PREDICTED BY IDOCK:   -5.00 KCAL/MOL
REMARK 923 INTER-LIGAND FREE ENERGY PREDICTED BY IDOCK:   -4.67 KCAL/MOL
REMARK 924 INTRA-LIGAND FREE ENERGY PREDICTED BY IDOCK:   -0.33 KCAL/MOL
REMARK 927      BINDING AFFINITY PREDICTED BY RF-SCORE:    0.00 PKD
ROOT
HETATM    1  N   UNL     1     -11.382   4.646  65.159  1.00  0.00    -1.090 NA 
HETATM    2  C   UNL     1     -10.010   4.411  65.592  1.00  0.00    -0.236 C  
HETATM    3  H2  UNL     1     -11.462   5.489  64.589  1.00  0.00     0.000 HD 
HETATM    4  H1  UNL     1     -11.751   3.826  64.677  1.00  0.00     0.000 HD 
ENDROOT
BRANCH   2   5
HETATM    5  C   UNL     1      -9.458   5.639  66.314  1.00  0.00    -0.171 C  
BRANCH   5   6
HETATM    6  C   UNL     1     -10.485   6.184  67.308  1.00  0.00    -0.255 C  
BRANCH   6   7
HETATM    7  N   UNL     1     -10.970   7.487  66.856  1.00  0.00    -0.537 NA 
HETATM    8  H   UNL     1     -11.567   7.928  67.555  1.00  0.00     0.000 HD 
BRANCH   7   9
HETATM    9  C   UNL     1      -9.856   8.358  66.467  1.00  0.00    -0.268 C  
BRANCH   9  10
HETATM   10  C   UNL     1     -10.283   9.827  66.441  1.00  0.00    -0.217 C  
BRANCH  10  11
HETATM   11  S   UNL     1     -10.154  10.555  64.776  1.00  0.00    -0.294 SA 
HETATM   12  P   UNL     1     -11.051  12.385  65.098  1.00  0.00    -0.332 P  
HETATM   13  O   UNL     1     -11.196  13.158  63.703  1.00  0.00    -0.355 OA 
HETATM   14  O   UNL     1     -12.351  12.263  65.827  1.00  0.00    -0.622 OA 
HETATM   15  O   UNL     1     -10.034  13.356  65.857  1.00  0.00    -0.289 OA 
ENDBRANCH  10  11
ENDBRANCH   9  10
ENDBRANCH   7   9
ENDBRANCH   6   7
ENDBRANCH   5   6
ENDBRANCH   2   5
TORSDOF 6
ENDMDL
MODEL       65
REMARK 921   NORMALIZED FREE ENERGY PREDICTED BY IDOCK:   -3.63 KCAL/MOL
REMARK 922        TOTAL FREE ENERGY PREDICTED BY IDOCK:   -4.98 KCAL/MOL
REMARK 923 INTER-LIGAND FREE ENERGY PREDICTED BY IDOCK:   -3.90 KCAL/MOL
REMARK 924 INTRA-LIGAND FREE ENERGY PREDICTED BY IDOCK:   -1.09 KCAL/MOL
REMARK 927      BINDING AFFINITY PREDICTED BY RF-SCORE:    0.00 PKD
ROOT
HETATM    1  N   UNL     1     -13.532   7.610  71.867  1.00  0.00    -0.489 NA 
HETATM    2  C   UNL     1     -13.074   8.847  72.487  1.00  0.00    -0.364 C  
HETATM    3  H2  UNL     1     -13.209   7.526  70.902  1.00  0.00     0.000 HD 
HETATM    4  H1  UNL     1     -13.259   6.804  72.429  1.00  0.00     0.000 HD 
ENDROOT
BRANCH   2   5
HETATM    5  C   UNL     1     -13.484  10.053  71.645  1.00  0.00    -0.398 C  
BRANCH   5   6
HETATM    6  C   UNL     1     -12.292  10.580  70.845  1.00  0.00    -0.390 C  
BRANCH   6   7
HETATM    7  N   UNL     1     -11.715   9.501  70.045  1.00  0.00    -0.456 NA 
HETATM    8  H   UNL     1     -12.160   9.433  69.130  1.00  0.00     0.000 HD 
BRANCH   7   9
HETATM    9  C   UNL     1     -10.261   9.650  69.930  1.00  0.00    -0.245 C  
BRANCH   9  10
HETATM   10  C   UNL     1      -9.531   8.808  70.978  1.00  0.00    -0.228 C  
BRANCH  10  11
HETATM   11  S   UNL     1      -8.865   7.261  70.281  1.00  0.00    -0.148 SA 
HETATM   12  P   UNL     1     -10.433   5.976  70.657  1.00  0.00    -0.281 P  
HETATM   13  O   UNL     1     -10.004   4.484  70.261  1.00  0.00    -0.226 OA 
HETATM   14  O   UNL     1     -10.931   6.078  72.063  1.00  0.00    -0.240 OA 
HETATM   15  O   UNL     1     -11.601   6.227  69.595  1.00  0.00    -0.430 OA 
ENDBRANCH  10  11
ENDBRANCH   9  10
ENDBRANCH   7   9
ENDBRANCH   6   7
ENDBRANCH   5   6
ENDBRANCH   2   5
TORSDOF 6
ENDMDL
MODEL       66
REMARK 921   NORMALIZED FREE ENERGY PREDICTED BY IDOCK:   -3.62 KCAL/MOL
REMARK 922        TOTAL FREE ENERGY PREDICTED BY IDOCK:   -4.97 KCAL/MOL
REMARK 923 INTER-LIGAND FREE ENERGY PREDICTED BY IDOCK:   -4.68 KCAL/MOL
REMARK 924 INTRA-LIGAND FREE ENERGY PREDICTED BY IDOCK:   -0.29 KCAL/MOL
REMARK 927      BINDING AFFINITY PREDICTED BY RF-SCORE:    0.00 PKD
ROOT
HETATM    1  N   UNL     1     -11.399   5.013  65.508  1.00  0.00    -0.856 NA 
HETATM    2  C   UNL     1     -10.241   4.610  66.296  1.00  0.00    -0.275 C  
HETATM    3  H2  UNL     1     -11.219   5.868  64.980  1.00  0.00     0.000 HD 
HETATM    4  H1  UNL     1     -11.704   4.251  64.903  1.00  0.00     0.000 HD 
ENDROOT
BRANCH   2   5
HETATM    5  C   UNL     1      -9.785   5.751  67.203  1.00  0.00    -0.147 C  
BRANCH   5   6
HETATM    6  C   UNL     1     -10.639   6.998  66.968  1.00  0.00    -0.341 C  
BRANCH   6   7
HETATM    7  N   UNL     1      -9.904   7.956  66.145  1.00  0.00    -0.464 NA 
HETATM    8  H   UNL     1      -9.996   7.747  65.151  1.00  0.00     0.000 HD 
BRANCH   7   9
HETATM    9  C   UNL     1     -10.311   9.332  66.448  1.00  0.00    -0.168 C  
BRANCH   9  10
HETATM   10  C   UNL     1      -9.960  10.281  65.301  1.00  0.00    -0.317 C  
BRANCH  10  11
HETATM   11  S   UNL     1      -9.684  11.989  65.875  1.00  0.00    -0.225 SA 
HETATM   12  P   UNL     1     -11.620  12.558  66.300  1.00  0.00    -0.384 P  
HETATM   13  O   UNL     1     -11.645  14.112  66.684  1.00  0.00    -0.349 OA 
HETATM   14  O   UNL     1     -12.570  12.222  65.195  1.00  0.00    -0.585 OA 
HETATM   15  O   UNL     1     -12.077  11.915  67.690  1.00  0.00    -0.568 OA 
ENDBRANCH  10  11
ENDBRANCH   9  10
ENDBRANCH   7   9
ENDBRANCH   6   7
ENDBRANCH   5   6
ENDBRANCH   2   5
TORSDOF 6
ENDMDL
MODEL       67
REMARK 921   NORMALIZED FREE ENERGY PREDICTED BY IDOCK:   -3.61 KCAL/MOL
REMARK 922        TOTAL FREE ENERGY PREDICTED BY IDOCK:   -4.96 KCAL/MOL
REMARK 923 INTER-LIGAND FREE ENERGY PREDICTED BY IDOCK:   -4.55 KCAL/MOL
REMARK 924 INTRA-LIGAND FREE ENERGY PREDICTED BY IDOCK:   -0.42 KCAL/MOL
REMARK 927      BINDING AFFINITY PREDICTED BY RF-SCORE:    0.00 PKD
ROOT
HETATM    1  N   UNL     1     -11.925  11.531  63.073  1.00  0.00    -0.908 NA 
HETATM    2  C   UNL     1     -10.540  11.844  63.404  1.00  0.00    -0.430 C  
HETATM    3  H2  UNL     1     -12.442  12.360  62.780  1.00  0.00     0.000 HD 
HETATM    4  H1  UNL     1     -11.967  10.791  62.372  1.00  0.00     0.000 HD 
ENDROOT
BRANCH   2   5
HETATM    5  C   UNL     1     -10.478  12.952  64.454  1.00  0.00    -0.419 C  
BRANCH   5   6
HETATM    6  C   UNL     1     -11.880  13.287  64.965  1.00  0.00    -0.352 C  
BRANCH   6   7
HETATM    7  N   UNL     1     -12.247  12.373  66.044  1.00  0.00    -0.624 NA 
HETATM    8  H   UNL     1     -12.630  11.499  65.682  1.00  0.00     0.000 HD 
BRANCH   7   9
HETATM    9  C   UNL     1     -11.112  12.135  66.943  1.00  0.00    -0.297 C  
BRANCH   9  10
HETATM   10  C   UNL     1     -11.046  10.670  67.378  1.00  0.00    -0.272 C  
BRANCH  10  11
HETATM   11  S   UNL     1      -9.632  10.339  68.480  1.00  0.00    -0.168 SA 
HETATM   12  P   UNL     1     -10.608   9.529  70.107  1.00  0.00    -0.296 P  
HETATM   13  O   UNL     1      -9.559   9.297  71.295  1.00  0.00    -0.271 OA 
HETATM   14  O   UNL     1     -11.787  10.345  70.531  1.00  0.00    -0.284 OA 
HETATM   15  O   UNL     1     -11.017   8.017  69.791  1.00  0.00    -0.227 OA 
ENDBRANCH  10  11
ENDBRANCH   9  10
ENDBRANCH   7   9
ENDBRANCH   6   7
ENDBRANCH   5   6
ENDBRANCH   2   5
TORSDOF 6
ENDMDL
MODEL       68
REMARK 921   NORMALIZED FREE ENERGY PREDICTED BY IDOCK:   -3.61 KCAL/MOL
REMARK 922        TOTAL FREE ENERGY PREDICTED BY IDOCK:   -4.96 KCAL/MOL
REMARK 923 INTER-LIGAND FREE ENERGY PREDICTED BY IDOCK:   -4.55 KCAL/MOL
REMARK 924 INTRA-LIGAND FREE ENERGY PREDICTED BY IDOCK:   -0.41 KCAL/MOL
REMARK 927      BINDING AFFINITY PREDICTED BY RF-SCORE:    0.00 PKD
ROOT
HETATM    1  N   UNL     1     -13.184  15.273  73.496  1.00  0.00    -0.599 NA 
HETATM    2  C   UNL     1     -14.102  14.733  72.500  1.00  0.00    -0.361 C  
HETATM    3  H2  UNL     1     -13.169  16.293  73.485  1.00  0.00     0.000 HD 
HETATM    4  H1  UNL     1     -13.404  14.907  74.422  1.00  0.00     0.000 HD 
ENDROOT
BRANCH   2   5
HETATM    5  C   UNL     1     -13.772  15.281  71.113  1.00  0.00    -0.519 C  
BRANCH   5   6
HETATM    6  C   UNL     1     -12.910  14.287  70.335  1.00  0.00    -0.218 C  
BRANCH   6   7
HETATM    7  N   UNL     1     -11.502  14.477  70.677  1.00  0.00    -0.476 NA 
HETATM    8  H   UNL     1     -10.892  13.919  70.079  1.00  0.00     0.000 HD 
BRANCH   7   9
HETATM    9  C   UNL     1     -11.138  15.897  70.645  1.00  0.00    -0.346 C  
BRANCH   9  10
HETATM   10  C   UNL     1      -9.959  16.148  69.704  1.00  0.00    -0.179 C  
BRANCH  10  11
HETATM   11  S   UNL     1     -10.419  17.196  68.284  1.00  0.00    -0.384 SA 
HETATM   12  P   UNL     1     -10.184  15.852  66.737  1.00  0.00    -0.295 P  
HETATM   13  O   UNL     1     -10.388  16.609  65.340  1.00  0.00    -0.584 OA 
HETATM   14  O   UNL     1      -8.884  15.117  66.810  1.00  0.00    -0.236 OA 
HETATM   15  O   UNL     1     -11.430  14.850  66.701  1.00  0.00    -0.349 OA 
ENDBRANCH  10  11
ENDBRANCH   9  10
ENDBRANCH   7   9
ENDBRANCH   6   7
ENDBRANCH   5   6
ENDBRANCH   2   5
TORSDOF 6
ENDMDL
MODEL       69
REMARK 921   NORMALIZED FREE ENERGY PREDICTED BY IDOCK:   -3.60 KCAL/MOL
REMARK 922        TOTAL FREE ENERGY PREDICTED BY IDOCK:   -4.95 KCAL/MOL
REMARK 923 INTER-LIGAND FREE ENERGY PREDICTED BY IDOCK:   -4.54 KCAL/MOL
REMARK 924 INTRA-LIGAND FREE ENERGY PREDICTED BY IDOCK:   -0.41 KCAL/MOL
REMARK 927      BINDING AFFINITY PREDICTED BY RF-SCORE:    0.00 PKD
ROOT
HETATM    1  N   UNL     1     -11.781   7.383  69.921  1.00  0.00    -0.498 NA 
HETATM    2  C   UNL     1     -12.201   6.859  71.214  1.00  0.00    -0.380 C  
HETATM    3  H2  UNL     1     -10.797   7.656  69.923  1.00  0.00     0.000 HD 
HETATM    4  H1  UNL     1     -11.986   6.713  69.179  1.00  0.00     0.000 HD 
ENDROOT
BRANCH   2   5
HETATM    5  C   UNL     1     -11.894   7.862  72.324  1.00  0.00    -0.404 C  
BRANCH   5   6
HETATM    6  C   UNL     1     -11.559   9.232  71.733  1.00  0.00    -0.388 C  
BRANCH   6   7
HETATM    7  N   UNL     1     -12.790   9.972  71.466  1.00  0.00    -0.396 NA 
HETATM    8  H   UNL     1     -13.361  10.067  72.306  1.00  0.00     0.000 HD 
BRANCH   7   9
HETATM    9  C   UNL     1     -12.501  11.275  70.859  1.00  0.00    -0.394 C  
BRANCH   9  10
HETATM   10  C   UNL     1     -12.011  11.120  69.418  1.00  0.00    -0.349 C  
BRANCH  10  11
HETATM   11  S   UNL     1     -11.223  12.638  68.787  1.00  0.00    -0.297 SA 
HETATM   12  P   UNL     1     -10.947  12.122  66.809  1.00  0.00    -0.313 P  
HETATM   13  O   UNL     1     -10.110  13.271  66.073  1.00  0.00    -0.288 OA 
HETATM   14  O   UNL     1     -10.331  10.769  66.653  1.00  0.00    -0.225 OA 
HETATM   15  O   UNL     1     -12.335  12.236  66.025  1.00  0.00    -0.609 OA 
ENDBRANCH  10  11
ENDBRANCH   9  10
ENDBRANCH   7   9
ENDBRANCH   6   7
ENDBRANCH   5   6
ENDBRANCH   2   5
TORSDOF 6
ENDMDL
MODEL       70
REMARK 921   NORMALIZED FREE ENERGY PREDICTED BY IDOCK:   -3.59 KCAL/MOL
REMARK 922        TOTAL FREE ENERGY PREDICTED BY IDOCK:   -4.94 KCAL/MOL
REMARK 923 INTER-LIGAND FREE ENERGY PREDICTED BY IDOCK:   -4.60 KCAL/MOL
REMARK 924 INTRA-LIGAND FREE ENERGY PREDICTED BY IDOCK:   -0.34 KCAL/MOL
REMARK 927      BINDING AFFINITY PREDICTED BY RF-SCORE:    0.00 PKD
ROOT
HETATM    1  N   UNL     1     -12.015  15.865  63.824  1.00  0.00    -1.266 NA 
HETATM    2  C   UNL     1     -12.142  14.505  64.332  1.00  0.00    -0.472 C  
HETATM    3  H2  UNL     1     -11.511  15.894  62.937  1.00  0.00     0.000 HD 
HETATM    4  H1  UNL     1     -12.931  16.309  63.754  1.00  0.00     0.000 HD 
ENDROOT
BRANCH   2   5
HETATM    5  C   UNL     1     -10.771  13.841  64.437  1.00  0.00    -0.333 C  
BRANCH   5   6
HETATM    6  C   UNL     1     -10.559  13.264  65.837  1.00  0.00    -0.281 C  
BRANCH   6   7
HETATM    7  N   UNL     1      -9.292  13.742  66.384  1.00  0.00    -0.433 NA 
HETATM    8  H   UNL     1      -8.502  13.204  66.027  1.00  0.00     0.000 HD 
BRANCH   7   9
HETATM    9  C   UNL     1      -9.121  15.178  66.143  1.00  0.00    -0.241 C  
BRANCH   9  10
HETATM   10  C   UNL     1      -8.436  15.863  67.327  1.00  0.00    -0.184 C  
BRANCH  10  11
HETATM   11  S   UNL     1      -8.702  14.968  68.893  1.00  0.00    -0.196 SA 
HETATM   12  P   UNL     1     -10.588  15.641  69.391  1.00  0.00    -0.304 P  
HETATM   13  O   UNL     1     -10.979  15.096  70.845  1.00  0.00    -0.283 OA 
HETATM   14  O   UNL     1     -10.712  17.126  69.280  1.00  0.00    -0.300 OA 
HETATM   15  O   UNL     1     -11.680  14.886  68.502  1.00  0.00    -0.306 OA 
ENDBRANCH  10  11
ENDBRANCH   9  10
ENDBRANCH   7   9
ENDBRANCH   6   7
ENDBRANCH   5   6
ENDBRANCH   2   5
TORSDOF 6
ENDMDL
MODEL       71
REMARK 921   NORMALIZED FREE ENERGY PREDICTED BY IDOCK:   -3.59 KCAL/MOL
REMARK 922        TOTAL FREE ENERGY PREDICTED BY IDOCK:   -4.94 KCAL/MOL
REMARK 923 INTER-LIGAND FREE ENERGY PREDICTED BY IDOCK:   -4.34 KCAL/MOL
REMARK 924 INTRA-LIGAND FREE ENERGY PREDICTED BY IDOCK:   -0.59 KCAL/MOL
REMARK 927      BINDING AFFINITY PREDICTED BY RF-SCORE:    0.00 PKD
ROOT
HETATM    1  N   UNL     1     -14.292   8.937  73.097  1.00  0.00    -1.145 NA 
HETATM    2  C   UNL     1     -13.785   8.829  71.734  1.00  0.00    -0.419 C  
HETATM    3  H2  UNL     1     -13.677   8.476  73.768  1.00  0.00     0.000 HD 
HETATM    4  H1  UNL     1     -14.457   9.913  73.341  1.00  0.00     0.000 HD 
ENDROOT
BRANCH   2   5
HETATM    5  C   UNL     1     -13.539   7.366  71.368  1.00  0.00    -0.410 C  
BRANCH   5   6
HETATM    6  C   UNL     1     -12.139   6.932  71.803  1.00  0.00    -0.346 C  
BRANCH   6   7
HETATM    7  N   UNL     1     -11.727   7.692  72.982  1.00  0.00    -0.616 NA 
HETATM    8  H   UNL     1     -12.064   7.262  73.843  1.00  0.00     0.000 HD 
BRANCH   7   9
HETATM    9  C   UNL     1     -10.273   7.882  73.005  1.00  0.00    -0.327 C  
BRANCH   9  10
HETATM   10  C   UNL     1      -9.610   7.241  71.785  1.00  0.00    -0.150 C  
BRANCH  10  11
HETATM   11  S   UNL     1      -8.562   8.418  70.869  1.00  0.00    -0.160 SA 
HETATM   12  P   UNL     1      -9.972   9.300  69.648  1.00  0.00    -0.219 P  
HETATM   13  O   UNL     1      -9.241  10.284  68.617  1.00  0.00    -0.145 OA 
HETATM   14  O   UNL     1     -10.845   8.296  68.965  1.00  0.00    -0.131 OA 
HETATM   15  O   UNL     1     -10.828  10.354  70.489  1.00  0.00    -0.276 OA 
ENDBRANCH  10  11
ENDBRANCH   9  10
ENDBRANCH   7   9
ENDBRANCH   6   7
ENDBRANCH   5   6
ENDBRANCH   2   5
TORSDOF 6
ENDMDL
MODEL       72
REMARK 921   NORMALIZED FREE ENERGY PREDICTED BY IDOCK:   -3.58 KCAL/MOL
REMARK 922        TOTAL FREE ENERGY PREDICTED BY IDOCK:   -4.92 KCAL/MOL
REMARK 923 INTER-LIGAND FREE ENERGY PREDICTED BY IDOCK:   -4.62 KCAL/MOL
REMARK 924 INTRA-LIGAND FREE ENERGY PREDICTED BY IDOCK:   -0.30 KCAL/MOL
REMARK 927      BINDING AFFINITY PREDICTED BY RF-SCORE:    0.00 PKD
ROOT
HETATM    1  N   UNL     1     -11.450   6.654  69.142  1.00  0.00    -0.618 NA 
HETATM    2  C   UNL     1     -11.551   6.364  70.567  1.00  0.00    -0.358 C  
HETATM    3  H2  UNL     1     -11.060   7.581  68.971  1.00  0.00     0.000 HD 
HETATM    4  H1  UNL     1     -10.920   5.925  68.665  1.00  0.00     0.000 HD 
ENDROOT
BRANCH   2   5
HETATM    5  C   UNL     1     -12.345   7.455  71.282  1.00  0.00    -0.380 C  
BRANCH   5   6
HETATM    6  C   UNL     1     -11.553   8.762  71.314  1.00  0.00    -0.292 C  
BRANCH   6   7
HETATM    7  N   UNL     1     -11.630   9.423  70.013  1.00  0.00    -0.445 NA 
HETATM    8  H   UNL     1     -12.549   9.305  69.586  1.00  0.00     0.000 HD 
BRANCH   7   9
HETATM    9  C   UNL     1     -11.259  10.838  70.116  1.00  0.00    -0.267 C  
BRANCH   9  10
HETATM   10  C   UNL     1     -12.328  11.639  70.861  1.00  0.00    -0.336 C  
BRANCH  10  11
HETATM   11  S   UNL     1     -12.645  13.258  70.085  1.00  0.00     0.049 SA 
HETATM   12  P   UNL     1     -13.311  14.330  71.716  1.00  0.00    -0.433 P  
HETATM   13  O   UNL     1     -13.809  15.774  71.235  1.00  0.00    -0.547 OA 
HETATM   14  O   UNL     1     -14.351  13.593  72.499  1.00  0.00    -0.707 OA 
HETATM   15  O   UNL     1     -12.068  14.748  72.629  1.00  0.00    -0.285 OA 
ENDBRANCH  10  11
ENDBRANCH   9  10
ENDBRANCH   7   9
ENDBRANCH   6   7
ENDBRANCH   5   6
ENDBRANCH   2   5
TORSDOF 6
ENDMDL
MODEL       73
REMARK 921   NORMALIZED FREE ENERGY PREDICTED BY IDOCK:   -3.58 KCAL/MOL
REMARK 922        TOTAL FREE ENERGY PREDICTED BY IDOCK:   -4.92 KCAL/MOL
REMARK 923 INTER-LIGAND FREE ENERGY PREDICTED BY IDOCK:   -4.43 KCAL/MOL
REMARK 924 INTRA-LIGAND FREE ENERGY PREDICTED BY IDOCK:   -0.49 KCAL/MOL
REMARK 927      BINDING AFFINITY PREDICTED BY RF-SCORE:    0.00 PKD
ROOT
HETATM    1  N   UNL     1     -13.152  12.591  64.680  1.00  0.00    -0.837 NA 
HETATM    2  C   UNL     1     -12.384  12.027  63.576  1.00  0.00    -0.551 C  
HETATM    3  H2  UNL     1     -13.183  13.610  64.639  1.00  0.00     0.000 HD 
HETATM    4  H1  UNL     1     -14.087  12.184  64.711  1.00  0.00     0.000 HD 
ENDROOT
BRANCH   2   5
HETATM    5  C   UNL     1     -10.985  12.636  63.530  1.00  0.00    -0.413 C  
BRANCH   5   6
HETATM    6  C   UNL     1     -10.758  13.553  64.733  1.00  0.00    -0.401 C  
BRANCH   6   7
HETATM    7  N   UNL     1     -11.070  14.934  64.370  1.00  0.00    -0.645 NA 
HETATM    8  H   UNL     1     -11.916  14.992  63.803  1.00  0.00     0.000 HD 
BRANCH   7   9
HETATM    9  C   UNL     1     -11.158  15.785  65.561  1.00  0.00    -0.190 C  
BRANCH   9  10
HETATM   10  C   UNL     1     -11.214  14.947  66.840  1.00  0.00    -0.343 C  
BRANCH  10  11
HETATM   11  S   UNL     1     -10.500  15.820  68.271  1.00  0.00    -0.268 SA 
HETATM   12  P   UNL     1      -8.512  15.871  67.724  1.00  0.00    -0.164 P  
HETATM   13  O   UNL     1      -7.644  16.470  68.930  1.00  0.00    -0.214 OA 
HETATM   14  O   UNL     1      -8.013  14.541  67.260  1.00  0.00    -0.193 OA 
HETATM   15  O   UNL     1      -8.287  17.007  66.622  1.00  0.00    -0.208 OA 
ENDBRANCH  10  11
ENDBRANCH   9  10
ENDBRANCH   7   9
ENDBRANCH   6   7
ENDBRANCH   5   6
ENDBRANCH   2   5
TORSDOF 6
ENDMDL
MODEL       74
REMARK 921   NORMALIZED FREE ENERGY PREDICTED BY IDOCK:   -3.58 KCAL/MOL
REMARK 922        TOTAL FREE ENERGY PREDICTED BY IDOCK:   -4.91 KCAL/MOL
REMARK 923 INTER-LIGAND FREE ENERGY PREDICTED BY IDOCK:   -4.43 KCAL/MOL
REMARK 924 INTRA-LIGAND FREE ENERGY PREDICTED BY IDOCK:   -0.48 KCAL/MOL
REMARK 927      BINDING AFFINITY PREDICTED BY RF-SCORE:    0.00 PKD
ROOT
HETATM    1  N   UNL     1     -12.118   7.083  70.180  1.00  0.00    -0.623 NA 
HETATM    2  C   UNL     1     -12.137   6.603  71.556  1.00  0.00    -0.355 C  
HETATM    3  H2  UNL     1     -11.173   7.312  69.870  1.00  0.00     0.000 HD 
HETATM    4  H1  UNL     1     -12.568   6.410  69.560  1.00  0.00     0.000 HD 
ENDROOT
BRANCH   2   5
HETATM    5  C   UNL     1     -11.463   7.612  72.485  1.00  0.00    -0.405 C  
BRANCH   5   6
HETATM    6  C   UNL     1     -11.413   8.993  71.832  1.00  0.00    -0.370 C  
BRANCH   6   7
HETATM    7  N   UNL     1     -12.701   9.664  71.991  1.00  0.00    -0.390 NA 
HETATM    8  H   UNL     1     -12.848   9.973  72.952  1.00  0.00     0.000 HD 
BRANCH   7   9
HETATM    9  C   UNL     1     -12.840  10.772  71.039  1.00  0.00    -0.385 C  
BRANCH   9  10
HETATM   10  C   UNL     1     -11.537  11.014  70.276  1.00  0.00    -0.322 C  
BRANCH  10  11
HETATM   11  S   UNL     1     -11.829  11.490  68.541  1.00  0.00    -0.238 SA 
HETATM   12  P   UNL     1     -11.675  13.542  68.684  1.00  0.00    -0.374 P  
HETATM   13  O   UNL     1     -12.058  14.203  67.277  1.00  0.00    -0.417 OA 
HETATM   14  O   UNL     1     -12.475  14.097  69.818  1.00  0.00    -0.332 OA 
HETATM   15  O   UNL     1     -10.135  13.959  68.784  1.00  0.00    -0.221 OA 
ENDBRANCH  10  11
ENDBRANCH   9  10
ENDBRANCH   7   9
ENDBRANCH   6   7
ENDBRANCH   5   6
ENDBRANCH   2   5
TORSDOF 6
ENDMDL
MODEL       75
REMARK 921   NORMALIZED FREE ENERGY PREDICTED BY IDOCK:   -3.57 KCAL/MOL
REMARK 922        TOTAL FREE ENERGY PREDICTED BY IDOCK:   -4.91 KCAL/MOL
REMARK 923 INTER-LIGAND FREE ENERGY PREDICTED BY IDOCK:   -4.54 KCAL/MOL
REMARK 924 INTRA-LIGAND FREE ENERGY PREDICTED BY IDOCK:   -0.37 KCAL/MOL
REMARK 927      BINDING AFFINITY PREDICTED BY RF-SCORE:    0.00 PKD
ROOT
HETATM    1  N   UNL     1     -12.577  10.506  69.163  1.00  0.00    -0.603 NA 
HETATM    2  C   UNL     1     -11.305  10.048  69.710  1.00  0.00    -0.228 C  
HETATM    3  H2  UNL     1     -13.047   9.774  68.630  1.00  0.00     0.000 HD 
HETATM    4  H1  UNL     1     -13.172  10.877  69.904  1.00  0.00     0.000 HD 
ENDROOT
BRANCH   2   5
HETATM    5  C   UNL     1     -10.414   9.493  68.600  1.00  0.00    -0.237 C  
BRANCH   5   6
HETATM    6  C   UNL     1     -10.802  10.094  67.249  1.00  0.00    -0.230 C  
BRANCH   6   7
HETATM    7  N   UNL     1     -10.131  11.379  67.066  1.00  0.00    -0.204 NA 
HETATM    8  H   UNL     1      -9.447  11.554  67.802  1.00  0.00     0.000 HD 
BRANCH   7   9
HETATM    9  C   UNL     1      -9.526  11.474  65.733  1.00  0.00    -0.234 C  
BRANCH   9  10
HETATM   10  C   UNL     1     -10.432  10.855  64.667  1.00  0.00    -0.314 C  
BRANCH  10  11
HETATM   11  S   UNL     1     -11.032  12.089  63.468  1.00  0.00    -0.438 SA 
HETATM   12  P   UNL     1     -11.749  13.538  64.749  1.00  0.00    -0.415 P  
HETATM   13  O   UNL     1     -12.483  14.681  63.900  1.00  0.00    -0.813 OA 
HETATM   14  O   UNL     1     -12.618  12.971  65.824  1.00  0.00    -0.500 OA 
HETATM   15  O   UNL     1     -10.527  14.374  65.353  1.00  0.00    -0.326 OA 
ENDBRANCH  10  11
ENDBRANCH   9  10
ENDBRANCH   7   9
ENDBRANCH   6   7
ENDBRANCH   5   6
ENDBRANCH   2   5
TORSDOF 6
ENDMDL
MODEL       76
REMARK 921   NORMALIZED FREE ENERGY PREDICTED BY IDOCK:   -3.56 KCAL/MOL
REMARK 922        TOTAL FREE ENERGY PREDICTED BY IDOCK:   -4.89 KCAL/MOL
REMARK 923 INTER-LIGAND FREE ENERGY PREDICTED BY IDOCK:   -4.57 KCAL/MOL
REMARK 924 INTRA-LIGAND FREE ENERGY PREDICTED BY IDOCK:   -0.32 KCAL/MOL
REMARK 927      BINDING AFFINITY PREDICTED BY RF-SCORE:    0.00 PKD
ROOT
HETATM    1  N   UNL     1     -12.095   7.712  72.754  1.00  0.00    -0.588 NA 
HETATM    2  C   UNL     1     -12.505   6.731  71.757  1.00  0.00    -0.349 C  
HETATM    3  H2  UNL     1     -12.188   8.667  72.408  1.00  0.00     0.000 HD 
HETATM    4  H1  UNL     1     -12.607   7.573  73.625  1.00  0.00     0.000 HD 
ENDROOT
BRANCH   2   5
HETATM    5  C   UNL     1     -11.738   6.940  70.452  1.00  0.00    -0.377 C  
BRANCH   5   6
HETATM    6  C   UNL     1     -11.013   8.286  70.465  1.00  0.00    -0.242 C  
BRANCH   6   7
HETATM    7  N   UNL     1     -11.963   9.364  70.201  1.00  0.00    -0.460 NA 
HETATM    8  H   UNL     1     -12.644   9.458  70.954  1.00  0.00     0.000 HD 
BRANCH   7   9
HETATM    9  C   UNL     1     -11.266  10.629  69.943  1.00  0.00    -0.308 C  
BRANCH   9  10
HETATM   10  C   UNL     1     -11.737  11.265  68.634  1.00  0.00    -0.324 C  
BRANCH  10  11
HETATM   11  S   UNL     1     -10.382  12.096  67.742  1.00  0.00    -0.211 SA 
HETATM   12  P   UNL     1     -11.459  13.223  66.391  1.00  0.00    -0.363 P  
HETATM   13  O   UNL     1     -10.452  13.938  65.372  1.00  0.00    -0.311 OA 
HETATM   14  O   UNL     1     -12.514  12.425  65.694  1.00  0.00    -0.640 OA 
HETATM   15  O   UNL     1     -12.074  14.502  67.127  1.00  0.00    -0.397 OA 
ENDBRANCH  10  11
ENDBRANCH   9  10
ENDBRANCH   7   9
ENDBRANCH   6   7
ENDBRANCH   5   6
ENDBRANCH   2   5
TORSDOF 6
ENDMDL
MODEL       77
REMARK 921   NORMALIZED FREE ENERGY PREDICTED BY IDOCK:   -3.56 KCAL/MOL
REMARK 922        TOTAL FREE ENERGY PREDICTED BY IDOCK:   -4.89 KCAL/MOL
REMARK 923 INTER-LIGAND FREE ENERGY PREDICTED BY IDOCK:   -4.30 KCAL/MOL
REMARK 924 INTRA-LIGAND FREE ENERGY PREDICTED BY IDOCK:   -0.58 KCAL/MOL
REMARK 927      BINDING AFFINITY PREDICTED BY RF-SCORE:    0.00 PKD
ROOT
HETATM    1  N   UNL     1      -9.657   9.999  70.370  1.00  0.00    -0.366 NA 
HETATM    2  C   UNL     1     -10.690  10.501  69.472  1.00  0.00    -0.255 C  
HETATM    3  H2  UNL     1      -8.789  10.528  70.283  1.00  0.00     0.000 HD 
HETATM    4  H1  UNL     1      -9.996   9.983  71.332  1.00  0.00     0.000 HD 
ENDROOT
BRANCH   2   5
HETATM    5  C   UNL     1     -10.182  10.525  68.031  1.00  0.00    -0.195 C  
BRANCH   5   6
HETATM    6  C   UNL     1      -9.514  11.864  67.720  1.00  0.00    -0.184 C  
BRANCH   6   7
HETATM    7  N   UNL     1      -9.677  12.775  68.851  1.00  0.00    -0.405 NA 
HETATM    8  H   UNL     1      -8.813  12.870  69.385  1.00  0.00     0.000 HD 
BRANCH   7   9
HETATM    9  C   UNL     1     -10.185  14.078  68.409  1.00  0.00    -0.239 C  
BRANCH   9  10
HETATM   10  C   UNL     1      -9.687  14.421  67.004  1.00  0.00    -0.254 C  
BRANCH  10  11
HETATM   11  S   UNL     1     -10.995  15.154  65.966  1.00  0.00    -0.313 SA 
HETATM   12  P   UNL     1     -11.568  13.505  64.867  1.00  0.00    -0.374 P  
HETATM   13  O   UNL     1     -12.625  13.952  63.751  1.00  0.00    -0.721 OA 
HETATM   14  O   UNL     1     -10.401  12.767  64.293  1.00  0.00    -0.372 OA 
HETATM   15  O   UNL     1     -12.487  12.554  65.764  1.00  0.00    -0.626 OA 
ENDBRANCH  10  11
ENDBRANCH   9  10
ENDBRANCH   7   9
ENDBRANCH   6   7
ENDBRANCH   5   6
ENDBRANCH   2   5
TORSDOF 6
ENDMDL
MODEL       78
REMARK 921   NORMALIZED FREE ENERGY PREDICTED BY IDOCK:   -3.55 KCAL/MOL
REMARK 922        TOTAL FREE ENERGY PREDICTED BY IDOCK:   -4.88 KCAL/MOL
REMARK 923 INTER-LIGAND FREE ENERGY PREDICTED BY IDOCK:   -4.46 KCAL/MOL
REMARK 924 INTRA-LIGAND FREE ENERGY PREDICTED BY IDOCK:   -0.42 KCAL/MOL
REMARK 927      BINDING AFFINITY PREDICTED BY RF-SCORE:    0.00 PKD
ROOT
HETATM    1  N   UNL     1     -12.232  11.669  63.057  1.00  0.00    -0.951 NA 
HETATM    2  C   UNL     1     -11.336  12.707  63.552  1.00  0.00    -0.463 C  
HETATM    3  H2  UNL     1     -12.876  12.029  62.352  1.00  0.00     0.000 HD 
HETATM    4  H1  UNL     1     -11.699  10.871  62.711  1.00  0.00     0.000 HD 
ENDROOT
BRANCH   2   5
HETATM    5  C   UNL     1     -12.134  13.902  64.070  1.00  0.00    -0.437 C  
BRANCH   5   6
HETATM    6  C   UNL     1     -12.564  13.673  65.519  1.00  0.00    -0.496 C  
BRANCH   6   7
HETATM    7  N   UNL     1     -12.096  12.366  65.976  1.00  0.00    -0.638 NA 
HETATM    8  H   UNL     1     -11.303  12.037  65.424  1.00  0.00     0.000 HD 
BRANCH   7   9
HETATM    9  C   UNL     1     -11.785  12.389  67.409  1.00  0.00    -0.347 C  
BRANCH   9  10
HETATM   10  C   UNL     1     -10.829  13.532  67.752  1.00  0.00    -0.253 C  
BRANCH  10  11
HETATM   11  S   UNL     1      -9.300  13.478  66.762  1.00  0.00    -0.241 SA 
HETATM   12  P   UNL     1      -8.665  11.556  67.160  1.00  0.00    -0.171 P  
HETATM   13  O   UNL     1      -7.223  11.327  66.504  1.00  0.00    -0.139 OA 
HETATM   14  O   UNL     1      -8.692  11.237  68.620  1.00  0.00    -0.154 OA 
HETATM   15  O   UNL     1      -9.532  10.516  66.310  1.00  0.00    -0.168 OA 
ENDBRANCH  10  11
ENDBRANCH   9  10
ENDBRANCH   7   9
ENDBRANCH   6   7
ENDBRANCH   5   6
ENDBRANCH   2   5
TORSDOF 6
ENDMDL
MODEL       79
REMARK 921   NORMALIZED FREE ENERGY PREDICTED BY IDOCK:   -3.55 KCAL/MOL
REMARK 922        TOTAL FREE ENERGY PREDICTED BY IDOCK:   -4.87 KCAL/MOL
REMARK 923 INTER-LIGAND FREE ENERGY PREDICTED BY IDOCK:   -4.42 KCAL/MOL
REMARK 924 INTRA-LIGAND FREE ENERGY PREDICTED BY IDOCK:   -0.46 KCAL/MOL
REMARK 927      BINDING AFFINITY PREDICTED BY RF-SCORE:    0.00 PKD
ROOT
HETATM    1  N   UNL     1     -12.331  14.379  67.738  1.00  0.00    -0.603 NA 
HETATM    2  C   UNL     1     -11.859  13.362  66.806  1.00  0.00    -0.403 C  
HETATM    3  H2  UNL     1     -13.326  14.572  67.616  1.00  0.00     0.000 HD 
HETATM    4  H1  UNL     1     -12.111  14.115  68.698  1.00  0.00     0.000 HD 
ENDROOT
BRANCH   2   5
HETATM    5  C   UNL     1     -12.189  13.757  65.368  1.00  0.00    -0.465 C  
BRANCH   5   6
HETATM    6  C   UNL     1     -11.054  14.584  64.764  1.00  0.00    -0.391 C  
BRANCH   6   7
HETATM    7  N   UNL     1      -9.900  14.573  65.661  1.00  0.00    -0.452 NA 
HETATM    8  H   UNL     1      -9.214  13.871  65.383  1.00  0.00     0.000 HD 
BRANCH   7   9
HETATM    9  C   UNL     1      -9.298  15.906  65.762  1.00  0.00    -0.245 C  
BRANCH   9  10
HETATM   10  C   UNL     1      -9.978  16.742  66.847  1.00  0.00    -0.273 C  
BRANCH  10  11
HETATM   11  S   UNL     1      -8.808  17.295  68.131  1.00  0.00    -0.246 SA 
HETATM   12  P   UNL     1      -8.770  19.322  67.754  1.00  0.00    -0.322 P  
HETATM   13  O   UNL     1      -7.663  20.014  68.683  1.00  0.00    -0.241 OA 
HETATM   14  O   UNL     1      -8.580  19.630  66.304  1.00  0.00    -0.349 OA 
HETATM   15  O   UNL     1     -10.094  20.003  68.336  1.00  0.00    -0.427 OA 
ENDBRANCH  10  11
ENDBRANCH   9  10
ENDBRANCH   7   9
ENDBRANCH   6   7
ENDBRANCH   5   6
ENDBRANCH   2   5
TORSDOF 6
ENDMDL
MODEL       80
REMARK 921   NORMALIZED FREE ENERGY PREDICTED BY IDOCK:   -3.55 KCAL/MOL
REMARK 922        TOTAL FREE ENERGY PREDICTED BY IDOCK:   -4.87 KCAL/MOL
REMARK 923 INTER-LIGAND FREE ENERGY PREDICTED BY IDOCK:   -4.78 KCAL/MOL
REMARK 924 INTRA-LIGAND FREE ENERGY PREDICTED BY IDOCK:   -0.09 KCAL/MOL
REMARK 927      BINDING AFFINITY PREDICTED BY RF-SCORE:    0.00 PKD
ROOT
HETATM    1  N   UNL     1     -11.640  16.376  63.747  1.00  0.00    -1.515 NA 
HETATM    2  C   UNL     1     -11.015  15.679  64.865  1.00  0.00    -0.431 C  
HETATM    3  H2  UNL     1     -12.647  16.476  63.878  1.00  0.00     0.000 HD 
HETATM    4  H1  UNL     1     -11.188  17.276  63.588  1.00  0.00     0.000 HD 
ENDROOT
BRANCH   2   5
HETATM    5  C   UNL     1     -11.692  14.331  65.103  1.00  0.00    -0.368 C  
BRANCH   5   6
HETATM    6  C   UNL     1     -10.698  13.187  64.898  1.00  0.00    -0.346 C  
BRANCH   6   7
HETATM    7  N   UNL     1      -9.713  13.186  65.978  1.00  0.00    -0.404 NA 
HETATM    8  H   UNL     1      -9.141  14.031  65.965  1.00  0.00     0.000 HD 
BRANCH   7   9
HETATM    9  C   UNL     1     -10.359  12.990  67.280  1.00  0.00    -0.238 C  
BRANCH   9  10
HETATM   10  C   UNL     1     -11.178  11.699  67.305  1.00  0.00    -0.304 C  
BRANCH  10  11
HETATM   11  S   UNL     1     -10.633  10.559  68.618  1.00  0.00    -0.217 SA 
HETATM   12  P   UNL     1     -11.939  11.075  70.129  1.00  0.00    -0.402 P  
HETATM   13  O   UNL     1     -11.540  10.292  71.467  1.00  0.00    -0.273 OA 
HETATM   14  O   UNL     1     -12.024  12.554  70.329  1.00  0.00    -0.347 OA 
HETATM   15  O   UNL     1     -13.374  10.432  69.841  1.00  0.00     0.060 OA 
ENDBRANCH  10  11
ENDBRANCH   9  10
ENDBRANCH   7   9
ENDBRANCH   6   7
ENDBRANCH   5   6
ENDBRANCH   2   5
TORSDOF 6
ENDMDL
MODEL       81
REMARK 921   NORMALIZED FREE ENERGY PREDICTED BY IDOCK:   -3.53 KCAL/MOL
REMARK 922        TOTAL FREE ENERGY PREDICTED BY IDOCK:   -4.85 KCAL/MOL
REMARK 923 INTER-LIGAND FREE ENERGY PREDICTED BY IDOCK:   -4.56 KCAL/MOL
REMARK 924 INTRA-LIGAND FREE ENERGY PREDICTED BY IDOCK:   -0.28 KCAL/MOL
REMARK 927      BINDING AFFINITY PREDICTED BY RF-SCORE:    0.00 PKD
ROOT
HETATM    1  N   UNL     1     -10.123  10.285  64.747  1.00  0.00    -0.327 NA 
HETATM    2  C   UNL     1     -10.012  11.628  64.191  1.00  0.00    -0.277 C  
HETATM    3  H2  UNL     1     -10.331   9.593  64.027  1.00  0.00     0.000 HD 
HETATM    4  H1  UNL     1      -9.282  10.044  65.272  1.00  0.00     0.000 HD 
ENDROOT
BRANCH   2   5
HETATM    5  C   UNL     1     -11.271  11.989  63.405  1.00  0.00    -0.481 C  
BRANCH   5   6
HETATM    6  C   UNL     1     -12.286  12.690  64.308  1.00  0.00    -0.445 C  
BRANCH   6   7
HETATM    7  N   UNL     1     -12.409  14.094  63.921  1.00  0.00    -0.932 NA 
HETATM    8  H   UNL     1     -13.369  14.426  64.014  1.00  0.00     0.000 HD 
BRANCH   7   9
HETATM    9  C   UNL     1     -11.471  14.933  64.675  1.00  0.00    -0.379 C  
BRANCH   9  10
HETATM   10  C   UNL     1     -11.570  14.664  66.177  1.00  0.00    -0.332 C  
BRANCH  10  11
HETATM   11  S   UNL     1      -9.940  14.694  66.994  1.00  0.00    -0.250 SA 
HETATM   12  P   UNL     1     -10.055  16.497  67.990  1.00  0.00    -0.277 P  
HETATM   13  O   UNL     1      -8.641  16.819  68.671  1.00  0.00    -0.243 OA 
HETATM   14  O   UNL     1     -10.537  17.606  67.111  1.00  0.00    -0.339 OA 
HETATM   15  O   UNL     1     -10.966  16.334  69.293  1.00  0.00    -0.281 OA 
ENDBRANCH  10  11
ENDBRANCH   9  10
ENDBRANCH   7   9
ENDBRANCH   6   7
ENDBRANCH   5   6
ENDBRANCH   2   5
TORSDOF 6
ENDMDL
MODEL       82
REMARK 921   NORMALIZED FREE ENERGY PREDICTED BY IDOCK:   -3.51 KCAL/MOL
REMARK 922        TOTAL FREE ENERGY PREDICTED BY IDOCK:   -4.83 KCAL/MOL
REMARK 923 INTER-LIGAND FREE ENERGY PREDICTED BY IDOCK:   -4.38 KCAL/MOL
REMARK 924 INTRA-LIGAND FREE ENERGY PREDICTED BY IDOCK:   -0.45 KCAL/MOL
REMARK 927      BINDING AFFINITY PREDICTED BY RF-SCORE:    0.00 PKD
ROOT
HETATM    1  N   UNL     1     -11.837  15.568  63.904  1.00  0.00    -0.946 NA 
HETATM    2  C   UNL     1     -11.192  14.462  64.599  1.00  0.00    -0.360 C  
HETATM    3  H2  UNL     1     -11.156  16.206  63.492  1.00  0.00     0.000 HD 
HETATM    4  H1  UNL     1     -12.497  15.219  63.210  1.00  0.00     0.000 HD 
ENDROOT
BRANCH   2   5
HETATM    5  C   UNL     1     -10.203  14.985  65.639  1.00  0.00    -0.386 C  
BRANCH   5   6
HETATM    6  C   UNL     1     -10.939  15.429  66.904  1.00  0.00    -0.294 C  
BRANCH   6   7
HETATM    7  N   UNL     1     -12.117  14.590  67.113  1.00  0.00    -0.536 NA 
HETATM    8  H   UNL     1     -12.339  14.040  66.284  1.00  0.00     0.000 HD 
BRANCH   7   9
HETATM    9  C   UNL     1     -11.954  13.739  68.298  1.00  0.00    -0.357 C  
BRANCH   9  10
HETATM   10  C   UNL     1     -11.625  12.298  67.906  1.00  0.00    -0.354 C  
BRANCH  10  11
HETATM   11  S   UNL     1      -9.958  11.797  68.450  1.00  0.00    -0.195 SA 
HETATM   12  P   UNL     1     -10.408  10.080  69.500  1.00  0.00    -0.265 P  
HETATM   13  O   UNL     1      -9.085   9.534  70.218  1.00  0.00    -0.225 OA 
HETATM   14  O   UNL     1     -11.544  10.274  70.453  1.00  0.00    -0.280 OA 
HETATM   15  O   UNL     1     -10.691   8.884  68.478  1.00  0.00    -0.178 OA 
ENDBRANCH  10  11
ENDBRANCH   9  10
ENDBRANCH   7   9
ENDBRANCH   6   7
ENDBRANCH   5   6
ENDBRANCH   2   5
TORSDOF 6
ENDMDL
MODEL       83
REMARK 921   NORMALIZED FREE ENERGY PREDICTED BY IDOCK:   -3.46 KCAL/MOL
REMARK 922        TOTAL FREE ENERGY PREDICTED BY IDOCK:   -4.76 KCAL/MOL
REMARK 923 INTER-LIGAND FREE ENERGY PREDICTED BY IDOCK:   -4.27 KCAL/MOL
REMARK 924 INTRA-LIGAND FREE ENERGY PREDICTED BY IDOCK:   -0.49 KCAL/MOL
REMARK 927      BINDING AFFINITY PREDICTED BY RF-SCORE:    0.00 PKD
ROOT
HETATM    1  N   UNL     1     -10.898   8.556  67.770  1.00  0.00    -0.495 NA 
HETATM    2  C   UNL     1     -10.144   9.117  66.656  1.00  0.00    -0.273 C  
HETATM    3  H2  UNL     1     -11.896   8.753  67.690  1.00  0.00     0.000 HD 
HETATM    4  H1  UNL     1     -10.714   7.557  67.860  1.00  0.00     0.000 HD 
ENDROOT
BRANCH   2   5
HETATM    5  C   UNL     1     -10.419  10.614  66.522  1.00  0.00    -0.285 C  
BRANCH   5   6
HETATM    6  C   UNL     1     -11.241  11.117  67.708  1.00  0.00    -0.294 C  
BRANCH   6   7
HETATM    7  N   UNL     1     -11.963  12.331  67.333  1.00  0.00    -0.544 NA 
HETATM    8  H   UNL     1     -11.576  13.156  67.793  1.00  0.00     0.000 HD 
BRANCH   7   9
HETATM    9  C   UNL     1     -12.001  12.493  65.876  1.00  0.00    -0.409 C  
BRANCH   9  10
HETATM   10  C   UNL     1     -12.304  13.940  65.485  1.00  0.00    -0.480 C  
BRANCH  10  11
HETATM   11  S   UNL     1     -10.860  14.774  64.749  1.00  0.00    -0.321 SA 
HETATM   12  P   UNL     1      -9.795  15.249  66.451  1.00  0.00    -0.320 P  
HETATM   13  O   UNL     1      -8.530  16.147  66.053  1.00  0.00    -0.319 OA 
HETATM   14  O   UNL     1     -10.648  15.888  67.499  1.00  0.00    -0.302 OA 
HETATM   15  O   UNL     1      -9.055  13.945  67.004  1.00  0.00    -0.231 OA 
ENDBRANCH  10  11
ENDBRANCH   9  10
ENDBRANCH   7   9
ENDBRANCH   6   7
ENDBRANCH   5   6
ENDBRANCH   2   5
TORSDOF 6
ENDMDL
MODEL       84
REMARK 921   NORMALIZED FREE ENERGY PREDICTED BY IDOCK:   -3.46 KCAL/MOL
REMARK 922        TOTAL FREE ENERGY PREDICTED BY IDOCK:   -4.75 KCAL/MOL
REMARK 923 INTER-LIGAND FREE ENERGY PREDICTED BY IDOCK:   -4.35 KCAL/MOL
REMARK 924 INTRA-LIGAND FREE ENERGY PREDICTED BY IDOCK:   -0.40 KCAL/MOL
REMARK 927      BINDING AFFINITY PREDICTED BY RF-SCORE:    0.00 PKD
ROOT
HETATM    1  N   UNL     1     -13.020  13.672  65.420  1.00  0.00    -0.699 NA 
HETATM    2  C   UNL     1     -12.152  12.730  64.725  1.00  0.00    -0.432 C  
HETATM    3  H2  UNL     1     -12.904  14.624  65.071  1.00  0.00     0.000 HD 
HETATM    4  H1  UNL     1     -13.992  13.367  65.372  1.00  0.00     0.000 HD 
ENDROOT
BRANCH   2   5
HETATM    5  C   UNL     1     -10.696  13.188  64.798  1.00  0.00    -0.381 C  
BRANCH   5   6
HETATM    6  C   UNL     1     -10.592  14.533  65.518  1.00  0.00    -0.351 C  
BRANCH   6   7
HETATM    7  N   UNL     1     -10.606  15.620  64.542  1.00  0.00    -0.682 NA 
HETATM    8  H   UNL     1     -11.399  15.543  63.904  1.00  0.00     0.000 HD 
BRANCH   7   9
HETATM    9  C   UNL     1     -10.574  16.927  65.207  1.00  0.00    -0.120 C  
BRANCH   9  10
HETATM   10  C   UNL     1     -10.509  16.774  66.728  1.00  0.00    -0.258 C  
BRANCH  10  11
HETATM   11  S   UNL     1     -10.160  18.354  67.568  1.00  0.00    -0.377 SA 
HETATM   12  P   UNL     1      -8.176  18.613  67.069  1.00  0.00    -0.268 P  
HETATM   13  O   UNL     1      -7.595  19.889  67.843  1.00  0.00    -0.290 OA 
HETATM   14  O   UNL     1      -7.363  17.379  67.301  1.00  0.00    -0.162 OA 
HETATM   15  O   UNL     1      -8.063  19.121  65.558  1.00  0.00    -0.334 OA 
ENDBRANCH  10  11
ENDBRANCH   9  10
ENDBRANCH   7   9
ENDBRANCH   6   7
ENDBRANCH   5   6
ENDBRANCH   2   5
TORSDOF 6
ENDMDL
MODEL       85
REMARK 921   NORMALIZED FREE ENERGY PREDICTED BY IDOCK:   -3.45 KCAL/MOL
REMARK 922        TOTAL FREE ENERGY PREDICTED BY IDOCK:   -4.74 KCAL/MOL
REMARK 923 INTER-LIGAND FREE ENERGY PREDICTED BY IDOCK:   -3.99 KCAL/MOL
REMARK 924 INTRA-LIGAND FREE ENERGY PREDICTED BY IDOCK:   -0.75 KCAL/MOL
REMARK 927      BINDING AFFINITY PREDICTED BY RF-SCORE:    0.00 PKD
ROOT
HETATM    1  N   UNL     1      -9.244  13.112  67.778  1.00  0.00    -0.194 NA 
HETATM    2  C   UNL     1      -9.934  13.312  66.510  1.00  0.00    -0.280 C  
HETATM    3  H2  UNL     1      -9.420  12.184  68.164  1.00  0.00     0.000 HD 
HETATM    4  H1  UNL     1      -8.246  13.297  67.677  1.00  0.00     0.000 HD 
ENDROOT
BRANCH   2   5
HETATM    5  C   UNL     1     -11.428  13.035  66.662  1.00  0.00    -0.382 C  
BRANCH   5   6
HETATM    6  C   UNL     1     -11.997  13.798  67.858  1.00  0.00    -0.356 C  
BRANCH   6   7
HETATM    7  N   UNL     1     -11.601  15.203  67.784  1.00  0.00    -0.322 NA 
HETATM    8  H   UNL     1     -12.266  15.753  67.241  1.00  0.00     0.000 HD 
BRANCH   7   9
HETATM    9  C   UNL     1     -11.401  15.766  69.124  1.00  0.00    -0.349 C  
BRANCH   9  10
HETATM   10  C   UNL     1     -10.612  17.075  69.065  1.00  0.00    -0.314 C  
BRANCH  10  11
HETATM   11  S   UNL     1      -8.939  16.844  68.380  1.00  0.00    -0.250 SA 
HETATM   12  P   UNL     1      -9.161  17.747  66.538  1.00  0.00    -0.211 P  
HETATM   13  O   UNL     1      -7.831  17.525  65.674  1.00  0.00    -0.507 OA 
HETATM   14  O   UNL     1     -10.394  17.293  65.825  1.00  0.00    -0.531 OA 
HETATM   15  O   UNL     1      -9.127  19.335  66.710  1.00  0.00    -0.297 OA 
ENDBRANCH  10  11
ENDBRANCH   9  10
ENDBRANCH   7   9
ENDBRANCH   6   7
ENDBRANCH   5   6
ENDBRANCH   2   5
TORSDOF 6
ENDMDL
MODEL       86
REMARK 921   NORMALIZED FREE ENERGY PREDICTED BY IDOCK:   -3.45 KCAL/MOL
REMARK 922        TOTAL FREE ENERGY PREDICTED BY IDOCK:   -4.74 KCAL/MOL
REMARK 923 INTER-LIGAND FREE ENERGY PREDICTED BY IDOCK:   -4.28 KCAL/MOL
REMARK 924 INTRA-LIGAND FREE ENERGY PREDICTED BY IDOCK:   -0.46 KCAL/MOL
REMARK 927      BINDING AFFINITY PREDICTED BY RF-SCORE:    0.00 PKD
ROOT
HETATM    1  N   UNL     1     -11.923  15.719  63.942  1.00  0.00    -1.139 NA 
HETATM    2  C   UNL     1     -11.196  14.653  64.620  1.00  0.00    -0.346 C  
HETATM    3  H2  UNL     1     -11.291  16.401  63.521  1.00  0.00     0.000 HD 
HETATM    4  H1  UNL     1     -12.571  15.331  63.256  1.00  0.00     0.000 HD 
ENDROOT
BRANCH   2   5
HETATM    5  C   UNL     1     -10.226  15.234  65.646  1.00  0.00    -0.398 C  
BRANCH   5   6
HETATM    6  C   UNL     1     -10.963  15.605  66.933  1.00  0.00    -0.243 C  
BRANCH   6   7
HETATM    7  N   UNL     1     -11.930  14.562  67.270  1.00  0.00    -0.511 NA 
HETATM    8  H   UNL     1     -11.887  13.784  66.612  1.00  0.00     0.000 HD 
BRANCH   7   9
HETATM    9  C   UNL     1     -11.758  14.111  68.654  1.00  0.00    -0.350 C  
BRANCH   9  10
HETATM   10  C   UNL     1     -11.196  12.690  68.710  1.00  0.00    -0.280 C  
BRANCH  10  11
HETATM   11  S   UNL     1     -11.594  11.730  67.212  1.00  0.00    -0.213 SA 
HETATM   12  P   UNL     1      -9.725  11.004  66.726  1.00  0.00    -0.204 P  
HETATM   13  O   UNL     1      -9.801  10.240  65.321  1.00  0.00    -0.264 OA 
HETATM   14  O   UNL     1      -8.676  12.069  66.747  1.00  0.00    -0.192 OA 
HETATM   15  O   UNL     1      -9.353   9.787  67.692  1.00  0.00    -0.139 OA 
ENDBRANCH  10  11
ENDBRANCH   9  10
ENDBRANCH   7   9
ENDBRANCH   6   7
ENDBRANCH   5   6
ENDBRANCH   2   5
TORSDOF 6
ENDMDL
MODEL       87
REMARK 921   NORMALIZED FREE ENERGY PREDICTED BY IDOCK:   -3.44 KCAL/MOL
REMARK 922        TOTAL FREE ENERGY PREDICTED BY IDOCK:   -4.73 KCAL/MOL
REMARK 923 INTER-LIGAND FREE ENERGY PREDICTED BY IDOCK:   -3.83 KCAL/MOL
REMARK 924 INTRA-LIGAND FREE ENERGY PREDICTED BY IDOCK:   -0.90 KCAL/MOL
REMARK 927      BINDING AFFINITY PREDICTED BY RF-SCORE:    0.00 PKD
ROOT
HETATM    1  N   UNL     1      -7.502  19.473  67.394  1.00  0.00    -0.240 NA 
HETATM    2  C   UNL     1      -8.257  19.893  66.220  1.00  0.00    -0.329 C  
HETATM    3  H2  UNL     1      -7.937  18.676  67.860  1.00  0.00     0.000 HD 
HETATM    4  H1  UNL     1      -6.531  19.283  67.146  1.00  0.00     0.000 HD 
ENDROOT
BRANCH   2   5
HETATM    5  C   UNL     1      -9.711  20.178  66.591  1.00  0.00    -0.568 C  
BRANCH   5   6
HETATM    6  C   UNL     1     -10.572  18.931  66.386  1.00  0.00    -0.387 C  
BRANCH   6   7
HETATM    7  N   UNL     1      -9.743  17.830  65.902  1.00  0.00    -0.546 NA 
HETATM    8  H   UNL     1      -8.925  17.686  66.495  1.00  0.00     0.000 HD 
BRANCH   7   9
HETATM    9  C   UNL     1     -10.530  16.600  65.759  1.00  0.00    -0.311 C  
BRANCH   9  10
HETATM   10  C   UNL     1     -10.470  15.751  67.029  1.00  0.00    -0.309 C  
BRANCH  10  11
HETATM   11  S   UNL     1      -9.336  14.333  66.861  1.00  0.00    -0.266 SA 
HETATM   12  P   UNL     1      -7.599  15.152  67.612  1.00  0.00    -0.206 P  
HETATM   13  O   UNL     1      -6.395  14.115  67.418  1.00  0.00    -0.324 OA 
HETATM   14  O   UNL     1      -7.302  16.496  67.029  1.00  0.00    -0.166 OA 
HETATM   15  O   UNL     1      -7.675  15.203  69.208  1.00  0.00    -0.176 OA 
ENDBRANCH  10  11
ENDBRANCH   9  10
ENDBRANCH   7   9
ENDBRANCH   6   7
ENDBRANCH   5   6
ENDBRANCH   2   5
TORSDOF 6
ENDMDL
MODEL       88
REMARK 921   NORMALIZED FREE ENERGY PREDICTED BY IDOCK:   -3.43 KCAL/MOL
REMARK 922        TOTAL FREE ENERGY PREDICTED BY IDOCK:   -4.72 KCAL/MOL
REMARK 923 INTER-LIGAND FREE ENERGY PREDICTED BY IDOCK:   -4.46 KCAL/MOL
REMARK 924 INTRA-LIGAND FREE ENERGY PREDICTED BY IDOCK:   -0.25 KCAL/MOL
REMARK 927      BINDING AFFINITY PREDICTED BY RF-SCORE:    0.00 PKD
ROOT
HETATM    1  N   UNL     1     -14.353   8.940  73.078  1.00  0.00    -1.154 NA 
HETATM    2  C   UNL     1     -14.280   8.548  71.676  1.00  0.00    -0.421 C  
HETATM    3  H2  UNL     1     -13.463   8.800  73.558  1.00  0.00     0.000 HD 
HETATM    4  H1  UNL     1     -14.684   9.901  73.165  1.00  0.00     0.000 HD 
ENDROOT
BRANCH   2   5
HETATM    5  C   UNL     1     -13.785   7.108  71.547  1.00  0.00    -0.413 C  
BRANCH   5   6
HETATM    6  C   UNL     1     -12.271   7.078  71.335  1.00  0.00    -0.366 C  
BRANCH   6   7
HETATM    7  N   UNL     1     -11.972   6.860  69.922  1.00  0.00    -0.640 NA 
HETATM    8  H   UNL     1     -11.916   7.740  69.409  1.00  0.00     0.000 HD 
BRANCH   7   9
HETATM    9  C   UNL     1     -10.752   6.062  69.758  1.00  0.00    -0.330 C  
BRANCH   9  10
HETATM   10  C   UNL     1      -9.683   6.832  68.983  1.00  0.00    -0.145 C  
BRANCH  10  11
HETATM   11  S   UNL     1     -10.333   8.370  68.251  1.00  0.00    -0.174 SA 
HETATM   12  P   UNL     1      -9.624   9.757  69.603  1.00  0.00    -0.233 P  
HETATM   13  O   UNL     1     -10.215  11.201  69.243  1.00  0.00    -0.184 OA 
HETATM   14  O   UNL     1      -9.893   9.362  71.020  1.00  0.00    -0.283 OA 
HETATM   15  O   UNL     1      -8.068  10.014  69.345  1.00  0.00    -0.120 OA 
ENDBRANCH  10  11
ENDBRANCH   9  10
ENDBRANCH   7   9
ENDBRANCH   6   7
ENDBRANCH   5   6
ENDBRANCH   2   5
TORSDOF 6
ENDMDL
MODEL       89
REMARK 921   NORMALIZED FREE ENERGY PREDICTED BY IDOCK:   -3.42 KCAL/MOL
REMARK 922        TOTAL FREE ENERGY PREDICTED BY IDOCK:   -4.70 KCAL/MOL
REMARK 923 INTER-LIGAND FREE ENERGY PREDICTED BY IDOCK:   -4.52 KCAL/MOL
REMARK 924 INTRA-LIGAND FREE ENERGY PREDICTED BY IDOCK:   -0.18 KCAL/MOL
REMARK 927      BINDING AFFINITY PREDICTED BY RF-SCORE:    0.00 PKD
ROOT
HETATM    1  N   UNL     1     -12.484  10.441  70.044  1.00  0.00    -0.529 NA 
HETATM    2  C   UNL     1     -11.240  10.566  69.295  1.00  0.00    -0.262 C  
HETATM    3  H2  UNL     1     -13.132   9.790  69.599  1.00  0.00     0.000 HD 
HETATM    4  H1  UNL     1     -12.295  10.183  71.013  1.00  0.00     0.000 HD 
ENDROOT
BRANCH   2   5
HETATM    5  C   UNL     1     -11.524  10.952  67.845  1.00  0.00    -0.344 C  
BRANCH   5   6
HETATM    6  C   UNL     1     -11.216  12.432  67.614  1.00  0.00    -0.288 C  
BRANCH   6   7
HETATM    7  N   UNL     1     -11.964  12.920  66.458  1.00  0.00    -0.416 NA 
HETATM    8  H   UNL     1     -12.894  12.503  66.408  1.00  0.00     0.000 HD 
BRANCH   7   9
HETATM    9  C   UNL     1     -12.028  14.386  66.452  1.00  0.00    -0.385 C  
BRANCH   9  10
HETATM   10  C   UNL     1     -11.126  14.977  65.367  1.00  0.00    -0.374 C  
BRANCH  10  11
HETATM   11  S   UNL     1      -9.531  15.554  66.034  1.00  0.00    -0.346 SA 
HETATM   12  P   UNL     1     -10.007  17.504  66.509  1.00  0.00    -0.328 P  
HETATM   13  O   UNL     1      -8.685  18.274  66.980  1.00  0.00    -0.251 OA 
HETATM   14  O   UNL     1     -10.718  18.205  65.396  1.00  0.00    -0.620 OA 
HETATM   15  O   UNL     1     -10.853  17.536  67.865  1.00  0.00    -0.374 OA 
ENDBRANCH  10  11
ENDBRANCH   9  10
ENDBRANCH   7   9
ENDBRANCH   6   7
ENDBRANCH   5   6
ENDBRANCH   2   5
TORSDOF 6
ENDMDL
MODEL       90
REMARK 921   NORMALIZED FREE ENERGY PREDICTED BY IDOCK:   -3.41 KCAL/MOL
REMARK 922        TOTAL FREE ENERGY PREDICTED BY IDOCK:   -4.69 KCAL/MOL
REMARK 923 INTER-LIGAND FREE ENERGY PREDICTED BY IDOCK:   -3.86 KCAL/MOL
REMARK 924 INTRA-LIGAND FREE ENERGY PREDICTED BY IDOCK:   -0.84 KCAL/MOL
REMARK 927      BINDING AFFINITY PREDICTED BY RF-SCORE:    0.00 PKD
ROOT
HETATM    1  N   UNL     1     -12.681   7.209  70.850  1.00  0.00    -0.586 NA 
HETATM    2  C   UNL     1     -12.226   8.000  71.987  1.00  0.00    -0.331 C  
HETATM    3  H2  UNL     1     -12.789   7.778  70.010  1.00  0.00     0.000 HD 
HETATM    4  H1  UNL     1     -12.058   6.416  70.693  1.00  0.00     0.000 HD 
ENDROOT
BRANCH   2   5
HETATM    5  C   UNL     1     -13.159   9.186  72.222  1.00  0.00    -0.509 C  
BRANCH   5   6
HETATM    6  C   UNL     1     -12.707  10.396  71.403  1.00  0.00    -0.446 C  
BRANCH   6   7
HETATM    7  N   UNL     1     -12.392   9.981  70.037  1.00  0.00    -0.501 NA 
HETATM    8  H   UNL     1     -13.156   9.448  69.621  1.00  0.00     0.000 HD 
BRANCH   7   9
HETATM    9  C   UNL     1     -12.023  11.133  69.209  1.00  0.00    -0.351 C  
BRANCH   9  10
HETATM   10  C   UNL     1     -11.249  10.696  67.964  1.00  0.00    -0.307 C  
BRANCH  10  11
HETATM   11  S   UNL     1      -9.524  10.243  68.345  1.00  0.00    -0.151 SA 
HETATM   12  P   UNL     1      -9.600   8.204  68.048  1.00  0.00    -0.165 P  
HETATM   13  O   UNL     1      -8.204   7.551  68.483  1.00  0.00    -0.123 OA 
HETATM   14  O   UNL     1     -10.770   7.570  68.729  1.00  0.00    -0.184 OA 
HETATM   15  O   UNL     1      -9.584   7.887  66.481  1.00  0.00    -0.203 OA 
ENDBRANCH  10  11
ENDBRANCH   9  10
ENDBRANCH   7   9
ENDBRANCH   6   7
ENDBRANCH   5   6
ENDBRANCH   2   5
TORSDOF 6
ENDMDL
MODEL       91
REMARK 921   NORMALIZED FREE ENERGY PREDICTED BY IDOCK:   -3.41 KCAL/MOL
REMARK 922        TOTAL FREE ENERGY PREDICTED BY IDOCK:   -4.69 KCAL/MOL
REMARK 923 INTER-LIGAND FREE ENERGY PREDICTED BY IDOCK:   -4.22 KCAL/MOL
REMARK 924 INTRA-LIGAND FREE ENERGY PREDICTED BY IDOCK:   -0.47 KCAL/MOL
REMARK 927      BINDING AFFINITY PREDICTED BY RF-SCORE:    0.00 PKD
ROOT
HETATM    1  N   UNL     1     -12.204  10.798  68.842  1.00  0.00    -0.795 NA 
HETATM    2  C   UNL     1     -11.620  11.260  70.095  1.00  0.00    -0.305 C  
HETATM    3  H2  UNL     1     -12.863  11.476  68.458  1.00  0.00     0.000 HD 
HETATM    4  H1  UNL     1     -11.473  10.560  68.173  1.00  0.00     0.000 HD 
ENDROOT
BRANCH   2   5
HETATM    5  C   UNL     1     -12.715  11.618  71.098  1.00  0.00    -0.426 C  
BRANCH   5   6
HETATM    6  C   UNL     1     -13.064  10.408  71.966  1.00  0.00    -0.416 C  
BRANCH   6   7
HETATM    7  N   UNL     1     -13.768   9.409  71.165  1.00  0.00    -0.520 NA 
HETATM    8  H   UNL     1     -13.547   9.498  70.173  1.00  0.00     0.000 HD 
BRANCH   7   9
HETATM    9  C   UNL     1     -13.502   8.054  71.659  1.00  0.00    -0.337 C  
BRANCH   9  10
HETATM   10  C   UNL     1     -12.000   7.779  71.745  1.00  0.00    -0.296 C  
BRANCH  10  11
HETATM   11  S   UNL     1     -11.636   6.026  72.089  1.00  0.00    -0.256 SA 
HETATM   12  P   UNL     1     -10.382   5.589  70.511  1.00  0.00    -0.268 P  
HETATM   13  O   UNL     1     -10.047   4.023  70.516  1.00  0.00    -0.135 OA 
HETATM   14  O   UNL     1     -10.927   6.057  69.200  1.00  0.00    -0.328 OA 
HETATM   15  O   UNL     1      -8.928   6.190  70.796  1.00  0.00    -0.141 OA 
ENDBRANCH  10  11
ENDBRANCH   9  10
ENDBRANCH   7   9
ENDBRANCH   6   7
ENDBRANCH   5   6
ENDBRANCH   2   5
TORSDOF 6
ENDMDL
MODEL       92
REMARK 921   NORMALIZED FREE ENERGY PREDICTED BY IDOCK:   -3.41 KCAL/MOL
REMARK 922        TOTAL FREE ENERGY PREDICTED BY IDOCK:   -4.69 KCAL/MOL
REMARK 923 INTER-LIGAND FREE ENERGY PREDICTED BY IDOCK:   -4.72 KCAL/MOL
REMARK 924 INTRA-LIGAND FREE ENERGY PREDICTED BY IDOCK:    0.03 KCAL/MOL
REMARK 927      BINDING AFFINITY PREDICTED BY RF-SCORE:    0.00 PKD
ROOT
HETATM    1  N   UNL     1     -11.469  16.425  63.884  1.00  0.00    -1.618 NA 
HETATM    2  C   UNL     1     -12.394  15.347  64.212  1.00  0.00    -0.061 C  
HETATM    3  H2  UNL     1     -10.577  16.069  63.540  1.00  0.00     0.000 HD 
HETATM    4  H1  UNL     1     -11.897  17.076  63.225  1.00  0.00     0.000 HD 
ENDROOT
BRANCH   2   5
HETATM    5  C   UNL     1     -11.753  14.373  65.199  1.00  0.00    -0.372 C  
BRANCH   5   6
HETATM    6  C   UNL     1     -10.238  14.323  64.997  1.00  0.00    -0.372 C  
BRANCH   6   7
HETATM    7  N   UNL     1      -9.711  13.058  65.507  1.00  0.00    -0.471 NA 
HETATM    8  H   UNL     1      -9.473  13.122  66.496  1.00  0.00     0.000 HD 
BRANCH   7   9
HETATM    9  C   UNL     1     -10.642  11.955  65.244  1.00  0.00    -0.275 C  
BRANCH   9  10
HETATM   10  C   UNL     1      -9.904  10.619  65.142  1.00  0.00    -0.284 C  
BRANCH  10  11
HETATM   11  S   UNL     1     -10.353   9.476  66.490  1.00  0.00    -0.145 SA 
HETATM   12  P   UNL     1     -10.453  10.790  68.077  1.00  0.00    -0.230 P  
HETATM   13  O   UNL     1     -10.687   9.970  69.432  1.00  0.00    -0.208 OA 
HETATM   14  O   UNL     1      -9.262  11.692  68.147  1.00  0.00    -0.171 OA 
HETATM   15  O   UNL     1     -11.819  11.617  68.006  1.00  0.00    -0.514 OA 
ENDBRANCH  10  11
ENDBRANCH   9  10
ENDBRANCH   7   9
ENDBRANCH   6   7
ENDBRANCH   5   6
ENDBRANCH   2   5
TORSDOF 6
ENDMDL
MODEL       93
REMARK 921   NORMALIZED FREE ENERGY PREDICTED BY IDOCK:   -3.39 KCAL/MOL
REMARK 922        TOTAL FREE ENERGY PREDICTED BY IDOCK:   -4.66 KCAL/MOL
REMARK 923 INTER-LIGAND FREE ENERGY PREDICTED BY IDOCK:   -4.50 KCAL/MOL
REMARK 924 INTRA-LIGAND FREE ENERGY PREDICTED BY IDOCK:   -0.17 KCAL/MOL
REMARK 927      BINDING AFFINITY PREDICTED BY RF-SCORE:    0.00 PKD
ROOT
HETATM    1  N   UNL     1     -12.400  13.888  62.977  1.00  0.00    -1.023 NA 
HETATM    2  C   UNL     1     -12.149  12.597  63.606  1.00  0.00    -0.547 C  
HETATM    3  H2  UNL     1     -11.868  14.636  63.422  1.00  0.00     0.000 HD 
HETATM    4  H1  UNL     1     -12.219  13.839  61.975  1.00  0.00     0.000 HD 
ENDROOT
BRANCH   2   5
HETATM    5  C   UNL     1     -12.421  12.670  65.108  1.00  0.00    -0.531 C  
BRANCH   5   6
HETATM    6  C   UNL     1     -11.436  11.788  65.875  1.00  0.00    -0.207 C  
BRANCH   6   7
HETATM    7  N   UNL     1     -11.889  11.621  67.254  1.00  0.00    -0.626 NA 
HETATM    8  H   UNL     1     -11.337  10.921  67.749  1.00  0.00     0.000 HD 
BRANCH   7   9
HETATM    9  C   UNL     1     -11.898  12.904  67.965  1.00  0.00    -0.343 C  
BRANCH   9  10
HETATM   10  C   UNL     1     -10.481  13.341  68.339  1.00  0.00    -0.253 C  
BRANCH  10  11
HETATM   11  S   UNL     1     -10.389  15.116  68.747  1.00  0.00    -0.244 SA 
HETATM   12  P   UNL     1      -8.359  15.436  68.569  1.00  0.00    -0.173 P  
HETATM   13  O   UNL     1      -8.013  16.926  69.043  1.00  0.00    -0.236 OA 
HETATM   14  O   UNL     1      -7.553  14.401  69.286  1.00  0.00    -0.112 OA 
HETATM   15  O   UNL     1      -7.963  15.530  67.023  1.00  0.00    -0.201 OA 
ENDBRANCH  10  11
ENDBRANCH   9  10
ENDBRANCH   7   9
ENDBRANCH   6   7
ENDBRANCH   5   6
ENDBRANCH   2   5
TORSDOF 6
ENDMDL
MODEL       94
REMARK 921   NORMALIZED FREE ENERGY PREDICTED BY IDOCK:   -3.38 KCAL/MOL
REMARK 922        TOTAL FREE ENERGY PREDICTED BY IDOCK:   -4.65 KCAL/MOL
REMARK 923 INTER-LIGAND FREE ENERGY PREDICTED BY IDOCK:   -4.42 KCAL/MOL
REMARK 924 INTRA-LIGAND FREE ENERGY PREDICTED BY IDOCK:   -0.23 KCAL/MOL
REMARK 927      BINDING AFFINITY PREDICTED BY RF-SCORE:    0.00 PKD
ROOT
HETATM    1  N   UNL     1     -11.222  16.679  63.980  1.00  0.00    -1.432 NA 
HETATM    2  C   UNL     1     -10.806  15.797  65.064  1.00  0.00    -0.443 C  
HETATM    3  H2  UNL     1     -12.233  16.813  63.967  1.00  0.00     0.000 HD 
HETATM    4  H1  UNL     1     -10.722  17.566  64.028  1.00  0.00     0.000 HD 
ENDROOT
BRANCH   2   5
HETATM    5  C   UNL     1     -11.554  14.468  64.991  1.00  0.00    -0.382 C  
BRANCH   5   6
HETATM    6  C   UNL     1     -10.579  13.296  65.106  1.00  0.00    -0.330 C  
BRANCH   6   7
HETATM    7  N   UNL     1     -10.006  13.256  66.450  1.00  0.00    -0.282 NA 
HETATM    8  H   UNL     1      -9.398  14.056  66.623  1.00  0.00     0.000 HD 
BRANCH   7   9
HETATM    9  C   UNL     1     -11.056  13.145  67.468  1.00  0.00    -0.271 C  
BRANCH   9  10
HETATM   10  C   UNL     1     -11.611  11.721  67.540  1.00  0.00    -0.291 C  
BRANCH  10  11
HETATM   11  S   UNL     1     -11.405  10.981  69.193  1.00  0.00    -0.309 SA 
HETATM   12  P   UNL     1      -9.554  10.096  68.978  1.00  0.00    -0.216 P  
HETATM   13  O   UNL     1      -9.224   9.233  70.286  1.00  0.00    -0.198 OA 
HETATM   14  O   UNL     1      -9.446   9.298  67.719  1.00  0.00    -0.138 OA 
HETATM   15  O   UNL     1      -8.411  11.209  69.076  1.00  0.00    -0.131 OA 
ENDBRANCH  10  11
ENDBRANCH   9  10
ENDBRANCH   7   9
ENDBRANCH   6   7
ENDBRANCH   5   6
ENDBRANCH   2   5
TORSDOF 6
ENDMDL
MODEL       95
REMARK 921   NORMALIZED FREE ENERGY PREDICTED BY IDOCK:   -3.38 KCAL/MOL
REMARK 922        TOTAL FREE ENERGY PREDICTED BY IDOCK:   -4.65 KCAL/MOL
REMARK 923 INTER-LIGAND FREE ENERGY PREDICTED BY IDOCK:   -4.27 KCAL/MOL
REMARK 924 INTRA-LIGAND FREE ENERGY PREDICTED BY IDOCK:   -0.38 KCAL/MOL
REMARK 927      BINDING AFFINITY PREDICTED BY RF-SCORE:    0.00 PKD
ROOT
HETATM    1  N   UNL     1      -9.952  12.724  64.428  1.00  0.00    -0.593 NA 
HETATM    2  C   UNL     1     -10.935  13.351  65.303  1.00  0.00    -0.295 C  
HETATM    3  H2  UNL     1      -9.080  13.253  64.397  1.00  0.00     0.000 HD 
HETATM    4  H1  UNL     1      -9.797  11.754  64.700  1.00  0.00     0.000 HD 
ENDROOT
BRANCH   2   5
HETATM    5  C   UNL     1     -11.167  14.805  64.895  1.00  0.00    -0.411 C  
BRANCH   5   6
HETATM    6  C   UNL     1     -10.004  15.684  65.356  1.00  0.00    -0.276 C  
BRANCH   6   7
HETATM    7  N   UNL     1      -9.095  14.906  66.195  1.00  0.00    -0.484 NA 
HETATM    8  H   UNL     1      -8.633  14.167  65.665  1.00  0.00     0.000 HD 
BRANCH   7   9
HETATM    9  C   UNL     1      -8.125  15.775  66.869  1.00  0.00    -0.257 C  
BRANCH   9  10
HETATM   10  C   UNL     1      -8.622  17.221  66.928  1.00  0.00    -0.240 C  
BRANCH  10  11
HETATM   11  S   UNL     1      -7.335  18.415  66.438  1.00  0.00    -0.263 SA 
HETATM   12  P   UNL     1      -7.952  20.080  67.489  1.00  0.00    -0.300 P  
HETATM   13  O   UNL     1      -7.039  21.332  67.084  1.00  0.00    -0.491 OA 
HETATM   14  O   UNL     1      -9.412  20.353  67.320  1.00  0.00    -0.392 OA 
HETATM   15  O   UNL     1      -7.552  19.924  69.028  1.00  0.00    -0.269 OA 
ENDBRANCH  10  11
ENDBRANCH   9  10
ENDBRANCH   7   9
ENDBRANCH   6   7
ENDBRANCH   5   6
ENDBRANCH   2   5
TORSDOF 6
ENDMDL
MODEL       96
REMARK 921   NORMALIZED FREE ENERGY PREDICTED BY IDOCK:   -3.37 KCAL/MOL
REMARK 922        TOTAL FREE ENERGY PREDICTED BY IDOCK:   -4.63 KCAL/MOL
REMARK 923 INTER-LIGAND FREE ENERGY PREDICTED BY IDOCK:   -4.49 KCAL/MOL
REMARK 924 INTRA-LIGAND FREE ENERGY PREDICTED BY IDOCK:   -0.14 KCAL/MOL
REMARK 927      BINDING AFFINITY PREDICTED BY RF-SCORE:    0.00 PKD
ROOT
HETATM    1  N   UNL     1     -12.507  13.893  63.213  1.00  0.00    -1.112 NA 
HETATM    2  C   UNL     1     -12.149  12.615  63.816  1.00  0.00    -0.522 C  
HETATM    3  H2  UNL     1     -12.053  14.675  63.685  1.00  0.00     0.000 HD 
HETATM    4  H1  UNL     1     -12.307  13.885  62.213  1.00  0.00     0.000 HD 
ENDROOT
BRANCH   2   5
HETATM    5  C   UNL     1     -12.449  12.625  65.314  1.00  0.00    -0.483 C  
BRANCH   5   6
HETATM    6  C   UNL     1     -11.382  13.417  66.070  1.00  0.00    -0.309 C  
BRANCH   6   7
HETATM    7  N   UNL     1     -11.669  13.396  67.502  1.00  0.00    -0.346 NA 
HETATM    8  H   UNL     1     -12.374  12.696  67.734  1.00  0.00     0.000 HD 
BRANCH   7   9
HETATM    9  C   UNL     1     -10.442  13.208  68.284  1.00  0.00    -0.250 C  
BRANCH   9  10
HETATM   10  C   UNL     1     -10.215  11.732  68.613  1.00  0.00    -0.201 C  
BRANCH  10  11
HETATM   11  S   UNL     1     -11.412  11.103  69.836  1.00  0.00    -0.297 SA 
HETATM   12  P   UNL     1     -10.529   9.307  70.335  1.00  0.00    -0.292 P  
HETATM   13  O   UNL     1     -11.505   8.487  71.304  1.00  0.00    -0.258 OA 
HETATM   14  O   UNL     1     -10.116   8.520  69.132  1.00  0.00    -0.192 OA 
HETATM   15  O   UNL     1      -9.300   9.568  71.323  1.00  0.00    -0.229 OA 
ENDBRANCH  10  11
ENDBRANCH   9  10
ENDBRANCH   7   9
ENDBRANCH   6   7
ENDBRANCH   5   6
ENDBRANCH   2   5
TORSDOF 6
ENDMDL
MODEL       97
REMARK 921   NORMALIZED FREE ENERGY PREDICTED BY IDOCK:   -3.36 KCAL/MOL
REMARK 922        TOTAL FREE ENERGY PREDICTED BY IDOCK:   -4.63 KCAL/MOL
REMARK 923 INTER-LIGAND FREE ENERGY PREDICTED BY IDOCK:   -4.19 KCAL/MOL
REMARK 924 INTRA-LIGAND FREE ENERGY PREDICTED BY IDOCK:   -0.44 KCAL/MOL
REMARK 927      BINDING AFFINITY PREDICTED BY RF-SCORE:    0.00 PKD
ROOT
HETATM    1  N   UNL     1     -11.820  15.877  73.131  1.00  0.00    -0.432 NA 
HETATM    2  C   UNL     1     -13.179  15.571  73.561  1.00  0.00    -0.406 C  
HETATM    3  H2  UNL     1     -11.788  16.705  72.536  1.00  0.00     0.000 HD 
HETATM    4  H1  UNL     1     -11.201  15.965  73.936  1.00  0.00     0.000 HD 
ENDROOT
BRANCH   2   5
HETATM    5  C   UNL     1     -14.107  15.439  72.355  1.00  0.00    -0.645 C  
BRANCH   5   6
HETATM    6  C   UNL     1     -13.969  14.055  71.721  1.00  0.00    -0.386 C  
BRANCH   6   7
HETATM    7  N   UNL     1     -12.639  13.906  71.135  1.00  0.00    -0.353 NA 
HETATM    8  H   UNL     1     -12.440  12.935  70.896  1.00  0.00     0.000 HD 
BRANCH   7   9
HETATM    9  C   UNL     1     -12.471  14.793  69.978  1.00  0.00    -0.281 C  
BRANCH   9  10
HETATM   10  C   UNL     1     -11.330  14.320  69.077  1.00  0.00    -0.272 C  
BRANCH  10  11
HETATM   11  S   UNL     1     -11.908  13.209  67.752  1.00  0.00    -0.320 SA 
HETATM   12  P   UNL     1     -11.197  11.401  68.444  1.00  0.00    -0.325 P  
HETATM   13  O   UNL     1     -11.458  10.270  67.339  1.00  0.00    -0.290 OA 
HETATM   14  O   UNL     1      -9.765  11.474  68.867  1.00  0.00    -0.161 OA 
HETATM   15  O   UNL     1     -12.137  10.868  69.622  1.00  0.00    -0.319 OA 
ENDBRANCH  10  11
ENDBRANCH   9  10
ENDBRANCH   7   9
ENDBRANCH   6   7
ENDBRANCH   5   6
ENDBRANCH   2   5
TORSDOF 6
ENDMDL
MODEL       98
REMARK 921   NORMALIZED FREE ENERGY PREDICTED BY IDOCK:   -3.36 KCAL/MOL
REMARK 922        TOTAL FREE ENERGY PREDICTED BY IDOCK:   -4.62 KCAL/MOL
REMARK 923 INTER-LIGAND FREE ENERGY PREDICTED BY IDOCK:   -4.43 KCAL/MOL
REMARK 924 INTRA-LIGAND FREE ENERGY PREDICTED BY IDOCK:   -0.19 KCAL/MOL
REMARK 927      BINDING AFFINITY PREDICTED BY RF-SCORE:    0.00 PKD
ROOT
HETATM    1  N   UNL     1     -12.524  10.461  69.337  1.00  0.00    -0.656 NA 
HETATM    2  C   UNL     1     -11.643  11.235  70.203  1.00  0.00    -0.305 C  
HETATM    3  H2  UNL     1     -13.002  11.053  68.655  1.00  0.00     0.000 HD 
HETATM    4  H1  UNL     1     -12.010   9.704  68.887  1.00  0.00     0.000 HD 
ENDROOT
BRANCH   2   5
HETATM    5  C   UNL     1     -12.413  12.369  70.877  1.00  0.00    -0.367 C  
BRANCH   5   6
HETATM    6  C   UNL     1     -12.344  13.641  70.032  1.00  0.00    -0.278 C  
BRANCH   6   7
HETATM    7  N   UNL     1     -11.066  14.315  70.254  1.00  0.00    -0.475 NA 
HETATM    8  H   UNL     1     -10.432  13.744  70.812  1.00  0.00     0.000 HD 
BRANCH   7   9
HETATM    9  C   UNL     1     -10.455  14.717  68.982  1.00  0.00    -0.249 C  
BRANCH   9  10
HETATM   10  C   UNL     1     -11.340  15.712  68.230  1.00  0.00    -0.356 C  
BRANCH  10  11
HETATM   11  S   UNL     1     -10.502  17.305  67.943  1.00  0.00    -0.388 SA 
HETATM   12  P   UNL     1      -9.817  17.025  66.018  1.00  0.00    -0.132 P  
HETATM   13  O   UNL     1      -8.894  18.265  65.597  1.00  0.00    -0.273 OA 
HETATM   14  O   UNL     1      -9.130  15.709  65.842  1.00  0.00    -0.335 OA 
HETATM   15  O   UNL     1     -11.024  17.207  64.986  1.00  0.00    -0.614 OA 
ENDBRANCH  10  11
ENDBRANCH   9  10
ENDBRANCH   7   9
ENDBRANCH   6   7
ENDBRANCH   5   6
ENDBRANCH   2   5
TORSDOF 6
ENDMDL
MODEL       99
REMARK 921   NORMALIZED FREE ENERGY PREDICTED BY IDOCK:   -3.35 KCAL/MOL
REMARK 922        TOTAL FREE ENERGY PREDICTED BY IDOCK:   -4.61 KCAL/MOL
REMARK 923 INTER-LIGAND FREE ENERGY PREDICTED BY IDOCK:   -4.30 KCAL/MOL
REMARK 924 INTRA-LIGAND FREE ENERGY PREDICTED BY IDOCK:   -0.31 KCAL/MOL
REMARK 927      BINDING AFFINITY PREDICTED BY RF-SCORE:    0.00 PKD
ROOT
HETATM    1  N   UNL     1      -9.570  13.268  68.641  1.00  0.00    -0.404 NA 
HETATM    2  C   UNL     1      -9.412  12.396  67.484  1.00  0.00    -0.187 C  
HETATM    3  H2  UNL     1     -10.441  13.084  69.140  1.00  0.00     0.000 HD 
HETATM    4  H1  UNL     1      -8.760  13.198  69.256  1.00  0.00     0.000 HD 
ENDROOT
BRANCH   2   5
HETATM    5  C   UNL     1     -10.626  12.501  66.563  1.00  0.00    -0.265 C  
BRANCH   5   6
HETATM    6  C   UNL     1     -10.230  12.203  65.117  1.00  0.00    -0.278 C  
BRANCH   6   7
HETATM    7  N   UNL     1     -10.390  13.404  64.300  1.00  0.00    -0.635 NA 
HETATM    8  H   UNL     1     -10.710  13.178  63.358  1.00  0.00     0.000 HD 
BRANCH   7   9
HETATM    9  C   UNL     1     -11.275  14.372  64.955  1.00  0.00    -0.389 C  
BRANCH   9  10
HETATM   10  C   UNL     1     -10.702  15.788  64.879  1.00  0.00    -0.361 C  
BRANCH  10  11
HETATM   11  S   UNL     1      -9.307  16.032  66.027  1.00  0.00    -0.318 SA 
HETATM   12  P   UNL     1      -9.807  17.861  66.840  1.00  0.00    -0.356 P  
HETATM   13  O   UNL     1      -8.618  18.364  67.787  1.00  0.00    -0.260 OA 
HETATM   14  O   UNL     1     -10.180  18.866  65.799  1.00  0.00    -0.531 OA 
HETATM   15  O   UNL     1     -10.968  17.668  67.922  1.00  0.00    -0.316 OA 
ENDBRANCH  10  11
ENDBRANCH   9  10
ENDBRANCH   7   9
ENDBRANCH   6   7
ENDBRANCH   5   6
ENDBRANCH   2   5
TORSDOF 6
ENDMDL
MODEL      100
REMARK 921   NORMALIZED FREE ENERGY PREDICTED BY IDOCK:   -3.34 KCAL/MOL
REMARK 922        TOTAL FREE ENERGY PREDICTED BY IDOCK:   -4.59 KCAL/MOL
REMARK 923 INTER-LIGAND FREE ENERGY PREDICTED BY IDOCK:   -4.21 KCAL/MOL
REMARK 924 INTRA-LIGAND FREE ENERGY PREDICTED BY IDOCK:   -0.38 KCAL/MOL
REMARK 927      BINDING AFFINITY PREDICTED BY RF-SCORE:    0.00 PKD
ROOT
HETATM    1  N   UNL     1     -11.518  14.668  71.226  1.00  0.00    -0.526 NA 
HETATM    2  C   UNL     1     -12.431  14.034  70.282  1.00  0.00    -0.338 C  
HETATM    3  H2  UNL     1     -11.266  15.612  70.934  1.00  0.00     0.000 HD 
HETATM    4  H1  UNL     1     -11.910  14.654  72.167  1.00  0.00     0.000 HD 
ENDROOT
BRANCH   2   5
HETATM    5  C   UNL     1     -11.843  14.054  68.872  1.00  0.00    -0.390 C  
BRANCH   5   6
HETATM    6  C   UNL     1     -10.960  12.828  68.641  1.00  0.00    -0.260 C  
BRANCH   6   7
HETATM    7  N   UNL     1     -11.144  11.871  69.731  1.00  0.00    -0.475 NA 
HETATM    8  H   UNL     1     -12.131  11.706  69.923  1.00  0.00     0.000 HD 
BRANCH   7   9
HETATM    9  C   UNL     1     -10.428  10.620  69.460  1.00  0.00    -0.204 C  
BRANCH   9  10
HETATM   10  C   UNL     1     -10.464   9.686  70.671  1.00  0.00    -0.312 C  
BRANCH  10  11
HETATM   11  S   UNL     1     -12.149   9.477  71.333  1.00  0.00    -0.403 SA 
HETATM   12  P   UNL     1     -12.270   7.418  71.401  1.00  0.00    -0.357 P  
HETATM   13  O   UNL     1     -13.756   6.987  71.816  1.00  0.00    -0.338 OA 
HETATM   14  O   UNL     1     -11.818   6.778  70.128  1.00  0.00    -0.349 OA 
HETATM   15  O   UNL     1     -11.453   6.873  72.661  1.00  0.00    -0.259 OA 
ENDBRANCH  10  11
ENDBRANCH   9  10
ENDBRANCH   7   9
ENDBRANCH   6   7
ENDBRANCH   5   6
ENDBRANCH   2   5
TORSDOF 6
ENDMDL
MODEL      101
REMARK 921   NORMALIZED FREE ENERGY PREDICTED BY IDOCK:   -3.33 KCAL/MOL
REMARK 922        TOTAL FREE ENERGY PREDICTED BY IDOCK:   -4.58 KCAL/MOL
REMARK 923 INTER-LIGAND FREE ENERGY PREDICTED BY IDOCK:   -4.40 KCAL/MOL
REMARK 924 INTRA-LIGAND FREE ENERGY PREDICTED BY IDOCK:   -0.18 KCAL/MOL
REMARK 927      BINDING AFFINITY PREDICTED BY RF-SCORE:    0.00 PKD
ROOT
HETATM    1  N   UNL     1     -12.055   8.092  72.620  1.00  0.00    -0.581 NA 
HETATM    2  C   UNL     1     -10.670   8.277  72.205  1.00  0.00    -0.319 C  
HETATM    3  H2  UNL     1     -12.654   7.828  71.838  1.00  0.00     0.000 HD 
HETATM    4  H1  UNL     1     -12.112   7.420  73.385  1.00  0.00     0.000 HD 
ENDROOT
BRANCH   2   5
HETATM    5  C   UNL     1     -10.584   9.284  71.059  1.00  0.00    -0.386 C  
BRANCH   5   6
HETATM    6  C   UNL     1     -10.359   8.566  69.728  1.00  0.00    -0.212 C  
BRANCH   6   7
HETATM    7  N   UNL     1     -11.190   9.172  68.690  1.00  0.00    -0.409 NA 
HETATM    8  H   UNL     1     -11.526  10.094  68.968  1.00  0.00     0.000 HD 
BRANCH   7   9
HETATM    9  C   UNL     1     -10.481   9.218  67.407  1.00  0.00    -0.273 C  
BRANCH   9  10
HETATM   10  C   UNL     1     -10.067  10.647  67.053  1.00  0.00    -0.211 C  
BRANCH  10  11
HETATM   11  S   UNL     1     -11.203  11.890  67.751  1.00  0.00    -0.291 SA 
HETATM   12  P   UNL     1     -11.545  13.061  66.088  1.00  0.00    -0.406 P  
HETATM   13  O   UNL     1     -12.415  14.338  66.507  1.00  0.00    -0.428 OA 
HETATM   14  O   UNL     1     -10.281  13.431  65.380  1.00  0.00    -0.302 OA 
HETATM   15  O   UNL     1     -12.575  12.323  65.114  1.00  0.00    -0.585 OA 
ENDBRANCH  10  11
ENDBRANCH   9  10
ENDBRANCH   7   9
ENDBRANCH   6   7
ENDBRANCH   5   6
ENDBRANCH   2   5
TORSDOF 6
ENDMDL
MODEL      102
REMARK 921   NORMALIZED FREE ENERGY PREDICTED BY IDOCK:   -3.32 KCAL/MOL
REMARK 922        TOTAL FREE ENERGY PREDICTED BY IDOCK:   -4.56 KCAL/MOL
REMARK 923 INTER-LIGAND FREE ENERGY PREDICTED BY IDOCK:   -4.42 KCAL/MOL
REMARK 924 INTRA-LIGAND FREE ENERGY PREDICTED BY IDOCK:   -0.15 KCAL/MOL
REMARK 927      BINDING AFFINITY PREDICTED BY RF-SCORE:    0.00 PKD
ROOT
HETATM    1  N   UNL     1     -13.015  15.843  70.578  1.00  0.00    -0.713 NA 
HETATM    2  C   UNL     1     -12.131  14.945  69.844  1.00  0.00    -0.332 C  
HETATM    3  H2  UNL     1     -13.037  15.623  71.574  1.00  0.00     0.000 HD 
HETATM    4  H1  UNL     1     -12.757  16.815  70.410  1.00  0.00     0.000 HD 
ENDROOT
BRANCH   2   5
HETATM    5  C   UNL     1     -12.518  13.488  70.095  1.00  0.00    -0.276 C  
BRANCH   5   6
HETATM    6  C   UNL     1     -11.591  12.546  69.328  1.00  0.00    -0.319 C  
BRANCH   6   7
HETATM    7  N   UNL     1     -11.345  11.340  70.115  1.00  0.00    -0.480 NA 
HETATM    8  H   UNL     1     -10.458  11.393  70.617  1.00  0.00     0.000 HD 
BRANCH   7   9
HETATM    9  C   UNL     1     -12.464  11.066  71.023  1.00  0.00    -0.409 C  
BRANCH   9  10
HETATM   10  C   UNL     1     -12.652   9.564  71.235  1.00  0.00    -0.339 C  
BRANCH  10  11
HETATM   11  S   UNL     1     -11.105   8.736  71.731  1.00  0.00    -0.369 SA 
HETATM   12  P   UNL     1     -11.610   6.765  71.390  1.00  0.00    -0.340 P  
HETATM   13  O   UNL     1     -10.431   5.816  71.913  1.00  0.00    -0.207 OA 
HETATM   14  O   UNL     1     -12.939   6.407  71.974  1.00  0.00    -0.199 OA 
HETATM   15  O   UNL     1     -11.549   6.457  69.823  1.00  0.00    -0.431 OA 
ENDBRANCH  10  11
ENDBRANCH   9  10
ENDBRANCH   7   9
ENDBRANCH   6   7
ENDBRANCH   5   6
ENDBRANCH   2   5
TORSDOF 6
ENDMDL
MODEL      103
REMARK 921   NORMALIZED FREE ENERGY PREDICTED BY IDOCK:   -3.29 KCAL/MOL
REMARK 922        TOTAL FREE ENERGY PREDICTED BY IDOCK:   -4.53 KCAL/MOL
REMARK 923 INTER-LIGAND FREE ENERGY PREDICTED BY IDOCK:   -4.15 KCAL/MOL
REMARK 924 INTRA-LIGAND FREE ENERGY PREDICTED BY IDOCK:   -0.38 KCAL/MOL
REMARK 927      BINDING AFFINITY PREDICTED BY RF-SCORE:    0.00 PKD
ROOT
HETATM    1  N   UNL     1      -7.645  14.787  69.732  1.00  0.00    -0.390 NA 
HETATM    2  C   UNL     1      -6.582  13.790  69.739  1.00  0.00    -0.034 C  
HETATM    3  H2  UNL     1      -8.534  14.397  70.049  1.00  0.00     0.000 HD 
HETATM    4  H1  UNL     1      -7.374  15.604  70.279  1.00  0.00     0.000 HD 
ENDROOT
BRANCH   2   5
HETATM    5  C   UNL     1      -6.989  12.566  68.919  1.00  0.00    -0.088 C  
BRANCH   5   6
HETATM    6  C   UNL     1      -8.123  12.919  67.956  1.00  0.00    -0.159 C  
BRANCH   6   7
HETATM    7  N   UNL     1      -9.413  12.739  68.619  1.00  0.00    -0.408 NA 
HETATM    8  H   UNL     1      -9.544  13.413  69.373  1.00  0.00     0.000 HD 
BRANCH   7   9
HETATM    9  C   UNL     1     -10.514  12.787  67.652  1.00  0.00    -0.220 C  
BRANCH   9  10
HETATM   10  C   UNL     1     -10.005  13.110  66.246  1.00  0.00    -0.285 C  
BRANCH  10  11
HETATM   11  S   UNL     1     -10.476  14.786  65.708  1.00  0.00    -0.359 SA 
HETATM   12  P   UNL     1     -12.085  14.351  64.493  1.00  0.00    -0.382 P  
HETATM   13  O   UNL     1     -12.580  15.690  63.767  1.00  0.00    -0.623 OA 
HETATM   14  O   UNL     1     -11.791  13.247  63.529  1.00  0.00    -0.479 OA 
HETATM   15  O   UNL     1     -13.366  14.027  65.393  1.00  0.00    -0.721 OA 
ENDBRANCH  10  11
ENDBRANCH   9  10
ENDBRANCH   7   9
ENDBRANCH   6   7
ENDBRANCH   5   6
ENDBRANCH   2   5
TORSDOF 6
ENDMDL
MODEL      104
REMARK 921   NORMALIZED FREE ENERGY PREDICTED BY IDOCK:   -3.29 KCAL/MOL
REMARK 922        TOTAL FREE ENERGY PREDICTED BY IDOCK:   -4.52 KCAL/MOL
REMARK 923 INTER-LIGAND FREE ENERGY PREDICTED BY IDOCK:   -4.41 KCAL/MOL
REMARK 924 INTRA-LIGAND FREE ENERGY PREDICTED BY IDOCK:   -0.11 KCAL/MOL
REMARK 927      BINDING AFFINITY PREDICTED BY RF-SCORE:    0.00 PKD
ROOT
HETATM    1  N   UNL     1     -10.245  19.595  67.955  1.00  0.00    -0.423 NA 
HETATM    2  C   UNL     1     -10.410  18.510  66.996  1.00  0.00    -0.399 C  
HETATM    3  H2  UNL     1      -9.440  19.445  68.564  1.00  0.00     0.000 HD 
HETATM    4  H1  UNL     1     -10.194  20.493  67.474  1.00  0.00     0.000 HD 
ENDROOT
BRANCH   2   5
HETATM    5  C   UNL     1     -10.487  17.165  67.717  1.00  0.00    -0.362 C  
BRANCH   5   6
HETATM    6  C   UNL     1     -10.686  16.029  66.713  1.00  0.00    -0.259 C  
BRANCH   6   7
HETATM    7  N   UNL     1     -11.376  14.913  67.356  1.00  0.00    -0.339 NA 
HETATM    8  H   UNL     1     -10.942  14.019  67.125  1.00  0.00     0.000 HD 
BRANCH   7   9
HETATM    9  C   UNL     1     -11.463  15.113  68.807  1.00  0.00    -0.319 C  
BRANCH   9  10
HETATM   10  C   UNL     1     -11.032  13.858  69.567  1.00  0.00    -0.063 C  
BRANCH  10  11
HETATM   11  S   UNL     1     -12.400  13.122  70.521  1.00  0.00    -0.241 SA 
HETATM   12  P   UNL     1     -12.805  14.658  71.838  1.00  0.00    -0.375 P  
HETATM   13  O   UNL     1     -13.896  14.170  72.904  1.00  0.00    -0.639 OA 
HETATM   14  O   UNL     1     -11.569  15.196  72.484  1.00  0.00    -0.421 OA 
HETATM   15  O   UNL     1     -13.630  15.804  71.091  1.00  0.00    -0.576 OA 
ENDBRANCH  10  11
ENDBRANCH   9  10
ENDBRANCH   7   9
ENDBRANCH   6   7
ENDBRANCH   5   6
ENDBRANCH   2   5
TORSDOF 6
ENDMDL
MODEL      105
REMARK 921   NORMALIZED FREE ENERGY PREDICTED BY IDOCK:   -3.28 KCAL/MOL
REMARK 922        TOTAL FREE ENERGY PREDICTED BY IDOCK:   -4.51 KCAL/MOL
REMARK 923 INTER-LIGAND FREE ENERGY PREDICTED BY IDOCK:   -4.01 KCAL/MOL
REMARK 924 INTRA-LIGAND FREE ENERGY PREDICTED BY IDOCK:   -0.50 KCAL/MOL
REMARK 927      BINDING AFFINITY PREDICTED BY RF-SCORE:    0.00 PKD
ROOT
HETATM    1  N   UNL     1      -7.808  12.929  68.952  1.00  0.00    -0.326 NA 
HETATM    2  C   UNL     1      -7.041  11.806  68.428  1.00  0.00    -0.085 C  
HETATM    3  H2  UNL     1      -8.801  12.705  69.033  1.00  0.00     0.000 HD 
HETATM    4  H1  UNL     1      -7.418  13.246  69.840  1.00  0.00     0.000 HD 
ENDROOT
BRANCH   2   5
HETATM    5  C   UNL     1      -7.625  11.331  67.099  1.00  0.00    -0.137 C  
BRANCH   5   6
HETATM    6  C   UNL     1      -9.069  11.809  66.946  1.00  0.00    -0.192 C  
BRANCH   6   7
HETATM    7  N   UNL     1      -9.171  12.731  65.817  1.00  0.00    -0.447 NA 
HETATM    8  H   UNL     1      -8.301  12.772  65.286  1.00  0.00     0.000 HD 
BRANCH   7   9
HETATM    9  C   UNL     1     -10.312  12.391  64.960  1.00  0.00    -0.293 C  
BRANCH   9  10
HETATM   10  C   UNL     1     -11.066  13.646  64.517  1.00  0.00    -0.386 C  
BRANCH  10  11
HETATM   11  S   UNL     1     -11.653  14.636  65.930  1.00  0.00    -0.289 SA 
HETATM   12  P   UNL     1     -10.521  16.343  65.685  1.00  0.00    -0.203 P  
HETATM   13  O   UNL     1     -10.758  17.321  66.931  1.00  0.00    -0.253 OA 
HETATM   14  O   UNL     1      -9.075  16.042  65.457  1.00  0.00    -0.320 OA 
HETATM   15  O   UNL     1     -11.135  17.231  64.507  1.00  0.00    -1.082 OA 
ENDBRANCH  10  11
ENDBRANCH   9  10
ENDBRANCH   7   9
ENDBRANCH   6   7
ENDBRANCH   5   6
ENDBRANCH   2   5
TORSDOF 6
ENDMDL
MODEL      106
REMARK 921   NORMALIZED FREE ENERGY PREDICTED BY IDOCK:   -3.28 KCAL/MOL
REMARK 922        TOTAL FREE ENERGY PREDICTED BY IDOCK:   -4.51 KCAL/MOL
REMARK 923 INTER-LIGAND FREE ENERGY PREDICTED BY IDOCK:   -4.25 KCAL/MOL
REMARK 924 INTRA-LIGAND FREE ENERGY PREDICTED BY IDOCK:   -0.26 KCAL/MOL
REMARK 927      BINDING AFFINITY PREDICTED BY RF-SCORE:    0.00 PKD
ROOT
HETATM    1  N   UNL     1     -10.686   7.879  68.067  1.00  0.00    -0.431 NA 
HETATM    2  C   UNL     1     -10.497   8.020  69.506  1.00  0.00    -0.226 C  
HETATM    3  H2  UNL     1      -9.964   8.371  67.539  1.00  0.00     0.000 HD 
HETATM    4  H1  UNL     1     -10.740   6.894  67.807  1.00  0.00     0.000 HD 
ENDROOT
BRANCH   2   5
HETATM    5  C   UNL     1     -10.416   9.495  69.894  1.00  0.00    -0.269 C  
BRANCH   5   6
HETATM    6  C   UNL     1     -11.038  10.371  68.807  1.00  0.00    -0.250 C  
BRANCH   6   7
HETATM    7  N   UNL     1     -12.393  10.757  69.195  1.00  0.00    -0.736 NA 
HETATM    8  H   UNL     1     -12.962   9.944  69.431  1.00  0.00     0.000 HD 
BRANCH   7   9
HETATM    9  C   UNL     1     -12.370  11.736  70.287  1.00  0.00    -0.240 C  
BRANCH   9  10
HETATM   10  C   UNL     1     -12.525  13.162  69.758  1.00  0.00     0.021 C  
BRANCH  10  11
HETATM   11  S   UNL     1     -11.492  14.355  70.671  1.00  0.00    -0.029 SA 
HETATM   12  P   UNL     1     -12.896  15.166  71.946  1.00  0.00    -0.426 P  
HETATM   13  O   UNL     1     -12.238  16.377  72.761  1.00  0.00    -0.504 OA 
HETATM   14  O   UNL     1     -14.151  15.562  71.237  1.00  0.00    -0.548 OA 
HETATM   15  O   UNL     1     -13.189  14.146  73.142  1.00  0.00    -0.613 OA 
ENDBRANCH  10  11
ENDBRANCH   9  10
ENDBRANCH   7   9
ENDBRANCH   6   7
ENDBRANCH   5   6
ENDBRANCH   2   5
TORSDOF 6
ENDMDL
MODEL      107
REMARK 921   NORMALIZED FREE ENERGY PREDICTED BY IDOCK:   -3.27 KCAL/MOL
REMARK 922        TOTAL FREE ENERGY PREDICTED BY IDOCK:   -4.51 KCAL/MOL
REMARK 923 INTER-LIGAND FREE ENERGY PREDICTED BY IDOCK:   -4.41 KCAL/MOL
REMARK 924 INTRA-LIGAND FREE ENERGY PREDICTED BY IDOCK:   -0.10 KCAL/MOL
REMARK 927      BINDING AFFINITY PREDICTED BY RF-SCORE:    0.00 PKD
ROOT
HETATM    1  N   UNL     1     -14.276   8.960  73.117  1.00  0.00    -1.200 NA 
HETATM    2  C   UNL     1     -13.347   8.914  71.994  1.00  0.00    -0.421 C  
HETATM    3  H2  UNL     1     -15.117   9.493  72.892  1.00  0.00     0.000 HD 
HETATM    4  H1  UNL     1     -14.499   8.018  73.437  1.00  0.00     0.000 HD 
ENDROOT
BRANCH   2   5
HETATM    5  C   UNL     1     -13.014  10.325  71.515  1.00  0.00    -0.556 C  
BRANCH   5   6
HETATM    6  C   UNL     1     -11.775  10.309  70.619  1.00  0.00    -0.348 C  
BRANCH   6   7
HETATM    7  N   UNL     1     -12.125  10.776  69.279  1.00  0.00    -0.568 NA 
HETATM    8  H   UNL     1     -13.115  11.009  69.209  1.00  0.00     0.000 HD 
BRANCH   7   9
HETATM    9  C   UNL     1     -11.275  11.901  68.875  1.00  0.00    -0.254 C  
BRANCH   9  10
HETATM   10  C   UNL     1      -9.921  11.415  68.354  1.00  0.00    -0.204 C  
BRANCH  10  11
HETATM   11  S   UNL     1      -9.005  12.726  67.479  1.00  0.00    -0.203 SA 
HETATM   12  P   UNL     1      -7.063  12.155  67.877  1.00  0.00    -0.129 P  
HETATM   13  O   UNL     1      -6.057  13.272  67.325  1.00  0.00    -0.328 OA 
HETATM   14  O   UNL     1      -6.844  11.845  69.323  1.00  0.00    -0.108 OA 
HETATM   15  O   UNL     1      -6.662  10.924  66.940  1.00  0.00    -0.089 OA 
ENDBRANCH  10  11
ENDBRANCH   9  10
ENDBRANCH   7   9
ENDBRANCH   6   7
ENDBRANCH   5   6
ENDBRANCH   2   5
TORSDOF 6
ENDMDL
MODEL      108
REMARK 921   NORMALIZED FREE ENERGY PREDICTED BY IDOCK:   -3.26 KCAL/MOL
REMARK 922        TOTAL FREE ENERGY PREDICTED BY IDOCK:   -4.49 KCAL/MOL
REMARK 923 INTER-LIGAND FREE ENERGY PREDICTED BY IDOCK:   -3.96 KCAL/MOL
REMARK 924 INTRA-LIGAND FREE ENERGY PREDICTED BY IDOCK:   -0.53 KCAL/MOL
REMARK 927      BINDING AFFINITY PREDICTED BY RF-SCORE:    0.00 PKD
ROOT
HETATM    1  N   UNL     1      -8.169  18.334  66.537  1.00  0.00    -0.263 NA 
HETATM    2  C   UNL     1      -9.332  19.101  66.109  1.00  0.00    -0.239 C  
HETATM    3  H2  UNL     1      -8.140  17.412  66.100  1.00  0.00     0.000 HD 
HETATM    4  H1  UNL     1      -7.311  18.860  66.369  1.00  0.00     0.000 HD 
ENDROOT
BRANCH   2   5
HETATM    5  C   UNL     1     -10.616  18.313  66.361  1.00  0.00    -0.318 C  
BRANCH   5   6
HETATM    6  C   UNL     1     -10.707  17.890  67.827  1.00  0.00    -0.326 C  
BRANCH   6   7
HETATM    7  N   UNL     1     -10.117  16.564  67.999  1.00  0.00    -0.248 NA 
HETATM    8  H   UNL     1      -9.138  16.548  67.712  1.00  0.00     0.000 HD 
BRANCH   7   9
HETATM    9  C   UNL     1     -10.285  16.087  69.375  1.00  0.00    -0.270 C  
BRANCH   9  10
HETATM   10  C   UNL     1     -11.733  15.679  69.649  1.00  0.00    -0.361 C  
BRANCH  10  11
HETATM   11  S   UNL     1     -11.964  13.871  69.602  1.00  0.00    -0.352 SA 
HETATM   12  P   UNL     1     -11.578  13.497  67.610  1.00  0.00    -0.372 P  
HETATM   13  O   UNL     1     -11.878  11.957  67.291  1.00  0.00    -0.576 OA 
HETATM   14  O   UNL     1     -12.313  14.428  66.701  1.00  0.00    -0.409 OA 
HETATM   15  O   UNL     1     -10.001  13.539  67.351  1.00  0.00    -0.228 OA 
ENDBRANCH  10  11
ENDBRANCH   9  10
ENDBRANCH   7   9
ENDBRANCH   6   7
ENDBRANCH   5   6
ENDBRANCH   2   5
TORSDOF 6
ENDMDL
MODEL      109
REMARK 921   NORMALIZED FREE ENERGY PREDICTED BY IDOCK:   -3.26 KCAL/MOL
REMARK 922        TOTAL FREE ENERGY PREDICTED BY IDOCK:   -4.49 KCAL/MOL
REMARK 923 INTER-LIGAND FREE ENERGY PREDICTED BY IDOCK:   -4.11 KCAL/MOL
REMARK 924 INTRA-LIGAND FREE ENERGY PREDICTED BY IDOCK:   -0.38 KCAL/MOL
REMARK 927      BINDING AFFINITY PREDICTED BY RF-SCORE:    0.00 PKD
ROOT
HETATM    1  N   UNL     1      -7.992  10.996  65.668  1.00  0.00    -0.358 NA 
HETATM    2  C   UNL     1      -7.545  10.750  67.034  1.00  0.00    -0.114 C  
HETATM    3  H2  UNL     1      -7.228  11.309  65.069  1.00  0.00     0.000 HD 
HETATM    4  H1  UNL     1      -8.456  10.170  65.290  1.00  0.00     0.000 HD 
ENDROOT
BRANCH   2   5
HETATM    5  C   UNL     1      -6.850  11.987  67.601  1.00  0.00    -0.115 C  
BRANCH   5   6
HETATM    6  C   UNL     1      -7.861  13.111  67.833  1.00  0.00    -0.151 C  
BRANCH   6   7
HETATM    7  N   UNL     1      -7.835  14.041  66.706  1.00  0.00    -0.243 NA 
HETATM    8  H   UNL     1      -7.986  13.561  65.819  1.00  0.00     0.000 HD 
BRANCH   7   9
HETATM    9  C   UNL     1      -8.797  15.132  66.901  1.00  0.00    -0.256 C  
BRANCH   9  10
HETATM   10  C   UNL     1     -10.211  14.703  66.506  1.00  0.00    -0.278 C  
BRANCH  10  11
HETATM   11  S   UNL     1     -10.236  13.745  64.956  1.00  0.00    -0.302 SA 
HETATM   12  P   UNL     1     -12.242  13.850  64.484  1.00  0.00    -0.358 P  
HETATM   13  O   UNL     1     -12.537  12.927  63.210  1.00  0.00    -0.685 OA 
HETATM   14  O   UNL     1     -13.120  13.523  65.649  1.00  0.00    -0.483 OA 
HETATM   15  O   UNL     1     -12.577  15.290  63.876  1.00  0.00    -0.765 OA 
ENDBRANCH  10  11
ENDBRANCH   9  10
ENDBRANCH   7   9
ENDBRANCH   6   7
ENDBRANCH   5   6
ENDBRANCH   2   5
TORSDOF 6
ENDMDL
MODEL      110
REMARK 921   NORMALIZED FREE ENERGY PREDICTED BY IDOCK:   -3.26 KCAL/MOL
REMARK 922        TOTAL FREE ENERGY PREDICTED BY IDOCK:   -4.48 KCAL/MOL
REMARK 923 INTER-LIGAND FREE ENERGY PREDICTED BY IDOCK:   -4.31 KCAL/MOL
REMARK 924 INTRA-LIGAND FREE ENERGY PREDICTED BY IDOCK:   -0.17 KCAL/MOL
REMARK 927      BINDING AFFINITY PREDICTED BY RF-SCORE:    0.00 PKD
ROOT
HETATM    1  N   UNL     1      -5.515  18.552  67.991  1.00  0.00    -0.169 NA 
HETATM    2  C   UNL     1      -6.859  18.347  68.515  1.00  0.00    -0.253 C  
HETATM    3  H2  UNL     1      -5.252  17.826  67.324  1.00  0.00     0.000 HD 
HETATM    4  H1  UNL     1      -5.425  19.486  67.590  1.00  0.00     0.000 HD 
ENDROOT
BRANCH   2   5
HETATM    5  C   UNL     1      -6.993  16.949  69.116  1.00  0.00    -0.234 C  
BRANCH   5   6
HETATM    6  C   UNL     1      -7.544  15.969  68.078  1.00  0.00    -0.129 C  
BRANCH   6   7
HETATM    7  N   UNL     1      -8.856  16.418  67.619  1.00  0.00    -0.187 NA 
HETATM    8  H   UNL     1      -9.088  17.341  67.987  1.00  0.00     0.000 HD 
BRANCH   7   9
HETATM    9  C   UNL     1      -8.944  16.381  66.156  1.00  0.00    -0.332 C  
BRANCH   9  10
HETATM   10  C   UNL     1     -10.386  16.172  65.691  1.00  0.00    -0.382 C  
BRANCH  10  11
HETATM   11  S   UNL     1     -11.135  14.673  66.409  1.00  0.00    -0.338 SA 
HETATM   12  P   UNL     1     -11.827  13.746  64.702  1.00  0.00    -0.445 P  
HETATM   13  O   UNL     1     -12.679  12.452  65.108  1.00  0.00    -0.630 OA 
HETATM   14  O   UNL     1     -12.584  14.679  63.812  1.00  0.00    -0.820 OA 
HETATM   15  O   UNL     1     -10.608  13.054  63.934  1.00  0.00    -0.396 OA 
ENDBRANCH  10  11
ENDBRANCH   9  10
ENDBRANCH   7   9
ENDBRANCH   6   7
ENDBRANCH   5   6
ENDBRANCH   2   5
TORSDOF 6
ENDMDL
MODEL      111
REMARK 921   NORMALIZED FREE ENERGY PREDICTED BY IDOCK:   -3.26 KCAL/MOL
REMARK 922        TOTAL FREE ENERGY PREDICTED BY IDOCK:   -4.48 KCAL/MOL
REMARK 923 INTER-LIGAND FREE ENERGY PREDICTED BY IDOCK:   -4.14 KCAL/MOL
REMARK 924 INTRA-LIGAND FREE ENERGY PREDICTED BY IDOCK:   -0.34 KCAL/MOL
REMARK 927      BINDING AFFINITY PREDICTED BY RF-SCORE:    0.00 PKD
ROOT
HETATM    1  N   UNL     1      -9.478  18.233  67.975  1.00  0.00    -0.281 NA 
HETATM    2  C   UNL     1     -10.622  17.333  68.050  1.00  0.00    -0.394 C  
HETATM    3  H2  UNL     1      -8.620  17.736  67.734  1.00  0.00     0.000 HD 
HETATM    4  H1  UNL     1      -9.667  18.999  67.328  1.00  0.00     0.000 HD 
ENDROOT
BRANCH   2   5
HETATM    5  C   UNL     1     -10.340  16.187  69.020  1.00  0.00    -0.258 C  
BRANCH   5   6
HETATM    6  C   UNL     1      -9.441  15.138  68.363  1.00  0.00    -0.208 C  
BRANCH   6   7
HETATM    7  N   UNL     1     -10.185  14.422  67.330  1.00  0.00    -0.251 NA 
HETATM    8  H   UNL     1      -9.684  14.416  66.442  1.00  0.00     0.000 HD 
BRANCH   7   9
HETATM    9  C   UNL     1     -10.524  13.065  67.769  1.00  0.00    -0.228 C  
BRANCH   9  10
HETATM   10  C   UNL     1     -10.478  12.076  66.603  1.00  0.00    -0.215 C  
BRANCH  10  11
HETATM   11  S   UNL     1     -10.323  12.913  64.991  1.00  0.00    -0.302 SA 
HETATM   12  P   UNL     1     -12.282  13.475  64.672  1.00  0.00    -0.385 P  
HETATM   13  O   UNL     1     -12.422  14.108  63.208  1.00  0.00    -0.758 OA 
HETATM   14  O   UNL     1     -13.244  12.356  64.911  1.00  0.00    -0.714 OA 
HETATM   15  O   UNL     1     -12.628  14.754  65.568  1.00  0.00    -0.143 OA 
ENDBRANCH  10  11
ENDBRANCH   9  10
ENDBRANCH   7   9
ENDBRANCH   6   7
ENDBRANCH   5   6
ENDBRANCH   2   5
TORSDOF 6
ENDMDL
MODEL      112
REMARK 921   NORMALIZED FREE ENERGY PREDICTED BY IDOCK:   -3.25 KCAL/MOL
REMARK 922        TOTAL FREE ENERGY PREDICTED BY IDOCK:   -4.47 KCAL/MOL
REMARK 923 INTER-LIGAND FREE ENERGY PREDICTED BY IDOCK:   -4.22 KCAL/MOL
REMARK 924 INTRA-LIGAND FREE ENERGY PREDICTED BY IDOCK:   -0.25 KCAL/MOL
REMARK 927      BINDING AFFINITY PREDICTED BY RF-SCORE:    0.00 PKD
ROOT
HETATM    1  N   UNL     1      -6.441  15.720  66.963  1.00  0.00    -0.288 NA 
HETATM    2  C   UNL     1      -7.276  16.882  66.681  1.00  0.00    -0.259 C  
HETATM    3  H2  UNL     1      -6.761  14.892  66.460  1.00  0.00     0.000 HD 
HETATM    4  H1  UNL     1      -5.462  15.927  66.767  1.00  0.00     0.000 HD 
ENDROOT
BRANCH   2   5
HETATM    5  C   UNL     1      -8.743  16.572  66.974  1.00  0.00    -0.221 C  
BRANCH   5   6
HETATM    6  C   UNL     1      -8.892  15.937  68.357  1.00  0.00    -0.184 C  
BRANCH   6   7
HETATM    7  N   UNL     1     -10.186  15.267  68.459  1.00  0.00    -0.220 NA 
HETATM    8  H   UNL     1     -10.849  15.623  67.770  1.00  0.00     0.000 HD 
BRANCH   7   9
HETATM    9  C   UNL     1     -10.035  13.811  68.363  1.00  0.00    -0.229 C  
BRANCH   9  10
HETATM   10  C   UNL     1     -11.209  13.179  67.614  1.00  0.00    -0.282 C  
BRANCH  10  11
HETATM   11  S   UNL     1     -12.212  14.417  66.729  1.00  0.00    -0.147 SA 
HETATM   12  P   UNL     1     -12.056  13.712  64.796  1.00  0.00    -0.422 P  
HETATM   13  O   UNL     1     -12.747  14.752  63.794  1.00  0.00    -0.767 OA 
HETATM   14  O   UNL     1     -10.645  13.396  64.416  1.00  0.00    -0.411 OA 
HETATM   15  O   UNL     1     -13.018  12.450  64.605  1.00  0.00    -0.793 OA 
ENDBRANCH  10  11
ENDBRANCH   9  10
ENDBRANCH   7   9
ENDBRANCH   6   7
ENDBRANCH   5   6
ENDBRANCH   2   5
TORSDOF 6
ENDMDL
MODEL      113
REMARK 921   NORMALIZED FREE ENERGY PREDICTED BY IDOCK:   -3.24 KCAL/MOL
REMARK 922        TOTAL FREE ENERGY PREDICTED BY IDOCK:   -4.46 KCAL/MOL
REMARK 923 INTER-LIGAND FREE ENERGY PREDICTED BY IDOCK:   -4.33 KCAL/MOL
REMARK 924 INTRA-LIGAND FREE ENERGY PREDICTED BY IDOCK:   -0.13 KCAL/MOL
REMARK 927      BINDING AFFINITY PREDICTED BY RF-SCORE:    0.00 PKD
ROOT
HETATM    1  N   UNL     1      -9.990   8.741  65.789  1.00  0.00    -0.411 NA 
HETATM    2  C   UNL     1     -10.526   8.733  67.145  1.00  0.00    -0.283 C  
HETATM    3  H2  UNL     1      -9.101   9.239  65.736  1.00  0.00     0.000 HD 
HETATM    4  H1  UNL     1      -9.913   7.790  65.429  1.00  0.00     0.000 HD 
ENDROOT
BRANCH   2   5
HETATM    5  C   UNL     1     -10.642  10.157  67.684  1.00  0.00    -0.316 C  
BRANCH   5   6
HETATM    6  C   UNL     1     -10.854  11.149  66.540  1.00  0.00    -0.245 C  
BRANCH   6   7
HETATM    7  N   UNL     1     -11.865  12.134  66.917  1.00  0.00    -0.601 NA 
HETATM    8  H   UNL     1     -12.591  11.722  67.503  1.00  0.00     0.000 HD 
BRANCH   7   9
HETATM    9  C   UNL     1     -11.250  13.302  67.557  1.00  0.00    -0.281 C  
BRANCH   9  10
HETATM   10  C   UNL     1     -12.038  14.578  67.258  1.00  0.00    -0.264 C  
BRANCH  10  11
HETATM   11  S   UNL     1     -11.117  16.083  67.715  1.00  0.00    -0.222 SA 
HETATM   12  P   UNL     1     -10.113  16.457  65.952  1.00  0.00    -0.296 P  
HETATM   13  O   UNL     1      -9.096  17.674  66.168  1.00  0.00    -0.456 OA 
HETATM   14  O   UNL     1      -9.444  15.237  65.406  1.00  0.00    -0.220 OA 
HETATM   15  O   UNL     1     -11.115  17.109  64.891  1.00  0.00    -0.737 OA 
ENDBRANCH  10  11
ENDBRANCH   9  10
ENDBRANCH   7   9
ENDBRANCH   6   7
ENDBRANCH   5   6
ENDBRANCH   2   5
TORSDOF 6
ENDMDL
MODEL      114
REMARK 921   NORMALIZED FREE ENERGY PREDICTED BY IDOCK:   -3.23 KCAL/MOL
REMARK 922        TOTAL FREE ENERGY PREDICTED BY IDOCK:   -4.45 KCAL/MOL
REMARK 923 INTER-LIGAND FREE ENERGY PREDICTED BY IDOCK:   -4.30 KCAL/MOL
REMARK 924 INTRA-LIGAND FREE ENERGY PREDICTED BY IDOCK:   -0.15 KCAL/MOL
REMARK 927      BINDING AFFINITY PREDICTED BY RF-SCORE:    0.00 PKD
ROOT
HETATM    1  N   UNL     1      -9.043   8.824  65.367  1.00  0.00    -0.376 NA 
HETATM    2  C   UNL     1     -10.106   9.379  66.195  1.00  0.00    -0.254 C  
HETATM    3  H2  UNL     1      -8.122   8.969  65.783  1.00  0.00     0.000 HD 
HETATM    4  H1  UNL     1      -9.218   7.838  65.172  1.00  0.00     0.000 HD 
ENDROOT
BRANCH   2   5
HETATM    5  C   UNL     1      -9.842  10.855  66.487  1.00  0.00    -0.245 C  
BRANCH   5   6
HETATM    6  C   UNL     1     -11.016  11.470  67.250  1.00  0.00    -0.271 C  
BRANCH   6   7
HETATM    7  N   UNL     1     -11.162  12.878  66.887  1.00  0.00    -0.279 NA 
HETATM    8  H   UNL     1     -11.493  12.986  65.928  1.00  0.00     0.000 HD 
BRANCH   7   9
HETATM    9  C   UNL     1     -12.028  13.581  67.839  1.00  0.00    -0.337 C  
BRANCH   9  10
HETATM   10  C   UNL     1     -11.364  13.696  69.212  1.00  0.00    -0.269 C  
BRANCH  10  11
HETATM   11  S   UNL     1     -12.390  12.983  70.539  1.00  0.00    -0.216 SA 
HETATM   12  P   UNL     1     -12.675  14.646  71.726  1.00  0.00    -0.378 P  
HETATM   13  O   UNL     1     -13.438  14.217  73.067  1.00  0.00    -0.661 OA 
HETATM   14  O   UNL     1     -11.401  15.379  71.998  1.00  0.00    -0.432 OA 
HETATM   15  O   UNL     1     -13.776  15.596  71.064  1.00  0.00    -0.582 OA 
ENDBRANCH  10  11
ENDBRANCH   9  10
ENDBRANCH   7   9
ENDBRANCH   6   7
ENDBRANCH   5   6
ENDBRANCH   2   5
TORSDOF 6
ENDMDL
MODEL      115
REMARK 921   NORMALIZED FREE ENERGY PREDICTED BY IDOCK:   -3.23 KCAL/MOL
REMARK 922        TOTAL FREE ENERGY PREDICTED BY IDOCK:   -4.45 KCAL/MOL
REMARK 923 INTER-LIGAND FREE ENERGY PREDICTED BY IDOCK:   -4.09 KCAL/MOL
REMARK 924 INTRA-LIGAND FREE ENERGY PREDICTED BY IDOCK:   -0.36 KCAL/MOL
REMARK 927      BINDING AFFINITY PREDICTED BY RF-SCORE:    0.00 PKD
ROOT
HETATM    1  N   UNL     1     -14.154   8.879  73.067  1.00  0.00    -1.139 NA 
HETATM    2  C   UNL     1     -14.098   8.247  71.755  1.00  0.00    -0.437 C  
HETATM    3  H2  UNL     1     -13.268   9.321  73.314  1.00  0.00     0.000 HD 
HETATM    4  H1  UNL     1     -14.932   9.538  73.114  1.00  0.00     0.000 HD 
ENDROOT
BRANCH   2   5
HETATM    5  C   UNL     1     -12.934   7.261  71.684  1.00  0.00    -0.417 C  
BRANCH   5   6
HETATM    6  C   UNL     1     -11.768   7.861  70.899  1.00  0.00    -0.257 C  
BRANCH   6   7
HETATM    7  N   UNL     1     -11.504   7.057  69.708  1.00  0.00    -0.529 NA 
HETATM    8  H   UNL     1     -10.844   7.518  69.082  1.00  0.00     0.000 HD 
BRANCH   7   9
HETATM    9  C   UNL     1     -11.053   5.709  70.072  1.00  0.00    -0.128 C  
BRANCH   9  10
HETATM   10  C   UNL     1      -9.652   5.427  69.529  1.00  0.00    -0.149 C  
BRANCH  10  11
HETATM   11  S   UNL     1      -9.657   4.147  68.231  1.00  0.00    -0.091 SA 
HETATM   12  P   UNL     1      -9.976   5.312  66.559  1.00  0.00    -0.243 P  
HETATM   13  O   UNL     1     -10.177   4.366  65.283  1.00  0.00    -0.228 OA 
HETATM   14  O   UNL     1     -11.101   6.279  66.743  1.00  0.00    -0.343 OA 
HETATM   15  O   UNL     1      -8.619   6.053  66.152  1.00  0.00    -0.131 OA 
ENDBRANCH  10  11
ENDBRANCH   9  10
ENDBRANCH   7   9
ENDBRANCH   6   7
ENDBRANCH   5   6
ENDBRANCH   2   5
TORSDOF 6
ENDMDL
MODEL      116
REMARK 921   NORMALIZED FREE ENERGY PREDICTED BY IDOCK:   -3.23 KCAL/MOL
REMARK 922        TOTAL FREE ENERGY PREDICTED BY IDOCK:   -4.44 KCAL/MOL
REMARK 923 INTER-LIGAND FREE ENERGY PREDICTED BY IDOCK:   -3.70 KCAL/MOL
REMARK 924 INTRA-LIGAND FREE ENERGY PREDICTED BY IDOCK:   -0.74 KCAL/MOL
REMARK 927      BINDING AFFINITY PREDICTED BY RF-SCORE:    0.00 PKD
ROOT
HETATM    1  N   UNL     1     -12.802   8.059  70.971  1.00  0.00    -0.517 NA 
HETATM    2  C   UNL     1     -12.268   9.161  71.762  1.00  0.00    -0.372 C  
HETATM    3  H2  UNL     1     -12.751   8.251  69.970  1.00  0.00     0.000 HD 
HETATM    4  H1  UNL     1     -12.336   7.185  71.213  1.00  0.00     0.000 HD 
ENDROOT
BRANCH   2   5
HETATM    5  C   UNL     1     -12.967  10.470  71.399  1.00  0.00    -0.542 C  
BRANCH   5   6
HETATM    6  C   UNL     1     -12.138  11.257  70.384  1.00  0.00    -0.384 C  
BRANCH   6   7
HETATM    7  N   UNL     1     -11.838  10.415  69.228  1.00  0.00    -0.504 NA 
HETATM    8  H   UNL     1     -12.618   9.799  69.000  1.00  0.00     0.000 HD 
BRANCH   7   9
HETATM    9  C   UNL     1     -11.436  11.227  68.074  1.00  0.00    -0.298 C  
BRANCH   9  10
HETATM   10  C   UNL     1     -10.080  10.780  67.527  1.00  0.00    -0.186 C  
BRANCH  10  11
HETATM   11  S   UNL     1      -8.687  11.583  68.386  1.00  0.00    -0.145 SA 
HETATM   12  P   UNL     1      -7.988  10.007  69.519  1.00  0.00    -0.170 P  
HETATM   13  O   UNL     1      -6.833  10.528  70.498  1.00  0.00    -0.312 OA 
HETATM   14  O   UNL     1      -9.084   9.297  70.247  1.00  0.00    -0.197 OA 
HETATM   15  O   UNL     1      -7.149   9.011  68.593  1.00  0.00    -0.069 OA 
ENDBRANCH  10  11
ENDBRANCH   9  10
ENDBRANCH   7   9
ENDBRANCH   6   7
ENDBRANCH   5   6
ENDBRANCH   2   5
TORSDOF 6
ENDMDL
MODEL      117
REMARK 921   NORMALIZED FREE ENERGY PREDICTED BY IDOCK:   -3.22 KCAL/MOL
REMARK 922        TOTAL FREE ENERGY PREDICTED BY IDOCK:   -4.43 KCAL/MOL
REMARK 923 INTER-LIGAND FREE ENERGY PREDICTED BY IDOCK:   -3.37 KCAL/MOL
REMARK 924 INTRA-LIGAND FREE ENERGY PREDICTED BY IDOCK:   -1.06 KCAL/MOL
REMARK 927      BINDING AFFINITY PREDICTED BY RF-SCORE:    0.00 PKD
ROOT
HETATM    1  N   UNL     1      -6.639  16.491  67.935  1.00  0.00    -0.134 NA 
HETATM    2  C   UNL     1      -6.281  17.304  66.779  1.00  0.00    -0.200 C  
HETATM    3  H2  UNL     1      -7.645  16.498  68.107  1.00  0.00     0.000 HD 
HETATM    4  H1  UNL     1      -6.280  15.542  67.830  1.00  0.00     0.000 HD 
ENDROOT
BRANCH   2   5
HETATM    5  C   UNL     1      -6.819  18.725  66.936  1.00  0.00    -0.211 C  
BRANCH   5   6
HETATM    6  C   UNL     1      -7.012  19.066  68.414  1.00  0.00    -0.261 C  
BRANCH   6   7
HETATM    7  N   UNL     1      -8.438  19.152  68.722  1.00  0.00    -0.363 NA 
HETATM    8  H   UNL     1      -8.607  19.690  69.571  1.00  0.00     0.000 HD 
BRANCH   7   9
HETATM    9  C   UNL     1      -9.192  19.686  67.583  1.00  0.00    -0.333 C  
BRANCH   9  10
HETATM   10  C   UNL     1     -10.493  18.911  67.365  1.00  0.00    -0.449 C  
BRANCH  10  11
HETATM   11  S   UNL     1     -10.249  17.425  66.338  1.00  0.00    -0.323 SA 
HETATM   12  P   UNL     1     -10.296  15.958  67.788  1.00  0.00    -0.292 P  
HETATM   13  O   UNL     1      -9.939  14.544  67.124  1.00  0.00    -0.246 OA 
HETATM   14  O   UNL     1      -9.422  16.282  68.957  1.00  0.00    -0.239 OA 
HETATM   15  O   UNL     1     -11.807  15.690  68.233  1.00  0.00    -0.318 OA 
ENDBRANCH  10  11
ENDBRANCH   9  10
ENDBRANCH   7   9
ENDBRANCH   6   7
ENDBRANCH   5   6
ENDBRANCH   2   5
TORSDOF 6
ENDMDL
MODEL      118
REMARK 921   NORMALIZED FREE ENERGY PREDICTED BY IDOCK:   -3.21 KCAL/MOL
REMARK 922        TOTAL FREE ENERGY PREDICTED BY IDOCK:   -4.42 KCAL/MOL
REMARK 923 INTER-LIGAND FREE ENERGY PREDICTED BY IDOCK:   -3.45 KCAL/MOL
REMARK 924 INTRA-LIGAND FREE ENERGY PREDICTED BY IDOCK:   -0.97 KCAL/MOL
REMARK 927      BINDING AFFINITY PREDICTED BY RF-SCORE:    0.00 PKD
ROOT
HETATM    1  N   UNL     1     -11.873   5.031  73.380  1.00  0.00    -0.400 NA 
HETATM    2  C   UNL     1     -10.875   4.026  73.723  1.00  0.00    -0.253 C  
HETATM    3  H2  UNL     1     -12.506   4.703  72.650  1.00  0.00     0.000 HD 
HETATM    4  H1  UNL     1     -12.378   5.334  74.212  1.00  0.00     0.000 HD 
ENDROOT
BRANCH   2   5
HETATM    5  C   UNL     1     -10.117   3.574  72.476  1.00  0.00    -0.235 C  
BRANCH   5   6
HETATM    6  C   UNL     1      -8.957   4.524  72.179  1.00  0.00    -0.125 C  
BRANCH   6   7
HETATM    7  N   UNL     1      -9.444   5.685  71.435  1.00  0.00    -0.147 NA 
HETATM    8  H   UNL     1      -8.727   6.406  71.354  1.00  0.00     0.000 HD 
BRANCH   7   9
HETATM    9  C   UNL     1      -9.964   5.289  70.123  1.00  0.00    -0.243 C  
BRANCH   9  10
HETATM   10  C   UNL     1     -11.194   6.115  69.741  1.00  0.00    -0.423 C  
BRANCH  10  11
HETATM   11  S   UNL     1     -10.890   7.908  69.870  1.00  0.00    -0.181 SA 
HETATM   12  P   UNL     1     -12.069   8.370  71.498  1.00  0.00    -0.322 P  
HETATM   13  O   UNL     1     -12.083   9.957  71.711  1.00  0.00    -0.389 OA 
HETATM   14  O   UNL     1     -13.443   7.790  71.392  1.00  0.00    -0.324 OA 
HETATM   15  O   UNL     1     -11.334   7.911  72.842  1.00  0.00    -0.406 OA 
ENDBRANCH  10  11
ENDBRANCH   9  10
ENDBRANCH   7   9
ENDBRANCH   6   7
ENDBRANCH   5   6
ENDBRANCH   2   5
TORSDOF 6
ENDMDL
MODEL      119
REMARK 921   NORMALIZED FREE ENERGY PREDICTED BY IDOCK:   -3.21 KCAL/MOL
REMARK 922        TOTAL FREE ENERGY PREDICTED BY IDOCK:   -4.42 KCAL/MOL
REMARK 923 INTER-LIGAND FREE ENERGY PREDICTED BY IDOCK:   -4.27 KCAL/MOL
REMARK 924 INTRA-LIGAND FREE ENERGY PREDICTED BY IDOCK:   -0.14 KCAL/MOL
REMARK 927      BINDING AFFINITY PREDICTED BY RF-SCORE:    0.00 PKD
ROOT
HETATM    1  N   UNL     1      -6.800  15.893  66.932  1.00  0.00    -0.252 NA 
HETATM    2  C   UNL     1      -7.226  17.113  66.259  1.00  0.00    -0.273 C  
HETATM    3  H2  UNL     1      -7.381  15.094  66.675  1.00  0.00     0.000 HD 
HETATM    4  H1  UNL     1      -5.811  15.714  66.757  1.00  0.00     0.000 HD 
ENDROOT
BRANCH   2   5
HETATM    5  C   UNL     1      -8.707  17.381  66.522  1.00  0.00    -0.290 C  
BRANCH   5   6
HETATM    6  C   UNL     1      -8.940  17.706  67.997  1.00  0.00    -0.264 C  
BRANCH   6   7
HETATM    7  N   UNL     1     -10.329  17.428  68.354  1.00  0.00    -0.358 NA 
HETATM    8  H   UNL     1     -10.889  17.197  67.533  1.00  0.00     0.000 HD 
BRANCH   7   9
HETATM    9  C   UNL     1     -10.411  16.379  69.376  1.00  0.00    -0.309 C  
BRANCH   9  10
HETATM   10  C   UNL     1     -11.807  15.755  69.421  1.00  0.00    -0.349 C  
BRANCH  10  11
HETATM   11  S   UNL     1     -11.924  14.409  70.646  1.00  0.00    -0.321 SA 
HETATM   12  P   UNL     1     -12.653  15.447  72.273  1.00  0.00    -0.461 P  
HETATM   13  O   UNL     1     -12.692  14.478  73.547  1.00  0.00    -0.459 OA 
HETATM   14  O   UNL     1     -11.895  16.710  72.531  1.00  0.00    -0.506 OA 
HETATM   15  O   UNL     1     -14.215  15.723  72.078  1.00  0.00    -0.429 OA 
ENDBRANCH  10  11
ENDBRANCH   9  10
ENDBRANCH   7   9
ENDBRANCH   6   7
ENDBRANCH   5   6
ENDBRANCH   2   5
TORSDOF 6
ENDMDL
MODEL      120
REMARK 921   NORMALIZED FREE ENERGY PREDICTED BY IDOCK:   -3.21 KCAL/MOL
REMARK 922        TOTAL FREE ENERGY PREDICTED BY IDOCK:   -4.41 KCAL/MOL
REMARK 923 INTER-LIGAND FREE ENERGY PREDICTED BY IDOCK:   -3.96 KCAL/MOL
REMARK 924 INTRA-LIGAND FREE ENERGY PREDICTED BY IDOCK:   -0.46 KCAL/MOL
REMARK 927      BINDING AFFINITY PREDICTED BY RF-SCORE:    0.00 PKD
ROOT
HETATM    1  N   UNL     1     -11.261   4.662  65.303  1.00  0.00    -0.991 NA 
HETATM    2  C   UNL     1      -9.944   4.573  65.921  1.00  0.00    -0.244 C  
HETATM    3  H2  UNL     1     -11.406   5.563  64.847  1.00  0.00     0.000 HD 
HETATM    4  H1  UNL     1     -11.409   3.883  64.661  1.00  0.00     0.000 HD 
ENDROOT
BRANCH   2   5
HETATM    5  C   UNL     1      -9.724   5.739  66.884  1.00  0.00    -0.163 C  
BRANCH   5   6
HETATM    6  C   UNL     1     -10.992   6.584  67.003  1.00  0.00    -0.396 C  
BRANCH   6   7
HETATM    7  N   UNL     1     -10.839   7.560  68.079  1.00  0.00    -0.455 NA 
HETATM    8  H   UNL     1     -11.442   7.342  68.872  1.00  0.00     0.000 HD 
BRANCH   7   9
HETATM    9  C   UNL     1      -9.435   7.683  68.484  1.00  0.00    -0.147 C  
BRANCH   9  10
HETATM   10  C   UNL     1      -9.009   9.149  68.574  1.00  0.00    -0.133 C  
BRANCH  10  11
HETATM   11  S   UNL     1      -9.384  10.074  67.049  1.00  0.00    -0.157 SA 
HETATM   12  P   UNL     1     -10.866  11.336  67.732  1.00  0.00    -0.276 P  
HETATM   13  O   UNL     1     -11.473  12.158  66.500  1.00  0.00    -0.344 OA 
HETATM   14  O   UNL     1     -11.914  10.614  68.516  1.00  0.00    -0.425 OA 
HETATM   15  O   UNL     1     -10.212  12.527  68.574  1.00  0.00    -0.228 OA 
ENDBRANCH  10  11
ENDBRANCH   9  10
ENDBRANCH   7   9
ENDBRANCH   6   7
ENDBRANCH   5   6
ENDBRANCH   2   5
TORSDOF 6
ENDMDL
MODEL      121
REMARK 921   NORMALIZED FREE ENERGY PREDICTED BY IDOCK:   -3.21 KCAL/MOL
REMARK 922        TOTAL FREE ENERGY PREDICTED BY IDOCK:   -4.41 KCAL/MOL
REMARK 923 INTER-LIGAND FREE ENERGY PREDICTED BY IDOCK:   -4.25 KCAL/MOL
REMARK 924 INTRA-LIGAND FREE ENERGY PREDICTED BY IDOCK:   -0.16 KCAL/MOL
REMARK 927      BINDING AFFINITY PREDICTED BY RF-SCORE:    0.00 PKD
ROOT
HETATM    1  N   UNL     1      -9.822  10.398  65.205  1.00  0.00    -0.291 NA 
HETATM    2  C   UNL     1     -10.395  11.192  64.125  1.00  0.00    -0.361 C  
HETATM    3  H2  UNL     1     -10.502   9.747  65.599  1.00  0.00     0.000 HD 
HETATM    4  H1  UNL     1      -8.979   9.919  64.889  1.00  0.00     0.000 HD 
ENDROOT
BRANCH   2   5
HETATM    5  C   UNL     1     -11.657  11.909  64.598  1.00  0.00    -0.320 C  
BRANCH   5   6
HETATM    6  C   UNL     1     -11.877  13.193  63.798  1.00  0.00    -0.486 C  
BRANCH   6   7
HETATM    7  N   UNL     1     -12.418  14.235  64.669  1.00  0.00    -0.631 NA 
HETATM    8  H   UNL     1     -12.685  13.862  65.579  1.00  0.00     0.000 HD 
BRANCH   7   9
HETATM    9  C   UNL     1     -11.478  15.354  64.797  1.00  0.00    -0.336 C  
BRANCH   9  10
HETATM   10  C   UNL     1     -10.455  15.096  65.905  1.00  0.00    -0.336 C  
BRANCH  10  11
HETATM   11  S   UNL     1     -10.450  16.415  67.163  1.00  0.00    -0.274 SA 
HETATM   12  P   UNL     1      -8.471  16.992  67.091  1.00  0.00    -0.222 P  
HETATM   13  O   UNL     1      -8.187  18.062  68.249  1.00  0.00    -0.274 OA 
HETATM   14  O   UNL     1      -7.534  15.828  67.139  1.00  0.00    -0.193 OA 
HETATM   15  O   UNL     1      -8.222  17.900  65.799  1.00  0.00    -0.530 OA 
ENDBRANCH  10  11
ENDBRANCH   9  10
ENDBRANCH   7   9
ENDBRANCH   6   7
ENDBRANCH   5   6
ENDBRANCH   2   5
TORSDOF 6
ENDMDL
MODEL      122
REMARK 921   NORMALIZED FREE ENERGY PREDICTED BY IDOCK:   -3.20 KCAL/MOL
REMARK 922        TOTAL FREE ENERGY PREDICTED BY IDOCK:   -4.40 KCAL/MOL
REMARK 923 INTER-LIGAND FREE ENERGY PREDICTED BY IDOCK:   -3.32 KCAL/MOL
REMARK 924 INTRA-LIGAND FREE ENERGY PREDICTED BY IDOCK:   -1.08 KCAL/MOL
REMARK 927      BINDING AFFINITY PREDICTED BY RF-SCORE:    0.00 PKD
ROOT
HETATM    1  N   UNL     1      -7.777  16.143  67.622  1.00  0.00    -0.135 NA 
HETATM    2  C   UNL     1      -6.446  16.360  67.068  1.00  0.00    -0.167 C  
HETATM    3  H2  UNL     1      -8.290  17.018  67.731  1.00  0.00     0.000 HD 
HETATM    4  H1  UNL     1      -8.294  15.468  67.058  1.00  0.00     0.000 HD 
ENDROOT
BRANCH   2   5
HETATM    5  C   UNL     1      -5.671  17.369  67.913  1.00  0.00    -0.136 C  
BRANCH   5   6
HETATM    6  C   UNL     1      -6.377  17.605  69.249  1.00  0.00    -0.247 C  
BRANCH   6   7
HETATM    7  N   UNL     1      -7.212  18.801  69.165  1.00  0.00    -0.265 NA 
HETATM    8  H   UNL     1      -7.444  19.163  70.090  1.00  0.00     0.000 HD 
BRANCH   7   9
HETATM    9  C   UNL     1      -6.583  19.826  68.326  1.00  0.00    -0.268 C  
BRANCH   9  10
HETATM   10  C   UNL     1      -7.621  20.571  67.485  1.00  0.00    -0.304 C  
BRANCH  10  11
HETATM   11  S   UNL     1      -8.109  19.634  66.000  1.00  0.00    -0.238 SA 
HETATM   12  P   UNL     1      -9.955  18.928  66.593  1.00  0.00    -0.427 P  
HETATM   13  O   UNL     1     -10.522  17.925  65.482  1.00  0.00    -0.650 OA 
HETATM   14  O   UNL     1      -9.921  18.317  67.958  1.00  0.00    -0.312 OA 
HETATM   15  O   UNL     1     -11.036  20.101  66.496  1.00  0.00    -0.172 OA 
ENDBRANCH  10  11
ENDBRANCH   9  10
ENDBRANCH   7   9
ENDBRANCH   6   7
ENDBRANCH   5   6
ENDBRANCH   2   5
TORSDOF 6
ENDMDL
MODEL      123
REMARK 921   NORMALIZED FREE ENERGY PREDICTED BY IDOCK:   -3.19 KCAL/MOL
REMARK 922        TOTAL FREE ENERGY PREDICTED BY IDOCK:   -4.40 KCAL/MOL
REMARK 923 INTER-LIGAND FREE ENERGY PREDICTED BY IDOCK:   -4.18 KCAL/MOL
REMARK 924 INTRA-LIGAND FREE ENERGY PREDICTED BY IDOCK:   -0.21 KCAL/MOL
REMARK 927      BINDING AFFINITY PREDICTED BY RF-SCORE:    0.00 PKD
ROOT
HETATM    1  N   UNL     1     -11.059  11.505  63.122  1.00  0.00    -0.811 NA 
HETATM    2  C   UNL     1     -10.451  11.218  64.415  1.00  0.00    -0.345 C  
HETATM    3  H2  UNL     1     -11.209  12.506  62.987  1.00  0.00     0.000 HD 
HETATM    4  H1  UNL     1     -10.506  11.100  62.367  1.00  0.00     0.000 HD 
ENDROOT
BRANCH   2   5
HETATM    5  C   UNL     1     -11.280  11.824  65.545  1.00  0.00    -0.316 C  
BRANCH   5   6
HETATM    6  C   UNL     1     -10.952  11.146  66.875  1.00  0.00    -0.273 C  
BRANCH   6   7
HETATM    7  N   UNL     1     -10.524  12.148  67.850  1.00  0.00    -0.203 NA 
HETATM    8  H   UNL     1     -10.671  13.096  67.504  1.00  0.00     0.000 HD 
BRANCH   7   9
HETATM    9  C   UNL     1     -11.180  11.937  69.145  1.00  0.00    -0.255 C  
BRANCH   9  10
HETATM   10  C   UNL     1     -11.844  13.220  69.647  1.00  0.00    -0.327 C  
BRANCH  10  11
HETATM   11  S   UNL     1     -11.715  14.582  68.443  1.00  0.00    -0.324 SA 
HETATM   12  P   UNL     1     -10.750  16.002  69.587  1.00  0.00    -0.351 P  
HETATM   13  O   UNL     1     -10.663  17.375  68.768  1.00  0.00    -0.309 OA 
HETATM   14  O   UNL     1     -11.375  16.172  70.934  1.00  0.00    -0.390 OA 
HETATM   15  O   UNL     1      -9.197  15.638  69.696  1.00  0.00    -0.277 OA 
ENDBRANCH  10  11
ENDBRANCH   9  10
ENDBRANCH   7   9
ENDBRANCH   6   7
ENDBRANCH   5   6
ENDBRANCH   2   5
TORSDOF 6
ENDMDL
MODEL      124
REMARK 921   NORMALIZED FREE ENERGY PREDICTED BY IDOCK:   -3.18 KCAL/MOL
REMARK 922        TOTAL FREE ENERGY PREDICTED BY IDOCK:   -4.38 KCAL/MOL
REMARK 923 INTER-LIGAND FREE ENERGY PREDICTED BY IDOCK:   -4.25 KCAL/MOL
REMARK 924 INTRA-LIGAND FREE ENERGY PREDICTED BY IDOCK:   -0.13 KCAL/MOL
REMARK 927      BINDING AFFINITY PREDICTED BY RF-SCORE:    0.00 PKD
ROOT
HETATM    1  N   UNL     1     -11.572  16.342  63.779  1.00  0.00    -1.482 NA 
HETATM    2  C   UNL     1     -11.716  15.138  64.589  1.00  0.00    -0.348 C  
HETATM    3  H2  UNL     1     -10.699  16.342  63.251  1.00  0.00     0.000 HD 
HETATM    4  H1  UNL     1     -12.383  16.463  63.172  1.00  0.00     0.000 HD 
ENDROOT
BRANCH   2   5
HETATM    5  C   UNL     1     -10.502  14.956  65.498  1.00  0.00    -0.380 C  
BRANCH   5   6
HETATM    6  C   UNL     1     -10.903  15.109  66.966  1.00  0.00    -0.314 C  
BRANCH   6   7
HETATM    7  N   UNL     1      -9.712  15.312  67.788  1.00  0.00    -0.214 NA 
HETATM    8  H   UNL     1      -9.422  14.450  68.248  1.00  0.00     0.000 HD 
BRANCH   7   9
HETATM    9  C   UNL     1      -8.622  15.898  67.001  1.00  0.00    -0.216 C  
BRANCH   9  10
HETATM   10  C   UNL     1      -7.267  15.670  67.673  1.00  0.00    -0.173 C  
BRANCH  10  11
HETATM   11  S   UNL     1      -6.907  16.925  68.945  1.00  0.00    -0.219 SA 
HETATM   12  P   UNL     1      -6.892  18.635  67.791  1.00  0.00    -0.216 P  
HETATM   13  O   UNL     1      -6.432  19.878  68.689  1.00  0.00    -0.267 OA 
HETATM   14  O   UNL     1      -6.068  18.481  66.553  1.00  0.00    -0.152 OA 
HETATM   15  O   UNL     1      -8.393  19.068  67.453  1.00  0.00    -0.272 OA 
ENDBRANCH  10  11
ENDBRANCH   9  10
ENDBRANCH   7   9
ENDBRANCH   6   7
ENDBRANCH   5   6
ENDBRANCH   2   5
TORSDOF 6
ENDMDL
MODEL      125
REMARK 921   NORMALIZED FREE ENERGY PREDICTED BY IDOCK:   -3.18 KCAL/MOL
REMARK 922        TOTAL FREE ENERGY PREDICTED BY IDOCK:   -4.37 KCAL/MOL
REMARK 923 INTER-LIGAND FREE ENERGY PREDICTED BY IDOCK:   -4.24 KCAL/MOL
REMARK 924 INTRA-LIGAND FREE ENERGY PREDICTED BY IDOCK:   -0.14 KCAL/MOL
REMARK 927      BINDING AFFINITY PREDICTED BY RF-SCORE:    0.00 PKD
ROOT
HETATM    1  N   UNL     1     -12.460   8.306  72.932  1.00  0.00    -0.650 NA 
HETATM    2  C   UNL     1     -11.346   8.856  72.170  1.00  0.00    -0.299 C  
HETATM    3  H2  UNL     1     -13.214   7.986  72.324  1.00  0.00     0.000 HD 
HETATM    4  H1  UNL     1     -12.136   7.567  73.556  1.00  0.00     0.000 HD 
ENDROOT
BRANCH   2   5
HETATM    5  C   UNL     1     -11.830   9.964  71.236  1.00  0.00    -0.479 C  
BRANCH   5   6
HETATM    6  C   UNL     1     -11.041   9.944  69.926  1.00  0.00    -0.275 C  
BRANCH   6   7
HETATM    7  N   UNL     1     -11.923  10.281  68.811  1.00  0.00    -0.659 NA 
HETATM    8  H   UNL     1     -12.696  10.876  69.109  1.00  0.00     0.000 HD 
BRANCH   7   9
HETATM    9  C   UNL     1     -11.169  10.887  67.707  1.00  0.00    -0.317 C  
BRANCH   9  10
HETATM   10  C   UNL     1     -11.343  12.406  67.685  1.00  0.00    -0.312 C  
BRANCH  10  11
HETATM   11  S   UNL     1      -9.986  13.270  68.542  1.00  0.00    -0.137 SA 
HETATM   12  P   UNL     1     -10.921  15.044  69.029  1.00  0.00    -0.279 P  
HETATM   13  O   UNL     1      -9.852  16.050  69.669  1.00  0.00    -0.257 OA 
HETATM   14  O   UNL     1     -11.652  15.641  67.870  1.00  0.00    -0.305 OA 
HETATM   15  O   UNL     1     -11.884  14.817  70.284  1.00  0.00    -0.268 OA 
ENDBRANCH  10  11
ENDBRANCH   9  10
ENDBRANCH   7   9
ENDBRANCH   6   7
ENDBRANCH   5   6
ENDBRANCH   2   5
TORSDOF 6
ENDMDL
MODEL      126
REMARK 921   NORMALIZED FREE ENERGY PREDICTED BY IDOCK:   -3.18 KCAL/MOL
REMARK 922        TOTAL FREE ENERGY PREDICTED BY IDOCK:   -4.37 KCAL/MOL
REMARK 923 INTER-LIGAND FREE ENERGY PREDICTED BY IDOCK:   -3.76 KCAL/MOL
REMARK 924 INTRA-LIGAND FREE ENERGY PREDICTED BY IDOCK:   -0.61 KCAL/MOL
REMARK 927      BINDING AFFINITY PREDICTED BY RF-SCORE:    0.00 PKD
ROOT
HETATM    1  N   UNL     1      -8.699  17.175  68.673  1.00  0.00    -0.271 NA 
HETATM    2  C   UNL     1      -7.558  17.684  67.923  1.00  0.00    -0.210 C  
HETATM    3  H2  UNL     1      -8.540  16.224  69.007  1.00  0.00     0.000 HD 
HETATM    4  H1  UNL     1      -8.938  17.809  69.436  1.00  0.00     0.000 HD 
ENDROOT
BRANCH   2   5
HETATM    5  C   UNL     1      -7.200  16.735  66.781  1.00  0.00    -0.270 C  
BRANCH   5   6
HETATM    6  C   UNL     1      -8.421  15.917  66.361  1.00  0.00    -0.313 C  
BRANCH   6   7
HETATM    7  N   UNL     1      -9.435  16.798  65.785  1.00  0.00    -0.527 NA 
HETATM    8  H   UNL     1      -9.053  17.368  65.031  1.00  0.00     0.000 HD 
BRANCH   7   9
HETATM    9  C   UNL     1     -10.609  16.035  65.346  1.00  0.00    -0.408 C  
BRANCH   9  10
HETATM   10  C   UNL     1     -10.466  14.551  65.687  1.00  0.00    -0.336 C  
BRANCH  10  11
HETATM   11  S   UNL     1     -11.766  13.975  66.828  1.00  0.00    -0.427 SA 
HETATM   12  P   UNL     1     -10.665  13.725  68.554  1.00  0.00    -0.266 P  
HETATM   13  O   UNL     1     -11.588  13.061  69.681  1.00  0.00    -0.286 OA 
HETATM   14  O   UNL     1      -9.401  12.961  68.320  1.00  0.00    -0.209 OA 
HETATM   15  O   UNL     1     -10.382  15.149  69.222  1.00  0.00    -0.238 OA 
ENDBRANCH  10  11
ENDBRANCH   9  10
ENDBRANCH   7   9
ENDBRANCH   6   7
ENDBRANCH   5   6
ENDBRANCH   2   5
TORSDOF 6
ENDMDL
MODEL      127
REMARK 921   NORMALIZED FREE ENERGY PREDICTED BY IDOCK:   -3.17 KCAL/MOL
REMARK 922        TOTAL FREE ENERGY PREDICTED BY IDOCK:   -4.37 KCAL/MOL
REMARK 923 INTER-LIGAND FREE ENERGY PREDICTED BY IDOCK:   -4.24 KCAL/MOL
REMARK 924 INTRA-LIGAND FREE ENERGY PREDICTED BY IDOCK:   -0.13 KCAL/MOL
REMARK 927      BINDING AFFINITY PREDICTED BY RF-SCORE:    0.00 PKD
ROOT
HETATM    1  N   UNL     1      -6.912  11.346  70.137  1.00  0.00    -0.444 NA 
HETATM    2  C   UNL     1      -7.589  10.644  69.053  1.00  0.00    -0.122 C  
HETATM    3  H2  UNL     1      -7.572  11.834  70.743  1.00  0.00     0.000 HD 
HETATM    4  H1  UNL     1      -6.318  10.705  70.663  1.00  0.00     0.000 HD 
ENDROOT
BRANCH   2   5
HETATM    5  C   UNL     1      -8.478  11.604  68.265  1.00  0.00    -0.160 C  
BRANCH   5   6
HETATM    6  C   UNL     1      -9.409  10.830  67.331  1.00  0.00    -0.150 C  
BRANCH   6   7
HETATM    7  N   UNL     1     -10.801  11.151  67.640  1.00  0.00    -0.228 NA 
HETATM    8  H   UNL     1     -10.872  11.812  68.413  1.00  0.00     0.000 HD 
BRANCH   7   9
HETATM    9  C   UNL     1     -11.507  11.633  66.449  1.00  0.00    -0.165 C  
BRANCH   9  10
HETATM   10  C   UNL     1     -10.527  12.029  65.344  1.00  0.00    -0.275 C  
BRANCH  10  11
HETATM   11  S   UNL     1     -10.419  13.836  65.129  1.00  0.00    -0.397 SA 
HETATM   12  P   UNL     1     -12.263  14.223  64.288  1.00  0.00    -0.194 P  
HETATM   13  O   UNL     1     -12.338  15.764  63.859  1.00  0.00    -0.728 OA 
HETATM   14  O   UNL     1     -12.583  13.294  63.161  1.00  0.00    -0.666 OA 
HETATM   15  O   UNL     1     -13.389  14.189  65.422  1.00  0.00    -0.705 OA 
ENDBRANCH  10  11
ENDBRANCH   9  10
ENDBRANCH   7   9
ENDBRANCH   6   7
ENDBRANCH   5   6
ENDBRANCH   2   5
TORSDOF 6
ENDMDL
MODEL      128
REMARK 921   NORMALIZED FREE ENERGY PREDICTED BY IDOCK:   -3.17 KCAL/MOL
REMARK 922        TOTAL FREE ENERGY PREDICTED BY IDOCK:   -4.36 KCAL/MOL
REMARK 923 INTER-LIGAND FREE ENERGY PREDICTED BY IDOCK:   -4.02 KCAL/MOL
REMARK 924 INTRA-LIGAND FREE ENERGY PREDICTED BY IDOCK:   -0.34 KCAL/MOL
REMARK 927      BINDING AFFINITY PREDICTED BY RF-SCORE:    0.00 PKD
ROOT
HETATM    1  N   UNL     1     -11.571  14.965  68.056  1.00  0.00    -0.336 NA 
HETATM    2  C   UNL     1     -11.978  14.114  66.944  1.00  0.00    -0.449 C  
HETATM    3  H2  UNL     1     -10.639  14.726  68.395  1.00  0.00     0.000 HD 
HETATM    4  H1  UNL     1     -11.639  15.949  67.797  1.00  0.00     0.000 HD 
ENDROOT
BRANCH   2   5
HETATM    5  C   UNL     1     -11.876  12.640  67.332  1.00  0.00    -0.393 C  
BRANCH   5   6
HETATM    6  C   UNL     1     -10.822  12.443  68.422  1.00  0.00    -0.238 C  
BRANCH   6   7
HETATM    7  N   UNL     1     -11.447  12.531  69.740  1.00  0.00    -0.492 NA 
HETATM    8  H   UNL     1     -12.207  13.210  69.750  1.00  0.00     0.000 HD 
BRANCH   7   9
HETATM    9  C   UNL     1     -11.895  11.212  70.199  1.00  0.00    -0.365 C  
BRANCH   9  10
HETATM   10  C   UNL     1     -10.931  10.111  69.752  1.00  0.00    -0.280 C  
BRANCH  10  11
HETATM   11  S   UNL     1     -10.253   9.171  71.159  1.00  0.00    -0.320 SA 
HETATM   12  P   UNL     1     -11.636   7.646  71.290  1.00  0.00    -0.291 P  
HETATM   13  O   UNL     1     -11.325   6.757  72.585  1.00  0.00    -0.259 OA 
HETATM   14  O   UNL     1     -13.044   8.147  71.258  1.00  0.00    -0.255 OA 
HETATM   15  O   UNL     1     -11.363   6.572  70.137  1.00  0.00    -0.341 OA 
ENDBRANCH  10  11
ENDBRANCH   9  10
ENDBRANCH   7   9
ENDBRANCH   6   7
ENDBRANCH   5   6
ENDBRANCH   2   5
TORSDOF 6
ENDMDL
MODEL      129
REMARK 921   NORMALIZED FREE ENERGY PREDICTED BY IDOCK:   -3.16 KCAL/MOL
REMARK 922        TOTAL FREE ENERGY PREDICTED BY IDOCK:   -4.35 KCAL/MOL
REMARK 923 INTER-LIGAND FREE ENERGY PREDICTED BY IDOCK:   -3.98 KCAL/MOL
REMARK 924 INTRA-LIGAND FREE ENERGY PREDICTED BY IDOCK:   -0.37 KCAL/MOL
REMARK 927      BINDING AFFINITY PREDICTED BY RF-SCORE:    0.00 PKD
ROOT
HETATM    1  N   UNL     1     -12.001  15.933  63.735  1.00  0.00    -1.266 NA 
HETATM    2  C   UNL     1     -12.039  14.602  64.327  1.00  0.00    -0.415 C  
HETATM    3  H2  UNL     1     -11.096  16.132  63.307  1.00  0.00     0.000 HD 
HETATM    4  H1  UNL     1     -12.768  16.054  63.074  1.00  0.00     0.000 HD 
ENDROOT
BRANCH   2   5
HETATM    5  C   UNL     1     -10.891  14.422  65.318  1.00  0.00    -0.370 C  
BRANCH   5   6
HETATM    6  C   UNL     1     -10.193  15.757  65.579  1.00  0.00    -0.378 C  
BRANCH   6   7
HETATM    7  N   UNL     1     -10.996  16.567  66.492  1.00  0.00    -0.031 NA 
HETATM    8  H   UNL     1     -11.927  16.173  66.624  1.00  0.00     0.000 HD 
BRANCH   7   9
HETATM    9  C   UNL     1     -10.305  16.761  67.771  1.00  0.00    -0.318 C  
BRANCH   9  10
HETATM   10  C   UNL     1      -8.786  16.694  67.598  1.00  0.00    -0.201 C  
BRANCH  10  11
HETATM   11  S   UNL     1      -7.927  18.017  68.511  1.00  0.00    -0.291 SA 
HETATM   12  P   UNL     1      -6.242  17.004  69.138  1.00  0.00    -0.225 P  
HETATM   13  O   UNL     1      -5.390  17.945  70.114  1.00  0.00    -0.205 OA 
HETATM   14  O   UNL     1      -6.567  15.680  69.753  1.00  0.00    -0.174 OA 
HETATM   15  O   UNL     1      -5.218  16.857  67.920  1.00  0.00    -0.108 OA 
ENDBRANCH  10  11
ENDBRANCH   9  10
ENDBRANCH   7   9
ENDBRANCH   6   7
ENDBRANCH   5   6
ENDBRANCH   2   5
TORSDOF 6
ENDMDL
MODEL      130
REMARK 921   NORMALIZED FREE ENERGY PREDICTED BY IDOCK:   -3.15 KCAL/MOL
REMARK 922        TOTAL FREE ENERGY PREDICTED BY IDOCK:   -4.33 KCAL/MOL
REMARK 923 INTER-LIGAND FREE ENERGY PREDICTED BY IDOCK:   -3.87 KCAL/MOL
REMARK 924 INTRA-LIGAND FREE ENERGY PREDICTED BY IDOCK:   -0.47 KCAL/MOL
REMARK 927      BINDING AFFINITY PREDICTED BY RF-SCORE:    0.00 PKD
ROOT
HETATM    1  N   UNL     1     -12.752  13.937  65.514  1.00  0.00    -0.611 NA 
HETATM    2  C   UNL     1     -12.094  14.330  64.274  1.00  0.00    -0.441 C  
HETATM    3  H2  UNL     1     -12.364  13.072  65.892  1.00  0.00     0.000 HD 
HETATM    4  H1  UNL     1     -12.717  14.696  66.195  1.00  0.00     0.000 HD 
ENDROOT
BRANCH   2   5
HETATM    5  C   UNL     1     -12.147  13.193  63.255  1.00  0.00    -0.460 C  
BRANCH   5   6
HETATM    6  C   UNL     1     -11.108  12.123  63.591  1.00  0.00    -0.457 C  
BRANCH   6   7
HETATM    7  N   UNL     1     -10.044  12.702  64.408  1.00  0.00    -0.541 NA 
HETATM    8  H   UNL     1     -10.280  13.645  64.719  1.00  0.00     0.000 HD 
BRANCH   7   9
HETATM    9  C   UNL     1      -9.712  11.828  65.538  1.00  0.00    -0.224 C  
BRANCH   9  10
HETATM   10  C   UNL     1      -9.824  12.573  66.869  1.00  0.00    -0.227 C  
BRANCH  10  11
HETATM   11  S   UNL     1      -8.523  12.083  68.047  1.00  0.00    -0.175 SA 
HETATM   12  P   UNL     1      -9.367  10.380  68.850  1.00  0.00    -0.193 P  
HETATM   13  O   UNL     1      -8.450   9.847  70.050  1.00  0.00    -0.193 OA 
HETATM   14  O   UNL     1     -10.790  10.586  69.259  1.00  0.00    -0.210 OA 
HETATM   15  O   UNL     1      -9.216   9.168  67.818  1.00  0.00    -0.133 OA 
ENDBRANCH  10  11
ENDBRANCH   9  10
ENDBRANCH   7   9
ENDBRANCH   6   7
ENDBRANCH   5   6
ENDBRANCH   2   5
TORSDOF 6
ENDMDL
MODEL      131
REMARK 921   NORMALIZED FREE ENERGY PREDICTED BY IDOCK:   -3.15 KCAL/MOL
REMARK 922        TOTAL FREE ENERGY PREDICTED BY IDOCK:   -4.33 KCAL/MOL
REMARK 923 INTER-LIGAND FREE ENERGY PREDICTED BY IDOCK:   -4.14 KCAL/MOL
REMARK 924 INTRA-LIGAND FREE ENERGY PREDICTED BY IDOCK:   -0.19 KCAL/MOL
REMARK 927      BINDING AFFINITY PREDICTED BY RF-SCORE:    0.00 PKD
ROOT
HETATM    1  N   UNL     1      -9.479   8.317  65.875  1.00  0.00    -0.430 NA 
HETATM    2  C   UNL     1     -10.282   9.108  66.799  1.00  0.00    -0.261 C  
HETATM    3  H2  UNL     1      -9.244   7.403  66.263  1.00  0.00     0.000 HD 
HETATM    4  H1  UNL     1      -9.947   8.237  64.972  1.00  0.00     0.000 HD 
ENDROOT
BRANCH   2   5
HETATM    5  C   UNL     1      -9.581   9.228  68.151  1.00  0.00    -0.159 C  
BRANCH   5   6
HETATM    6  C   UNL     1      -9.082  10.656  68.372  1.00  0.00    -0.156 C  
BRANCH   6   7
HETATM    7  N   UNL     1      -9.985  11.604  67.724  1.00  0.00    -0.178 NA 
HETATM    8  H   UNL     1     -10.905  11.194  67.560  1.00  0.00     0.000 HD 
BRANCH   7   9
HETATM    9  C   UNL     1     -10.078  12.851  68.489  1.00  0.00    -0.189 C  
BRANCH   9  10
HETATM   10  C   UNL     1     -10.255  14.058  67.566  1.00  0.00    -0.244 C  
BRANCH  10  11
HETATM   11  S   UNL     1     -11.898  14.090  66.777  1.00  0.00    -0.442 SA 
HETATM   12  P   UNL     1     -11.375  14.585  64.844  1.00  0.00    -0.398 P  
HETATM   13  O   UNL     1     -12.701  14.828  63.980  1.00  0.00    -0.786 OA 
HETATM   14  O   UNL     1     -10.430  15.742  64.787  1.00  0.00    -0.490 OA 
HETATM   15  O   UNL     1     -10.783  13.300  64.101  1.00  0.00    -0.405 OA 
ENDBRANCH  10  11
ENDBRANCH   9  10
ENDBRANCH   7   9
ENDBRANCH   6   7
ENDBRANCH   5   6
ENDBRANCH   2   5
TORSDOF 6
ENDMDL
MODEL      132
REMARK 921   NORMALIZED FREE ENERGY PREDICTED BY IDOCK:   -3.14 KCAL/MOL
REMARK 922        TOTAL FREE ENERGY PREDICTED BY IDOCK:   -4.32 KCAL/MOL
REMARK 923 INTER-LIGAND FREE ENERGY PREDICTED BY IDOCK:   -3.97 KCAL/MOL
REMARK 924 INTRA-LIGAND FREE ENERGY PREDICTED BY IDOCK:   -0.35 KCAL/MOL
REMARK 927      BINDING AFFINITY PREDICTED BY RF-SCORE:    0.00 PKD
ROOT
HETATM    1  N   UNL     1     -11.495   4.454  65.067  1.00  0.00    -1.079 NA 
HETATM    2  C   UNL     1     -10.126   4.414  65.569  1.00  0.00    -0.236 C  
HETATM    3  H2  UNL     1     -11.806   5.409  64.890  1.00  0.00     0.000 HD 
HETATM    4  H1  UNL     1     -11.590   3.864  64.240  1.00  0.00     0.000 HD 
ENDROOT
BRANCH   2   5
HETATM    5  C   UNL     1      -9.983   5.297  66.807  1.00  0.00    -0.224 C  
BRANCH   5   6
HETATM    6  C   UNL     1     -11.252   6.120  67.029  1.00  0.00    -0.101 C  
BRANCH   6   7
HETATM    7  N   UNL     1     -11.120   6.919  68.245  1.00  0.00    -0.506 NA 
HETATM    8  H   UNL     1     -11.235   6.349  69.084  1.00  0.00     0.000 HD 
BRANCH   7   9
HETATM    9  C   UNL     1      -9.849   7.651  68.259  1.00  0.00    -0.166 C  
BRANCH   9  10
HETATM   10  C   UNL     1      -9.925   8.879  69.168  1.00  0.00    -0.190 C  
BRANCH  10  11
HETATM   11  S   UNL     1      -9.456   8.498  70.887  1.00  0.00    -0.195 SA 
HETATM   12  P   UNL     1     -11.275   7.883  71.643  1.00  0.00    -0.277 P  
HETATM   13  O   UNL     1     -11.140   7.638  73.219  1.00  0.00    -0.382 OA 
HETATM   14  O   UNL     1     -12.384   8.825  71.298  1.00  0.00    -0.295 OA 
HETATM   15  O   UNL     1     -11.586   6.395  71.150  1.00  0.00    -0.314 OA 
ENDBRANCH  10  11
ENDBRANCH   9  10
ENDBRANCH   7   9
ENDBRANCH   6   7
ENDBRANCH   5   6
ENDBRANCH   2   5
TORSDOF 6
ENDMDL
MODEL      133
REMARK 921   NORMALIZED FREE ENERGY PREDICTED BY IDOCK:   -3.13 KCAL/MOL
REMARK 922        TOTAL FREE ENERGY PREDICTED BY IDOCK:   -4.31 KCAL/MOL
REMARK 923 INTER-LIGAND FREE ENERGY PREDICTED BY IDOCK:   -3.65 KCAL/MOL
REMARK 924 INTRA-LIGAND FREE ENERGY PREDICTED BY IDOCK:   -0.66 KCAL/MOL
REMARK 927      BINDING AFFINITY PREDICTED BY RF-SCORE:    0.00 PKD
ROOT
HETATM    1  N   UNL     1     -11.501  14.735  65.946  1.00  0.00    -0.344 NA 
HETATM    2  C   UNL     1     -10.570  13.656  66.255  1.00  0.00    -0.289 C  
HETATM    3  H2  UNL     1     -11.252  15.600  66.427  1.00  0.00     0.000 HD 
HETATM    4  H1  UNL     1     -11.572  14.869  64.938  1.00  0.00     0.000 HD 
ENDROOT
BRANCH   2   5
HETATM    5  C   UNL     1     -10.463  13.456  67.765  1.00  0.00    -0.246 C  
BRANCH   5   6
HETATM    6  C   UNL     1      -9.071  13.847  68.262  1.00  0.00    -0.191 C  
BRANCH   6   7
HETATM    7  N   UNL     1      -8.758  15.210  67.839  1.00  0.00    -0.155 NA 
HETATM    8  H   UNL     1      -9.519  15.620  67.298  1.00  0.00     0.000 HD 
BRANCH   7   9
HETATM    9  C   UNL     1      -8.397  16.048  68.986  1.00  0.00    -0.243 C  
BRANCH   9  10
HETATM   10  C   UNL     1      -7.496  17.210  68.564  1.00  0.00    -0.238 C  
BRANCH  10  11
HETATM   11  S   UNL     1      -8.428  18.759  68.328  1.00  0.00    -0.336 SA 
HETATM   12  P   UNL     1      -9.798  18.157  66.908  1.00  0.00    -0.369 P  
HETATM   13  O   UNL     1     -10.648  19.424  66.420  1.00  0.00    -0.438 OA 
HETATM   14  O   UNL     1      -9.160  17.420  65.775  1.00  0.00    -0.517 OA 
HETATM   15  O   UNL     1     -10.950  17.294  67.603  1.00  0.00    -0.286 OA 
ENDBRANCH  10  11
ENDBRANCH   9  10
ENDBRANCH   7   9
ENDBRANCH   6   7
ENDBRANCH   5   6
ENDBRANCH   2   5
TORSDOF 6
ENDMDL
MODEL      134
REMARK 921   NORMALIZED FREE ENERGY PREDICTED BY IDOCK:   -3.12 KCAL/MOL
REMARK 922        TOTAL FREE ENERGY PREDICTED BY IDOCK:   -4.30 KCAL/MOL
REMARK 923 INTER-LIGAND FREE ENERGY PREDICTED BY IDOCK:   -3.43 KCAL/MOL
REMARK 924 INTRA-LIGAND FREE ENERGY PREDICTED BY IDOCK:   -0.87 KCAL/MOL
REMARK 927      BINDING AFFINITY PREDICTED BY RF-SCORE:    0.00 PKD
ROOT
HETATM    1  N   UNL     1      -8.255  11.938  67.835  1.00  0.00    -0.141 NA 
HETATM    2  C   UNL     1      -7.943  10.536  68.081  1.00  0.00    -0.111 C  
HETATM    3  H2  UNL     1      -9.214  12.062  67.509  1.00  0.00     0.000 HD 
HETATM    4  H1  UNL     1      -8.061  12.499  68.664  1.00  0.00     0.000 HD 
ENDROOT
BRANCH   2   5
HETATM    5  C   UNL     1      -8.233   9.695  66.839  1.00  0.00    -0.113 C  
BRANCH   5   6
HETATM    6  C   UNL     1      -9.401  10.288  66.050  1.00  0.00    -0.180 C  
BRANCH   6   7
HETATM    7  N   UNL     1      -8.897  11.197  65.023  1.00  0.00    -0.372 NA 
HETATM    8  H   UNL     1      -7.885  11.123  64.920  1.00  0.00     0.000 HD 
BRANCH   7   9
HETATM    9  C   UNL     1      -9.587  10.984  63.746  1.00  0.00    -0.286 C  
BRANCH   9  10
HETATM   10  C   UNL     1     -10.386  12.221  63.334  1.00  0.00    -0.357 C  
BRANCH  10  11
HETATM   11  S   UNL     1     -11.907  12.422  64.319  1.00  0.00    -0.424 SA 
HETATM   12  P   UNL     1     -11.345  13.970  65.561  1.00  0.00    -0.337 P  
HETATM   13  O   UNL     1     -12.495  14.225  66.646  1.00  0.00    -0.407 OA 
HETATM   14  O   UNL     1     -10.005  13.746  66.184  1.00  0.00    -0.293 OA 
HETATM   15  O   UNL     1     -11.402  15.351  64.758  1.00  0.00    -0.412 OA 
ENDBRANCH  10  11
ENDBRANCH   9  10
ENDBRANCH   7   9
ENDBRANCH   6   7
ENDBRANCH   5   6
ENDBRANCH   2   5
TORSDOF 6
ENDMDL
MODEL      135
REMARK 921   NORMALIZED FREE ENERGY PREDICTED BY IDOCK:   -3.12 KCAL/MOL
REMARK 922        TOTAL FREE ENERGY PREDICTED BY IDOCK:   -4.30 KCAL/MOL
REMARK 923 INTER-LIGAND FREE ENERGY PREDICTED BY IDOCK:   -4.09 KCAL/MOL
REMARK 924 INTRA-LIGAND FREE ENERGY PREDICTED BY IDOCK:   -0.21 KCAL/MOL
REMARK 927      BINDING AFFINITY PREDICTED BY RF-SCORE:    0.00 PKD
ROOT
HETATM    1  N   UNL     1      -9.684   8.882  65.914  1.00  0.00    -0.423 NA 
HETATM    2  C   UNL     1     -10.494   9.412  67.004  1.00  0.00    -0.231 C  
HETATM    3  H2  UNL     1      -8.781   9.353  65.848  1.00  0.00     0.000 HD 
HETATM    4  H1  UNL     1      -9.579   7.872  66.004  1.00  0.00     0.000 HD 
ENDROOT
BRANCH   2   5
HETATM    5  C   UNL     1     -10.653  10.925  66.867  1.00  0.00    -0.312 C  
BRANCH   5   6
HETATM    6  C   UNL     1     -10.994  11.553  68.219  1.00  0.00    -0.224 C  
BRANCH   6   7
HETATM    7  N   UNL     1     -11.971  10.723  68.920  1.00  0.00    -0.672 NA 
HETATM    8  H   UNL     1     -11.901   9.745  68.642  1.00  0.00     0.000 HD 
BRANCH   7   9
HETATM    9  C   UNL     1     -11.853  10.883  70.373  1.00  0.00    -0.357 C  
BRANCH   9  10
HETATM   10  C   UNL     1     -12.059   9.552  71.097  1.00  0.00    -0.347 C  
BRANCH  10  11
HETATM   11  S   UNL     1     -10.519   8.582  71.214  1.00  0.00    -0.244 SA 
HETATM   12  P   UNL     1     -11.276   6.666  71.113  1.00  0.00    -0.326 P  
HETATM   13  O   UNL     1     -10.093   5.614  71.357  1.00  0.00    -0.186 OA 
HETATM   14  O   UNL     1     -12.432   6.459  72.038  1.00  0.00    -0.333 OA 
HETATM   15  O   UNL     1     -11.658   6.318  69.600  1.00  0.00    -0.430 OA 
ENDBRANCH  10  11
ENDBRANCH   9  10
ENDBRANCH   7   9
ENDBRANCH   6   7
ENDBRANCH   5   6
ENDBRANCH   2   5
TORSDOF 6
ENDMDL
MODEL      136
REMARK 921   NORMALIZED FREE ENERGY PREDICTED BY IDOCK:   -3.12 KCAL/MOL
REMARK 922        TOTAL FREE ENERGY PREDICTED BY IDOCK:   -4.29 KCAL/MOL
REMARK 923 INTER-LIGAND FREE ENERGY PREDICTED BY IDOCK:   -3.92 KCAL/MOL
REMARK 924 INTRA-LIGAND FREE ENERGY PREDICTED BY IDOCK:   -0.37 KCAL/MOL
REMARK 927      BINDING AFFINITY PREDICTED BY RF-SCORE:    0.00 PKD
ROOT
HETATM    1  N   UNL     1     -13.018   7.220  70.703  1.00  0.00    -0.537 NA 
HETATM    2  C   UNL     1     -12.662   7.969  71.902  1.00  0.00    -0.327 C  
HETATM    3  H2  UNL     1     -12.954   7.796  69.863  1.00  0.00     0.000 HD 
HETATM    4  H1  UNL     1     -12.452   6.375  70.628  1.00  0.00     0.000 HD 
ENDROOT
BRANCH   2   5
HETATM    5  C   UNL     1     -13.510   9.234  72.016  1.00  0.00    -0.519 C  
BRANCH   5   6
HETATM    6  C   UNL     1     -12.764  10.434  71.433  1.00  0.00    -0.446 C  
BRANCH   6   7
HETATM    7  N   UNL     1     -12.336  10.138  70.067  1.00  0.00    -0.515 NA 
HETATM    8  H   UNL     1     -13.056   9.634  69.550  1.00  0.00     0.000 HD 
BRANCH   7   9
HETATM    9  C   UNL     1     -11.922  11.359  69.368  1.00  0.00    -0.339 C  
BRANCH   9  10
HETATM   10  C   UNL     1     -11.516  11.062  67.924  1.00  0.00    -0.282 C  
BRANCH  10  11
HETATM   11  S   UNL     1     -10.624   9.480  67.768  1.00  0.00    -0.242 SA 
HETATM   12  P   UNL     1      -9.666   9.768  65.964  1.00  0.00    -0.275 P  
HETATM   13  O   UNL     1      -8.925   8.415  65.534  1.00  0.00    -0.171 OA 
HETATM   14  O   UNL     1     -10.587  10.283  64.904  1.00  0.00    -0.111 OA 
HETATM   15  O   UNL     1      -8.406  10.729  66.171  1.00  0.00    -0.156 OA 
ENDBRANCH  10  11
ENDBRANCH   9  10
ENDBRANCH   7   9
ENDBRANCH   6   7
ENDBRANCH   5   6
ENDBRANCH   2   5
TORSDOF 6
ENDMDL
MODEL      137
REMARK 921   NORMALIZED FREE ENERGY PREDICTED BY IDOCK:   -3.11 KCAL/MOL
REMARK 922        TOTAL FREE ENERGY PREDICTED BY IDOCK:   -4.29 KCAL/MOL
REMARK 923 INTER-LIGAND FREE ENERGY PREDICTED BY IDOCK:   -3.95 KCAL/MOL
REMARK 924 INTRA-LIGAND FREE ENERGY PREDICTED BY IDOCK:   -0.34 KCAL/MOL
REMARK 927      BINDING AFFINITY PREDICTED BY RF-SCORE:    0.00 PKD
ROOT
HETATM    1  N   UNL     1     -12.238  10.671  68.732  1.00  0.00    -0.808 NA 
HETATM    2  C   UNL     1     -11.826  10.691  70.131  1.00  0.00    -0.337 C  
HETATM    3  H2  UNL     1     -13.218  10.935  68.622  1.00  0.00     0.000 HD 
HETATM    4  H1  UNL     1     -11.622  11.255  68.169  1.00  0.00     0.000 HD 
ENDROOT
BRANCH   2   5
HETATM    5  C   UNL     1     -12.749   9.815  70.975  1.00  0.00    -0.392 C  
BRANCH   5   6
HETATM    6  C   UNL     1     -12.000   9.254  72.183  1.00  0.00    -0.246 C  
BRANCH   6   7
HETATM    7  N   UNL     1     -12.537   7.941  72.535  1.00  0.00    -0.560 NA 
HETATM    8  H   UNL     1     -13.390   8.020  73.088  1.00  0.00     0.000 HD 
BRANCH   7   9
HETATM    9  C   UNL     1     -12.741   7.117  71.339  1.00  0.00    -0.391 C  
BRANCH   9  10
HETATM   10  C   UNL     1     -11.508   6.265  71.034  1.00  0.00    -0.306 C  
BRANCH  10  11
HETATM   11  S   UNL     1     -11.029   6.346  69.277  1.00  0.00    -0.374 SA 
HETATM   12  P   UNL     1      -9.197   7.282  69.433  1.00  0.00    -0.146 P  
HETATM   13  O   UNL     1      -8.641   7.607  67.967  1.00  0.00    -0.123 OA 
HETATM   14  O   UNL     1      -9.246   8.490  70.312  1.00  0.00    -0.151 OA 
HETATM   15  O   UNL     1      -8.097   6.233  69.927  1.00  0.00    -0.115 OA 
ENDBRANCH  10  11
ENDBRANCH   9  10
ENDBRANCH   7   9
ENDBRANCH   6   7
ENDBRANCH   5   6
ENDBRANCH   2   5
TORSDOF 6
ENDMDL
MODEL      138
REMARK 921   NORMALIZED FREE ENERGY PREDICTED BY IDOCK:   -3.11 KCAL/MOL
REMARK 922        TOTAL FREE ENERGY PREDICTED BY IDOCK:   -4.28 KCAL/MOL
REMARK 923 INTER-LIGAND FREE ENERGY PREDICTED BY IDOCK:   -4.16 KCAL/MOL
REMARK 924 INTRA-LIGAND FREE ENERGY PREDICTED BY IDOCK:   -0.13 KCAL/MOL
REMARK 927      BINDING AFFINITY PREDICTED BY RF-SCORE:    0.00 PKD
ROOT
HETATM    1  N   UNL     1      -8.183  12.232  68.804  1.00  0.00    -0.343 NA 
HETATM    2  C   UNL     1      -8.553  13.392  68.003  1.00  0.00    -0.174 C  
HETATM    3  H2  UNL     1      -8.356  11.357  68.308  1.00  0.00     0.000 HD 
HETATM    4  H1  UNL     1      -7.214  12.305  69.115  1.00  0.00     0.000 HD 
ENDROOT
BRANCH   2   5
HETATM    5  C   UNL     1     -10.003  13.282  67.537  1.00  0.00    -0.223 C  
BRANCH   5   6
HETATM    6  C   UNL     1     -10.935  13.067  68.731  1.00  0.00    -0.258 C  
BRANCH   6   7
HETATM    7  N   UNL     1     -12.210  13.740  68.493  1.00  0.00    -0.444 NA 
HETATM    8  H   UNL     1     -12.853  13.150  67.964  1.00  0.00     0.000 HD 
BRANCH   7   9
HETATM    9  C   UNL     1     -12.808  14.198  69.751  1.00  0.00     0.239 C  
BRANCH   9  10
HETATM   10  C   UNL     1     -12.272  15.574  70.151  1.00  0.00    -0.376 C  
BRANCH  10  11
HETATM   11  S   UNL     1     -11.428  15.545  71.767  1.00  0.00    -0.407 SA 
HETATM   12  P   UNL     1     -13.014  15.103  73.009  1.00  0.00    -0.564 P  
HETATM   13  O   UNL     1     -12.531  15.180  74.534  1.00  0.00    -0.534 OA 
HETATM   14  O   UNL     1     -14.208  15.961  72.739  1.00  0.00    -0.523 OA 
HETATM   15  O   UNL     1     -13.365  13.548  72.901  1.00  0.00    -0.549 OA 
ENDBRANCH  10  11
ENDBRANCH   9  10
ENDBRANCH   7   9
ENDBRANCH   6   7
ENDBRANCH   5   6
ENDBRANCH   2   5
TORSDOF 6
ENDMDL
MODEL      139
REMARK 921   NORMALIZED FREE ENERGY PREDICTED BY IDOCK:   -3.11 KCAL/MOL
REMARK 922        TOTAL FREE ENERGY PREDICTED BY IDOCK:   -4.28 KCAL/MOL
REMARK 923 INTER-LIGAND FREE ENERGY PREDICTED BY IDOCK:   -4.09 KCAL/MOL
REMARK 924 INTRA-LIGAND FREE ENERGY PREDICTED BY IDOCK:   -0.19 KCAL/MOL
REMARK 927      BINDING AFFINITY PREDICTED BY RF-SCORE:    0.00 PKD
ROOT
HETATM    1  N   UNL     1      -9.746  13.730  68.914  1.00  0.00    -0.415 NA 
HETATM    2  C   UNL     1     -11.084  14.148  68.514  1.00  0.00    -0.255 C  
HETATM    3  H2  UNL     1      -9.225  13.328  68.134  1.00  0.00     0.000 HD 
HETATM    4  H1  UNL     1      -9.243  14.504  69.346  1.00  0.00     0.000 HD 
ENDROOT
BRANCH   2   5
HETATM    5  C   UNL     1     -11.838  12.987  67.867  1.00  0.00    -0.389 C  
BRANCH   5   6
HETATM    6  C   UNL     1     -11.229  11.650  68.289  1.00  0.00    -0.260 C  
BRANCH   6   7
HETATM    7  N   UNL     1     -12.279  10.760  68.781  1.00  0.00    -0.814 NA 
HETATM    8  H   UNL     1     -12.231   9.842  68.339  1.00  0.00     0.000 HD 
BRANCH   7   9
HETATM    9  C   UNL     1     -12.241  10.658  70.244  1.00  0.00    -0.334 C  
BRANCH   9  10
HETATM   10  C   UNL     1     -11.043   9.831  70.712  1.00  0.00    -0.345 C  
BRANCH  10  11
HETATM   11  S   UNL     1     -11.493   8.637  72.014  1.00  0.00    -0.374 SA 
HETATM   12  P   UNL     1      -9.671   7.721  72.327  1.00  0.00    -0.226 P  
HETATM   13  O   UNL     1      -9.859   6.499  73.344  1.00  0.00    -0.162 OA 
HETATM   14  O   UNL     1      -9.011   7.312  71.050  1.00  0.00    -0.147 OA 
HETATM   15  O   UNL     1      -8.732   8.676  73.200  1.00  0.00    -0.371 OA 
ENDBRANCH  10  11
ENDBRANCH   9  10
ENDBRANCH   7   9
ENDBRANCH   6   7
ENDBRANCH   5   6
ENDBRANCH   2   5
TORSDOF 6
ENDMDL
MODEL      140
REMARK 921   NORMALIZED FREE ENERGY PREDICTED BY IDOCK:   -3.10 KCAL/MOL
REMARK 922        TOTAL FREE ENERGY PREDICTED BY IDOCK:   -4.27 KCAL/MOL
REMARK 923 INTER-LIGAND FREE ENERGY PREDICTED BY IDOCK:   -3.76 KCAL/MOL
REMARK 924 INTRA-LIGAND FREE ENERGY PREDICTED BY IDOCK:   -0.52 KCAL/MOL
REMARK 927      BINDING AFFINITY PREDICTED BY RF-SCORE:    0.00 PKD
ROOT
HETATM    1  N   UNL     1      -8.030  19.400  65.721  1.00  0.00    -0.433 NA 
HETATM    2  C   UNL     1      -8.337  20.066  66.982  1.00  0.00    -0.323 C  
HETATM    3  H2  UNL     1      -8.248  19.990  64.918  1.00  0.00     0.000 HD 
HETATM    4  H1  UNL     1      -7.060  19.086  65.709  1.00  0.00     0.000 HD 
ENDROOT
BRANCH   2   5
HETATM    5  C   UNL     1      -9.790  20.535  67.000  1.00  0.00    -0.534 C  
BRANCH   5   6
HETATM    6  C   UNL     1     -10.720  19.387  67.396  1.00  0.00    -0.479 C  
BRANCH   6   7
HETATM    7  N   UNL     1      -9.934  18.261  67.895  1.00  0.00    -0.328 NA 
HETATM    8  H   UNL     1      -9.917  18.237  68.914  1.00  0.00     0.000 HD 
BRANCH   7   9
HETATM    9  C   UNL     1     -10.414  16.994  67.333  1.00  0.00    -0.322 C  
BRANCH   9  10
HETATM   10  C   UNL     1      -9.418  15.861  67.588  1.00  0.00    -0.219 C  
BRANCH  10  11
HETATM   11  S   UNL     1      -8.140  16.324  68.803  1.00  0.00    -0.237 SA 
HETATM   12  P   UNL     1      -6.457  15.570  67.879  1.00  0.00    -0.178 P  
HETATM   13  O   UNL     1      -5.199  15.725  68.859  1.00  0.00    -0.101 OA 
HETATM   14  O   UNL     1      -6.646  14.165  67.403  1.00  0.00    -0.282 OA 
HETATM   15  O   UNL     1      -6.013  16.543  66.692  1.00  0.00    -0.319 OA 
ENDBRANCH  10  11
ENDBRANCH   9  10
ENDBRANCH   7   9
ENDBRANCH   6   7
ENDBRANCH   5   6
ENDBRANCH   2   5
TORSDOF 6
ENDMDL
MODEL      141
REMARK 921   NORMALIZED FREE ENERGY PREDICTED BY IDOCK:   -3.10 KCAL/MOL
REMARK 922        TOTAL FREE ENERGY PREDICTED BY IDOCK:   -4.27 KCAL/MOL
REMARK 923 INTER-LIGAND FREE ENERGY PREDICTED BY IDOCK:   -3.85 KCAL/MOL
REMARK 924 INTRA-LIGAND FREE ENERGY PREDICTED BY IDOCK:   -0.43 KCAL/MOL
REMARK 927      BINDING AFFINITY PREDICTED BY RF-SCORE:    0.00 PKD
ROOT
HETATM    1  N   UNL     1      -6.370  12.951  66.888  1.00  0.00    -0.422 NA 
HETATM    2  C   UNL     1      -7.438  13.348  67.797  1.00  0.00    -0.160 C  
HETATM    3  H2  UNL     1      -6.631  13.094  65.911  1.00  0.00     0.000 HD 
HETATM    4  H1  UNL     1      -5.502  13.432  67.122  1.00  0.00     0.000 HD 
ENDROOT
BRANCH   2   5
HETATM    5  C   UNL     1      -8.738  12.627  67.446  1.00  0.00    -0.191 C  
BRANCH   5   6
HETATM    6  C   UNL     1      -9.802  13.627  66.996  1.00  0.00    -0.251 C  
BRANCH   6   7
HETATM    7  N   UNL     1      -9.359  14.314  65.785  1.00  0.00    -0.525 NA 
HETATM    8  H   UNL     1      -9.732  13.872  64.945  1.00  0.00     0.000 HD 
BRANCH   7   9
HETATM    9  C   UNL     1      -9.688  15.742  65.837  1.00  0.00    -0.354 C  
BRANCH   9  10
HETATM   10  C   UNL     1      -8.526  16.560  66.401  1.00  0.00    -0.321 C  
BRANCH  10  11
HETATM   11  S   UNL     1      -8.818  17.084  68.122  1.00  0.00    -0.233 SA 
HETATM   12  P   UNL     1      -9.560  18.984  67.814  1.00  0.00    -0.341 P  
HETATM   13  O   UNL     1      -9.749  19.716  69.225  1.00  0.00    -0.386 OA 
HETATM   14  O   UNL     1      -8.724  19.776  66.861  1.00  0.00    -0.303 OA 
HETATM   15  O   UNL     1     -11.083  18.895  67.334  1.00  0.00    -0.359 OA 
ENDBRANCH  10  11
ENDBRANCH   9  10
ENDBRANCH   7   9
ENDBRANCH   6   7
ENDBRANCH   5   6
ENDBRANCH   2   5
TORSDOF 6
ENDMDL
MODEL      142
REMARK 921   NORMALIZED FREE ENERGY PREDICTED BY IDOCK:   -3.10 KCAL/MOL
REMARK 922        TOTAL FREE ENERGY PREDICTED BY IDOCK:   -4.26 KCAL/MOL
REMARK 923 INTER-LIGAND FREE ENERGY PREDICTED BY IDOCK:   -4.15 KCAL/MOL
REMARK 924 INTRA-LIGAND FREE ENERGY PREDICTED BY IDOCK:   -0.12 KCAL/MOL
REMARK 927      BINDING AFFINITY PREDICTED BY RF-SCORE:    0.00 PKD
ROOT
HETATM    1  N   UNL     1      -9.111   8.684  65.013  1.00  0.00    -0.428 NA 
HETATM    2  C   UNL     1      -9.906   9.725  65.654  1.00  0.00    -0.301 C  
HETATM    3  H2  UNL     1      -8.111   8.820  65.169  1.00  0.00     0.000 HD 
HETATM    4  H1  UNL     1      -9.419   7.760  65.315  1.00  0.00     0.000 HD 
ENDROOT
BRANCH   2   5
HETATM    5  C   UNL     1      -9.443  11.108  65.201  1.00  0.00    -0.257 C  
BRANCH   5   6
HETATM    6  C   UNL     1     -10.619  11.911  64.643  1.00  0.00    -0.306 C  
BRANCH   6   7
HETATM    7  N   UNL     1     -10.206  13.291  64.398  1.00  0.00    -0.602 NA 
HETATM    8  H   UNL     1     -10.971  13.851  64.023  1.00  0.00     0.000 HD 
BRANCH   7   9
HETATM    9  C   UNL     1      -9.636  13.894  65.608  1.00  0.00    -0.035 C  
BRANCH   9  10
HETATM   10  C   UNL     1      -9.970  15.383  65.697  1.00  0.00    -0.362 C  
BRANCH  10  11
HETATM   11  S   UNL     1      -8.615  16.354  66.434  1.00  0.00    -0.342 SA 
HETATM   12  P   UNL     1      -9.570  18.156  66.741  1.00  0.00    -0.327 P  
HETATM   13  O   UNL     1      -8.507  19.240  67.251  1.00  0.00    -0.279 OA 
HETATM   14  O   UNL     1     -10.327  18.614  65.536  1.00  0.00    -0.535 OA 
HETATM   15  O   UNL     1     -10.511  18.053  68.029  1.00  0.00    -0.372 OA 
ENDBRANCH  10  11
ENDBRANCH   9  10
ENDBRANCH   7   9
ENDBRANCH   6   7
ENDBRANCH   5   6
ENDBRANCH   2   5
TORSDOF 6
ENDMDL
MODEL      143
REMARK 921   NORMALIZED FREE ENERGY PREDICTED BY IDOCK:   -3.10 KCAL/MOL
REMARK 922        TOTAL FREE ENERGY PREDICTED BY IDOCK:   -4.26 KCAL/MOL
REMARK 923 INTER-LIGAND FREE ENERGY PREDICTED BY IDOCK:   -3.91 KCAL/MOL
REMARK 924 INTRA-LIGAND FREE ENERGY PREDICTED BY IDOCK:   -0.36 KCAL/MOL
REMARK 927      BINDING AFFINITY PREDICTED BY RF-SCORE:    0.00 PKD
ROOT
HETATM    1  N   UNL     1      -8.255  18.131  68.875  1.00  0.00    -0.207 NA 
HETATM    2  C   UNL     1      -7.354  19.167  68.386  1.00  0.00    -0.298 C  
HETATM    3  H2  UNL     1      -7.956  17.200  68.584  1.00  0.00     0.000 HD 
HETATM    4  H1  UNL     1      -8.360  18.196  69.888  1.00  0.00     0.000 HD 
ENDROOT
BRANCH   2   5
HETATM    5  C   UNL     1      -7.197  19.070  66.870  1.00  0.00    -0.221 C  
BRANCH   5   6
HETATM    6  C   UNL     1      -7.930  17.841  66.332  1.00  0.00    -0.271 C  
BRANCH   6   7
HETATM    7  N   UNL     1      -9.252  18.226  65.843  1.00  0.00    -0.467 NA 
HETATM    8  H   UNL     1      -9.270  18.298  64.826  1.00  0.00     0.000 HD 
BRANCH   7   9
HETATM    9  C   UNL     1     -10.285  17.309  66.337  1.00  0.00    -0.331 C  
BRANCH   9  10
HETATM   10  C   UNL     1      -9.756  15.877  66.433  1.00  0.00    -0.287 C  
BRANCH  10  11
HETATM   11  S   UNL     1     -10.921  14.765  67.289  1.00  0.00    -0.327 SA 
HETATM   12  P   UNL     1     -10.933  13.165  65.987  1.00  0.00    -0.287 P  
HETATM   13  O   UNL     1     -12.032  12.101  66.464  1.00  0.00    -0.618 OA 
HETATM   14  O   UNL     1     -11.118  13.586  64.565  1.00  0.00    -0.351 OA 
HETATM   15  O   UNL     1      -9.601  12.303  66.182  1.00  0.00    -0.242 OA 
ENDBRANCH  10  11
ENDBRANCH   9  10
ENDBRANCH   7   9
ENDBRANCH   6   7
ENDBRANCH   5   6
ENDBRANCH   2   5
TORSDOF 6
ENDMDL
MODEL      144
REMARK 921   NORMALIZED FREE ENERGY PREDICTED BY IDOCK:   -3.09 KCAL/MOL
REMARK 922        TOTAL FREE ENERGY PREDICTED BY IDOCK:   -4.25 KCAL/MOL
REMARK 923 INTER-LIGAND FREE ENERGY PREDICTED BY IDOCK:   -3.81 KCAL/MOL
REMARK 924 INTRA-LIGAND FREE ENERGY PREDICTED BY IDOCK:   -0.44 KCAL/MOL
REMARK 927      BINDING AFFINITY PREDICTED BY RF-SCORE:    0.00 PKD
ROOT
HETATM    1  N   UNL     1     -10.950   8.550  67.979  1.00  0.00    -0.471 NA 
HETATM    2  C   UNL     1     -10.851   8.606  69.432  1.00  0.00    -0.095 C  
HETATM    3  H2  UNL     1     -10.132   8.960  67.527  1.00  0.00     0.000 HD 
HETATM    4  H1  UNL     1     -11.115   7.593  67.668  1.00  0.00     0.000 HD 
ENDROOT
BRANCH   2   5
HETATM    5  C   UNL     1     -10.603  10.040  69.898  1.00  0.00    -0.324 C  
BRANCH   5   6
HETATM    6  C   UNL     1      -9.905  10.847  68.804  1.00  0.00    -0.196 C  
BRANCH   6   7
HETATM    7  N   UNL     1     -10.888  11.634  68.063  1.00  0.00    -0.203 NA 
HETATM    8  H   UNL     1     -11.420  11.055  67.413  1.00  0.00     0.000 HD 
BRANCH   7   9
HETATM    9  C   UNL     1     -11.767  12.373  68.975  1.00  0.00    -0.323 C  
BRANCH   9  10
HETATM   10  C   UNL     1     -11.890  13.840  68.561  1.00  0.00    -0.370 C  
BRANCH  10  11
HETATM   11  S   UNL     1     -11.764  14.063  66.757  1.00  0.00    -0.427 SA 
HETATM   12  P   UNL     1     -10.442  15.644  66.668  1.00  0.00    -0.298 P  
HETATM   13  O   UNL     1     -10.295  16.129  65.148  1.00  0.00    -0.560 OA 
HETATM   14  O   UNL     1     -10.818  16.756  67.594  1.00  0.00    -0.326 OA 
HETATM   15  O   UNL     1      -8.957  15.120  66.943  1.00  0.00    -0.218 OA 
ENDBRANCH  10  11
ENDBRANCH   9  10
ENDBRANCH   7   9
ENDBRANCH   6   7
ENDBRANCH   5   6
ENDBRANCH   2   5
TORSDOF 6
ENDMDL
MODEL      145
REMARK 921   NORMALIZED FREE ENERGY PREDICTED BY IDOCK:   -3.08 KCAL/MOL
REMARK 922        TOTAL FREE ENERGY PREDICTED BY IDOCK:   -4.25 KCAL/MOL
REMARK 923 INTER-LIGAND FREE ENERGY PREDICTED BY IDOCK:   -4.15 KCAL/MOL
REMARK 924 INTRA-LIGAND FREE ENERGY PREDICTED BY IDOCK:   -0.10 KCAL/MOL
REMARK 927      BINDING AFFINITY PREDICTED BY RF-SCORE:    0.00 PKD
ROOT
HETATM    1  N   UNL     1     -11.963  14.092  67.088  1.00  0.00    -0.421 NA 
HETATM    2  C   UNL     1     -11.991  12.837  66.348  1.00  0.00    -0.375 C  
HETATM    3  H2  UNL     1     -11.014  14.453  67.188  1.00  0.00     0.000 HD 
HETATM    4  H1  UNL     1     -12.585  14.776  66.657  1.00  0.00     0.000 HD 
ENDROOT
BRANCH   2   5
HETATM    5  C   UNL     1     -11.060  11.813  66.994  1.00  0.00    -0.358 C  
BRANCH   5   6
HETATM    6  C   UNL     1     -10.245  12.460  68.114  1.00  0.00    -0.225 C  
BRANCH   6   7
HETATM    7  N   UNL     1     -10.292  11.622  69.310  1.00  0.00    -0.431 NA 
HETATM    8  H   UNL     1      -9.743  12.022  70.071  1.00  0.00     0.000 HD 
BRANCH   7   9
HETATM    9  C   UNL     1     -11.677  11.365  69.719  1.00  0.00    -0.344 C  
BRANCH   9  10
HETATM   10  C   UNL     1     -12.394  12.661  70.097  1.00  0.00    -0.152 C  
BRANCH  10  11
HETATM   11  S   UNL     1     -12.888  12.693  71.851  1.00  0.00    -0.125 SA 
HETATM   12  P   UNL     1     -12.898  14.727  72.200  1.00  0.00    -0.381 P  
HETATM   13  O   UNL     1     -13.160  14.998  73.756  1.00  0.00    -0.478 OA 
HETATM   14  O   UNL     1     -11.661  15.399  71.698  1.00  0.00    -0.356 OA 
HETATM   15  O   UNL     1     -14.219  15.373  71.573  1.00  0.00    -0.505 OA 
ENDBRANCH  10  11
ENDBRANCH   9  10
ENDBRANCH   7   9
ENDBRANCH   6   7
ENDBRANCH   5   6
ENDBRANCH   2   5
TORSDOF 6
ENDMDL
MODEL      146
REMARK 921   NORMALIZED FREE ENERGY PREDICTED BY IDOCK:   -3.06 KCAL/MOL
REMARK 922        TOTAL FREE ENERGY PREDICTED BY IDOCK:   -4.22 KCAL/MOL
REMARK 923 INTER-LIGAND FREE ENERGY PREDICTED BY IDOCK:   -3.84 KCAL/MOL
REMARK 924 INTRA-LIGAND FREE ENERGY PREDICTED BY IDOCK:   -0.38 KCAL/MOL
REMARK 927      BINDING AFFINITY PREDICTED BY RF-SCORE:    0.00 PKD
ROOT
HETATM    1  N   UNL     1      -8.041  11.212  62.372  1.00  0.00    -0.460 NA 
HETATM    2  C   UNL     1      -7.834   9.784  62.572  1.00  0.00    -0.118 C  
HETATM    3  H2  UNL     1      -7.205  11.753  62.596  1.00  0.00     0.000 HD 
HETATM    4  H1  UNL     1      -8.369  11.397  61.424  1.00  0.00     0.000 HD 
ENDROOT
BRANCH   2   5
HETATM    5  C   UNL     1      -7.344   9.507  63.992  1.00  0.00    -0.115 C  
BRANCH   5   6
HETATM    6  C   UNL     1      -8.522   9.198  64.916  1.00  0.00    -0.175 C  
BRANCH   6   7
HETATM    7  N   UNL     1      -9.354  10.389  65.075  1.00  0.00    -0.207 NA 
HETATM    8  H   UNL     1     -10.246  10.291  64.591  1.00  0.00     0.000 HD 
BRANCH   7   9
HETATM    9  C   UNL     1      -9.542  10.716  66.493  1.00  0.00    -0.180 C  
BRANCH   9  10
HETATM   10  C   UNL     1     -11.017  10.952  66.818  1.00  0.00    -0.185 C  
BRANCH  10  11
HETATM   11  S   UNL     1     -11.471  12.715  66.733  1.00  0.00    -0.371 SA 
HETATM   12  P   UNL     1     -11.805  12.918  64.707  1.00  0.00    -0.419 P  
HETATM   13  O   UNL     1     -12.073  14.459  64.365  1.00  0.00    -0.460 OA 
HETATM   14  O   UNL     1     -10.705  12.328  63.885  1.00  0.00    -0.346 OA 
HETATM   15  O   UNL     1     -13.227  12.292  64.332  1.00  0.00    -0.806 OA 
ENDBRANCH  10  11
ENDBRANCH   9  10
ENDBRANCH   7   9
ENDBRANCH   6   7
ENDBRANCH   5   6
ENDBRANCH   2   5
TORSDOF 6
ENDMDL
MODEL      147
REMARK 921   NORMALIZED FREE ENERGY PREDICTED BY IDOCK:   -3.06 KCAL/MOL
REMARK 922        TOTAL FREE ENERGY PREDICTED BY IDOCK:   -4.22 KCAL/MOL
REMARK 923 INTER-LIGAND FREE ENERGY PREDICTED BY IDOCK:   -3.86 KCAL/MOL
REMARK 924 INTRA-LIGAND FREE ENERGY PREDICTED BY IDOCK:   -0.36 KCAL/MOL
REMARK 927      BINDING AFFINITY PREDICTED BY RF-SCORE:    0.00 PKD
ROOT
HETATM    1  N   UNL     1     -12.539  14.780  69.270  1.00  0.00    -0.562 NA 
HETATM    2  C   UNL     1     -11.449  14.762  68.302  1.00  0.00    -0.317 C  
HETATM    3  H2  UNL     1     -13.270  15.441  69.006  1.00  0.00     0.000 HD 
HETATM    4  H1  UNL     1     -12.911  13.840  69.408  1.00  0.00     0.000 HD 
ENDROOT
BRANCH   2   5
HETATM    5  C   UNL     1     -10.893  16.169  68.095  1.00  0.00    -0.329 C  
BRANCH   5   6
HETATM    6  C   UNL     1     -10.502  16.382  66.632  1.00  0.00    -0.274 C  
BRANCH   6   7
HETATM    7  N   UNL     1      -9.217  17.074  66.557  1.00  0.00    -0.259 NA 
HETATM    8  H   UNL     1      -9.176  17.862  67.203  1.00  0.00     0.000 HD 
BRANCH   7   9
HETATM    9  C   UNL     1      -8.104  16.143  66.769  1.00  0.00    -0.270 C  
BRANCH   9  10
HETATM   10  C   UNL     1      -6.765  16.881  66.826  1.00  0.00    -0.227 C  
BRANCH  10  11
HETATM   11  S   UNL     1      -6.848  18.525  66.044  1.00  0.00    -0.283 SA 
HETATM   12  P   UNL     1      -6.996  19.726  67.715  1.00  0.00    -0.269 P  
HETATM   13  O   UNL     1      -7.243  21.242  67.259  1.00  0.00    -0.508 OA 
HETATM   14  O   UNL     1      -8.029  19.239  68.679  1.00  0.00    -0.348 OA 
HETATM   15  O   UNL     1      -5.561  19.867  68.405  1.00  0.00    -0.209 OA 
ENDBRANCH  10  11
ENDBRANCH   9  10
ENDBRANCH   7   9
ENDBRANCH   6   7
ENDBRANCH   5   6
ENDBRANCH   2   5
TORSDOF 6
ENDMDL
MODEL      148
REMARK 921   NORMALIZED FREE ENERGY PREDICTED BY IDOCK:   -3.06 KCAL/MOL
REMARK 922        TOTAL FREE ENERGY PREDICTED BY IDOCK:   -4.22 KCAL/MOL
REMARK 923 INTER-LIGAND FREE ENERGY PREDICTED BY IDOCK:   -4.03 KCAL/MOL
REMARK 924 INTRA-LIGAND FREE ENERGY PREDICTED BY IDOCK:   -0.18 KCAL/MOL
REMARK 927      BINDING AFFINITY PREDICTED BY RF-SCORE:    0.00 PKD
ROOT
HETATM    1  N   UNL     1     -11.839  15.065  72.443  1.00  0.00    -0.362 NA 
HETATM    2  C   UNL     1     -11.253  14.726  71.152  1.00  0.00    -0.049 C  
HETATM    3  H2  UNL     1     -12.837  14.855  72.474  1.00  0.00     0.000 HD 
HETATM    4  H1  UNL     1     -11.331  14.606  73.199  1.00  0.00     0.000 HD 
ENDROOT
BRANCH   2   5
HETATM    5  C   UNL     1     -12.013  15.415  70.020  1.00  0.00    -0.383 C  
BRANCH   5   6
HETATM    6  C   UNL     1     -11.143  16.488  69.364  1.00  0.00    -0.253 C  
BRANCH   6   7
HETATM    7  N   UNL     1     -10.296  15.882  68.339  1.00  0.00    -0.234 NA 
HETATM    8  H   UNL     1     -10.639  14.961  68.064  1.00  0.00     0.000 HD 
BRANCH   7   9
HETATM    9  C   UNL     1     -10.150  16.772  67.182  1.00  0.00    -0.282 C  
BRANCH   9  10
HETATM   10  C   UNL     1      -9.697  16.000  65.942  1.00  0.00    -0.343 C  
BRANCH  10  11
HETATM   11  S   UNL     1     -10.916  16.088  64.589  1.00  0.00    -0.087 SA 
HETATM   12  P   UNL     1     -11.733  14.197  64.699  1.00  0.00    -0.423 P  
HETATM   13  O   UNL     1     -12.745  13.984  63.477  1.00  0.00    -0.805 OA 
HETATM   14  O   UNL     1     -10.690  13.128  64.778  1.00  0.00    -0.323 OA 
HETATM   15  O   UNL     1     -12.752  14.122  65.928  1.00  0.00    -0.487 OA 
ENDBRANCH  10  11
ENDBRANCH   9  10
ENDBRANCH   7   9
ENDBRANCH   6   7
ENDBRANCH   5   6
ENDBRANCH   2   5
TORSDOF 6
ENDMDL
MODEL      149
REMARK 921   NORMALIZED FREE ENERGY PREDICTED BY IDOCK:   -3.06 KCAL/MOL
REMARK 922        TOTAL FREE ENERGY PREDICTED BY IDOCK:   -4.21 KCAL/MOL
REMARK 923 INTER-LIGAND FREE ENERGY PREDICTED BY IDOCK:   -3.97 KCAL/MOL
REMARK 924 INTRA-LIGAND FREE ENERGY PREDICTED BY IDOCK:   -0.24 KCAL/MOL
REMARK 927      BINDING AFFINITY PREDICTED BY RF-SCORE:    0.00 PKD
ROOT
HETATM    1  N   UNL     1      -5.575  13.221  68.112  1.00  0.00    -0.090 NA 
HETATM    2  C   UNL     1      -5.449  14.673  68.110  1.00  0.00    -0.122 C  
HETATM    3  H2  UNL     1      -6.284  12.900  67.452  1.00  0.00     0.000 HD 
HETATM    4  H1  UNL     1      -4.670  12.783  67.939  1.00  0.00     0.000 HD 
ENDROOT
BRANCH   2   5
HETATM    5  C   UNL     1      -6.804  15.329  68.370  1.00  0.00    -0.112 C  
BRANCH   5   6
HETATM    6  C   UNL     1      -7.340  15.978  67.093  1.00  0.00    -0.222 C  
BRANCH   6   7
HETATM    7  N   UNL     1      -8.524  15.257  66.629  1.00  0.00    -0.352 NA 
HETATM    8  H   UNL     1      -9.084  14.912  67.409  1.00  0.00     0.000 HD 
BRANCH   7   9
HETATM    9  C   UNL     1      -9.321  16.084  65.717  1.00  0.00    -0.215 C  
BRANCH   9  10
HETATM   10  C   UNL     1     -10.765  16.213  66.201  1.00  0.00    -0.221 C  
BRANCH  10  11
HETATM   11  S   UNL     1     -11.470  14.610  66.710  1.00  0.00    -0.348 SA 
HETATM   12  P   UNL     1     -11.911  13.794  64.868  1.00  0.00    -0.425 P  
HETATM   13  O   UNL     1     -12.701  12.416  65.072  1.00  0.00    -0.631 OA 
HETATM   14  O   UNL     1     -12.640  14.750  63.979  1.00  0.00    -0.822 OA 
HETATM   15  O   UNL     1     -10.571  13.254  64.184  1.00  0.00    -0.416 OA 
ENDBRANCH  10  11
ENDBRANCH   9  10
ENDBRANCH   7   9
ENDBRANCH   6   7
ENDBRANCH   5   6
ENDBRANCH   2   5
TORSDOF 6
ENDMDL
MODEL      150
REMARK 921   NORMALIZED FREE ENERGY PREDICTED BY IDOCK:   -3.03 KCAL/MOL
REMARK 922        TOTAL FREE ENERGY PREDICTED BY IDOCK:   -4.18 KCAL/MOL
REMARK 923 INTER-LIGAND FREE ENERGY PREDICTED BY IDOCK:   -4.17 KCAL/MOL
REMARK 924 INTRA-LIGAND FREE ENERGY PREDICTED BY IDOCK:   -0.02 KCAL/MOL
REMARK 927      BINDING AFFINITY PREDICTED BY RF-SCORE:    0.00 PKD
ROOT
HETATM    1  N   UNL     1     -11.564  12.351  62.914  1.00  0.00    -0.580 NA 
HETATM    2  C   UNL     1     -12.307  12.665  64.128  1.00  0.00    -0.436 C  
HETATM    3  H2  UNL     1     -10.564  12.519  63.026  1.00  0.00     0.000 HD 
HETATM    4  H1  UNL     1     -11.756  11.395  62.613  1.00  0.00     0.000 HD 
ENDROOT
BRANCH   2   5
HETATM    5  C   UNL     1     -12.020  14.096  64.577  1.00  0.00    -0.476 C  
BRANCH   5   6
HETATM    6  C   UNL     1     -11.072  14.103  65.777  1.00  0.00    -0.309 C  
BRANCH   6   7
HETATM    7  N   UNL     1      -9.908  13.266  65.494  1.00  0.00    -0.476 NA 
HETATM    8  H   UNL     1      -9.216  13.762  64.933  1.00  0.00     0.000 HD 
BRANCH   7   9
HETATM    9  C   UNL     1      -9.323  12.740  66.733  1.00  0.00    -0.241 C  
BRANCH   9  10
HETATM   10  C   UNL     1      -9.863  13.479  67.959  1.00  0.00    -0.238 C  
BRANCH  10  11
HETATM   11  S   UNL     1      -9.059  15.097  68.202  1.00  0.00    -0.179 SA 
HETATM   12  P   UNL     1     -10.623  16.174  69.007  1.00  0.00    -0.321 P  
HETATM   13  O   UNL     1     -10.187  17.707  69.163  1.00  0.00    -0.342 OA 
HETATM   14  O   UNL     1     -11.889  16.011  68.228  1.00  0.00    -0.250 OA 
HETATM   15  O   UNL     1     -10.816  15.776  70.542  1.00  0.00    -0.319 OA 
ENDBRANCH  10  11
ENDBRANCH   9  10
ENDBRANCH   7   9
ENDBRANCH   6   7
ENDBRANCH   5   6
ENDBRANCH   2   5
TORSDOF 6
ENDMDL
MODEL      151
REMARK 921   NORMALIZED FREE ENERGY PREDICTED BY IDOCK:   -3.03 KCAL/MOL
REMARK 922        TOTAL FREE ENERGY PREDICTED BY IDOCK:   -4.18 KCAL/MOL
REMARK 923 INTER-LIGAND FREE ENERGY PREDICTED BY IDOCK:   -3.81 KCAL/MOL
REMARK 924 INTRA-LIGAND FREE ENERGY PREDICTED BY IDOCK:   -0.37 KCAL/MOL
REMARK 927      BINDING AFFINITY PREDICTED BY RF-SCORE:    0.00 PKD
ROOT
HETATM    1  N   UNL     1     -11.245  13.550  69.124  1.00  0.00    -0.297 NA 
HETATM    2  C   UNL     1     -12.051  14.046  68.015  1.00  0.00    -0.277 C  
HETATM    3  H2  UNL     1     -10.254  13.508  68.883  1.00  0.00     0.000 HD 
HETATM    4  H1  UNL     1     -11.408  14.107  69.962  1.00  0.00     0.000 HD 
ENDROOT
BRANCH   2   5
HETATM    5  C   UNL     1     -11.807  13.211  66.759  1.00  0.00    -0.444 C  
BRANCH   5   6
HETATM    6  C   UNL     1     -10.351  12.750  66.696  1.00  0.00    -0.242 C  
BRANCH   6   7
HETATM    7  N   UNL     1      -9.533  13.776  66.052  1.00  0.00    -0.492 NA 
HETATM    8  H   UNL     1     -10.107  14.472  65.577  1.00  0.00     0.000 HD 
BRANCH   7   9
HETATM    9  C   UNL     1      -8.615  14.397  67.013  1.00  0.00    -0.203 C  
BRANCH   9  10
HETATM   10  C   UNL     1      -8.830  15.910  67.089  1.00  0.00    -0.207 C  
BRANCH  10  11
HETATM   11  S   UNL     1     -10.037  16.499  65.856  1.00  0.00    -0.312 SA 
HETATM   12  P   UNL     1     -10.101  18.507  66.327  1.00  0.00    -0.334 P  
HETATM   13  O   UNL     1     -11.239  19.221  65.455  1.00  0.00    -0.256 OA 
HETATM   14  O   UNL     1     -10.265  18.744  67.794  1.00  0.00    -0.353 OA 
HETATM   15  O   UNL     1      -8.801  19.236  65.750  1.00  0.00    -0.395 OA 
ENDBRANCH  10  11
ENDBRANCH   9  10
ENDBRANCH   7   9
ENDBRANCH   6   7
ENDBRANCH   5   6
ENDBRANCH   2   5
TORSDOF 6
ENDMDL
MODEL      152
REMARK 921   NORMALIZED FREE ENERGY PREDICTED BY IDOCK:   -3.03 KCAL/MOL
REMARK 922        TOTAL FREE ENERGY PREDICTED BY IDOCK:   -4.18 KCAL/MOL
REMARK 923 INTER-LIGAND FREE ENERGY PREDICTED BY IDOCK:   -3.90 KCAL/MOL
REMARK 924 INTRA-LIGAND FREE ENERGY PREDICTED BY IDOCK:   -0.28 KCAL/MOL
REMARK 927      BINDING AFFINITY PREDICTED BY RF-SCORE:    0.00 PKD
ROOT
HETATM    1  N   UNL     1     -13.867  13.773  72.654  1.00  0.00    -0.740 NA 
HETATM    2  C   UNL     1     -13.005  13.516  71.507  1.00  0.00    -0.355 C  
HETATM    3  H2  UNL     1     -14.802  14.067  72.368  1.00  0.00     0.000 HD 
HETATM    4  H1  UNL     1     -13.898  12.959  73.268  1.00  0.00     0.000 HD 
ENDROOT
BRANCH   2   5
HETATM    5  C   UNL     1     -12.959  14.734  70.587  1.00  0.00    -0.376 C  
BRANCH   5   6
HETATM    6  C   UNL     1     -11.892  14.552  69.507  1.00  0.00    -0.329 C  
BRANCH   6   7
HETATM    7  N   UNL     1     -12.131  15.487  68.410  1.00  0.00    -0.493 NA 
HETATM    8  H   UNL     1     -11.653  16.375  68.563  1.00  0.00     0.000 HD 
BRANCH   7   9
HETATM    9  C   UNL     1     -11.765  14.891  67.120  1.00  0.00    -0.277 C  
BRANCH   9  10
HETATM   10  C   UNL     1     -11.980  13.377  67.127  1.00  0.00    -0.366 C  
BRANCH  10  11
HETATM   11  S   UNL     1     -10.821  12.509  66.021  1.00  0.00    -0.286 SA 
HETATM   12  P   UNL     1      -9.411  11.870  67.385  1.00  0.00    -0.186 P  
HETATM   13  O   UNL     1      -8.183  11.199  66.605  1.00  0.00    -0.147 OA 
HETATM   14  O   UNL     1      -8.978  12.960  68.312  1.00  0.00    -0.194 OA 
HETATM   15  O   UNL     1      -9.969  10.602  68.181  1.00  0.00    -0.153 OA 
ENDBRANCH  10  11
ENDBRANCH   9  10
ENDBRANCH   7   9
ENDBRANCH   6   7
ENDBRANCH   5   6
ENDBRANCH   2   5
TORSDOF 6
ENDMDL
MODEL      153
REMARK 921   NORMALIZED FREE ENERGY PREDICTED BY IDOCK:   -3.03 KCAL/MOL
REMARK 922        TOTAL FREE ENERGY PREDICTED BY IDOCK:   -4.17 KCAL/MOL
REMARK 923 INTER-LIGAND FREE ENERGY PREDICTED BY IDOCK:   -3.83 KCAL/MOL
REMARK 924 INTRA-LIGAND FREE ENERGY PREDICTED BY IDOCK:   -0.34 KCAL/MOL
REMARK 927      BINDING AFFINITY PREDICTED BY RF-SCORE:    0.00 PKD
ROOT
HETATM    1  N   UNL     1     -11.413  15.300  73.108  1.00  0.00    -0.198 NA 
HETATM    2  C   UNL     1     -12.770  14.968  73.523  1.00  0.00    -0.536 C  
HETATM    3  H2  UNL     1     -11.286  16.306  72.992  1.00  0.00     0.000 HD 
HETATM    4  H1  UNL     1     -10.733  14.905  73.758  1.00  0.00     0.000 HD 
ENDROOT
BRANCH   2   5
HETATM    5  C   UNL     1     -13.788  15.560  72.549  1.00  0.00    -0.669 C  
BRANCH   5   6
HETATM    6  C   UNL     1     -14.020  14.611  71.373  1.00  0.00    -0.397 C  
BRANCH   6   7
HETATM    7  N   UNL     1     -12.766  14.393  70.656  1.00  0.00    -0.350 NA 
HETATM    8  H   UNL     1     -12.798  13.544  70.092  1.00  0.00     0.000 HD 
BRANCH   7   9
HETATM    9  C   UNL     1     -12.409  15.565  69.849  1.00  0.00    -0.277 C  
BRANCH   9  10
HETATM   10  C   UNL     1     -10.905  15.617  69.579  1.00  0.00    -0.271 C  
BRANCH  10  11
HETATM   11  S   UNL     1     -10.515  15.463  67.804  1.00  0.00    -0.272 SA 
HETATM   12  P   UNL     1      -8.623  16.285  67.765  1.00  0.00    -0.174 P  
HETATM   13  O   UNL     1      -8.126  16.402  66.247  1.00  0.00    -0.312 OA 
HETATM   14  O   UNL     1      -8.550  17.586  68.498  1.00  0.00    -0.268 OA 
HETATM   15  O   UNL     1      -7.566  15.227  68.329  1.00  0.00    -0.107 OA 
ENDBRANCH  10  11
ENDBRANCH   9  10
ENDBRANCH   7   9
ENDBRANCH   6   7
ENDBRANCH   5   6
ENDBRANCH   2   5
TORSDOF 6
ENDMDL
MODEL      154
REMARK 921   NORMALIZED FREE ENERGY PREDICTED BY IDOCK:   -3.02 KCAL/MOL
REMARK 922        TOTAL FREE ENERGY PREDICTED BY IDOCK:   -4.17 KCAL/MOL
REMARK 923 INTER-LIGAND FREE ENERGY PREDICTED BY IDOCK:   -3.60 KCAL/MOL
REMARK 924 INTRA-LIGAND FREE ENERGY PREDICTED BY IDOCK:   -0.56 KCAL/MOL
REMARK 927      BINDING AFFINITY PREDICTED BY RF-SCORE:    0.00 PKD
ROOT
HETATM    1  N   UNL     1      -7.027  14.637  69.428  1.00  0.00    -0.154 NA 
HETATM    2  C   UNL     1      -7.229  16.080  69.438  1.00  0.00    -0.213 C  
HETATM    3  H2  UNL     1      -7.043  14.258  68.481  1.00  0.00     0.000 HD 
HETATM    4  H1  UNL     1      -6.168  14.392  69.920  1.00  0.00     0.000 HD 
ENDROOT
BRANCH   2   5
HETATM    5  C   UNL     1      -8.516  16.447  68.702  1.00  0.00    -0.229 C  
BRANCH   5   6
HETATM    6  C   UNL     1      -9.641  15.481  69.074  1.00  0.00    -0.238 C  
BRANCH   6   7
HETATM    7  N   UNL     1     -10.046  14.713  67.899  1.00  0.00    -0.224 NA 
HETATM    8  H   UNL     1      -9.486  14.954  67.081  1.00  0.00     0.000 HD 
BRANCH   7   9
HETATM    9  C   UNL     1     -10.010  13.272  68.172  1.00  0.00    -0.234 C  
BRANCH   9  10
HETATM   10  C   UNL     1      -9.750  12.471  66.896  1.00  0.00    -0.232 C  
BRANCH  10  11
HETATM   11  S   UNL     1     -11.239  11.596  66.313  1.00  0.00    -0.209 SA 
HETATM   12  P   UNL     1     -12.059  13.034  65.082  1.00  0.00    -0.483 P  
HETATM   13  O   UNL     1     -13.491  12.537  64.565  1.00  0.00    -0.604 OA 
HETATM   14  O   UNL     1     -12.116  14.378  65.733  1.00  0.00    -0.385 OA 
HETATM   15  O   UNL     1     -11.258  13.079  63.700  1.00  0.00    -0.399 OA 
ENDBRANCH  10  11
ENDBRANCH   9  10
ENDBRANCH   7   9
ENDBRANCH   6   7
ENDBRANCH   5   6
ENDBRANCH   2   5
TORSDOF 6
ENDMDL
MODEL      155
REMARK 921   NORMALIZED FREE ENERGY PREDICTED BY IDOCK:   -3.01 KCAL/MOL
REMARK 922        TOTAL FREE ENERGY PREDICTED BY IDOCK:   -4.14 KCAL/MOL
REMARK 923 INTER-LIGAND FREE ENERGY PREDICTED BY IDOCK:   -3.78 KCAL/MOL
REMARK 924 INTRA-LIGAND FREE ENERGY PREDICTED BY IDOCK:   -0.37 KCAL/MOL
REMARK 927      BINDING AFFINITY PREDICTED BY RF-SCORE:    0.00 PKD
ROOT
HETATM    1  N   UNL     1     -12.256  10.877  68.364  1.00  0.00    -0.810 NA 
HETATM    2  C   UNL     1     -11.278  11.704  67.668  1.00  0.00    -0.281 C  
HETATM    3  H2  UNL     1     -11.983  10.700  69.331  1.00  0.00     0.000 HD 
HETATM    4  H1  UNL     1     -13.185  11.293  68.303  1.00  0.00     0.000 HD 
ENDROOT
BRANCH   2   5
HETATM    5  C   UNL     1      -9.887  11.081  67.759  1.00  0.00    -0.190 C  
BRANCH   5   6
HETATM    6  C   UNL     1      -9.914   9.833  68.643  1.00  0.00    -0.167 C  
BRANCH   6   7
HETATM    7  N   UNL     1      -9.639  10.201  70.030  1.00  0.00    -0.403 NA 
HETATM    8  H   UNL     1      -9.779  11.199  70.189  1.00  0.00     0.000 HD 
BRANCH   7   9
HETATM    9  C   UNL     1     -10.433   9.389  70.958  1.00  0.00    -0.322 C  
BRANCH   9  10
HETATM   10  C   UNL     1      -9.540   8.486  71.810  1.00  0.00    -0.267 C  
BRANCH  10  11
HETATM   11  S   UNL     1     -10.475   7.614  73.109  1.00  0.00    -0.357 SA 
HETATM   12  P   UNL     1     -10.917   5.851  72.132  1.00  0.00    -0.277 P  
HETATM   13  O   UNL     1     -11.891   4.967  73.046  1.00  0.00    -0.269 OA 
HETATM   14  O   UNL     1     -11.464   6.080  70.760  1.00  0.00    -0.290 OA 
HETATM   15  O   UNL     1      -9.623   4.913  72.105  1.00  0.00    -0.145 OA 
ENDBRANCH  10  11
ENDBRANCH   9  10
ENDBRANCH   7   9
ENDBRANCH   6   7
ENDBRANCH   5   6
ENDBRANCH   2   5
TORSDOF 6
ENDMDL
MODEL      156
REMARK 921   NORMALIZED FREE ENERGY PREDICTED BY IDOCK:   -3.01 KCAL/MOL
REMARK 922        TOTAL FREE ENERGY PREDICTED BY IDOCK:   -4.14 KCAL/MOL
REMARK 923 INTER-LIGAND FREE ENERGY PREDICTED BY IDOCK:   -3.76 KCAL/MOL
REMARK 924 INTRA-LIGAND FREE ENERGY PREDICTED BY IDOCK:   -0.38 KCAL/MOL
REMARK 927      BINDING AFFINITY PREDICTED BY RF-SCORE:    0.00 PKD
ROOT
HETATM    1  N   UNL     1     -11.364   6.305  72.679  1.00  0.00    -0.362 NA 
HETATM    2  C   UNL     1     -10.716   7.442  73.320  1.00  0.00    -0.391 C  
HETATM    3  H2  UNL     1     -10.761   5.870  71.979  1.00  0.00     0.000 HD 
HETATM    4  H1  UNL     1     -11.681   5.633  73.377  1.00  0.00     0.000 HD 
ENDROOT
BRANCH   2   5
HETATM    5  C   UNL     1     -10.242   8.450  72.274  1.00  0.00    -0.396 C  
BRANCH   5   6
HETATM    6  C   UNL     1     -11.199   8.476  71.082  1.00  0.00    -0.267 C  
BRANCH   6   7
HETATM    7  N   UNL     1     -10.617   7.739  69.962  1.00  0.00    -0.235 NA 
HETATM    8  H   UNL     1     -11.232   6.989  69.646  1.00  0.00     0.000 HD 
BRANCH   7   9
HETATM    9  C   UNL     1     -10.258   8.643  68.865  1.00  0.00    -0.207 C  
BRANCH   9  10
HETATM   10  C   UNL     1     -10.997   9.977  68.980  1.00  0.00    -0.212 C  
BRANCH  10  11
HETATM   11  S   UNL     1      -9.906  11.403  68.669  1.00  0.00    -0.164 SA 
HETATM   12  P   UNL     1     -11.245  12.720  67.816  1.00  0.00    -0.316 P  
HETATM   13  O   UNL     1     -10.461  14.019  67.305  1.00  0.00    -0.265 OA 
HETATM   14  O   UNL     1     -12.066  12.083  66.741  1.00  0.00    -0.613 OA 
HETATM   15  O   UNL     1     -12.160  13.369  68.954  1.00  0.00    -0.331 OA 
ENDBRANCH  10  11
ENDBRANCH   9  10
ENDBRANCH   7   9
ENDBRANCH   6   7
ENDBRANCH   5   6
ENDBRANCH   2   5
TORSDOF 6
ENDMDL
MODEL      157
REMARK 921   NORMALIZED FREE ENERGY PREDICTED BY IDOCK:   -2.99 KCAL/MOL
REMARK 922        TOTAL FREE ENERGY PREDICTED BY IDOCK:   -4.12 KCAL/MOL
REMARK 923 INTER-LIGAND FREE ENERGY PREDICTED BY IDOCK:   -3.99 KCAL/MOL
REMARK 924 INTRA-LIGAND FREE ENERGY PREDICTED BY IDOCK:   -0.13 KCAL/MOL
REMARK 927      BINDING AFFINITY PREDICTED BY RF-SCORE:    0.00 PKD
ROOT
HETATM    1  N   UNL     1      -6.811   5.689  66.057  1.00  0.00    -0.056 NA 
HETATM    2  C   UNL     1      -7.996   5.551  66.895  1.00  0.00    -0.101 C  
HETATM    3  H2  UNL     1      -6.447   6.642  66.070  1.00  0.00     0.000 HD 
HETATM    4  H1  UNL     1      -6.101   5.008  66.326  1.00  0.00     0.000 HD 
ENDROOT
BRANCH   2   5
HETATM    5  C   UNL     1      -9.060   6.570  66.492  1.00  0.00    -0.166 C  
BRANCH   5   6
HETATM    6  C   UNL     1      -8.491   7.988  66.543  1.00  0.00    -0.136 C  
BRANCH   6   7
HETATM    7  N   UNL     1      -8.819   8.699  65.309  1.00  0.00    -0.326 NA 
HETATM    8  H   UNL     1      -9.447   8.155  64.718  1.00  0.00     0.000 HD 
BRANCH   7   9
HETATM    9  C   UNL     1      -9.362  10.030  65.596  1.00  0.00    -0.204 C  
BRANCH   9  10
HETATM   10  C   UNL     1     -10.339  10.478  64.507  1.00  0.00    -0.205 C  
BRANCH  10  11
HETATM   11  S   UNL     1     -10.186  12.254  64.128  1.00  0.00    -0.338 SA 
HETATM   12  P   UNL     1     -12.175  12.800  64.084  1.00  0.00    -0.439 P  
HETATM   13  O   UNL     1     -12.297  14.323  63.605  1.00  0.00    -0.741 OA 
HETATM   14  O   UNL     1     -13.005  11.868  63.262  1.00  0.00    -0.707 OA 
HETATM   15  O   UNL     1     -12.730  12.927  65.578  1.00  0.00    -0.568 OA 
ENDBRANCH  10  11
ENDBRANCH   9  10
ENDBRANCH   7   9
ENDBRANCH   6   7
ENDBRANCH   5   6
ENDBRANCH   2   5
TORSDOF 6
ENDMDL
MODEL      158
REMARK 921   NORMALIZED FREE ENERGY PREDICTED BY IDOCK:   -2.98 KCAL/MOL
REMARK 922        TOTAL FREE ENERGY PREDICTED BY IDOCK:   -4.10 KCAL/MOL
REMARK 923 INTER-LIGAND FREE ENERGY PREDICTED BY IDOCK:   -3.65 KCAL/MOL
REMARK 924 INTRA-LIGAND FREE ENERGY PREDICTED BY IDOCK:   -0.45 KCAL/MOL
REMARK 927      BINDING AFFINITY PREDICTED BY RF-SCORE:    0.00 PKD
ROOT
HETATM    1  N   UNL     1      -7.754  19.172  65.830  1.00  0.00    -0.459 NA 
HETATM    2  C   UNL     1      -8.280  19.697  67.083  1.00  0.00    -0.289 C  
HETATM    3  H2  UNL     1      -7.947  19.796  65.046  1.00  0.00     0.000 HD 
HETATM    4  H1  UNL     1      -6.758  18.969  65.916  1.00  0.00     0.000 HD 
ENDROOT
BRANCH   2   5
HETATM    5  C   UNL     1      -9.772  20.001  66.954  1.00  0.00    -0.557 C  
BRANCH   5   6
HETATM    6  C   UNL     1     -10.598  18.729  67.153  1.00  0.00    -0.428 C  
BRANCH   6   7
HETATM    7  N   UNL     1      -9.834  17.758  67.934  1.00  0.00    -0.294 NA 
HETATM    8  H   UNL     1      -8.935  18.138  68.231  1.00  0.00     0.000 HD 
BRANCH   7   9
HETATM    9  C   UNL     1     -10.616  17.267  69.074  1.00  0.00    -0.247 C  
BRANCH   9  10
HETATM   10  C   UNL     1     -10.110  15.903  69.547  1.00  0.00    -0.277 C  
BRANCH  10  11
HETATM   11  S   UNL     1      -8.382  15.597  69.054  1.00  0.00    -0.251 SA 
HETATM   12  P   UNL     1      -8.646  14.062  67.701  1.00  0.00    -0.218 P  
HETATM   13  O   UNL     1      -7.216  13.510  67.239  1.00  0.00    -0.137 OA 
HETATM   14  O   UNL     1      -9.538  12.984  68.227  1.00  0.00    -0.219 OA 
HETATM   15  O   UNL     1      -9.183  14.653  66.316  1.00  0.00    -0.278 OA 
ENDBRANCH  10  11
ENDBRANCH   9  10
ENDBRANCH   7   9
ENDBRANCH   6   7
ENDBRANCH   5   6
ENDBRANCH   2   5
TORSDOF 6
ENDMDL
MODEL      159
REMARK 921   NORMALIZED FREE ENERGY PREDICTED BY IDOCK:   -2.97 KCAL/MOL
REMARK 922        TOTAL FREE ENERGY PREDICTED BY IDOCK:   -4.09 KCAL/MOL
REMARK 923 INTER-LIGAND FREE ENERGY PREDICTED BY IDOCK:   -3.73 KCAL/MOL
REMARK 924 INTRA-LIGAND FREE ENERGY PREDICTED BY IDOCK:   -0.36 KCAL/MOL
REMARK 927      BINDING AFFINITY PREDICTED BY RF-SCORE:    0.00 PKD
ROOT
HETATM    1  N   UNL     1     -11.202   4.378  64.993  1.00  0.00    -1.057 NA 
HETATM    2  C   UNL     1     -10.098   4.193  64.059  1.00  0.00    -0.089 C  
HETATM    3  H2  UNL     1     -11.227   5.327  65.368  1.00  0.00     0.000 HD 
HETATM    4  H1  UNL     1     -12.087   4.120  64.557  1.00  0.00     0.000 HD 
ENDROOT
BRANCH   2   5
HETATM    5  C   UNL     1      -8.773   4.579  64.712  1.00  0.00    -0.146 C  
BRANCH   5   6
HETATM    6  C   UNL     1      -9.017   5.314  66.030  1.00  0.00    -0.144 C  
BRANCH   6   7
HETATM    7  N   UNL     1      -9.526   6.657  65.763  1.00  0.00    -0.377 NA 
HETATM    8  H   UNL     1     -10.263   6.917  66.418  1.00  0.00     0.000 HD 
BRANCH   7   9
HETATM    9  C   UNL     1      -8.438   7.641  65.756  1.00  0.00    -0.144 C  
BRANCH   9  10
HETATM   10  C   UNL     1      -8.676   8.740  66.793  1.00  0.00    -0.124 C  
BRANCH  10  11
HETATM   11  S   UNL     1     -10.410   8.800  67.352  1.00  0.00    -0.284 SA 
HETATM   12  P   UNL     1     -10.707  10.840  67.430  1.00  0.00    -0.286 P  
HETATM   13  O   UNL     1     -12.148  11.143  68.059  1.00  0.00    -0.635 OA 
HETATM   14  O   UNL     1      -9.604  11.551  68.145  1.00  0.00    -0.174 OA 
HETATM   15  O   UNL     1     -10.918  11.409  65.951  1.00  0.00    -0.274 OA 
ENDBRANCH  10  11
ENDBRANCH   9  10
ENDBRANCH   7   9
ENDBRANCH   6   7
ENDBRANCH   5   6
ENDBRANCH   2   5
TORSDOF 6
ENDMDL
MODEL      160
REMARK 921   NORMALIZED FREE ENERGY PREDICTED BY IDOCK:   -2.97 KCAL/MOL
REMARK 922        TOTAL FREE ENERGY PREDICTED BY IDOCK:   -4.09 KCAL/MOL
REMARK 923 INTER-LIGAND FREE ENERGY PREDICTED BY IDOCK:   -3.93 KCAL/MOL
REMARK 924 INTRA-LIGAND FREE ENERGY PREDICTED BY IDOCK:   -0.16 KCAL/MOL
REMARK 927      BINDING AFFINITY PREDICTED BY RF-SCORE:    0.00 PKD
ROOT
HETATM    1  N   UNL     1     -10.246   4.902  71.276  1.00  0.00    -0.196 NA 
HETATM    2  C   UNL     1      -9.888   6.160  71.919  1.00  0.00    -0.156 C  
HETATM    3  H2  UNL     1     -11.100   4.988  70.724  1.00  0.00     0.000 HD 
HETATM    4  H1  UNL     1      -9.468   4.549  70.719  1.00  0.00     0.000 HD 
ENDROOT
BRANCH   2   5
HETATM    5  C   UNL     1     -11.053   6.688  72.753  1.00  0.00    -0.283 C  
BRANCH   5   6
HETATM    6  C   UNL     1     -11.998   7.522  71.889  1.00  0.00    -0.301 C  
BRANCH   6   7
HETATM    7  N   UNL     1     -12.905   8.288  72.741  1.00  0.00    -0.607 NA 
HETATM    8  H   UNL     1     -12.514   8.433  73.671  1.00  0.00     0.000 HD 
BRANCH   7   9
HETATM    9  C   UNL     1     -13.278   9.558  72.108  1.00  0.00    -0.451 C  
BRANCH   9  10
HETATM   10  C   UNL     1     -12.220  10.006  71.098  1.00  0.00    -0.380 C  
BRANCH  10  11
HETATM   11  S   UNL     1     -12.300  11.796  70.761  1.00  0.00    -0.257 SA 
HETATM   12  P   UNL     1     -11.304  11.882  68.957  1.00  0.00    -0.313 P  
HETATM   13  O   UNL     1     -11.110  13.413  68.529  1.00  0.00    -0.246 OA 
HETATM   14  O   UNL     1     -10.016  11.122  68.979  1.00  0.00    -0.199 OA 
HETATM   15  O   UNL     1     -12.268  11.379  67.786  1.00  0.00    -0.537 OA 
ENDBRANCH  10  11
ENDBRANCH   9  10
ENDBRANCH   7   9
ENDBRANCH   6   7
ENDBRANCH   5   6
ENDBRANCH   2   5
TORSDOF 6
ENDMDL
MODEL      161
REMARK 921   NORMALIZED FREE ENERGY PREDICTED BY IDOCK:   -2.96 KCAL/MOL
REMARK 922        TOTAL FREE ENERGY PREDICTED BY IDOCK:   -4.09 KCAL/MOL
REMARK 923 INTER-LIGAND FREE ENERGY PREDICTED BY IDOCK:   -3.94 KCAL/MOL
REMARK 924 INTRA-LIGAND FREE ENERGY PREDICTED BY IDOCK:   -0.14 KCAL/MOL
REMARK 927      BINDING AFFINITY PREDICTED BY RF-SCORE:    0.00 PKD
ROOT
HETATM    1  N   UNL     1     -10.868   5.994  69.383  1.00  0.00    -0.330 NA 
HETATM    2  C   UNL     1      -9.991   7.103  69.737  1.00  0.00    -0.178 C  
HETATM    3  H2  UNL     1     -10.930   5.867  68.372  1.00  0.00     0.000 HD 
HETATM    4  H1  UNL     1     -10.573   5.139  69.855  1.00  0.00     0.000 HD 
ENDROOT
BRANCH   2   5
HETATM    5  C   UNL     1     -10.433   8.383  69.030  1.00  0.00    -0.216 C  
BRANCH   5   6
HETATM    6  C   UNL     1      -9.934   9.614  69.787  1.00  0.00    -0.227 C  
BRANCH   6   7
HETATM    7  N   UNL     1      -9.974  10.785  68.913  1.00  0.00    -0.196 NA 
HETATM    8  H   UNL     1      -9.129  10.860  68.347  1.00  0.00     0.000 HD 
BRANCH   7   9
HETATM    9  C   UNL     1     -11.183  10.782  68.084  1.00  0.00    -0.302 C  
BRANCH   9  10
HETATM   10  C   UNL     1     -10.913  11.389  66.706  1.00  0.00    -0.291 C  
BRANCH  10  11
HETATM   11  S   UNL     1     -10.662  13.193  66.782  1.00  0.00    -0.269 SA 
HETATM   12  P   UNL     1     -11.534  13.766  65.002  1.00  0.00    -0.371 P  
HETATM   13  O   UNL     1     -11.291  15.332  64.772  1.00  0.00    -0.409 OA 
HETATM   14  O   UNL     1     -11.074  12.936  63.847  1.00  0.00    -0.394 OA 
HETATM   15  O   UNL     1     -13.125  13.745  65.151  1.00  0.00    -0.762 OA 
ENDBRANCH  10  11
ENDBRANCH   9  10
ENDBRANCH   7   9
ENDBRANCH   6   7
ENDBRANCH   5   6
ENDBRANCH   2   5
TORSDOF 6
ENDMDL
MODEL      162
REMARK 921   NORMALIZED FREE ENERGY PREDICTED BY IDOCK:   -2.96 KCAL/MOL
REMARK 922        TOTAL FREE ENERGY PREDICTED BY IDOCK:   -4.08 KCAL/MOL
REMARK 923 INTER-LIGAND FREE ENERGY PREDICTED BY IDOCK:   -3.99 KCAL/MOL
REMARK 924 INTRA-LIGAND FREE ENERGY PREDICTED BY IDOCK:   -0.09 KCAL/MOL
REMARK 927      BINDING AFFINITY PREDICTED BY RF-SCORE:    0.00 PKD
ROOT
HETATM    1  N   UNL     1     -13.237  11.924  63.470  1.00  0.00    -0.558 NA 
HETATM    2  C   UNL     1     -11.925  12.560  63.492  1.00  0.00    -0.543 C  
HETATM    3  H2  UNL     1     -13.966  12.570  63.166  1.00  0.00     0.000 HD 
HETATM    4  H1  UNL     1     -13.216  11.080  62.898  1.00  0.00     0.000 HD 
ENDROOT
BRANCH   2   5
HETATM    5  C   UNL     1     -11.956  13.824  64.349  1.00  0.00    -0.480 C  
BRANCH   5   6
HETATM    6  C   UNL     1     -10.564  14.135  64.898  1.00  0.00    -0.430 C  
BRANCH   6   7
HETATM    7  N   UNL     1     -10.559  15.458  65.519  1.00  0.00    -0.355 NA 
HETATM    8  H   UNL     1     -11.482  15.891  65.487  1.00  0.00     0.000 HD 
BRANCH   7   9
HETATM    9  C   UNL     1     -10.038  15.395  66.889  1.00  0.00    -0.257 C  
BRANCH   9  10
HETATM   10  C   UNL     1      -8.579  15.848  66.950  1.00  0.00    -0.241 C  
BRANCH  10  11
HETATM   11  S   UNL     1      -7.964  15.975  68.661  1.00  0.00    -0.187 SA 
HETATM   12  P   UNL     1      -6.867  17.717  68.535  1.00  0.00    -0.251 P  
HETATM   13  O   UNL     1      -6.087  17.955  69.914  1.00  0.00    -0.238 OA 
HETATM   14  O   UNL     1      -5.958  17.736  67.349  1.00  0.00    -0.141 OA 
HETATM   15  O   UNL     1      -7.852  18.976  68.547  1.00  0.00    -0.314 OA 
ENDBRANCH  10  11
ENDBRANCH   9  10
ENDBRANCH   7   9
ENDBRANCH   6   7
ENDBRANCH   5   6
ENDBRANCH   2   5
TORSDOF 6
ENDMDL
MODEL      163
REMARK 921   NORMALIZED FREE ENERGY PREDICTED BY IDOCK:   -2.93 KCAL/MOL
REMARK 922        TOTAL FREE ENERGY PREDICTED BY IDOCK:   -4.04 KCAL/MOL
REMARK 923 INTER-LIGAND FREE ENERGY PREDICTED BY IDOCK:   -3.66 KCAL/MOL
REMARK 924 INTRA-LIGAND FREE ENERGY PREDICTED BY IDOCK:   -0.38 KCAL/MOL
REMARK 927      BINDING AFFINITY PREDICTED BY RF-SCORE:    0.00 PKD
ROOT
HETATM    1  N   UNL     1     -13.499   9.836  70.648  1.00  0.00    -0.592 NA 
HETATM    2  C   UNL     1     -13.486   9.159  71.939  1.00  0.00    -0.430 C  
HETATM    3  H2  UNL     1     -13.449   9.175  69.872  1.00  0.00     0.000 HD 
HETATM    4  H1  UNL     1     -14.311  10.448  70.573  1.00  0.00     0.000 HD 
ENDROOT
BRANCH   2   5
HETATM    5  C   UNL     1     -12.269   8.243  72.051  1.00  0.00    -0.398 C  
BRANCH   5   6
HETATM    6  C   UNL     1     -12.493   6.953  71.262  1.00  0.00    -0.361 C  
BRANCH   6   7
HETATM    7  N   UNL     1     -11.986   7.109  69.900  1.00  0.00    -0.507 NA 
HETATM    8  H   UNL     1     -12.681   7.536  69.288  1.00  0.00     0.000 HD 
BRANCH   7   9
HETATM    9  C   UNL     1     -10.724   7.857  69.890  1.00  0.00    -0.244 C  
BRANCH   9  10
HETATM   10  C   UNL     1      -9.695   7.196  68.972  1.00  0.00    -0.150 C  
BRANCH  10  11
HETATM   11  S   UNL     1     -10.181   7.275  67.217  1.00  0.00    -0.284 SA 
HETATM   12  P   UNL     1      -9.235   9.017  66.646  1.00  0.00    -0.196 P  
HETATM   13  O   UNL     1      -9.656   9.382  65.144  1.00  0.00    -0.256 OA 
HETATM   14  O   UNL     1      -9.480  10.140  67.602  1.00  0.00    -0.146 OA 
HETATM   15  O   UNL     1      -7.674   8.740  66.444  1.00  0.00    -0.096 OA 
ENDBRANCH  10  11
ENDBRANCH   9  10
ENDBRANCH   7   9
ENDBRANCH   6   7
ENDBRANCH   5   6
ENDBRANCH   2   5
TORSDOF 6
ENDMDL
MODEL      164
REMARK 921   NORMALIZED FREE ENERGY PREDICTED BY IDOCK:   -2.92 KCAL/MOL
REMARK 922        TOTAL FREE ENERGY PREDICTED BY IDOCK:   -4.02 KCAL/MOL
REMARK 923 INTER-LIGAND FREE ENERGY PREDICTED BY IDOCK:   -3.65 KCAL/MOL
REMARK 924 INTRA-LIGAND FREE ENERGY PREDICTED BY IDOCK:   -0.37 KCAL/MOL
REMARK 927      BINDING AFFINITY PREDICTED BY RF-SCORE:    0.00 PKD
ROOT
HETATM    1  N   UNL     1      -6.942  11.638  67.650  1.00  0.00    -0.087 NA 
HETATM    2  C   UNL     1      -7.252  12.838  68.418  1.00  0.00    -0.115 C  
HETATM    3  H2  UNL     1      -6.545  11.864  66.738  1.00  0.00     0.000 HD 
HETATM    4  H1  UNL     1      -6.335  11.018  68.185  1.00  0.00     0.000 HD 
ENDROOT
BRANCH   2   5
HETATM    5  C   UNL     1      -8.162  13.767  67.616  1.00  0.00    -0.180 C  
BRANCH   5   6
HETATM    6  C   UNL     1      -9.585  13.210  67.562  1.00  0.00    -0.208 C  
BRANCH   6   7
HETATM    7  N   UNL     1      -9.818  12.332  68.707  1.00  0.00    -0.414 NA 
HETATM    8  H   UNL     1      -9.309  12.647  69.532  1.00  0.00     0.000 HD 
BRANCH   7   9
HETATM    9  C   UNL     1     -11.253  12.190  68.979  1.00  0.00    -0.260 C  
BRANCH   9  10
HETATM   10  C   UNL     1     -11.833  13.470  69.584  1.00  0.00    -0.336 C  
BRANCH  10  11
HETATM   11  S   UNL     1     -12.632  13.173  71.195  1.00  0.00    -0.230 SA 
HETATM   12  P   UNL     1     -12.967  15.113  71.809  1.00  0.00    -0.451 P  
HETATM   13  O   UNL     1     -13.536  15.106  73.306  1.00  0.00    -0.459 OA 
HETATM   14  O   UNL     1     -11.757  15.978  71.656  1.00  0.00    -0.444 OA 
HETATM   15  O   UNL     1     -14.227  15.714  71.030  1.00  0.00    -0.465 OA 
ENDBRANCH  10  11
ENDBRANCH   9  10
ENDBRANCH   7   9
ENDBRANCH   6   7
ENDBRANCH   5   6
ENDBRANCH   2   5
TORSDOF 6
ENDMDL
MODEL      165
REMARK 921   NORMALIZED FREE ENERGY PREDICTED BY IDOCK:   -2.92 KCAL/MOL
REMARK 922        TOTAL FREE ENERGY PREDICTED BY IDOCK:   -4.02 KCAL/MOL
REMARK 923 INTER-LIGAND FREE ENERGY PREDICTED BY IDOCK:   -3.39 KCAL/MOL
REMARK 924 INTRA-LIGAND FREE ENERGY PREDICTED BY IDOCK:   -0.64 KCAL/MOL
REMARK 927      BINDING AFFINITY PREDICTED BY RF-SCORE:    0.00 PKD
ROOT
HETATM    1  N   UNL     1     -12.992   6.671  72.123  1.00  0.00    -0.548 NA 
HETATM    2  C   UNL     1     -11.652   6.197  72.447  1.00  0.00    -0.292 C  
HETATM    3  H2  UNL     1     -13.294   6.352  71.202  1.00  0.00     0.000 HD 
HETATM    4  H1  UNL     1     -13.652   6.405  72.852  1.00  0.00     0.000 HD 
ENDROOT
BRANCH   2   5
HETATM    5  C   UNL     1     -10.662   6.597  71.355  1.00  0.00    -0.264 C  
BRANCH   5   6
HETATM    6  C   UNL     1     -10.652   8.114  71.168  1.00  0.00    -0.204 C  
BRANCH   6   7
HETATM    7  N   UNL     1     -11.742   8.512  70.279  1.00  0.00    -0.471 NA 
HETATM    8  H   UNL     1     -12.509   7.840  70.300  1.00  0.00     0.000 HD 
BRANCH   7   9
HETATM    9  C   UNL     1     -12.205   9.869  70.588  1.00  0.00    -0.238 C  
BRANCH   9  10
HETATM   10  C   UNL     1     -11.234  10.923  70.053  1.00  0.00    -0.263 C  
BRANCH  10  11
HETATM   11  S   UNL     1     -11.449  11.218  68.267  1.00  0.00    -0.309 SA 
HETATM   12  P   UNL     1      -9.971   9.997  67.506  1.00  0.00    -0.214 P  
HETATM   13  O   UNL     1      -9.865  10.215  65.923  1.00  0.00    -0.212 OA 
HETATM   14  O   UNL     1      -8.662  10.183  68.202  1.00  0.00    -0.120 OA 
HETATM   15  O   UNL     1     -10.456   8.474  67.551  1.00  0.00    -0.249 OA 
ENDBRANCH  10  11
ENDBRANCH   9  10
ENDBRANCH   7   9
ENDBRANCH   6   7
ENDBRANCH   5   6
ENDBRANCH   2   5
TORSDOF 6
ENDMDL
MODEL      166
REMARK 921   NORMALIZED FREE ENERGY PREDICTED BY IDOCK:   -2.90 KCAL/MOL
REMARK 922        TOTAL FREE ENERGY PREDICTED BY IDOCK:   -4.00 KCAL/MOL
REMARK 923 INTER-LIGAND FREE ENERGY PREDICTED BY IDOCK:   -3.79 KCAL/MOL
REMARK 924 INTRA-LIGAND FREE ENERGY PREDICTED BY IDOCK:   -0.21 KCAL/MOL
REMARK 927      BINDING AFFINITY PREDICTED BY RF-SCORE:    0.00 PKD
ROOT
HETATM    1  N   UNL     1     -11.536  16.230  63.937  1.00  0.00    -1.573 NA 
HETATM    2  C   UNL     1     -12.271  14.998  64.202  1.00  0.00    -0.211 C  
HETATM    3  H2  UNL     1     -10.538  16.122  64.120  1.00  0.00     0.000 HD 
HETATM    4  H1  UNL     1     -11.715  16.557  62.988  1.00  0.00     0.000 HD 
ENDROOT
BRANCH   2   5
HETATM    5  C   UNL     1     -12.003  14.509  65.624  1.00  0.00    -0.311 C  
BRANCH   5   6
HETATM    6  C   UNL     1     -11.058  15.465  66.352  1.00  0.00    -0.230 C  
BRANCH   6   7
HETATM    7  N   UNL     1     -10.577  14.846  67.585  1.00  0.00    -0.260 NA 
HETATM    8  H   UNL     1     -11.275  14.895  68.327  1.00  0.00     0.000 HD 
BRANCH   7   9
HETATM    9  C   UNL     1     -10.139  13.467  67.346  1.00  0.00    -0.237 C  
BRANCH   9  10
HETATM   10  C   UNL     1      -8.619  13.385  67.194  1.00  0.00    -0.195 C  
BRANCH  10  11
HETATM   11  S   UNL     1      -7.891  12.064  68.218  1.00  0.00    -0.151 SA 
HETATM   12  P   UNL     1      -6.899  10.976  66.773  1.00  0.00    -0.135 P  
HETATM   13  O   UNL     1      -6.297   9.645  67.430  1.00  0.00    -0.066 OA 
HETATM   14  O   UNL     1      -7.756  10.694  65.581  1.00  0.00    -0.153 OA 
HETATM   15  O   UNL     1      -5.548  11.728  66.367  1.00  0.00    -0.274 OA 
ENDBRANCH  10  11
ENDBRANCH   9  10
ENDBRANCH   7   9
ENDBRANCH   6   7
ENDBRANCH   5   6
ENDBRANCH   2   5
TORSDOF 6
ENDMDL
MODEL      167
REMARK 921   NORMALIZED FREE ENERGY PREDICTED BY IDOCK:   -2.90 KCAL/MOL
REMARK 922        TOTAL FREE ENERGY PREDICTED BY IDOCK:   -4.00 KCAL/MOL
REMARK 923 INTER-LIGAND FREE ENERGY PREDICTED BY IDOCK:   -3.76 KCAL/MOL
REMARK 924 INTRA-LIGAND FREE ENERGY PREDICTED BY IDOCK:   -0.24 KCAL/MOL
REMARK 927      BINDING AFFINITY PREDICTED BY RF-SCORE:    0.00 PKD
ROOT
HETATM    1  N   UNL     1     -10.031   9.740  65.075  1.00  0.00    -0.403 NA 
HETATM    2  C   UNL     1     -10.074  10.936  65.907  1.00  0.00    -0.252 C  
HETATM    3  H2  UNL     1      -9.797   9.960  64.107  1.00  0.00     0.000 HD 
HETATM    4  H1  UNL     1      -9.393   9.051  65.472  1.00  0.00     0.000 HD 
ENDROOT
BRANCH   2   5
HETATM    5  C   UNL     1     -11.029  11.969  65.313  1.00  0.00    -0.356 C  
BRANCH   5   6
HETATM    6  C   UNL     1     -11.474  12.968  66.383  1.00  0.00    -0.341 C  
BRANCH   6   7
HETATM    7  N   UNL     1     -11.273  12.394  67.712  1.00  0.00    -0.256 NA 
HETATM    8  H   UNL     1     -10.625  11.606  67.687  1.00  0.00     0.000 HD 
BRANCH   7   9
HETATM    9  C   UNL     1     -10.841  13.419  68.668  1.00  0.00    -0.263 C  
BRANCH   9  10
HETATM   10  C   UNL     1     -10.456  14.716  67.956  1.00  0.00    -0.236 C  
BRANCH  10  11
HETATM   11  S   UNL     1     -11.161  16.187  68.769  1.00  0.00    -0.358 SA 
HETATM   12  P   UNL     1      -9.841  17.637  68.129  1.00  0.00    -0.359 P  
HETATM   13  O   UNL     1     -10.177  19.022  68.859  1.00  0.00    -0.370 OA 
HETATM   14  O   UNL     1      -8.413  17.226  68.302  1.00  0.00    -0.227 OA 
HETATM   15  O   UNL     1     -10.165  18.029  66.614  1.00  0.00    -0.338 OA 
ENDBRANCH  10  11
ENDBRANCH   9  10
ENDBRANCH   7   9
ENDBRANCH   6   7
ENDBRANCH   5   6
ENDBRANCH   2   5
TORSDOF 6
ENDMDL
MODEL      168
REMARK 921   NORMALIZED FREE ENERGY PREDICTED BY IDOCK:   -2.90 KCAL/MOL
REMARK 922        TOTAL FREE ENERGY PREDICTED BY IDOCK:   -3.99 KCAL/MOL
REMARK 923 INTER-LIGAND FREE ENERGY PREDICTED BY IDOCK:   -3.89 KCAL/MOL
REMARK 924 INTRA-LIGAND FREE ENERGY PREDICTED BY IDOCK:   -0.10 KCAL/MOL
REMARK 927      BINDING AFFINITY PREDICTED BY RF-SCORE:    0.00 PKD
ROOT
HETATM    1  N   UNL     1     -14.354   8.939  73.078  1.00  0.00    -1.154 NA 
HETATM    2  C   UNL     1     -14.276   8.537  71.679  1.00  0.00    -0.421 C  
HETATM    3  H2  UNL     1     -13.466   8.802  73.562  1.00  0.00     0.000 HD 
HETATM    4  H1  UNL     1     -14.684   9.901  73.157  1.00  0.00     0.000 HD 
ENDROOT
BRANCH   2   5
HETATM    5  C   UNL     1     -13.781   7.097  71.561  1.00  0.00    -0.413 C  
BRANCH   5   6
HETATM    6  C   UNL     1     -12.267   7.065  71.354  1.00  0.00    -0.366 C  
BRANCH   6   7
HETATM    7  N   UNL     1     -11.964   6.835  69.943  1.00  0.00    -0.659 NA 
HETATM    8  H   UNL     1     -11.906   7.711  69.423  1.00  0.00     0.000 HD 
BRANCH   7   9
HETATM    9  C   UNL     1     -10.745   6.034  69.789  1.00  0.00    -0.330 C  
BRANCH   9  10
HETATM   10  C   UNL     1      -9.673   6.798  69.010  1.00  0.00    -0.145 C  
BRANCH  10  11
HETATM   11  S   UNL     1      -8.014   6.073  69.224  1.00  0.00    -0.104 SA 
HETATM   12  P   UNL     1      -7.511   5.704  67.257  1.00  0.00    -0.085 P  
HETATM   13  O   UNL     1      -6.123   4.906  67.205  1.00  0.00    -0.029 OA 
HETATM   14  O   UNL     1      -8.603   5.010  66.509  1.00  0.00    -0.111 OA 
HETATM   15  O   UNL     1      -7.080   7.069  66.547  1.00  0.00    -0.073 OA 
ENDBRANCH  10  11
ENDBRANCH   9  10
ENDBRANCH   7   9
ENDBRANCH   6   7
ENDBRANCH   5   6
ENDBRANCH   2   5
TORSDOF 6
ENDMDL
MODEL      169
REMARK 921   NORMALIZED FREE ENERGY PREDICTED BY IDOCK:   -2.88 KCAL/MOL
REMARK 922        TOTAL FREE ENERGY PREDICTED BY IDOCK:   -3.97 KCAL/MOL
REMARK 923 INTER-LIGAND FREE ENERGY PREDICTED BY IDOCK:   -3.74 KCAL/MOL
REMARK 924 INTRA-LIGAND FREE ENERGY PREDICTED BY IDOCK:   -0.23 KCAL/MOL
REMARK 927      BINDING AFFINITY PREDICTED BY RF-SCORE:    0.00 PKD
ROOT
HETATM    1  N   UNL     1     -10.801  13.626  69.757  1.00  0.00    -0.436 NA 
HETATM    2  C   UNL     1     -11.277  14.915  69.271  1.00  0.00    -0.284 C  
HETATM    3  H2  UNL     1     -10.369  13.076  69.014  1.00  0.00     0.000 HD 
HETATM    4  H1  UNL     1     -10.172  13.752  70.550  1.00  0.00     0.000 HD 
ENDROOT
BRANCH   2   5
HETATM    5  C   UNL     1     -12.220  14.726  68.084  1.00  0.00    -0.047 C  
BRANCH   5   6
HETATM    6  C   UNL     1     -11.564  13.859  67.010  1.00  0.00    -0.369 C  
BRANCH   6   7
HETATM    7  N   UNL     1     -11.250  14.672  65.837  1.00  0.00    -0.333 NA 
HETATM    8  H   UNL     1     -11.931  15.420  65.706  1.00  0.00     0.000 HD 
BRANCH   7   9
HETATM    9  C   UNL     1      -9.881  15.194  65.908  1.00  0.00    -0.341 C  
BRANCH   9  10
HETATM   10  C   UNL     1      -9.871  16.722  65.962  1.00  0.00    -0.287 C  
BRANCH  10  11
HETATM   11  S   UNL     1      -8.387  17.375  66.795  1.00  0.00    -0.264 SA 
HETATM   12  P   UNL     1      -9.167  19.073  67.671  1.00  0.00    -0.306 P  
HETATM   13  O   UNL     1      -7.983  19.913  68.346  1.00  0.00    -0.305 OA 
HETATM   14  O   UNL     1      -9.979  19.886  66.715  1.00  0.00    -0.382 OA 
HETATM   15  O   UNL     1     -10.006  18.671  68.970  1.00  0.00    -0.385 OA 
ENDBRANCH  10  11
ENDBRANCH   9  10
ENDBRANCH   7   9
ENDBRANCH   6   7
ENDBRANCH   5   6
ENDBRANCH   2   5
TORSDOF 6
ENDMDL
MODEL      170
REMARK 921   NORMALIZED FREE ENERGY PREDICTED BY IDOCK:   -2.88 KCAL/MOL
REMARK 922        TOTAL FREE ENERGY PREDICTED BY IDOCK:   -3.97 KCAL/MOL
REMARK 923 INTER-LIGAND FREE ENERGY PREDICTED BY IDOCK:   -3.98 KCAL/MOL
REMARK 924 INTRA-LIGAND FREE ENERGY PREDICTED BY IDOCK:    0.01 KCAL/MOL
REMARK 927      BINDING AFFINITY PREDICTED BY RF-SCORE:    0.00 PKD
ROOT
HETATM    1  N   UNL     1     -12.828  10.179  70.229  1.00  0.00    -0.572 NA 
HETATM    2  C   UNL     1     -11.955  11.334  70.398  1.00  0.00    -0.380 C  
HETATM    3  H2  UNL     1     -12.558   9.614  69.424  1.00  0.00     0.000 HD 
HETATM    4  H1  UNL     1     -12.860   9.626  71.086  1.00  0.00     0.000 HD 
ENDROOT
BRANCH   2   5
HETATM    5  C   UNL     1     -11.906  12.162  69.116  1.00  0.00    -0.361 C  
BRANCH   5   6
HETATM    6  C   UNL     1     -10.470  12.578  68.799  1.00  0.00    -0.144 C  
BRANCH   6   7
HETATM    7  N   UNL     1     -10.417  13.222  67.489  1.00  0.00    -0.234 NA 
HETATM    8  H   UNL     1     -10.708  14.198  67.537  1.00  0.00     0.000 HD 
BRANCH   7   9
HETATM    9  C   UNL     1      -9.086  13.084  66.887  1.00  0.00    -0.227 C  
BRANCH   9  10
HETATM   10  C   UNL     1      -8.870  11.675  66.334  1.00  0.00    -0.182 C  
BRANCH  10  11
HETATM   11  S   UNL     1     -10.411  10.937  65.699  1.00  0.00    -0.217 SA 
HETATM   12  P   UNL     1     -10.674  12.044  63.979  1.00  0.00    -0.469 P  
HETATM   13  O   UNL     1     -12.083  11.669  63.316  1.00  0.00    -0.409 OA 
HETATM   14  O   UNL     1     -10.521  13.512  64.215  1.00  0.00    -0.414 OA 
HETATM   15  O   UNL     1      -9.678  11.520  62.844  1.00  0.00    -0.372 OA 
ENDBRANCH  10  11
ENDBRANCH   9  10
ENDBRANCH   7   9
ENDBRANCH   6   7
ENDBRANCH   5   6
ENDBRANCH   2   5
TORSDOF 6
ENDMDL
MODEL      171
REMARK 921   NORMALIZED FREE ENERGY PREDICTED BY IDOCK:   -2.87 KCAL/MOL
REMARK 922        TOTAL FREE ENERGY PREDICTED BY IDOCK:   -3.97 KCAL/MOL
REMARK 923 INTER-LIGAND FREE ENERGY PREDICTED BY IDOCK:   -3.84 KCAL/MOL
REMARK 924 INTRA-LIGAND FREE ENERGY PREDICTED BY IDOCK:   -0.13 KCAL/MOL
REMARK 927      BINDING AFFINITY PREDICTED BY RF-SCORE:    0.00 PKD
ROOT
HETATM    1  N   UNL     1      -5.464   8.965  68.128  1.00  0.00    -0.035 NA 
HETATM    2  C   UNL     1      -5.936   8.016  67.128  1.00  0.00    -0.049 C  
HETATM    3  H2  UNL     1      -6.233   9.346  68.682  1.00  0.00     0.000 HD 
HETATM    4  H1  UNL     1      -4.748   8.539  68.717  1.00  0.00     0.000 HD 
ENDROOT
BRANCH   2   5
HETATM    5  C   UNL     1      -7.008   8.653  66.247  1.00  0.00    -0.077 C  
BRANCH   5   6
HETATM    6  C   UNL     1      -6.711  10.137  66.029  1.00  0.00    -0.106 C  
BRANCH   6   7
HETATM    7  N   UNL     1      -7.748  10.733  65.188  1.00  0.00    -0.353 NA 
HETATM    8  H   UNL     1      -8.003  10.119  64.415  1.00  0.00     0.000 HD 
BRANCH   7   9
HETATM    9  C   UNL     1      -8.918  11.115  65.985  1.00  0.00    -0.200 C  
BRANCH   9  10
HETATM   10  C   UNL     1     -10.183  11.160  65.127  1.00  0.00    -0.289 C  
BRANCH  10  11
HETATM   11  S   UNL     1     -10.295  12.687  64.137  1.00  0.00    -0.347 SA 
HETATM   12  P   UNL     1     -12.161  13.362  64.700  1.00  0.00    -0.393 P  
HETATM   13  O   UNL     1     -12.551  14.642  63.821  1.00  0.00    -0.820 OA 
HETATM   14  O   UNL     1     -13.198  12.286  64.644  1.00  0.00    -0.763 OA 
HETATM   15  O   UNL     1     -12.077  14.028  66.151  1.00  0.00    -0.402 OA 
ENDBRANCH  10  11
ENDBRANCH   9  10
ENDBRANCH   7   9
ENDBRANCH   6   7
ENDBRANCH   5   6
ENDBRANCH   2   5
TORSDOF 6
ENDMDL
MODEL      172
REMARK 921   NORMALIZED FREE ENERGY PREDICTED BY IDOCK:   -2.87 KCAL/MOL
REMARK 922        TOTAL FREE ENERGY PREDICTED BY IDOCK:   -3.96 KCAL/MOL
REMARK 923 INTER-LIGAND FREE ENERGY PREDICTED BY IDOCK:   -3.36 KCAL/MOL
REMARK 924 INTRA-LIGAND FREE ENERGY PREDICTED BY IDOCK:   -0.60 KCAL/MOL
REMARK 927      BINDING AFFINITY PREDICTED BY RF-SCORE:    0.00 PKD
ROOT
HETATM    1  N   UNL     1     -10.565  12.095  66.435  1.00  0.00    -0.235 NA 
HETATM    2  C   UNL     1     -11.444  12.600  65.387  1.00  0.00    -0.338 C  
HETATM    3  H2  UNL     1     -11.073  11.912  67.301  1.00  0.00     0.000 HD 
HETATM    4  H1  UNL     1     -10.059  11.270  66.111  1.00  0.00     0.000 HD 
ENDROOT
BRANCH   2   5
HETATM    5  C   UNL     1     -12.201  13.835  65.872  1.00  0.00    -0.501 C  
BRANCH   5   6
HETATM    6  C   UNL     1     -11.466  14.491  67.041  1.00  0.00    -0.370 C  
BRANCH   6   7
HETATM    7  N   UNL     1     -10.263  15.165  66.557  1.00  0.00    -0.268 NA 
HETATM    8  H   UNL     1      -9.648  14.524  66.058  1.00  0.00     0.000 HD 
BRANCH   7   9
HETATM    9  C   UNL     1     -10.608  16.332  65.737  1.00  0.00    -0.324 C  
BRANCH   9  10
HETATM   10  C   UNL     1      -9.836  17.574  66.187  1.00  0.00    -0.242 C  
BRANCH  10  11
HETATM   11  S   UNL     1      -9.533  17.587  67.985  1.00  0.00    -0.289 SA 
HETATM   12  P   UNL     1      -7.530  17.096  68.029  1.00  0.00    -0.209 P  
HETATM   13  O   UNL     1      -7.067  16.891  69.549  1.00  0.00    -0.192 OA 
HETATM   14  O   UNL     1      -7.212  15.917  67.166  1.00  0.00    -0.196 OA 
HETATM   15  O   UNL     1      -6.654  18.373  67.635  1.00  0.00    -0.193 OA 
ENDBRANCH  10  11
ENDBRANCH   9  10
ENDBRANCH   7   9
ENDBRANCH   6   7
ENDBRANCH   5   6
ENDBRANCH   2   5
TORSDOF 6
ENDMDL
MODEL      173
REMARK 921   NORMALIZED FREE ENERGY PREDICTED BY IDOCK:   -2.87 KCAL/MOL
REMARK 922        TOTAL FREE ENERGY PREDICTED BY IDOCK:   -3.96 KCAL/MOL
REMARK 923 INTER-LIGAND FREE ENERGY PREDICTED BY IDOCK:   -3.49 KCAL/MOL
REMARK 924 INTRA-LIGAND FREE ENERGY PREDICTED BY IDOCK:   -0.47 KCAL/MOL
REMARK 927      BINDING AFFINITY PREDICTED BY RF-SCORE:    0.00 PKD
ROOT
HETATM    1  N   UNL     1      -9.354   7.457  68.049  1.00  0.00    -0.135 NA 
HETATM    2  C   UNL     1     -10.030   8.693  68.426  1.00  0.00    -0.184 C  
HETATM    3  H2  UNL     1      -8.634   7.618  67.345  1.00  0.00     0.000 HD 
HETATM    4  H1  UNL     1      -8.979   6.989  68.874  1.00  0.00     0.000 HD 
ENDROOT
BRANCH   2   5
HETATM    5  C   UNL     1     -10.591   9.395  67.191  1.00  0.00    -0.294 C  
BRANCH   5   6
HETATM    6  C   UNL     1     -10.420  10.909  67.309  1.00  0.00    -0.232 C  
BRANCH   6   7
HETATM    7  N   UNL     1     -11.726  11.563  67.253  1.00  0.00    -0.603 NA 
HETATM    8  H   UNL     1     -11.995  11.943  68.160  1.00  0.00     0.000 HD 
BRANCH   7   9
HETATM    9  C   UNL     1     -11.756  12.589  66.206  1.00  0.00    -0.404 C  
BRANCH   9  10
HETATM   10  C   UNL     1     -10.582  13.560  66.344  1.00  0.00    -0.283 C  
BRANCH  10  11
HETATM   11  S   UNL     1     -11.097  15.179  67.004  1.00  0.00    -0.304 SA 
HETATM   12  P   UNL     1     -10.762  14.885  69.018  1.00  0.00    -0.261 P  
HETATM   13  O   UNL     1     -11.301  16.152  69.837  1.00  0.00    -0.325 OA 
HETATM   14  O   UNL     1     -11.334  13.595  69.511  1.00  0.00    -0.261 OA 
HETATM   15  O   UNL     1      -9.197  14.995  69.324  1.00  0.00    -0.206 OA 
ENDBRANCH  10  11
ENDBRANCH   9  10
ENDBRANCH   7   9
ENDBRANCH   6   7
ENDBRANCH   5   6
ENDBRANCH   2   5
TORSDOF 6
ENDMDL
MODEL      174
REMARK 921   NORMALIZED FREE ENERGY PREDICTED BY IDOCK:   -2.87 KCAL/MOL
REMARK 922        TOTAL FREE ENERGY PREDICTED BY IDOCK:   -3.96 KCAL/MOL
REMARK 923 INTER-LIGAND FREE ENERGY PREDICTED BY IDOCK:   -3.56 KCAL/MOL
REMARK 924 INTRA-LIGAND FREE ENERGY PREDICTED BY IDOCK:   -0.40 KCAL/MOL
REMARK 927      BINDING AFFINITY PREDICTED BY RF-SCORE:    0.00 PKD
ROOT
HETATM    1  N   UNL     1     -13.312   9.937  70.472  1.00  0.00    -0.595 NA 
HETATM    2  C   UNL     1     -13.188   9.687  71.903  1.00  0.00    -0.446 C  
HETATM    3  H2  UNL     1     -13.700   9.133  69.978  1.00  0.00     0.000 HD 
HETATM    4  H1  UNL     1     -13.855  10.784  70.302  1.00  0.00     0.000 HD 
ENDROOT
BRANCH   2   5
HETATM    5  C   UNL     1     -12.375   8.419  72.156  1.00  0.00    -0.426 C  
BRANCH   5   6
HETATM    6  C   UNL     1     -12.894   7.266  71.296  1.00  0.00    -0.346 C  
BRANCH   6   7
HETATM    7  N   UNL     1     -11.773   6.572  70.667  1.00  0.00    -0.390 NA 
HETATM    8  H   UNL     1     -11.299   7.164  69.986  1.00  0.00     0.000 HD 
BRANCH   7   9
HETATM    9  C   UNL     1     -10.841   6.054  71.675  1.00  0.00    -0.260 C  
BRANCH   9  10
HETATM   10  C   UNL     1      -9.398   6.094  71.170  1.00  0.00    -0.164 C  
BRANCH  10  11
HETATM   11  S   UNL     1      -8.440   7.451  71.921  1.00  0.00    -0.108 SA 
HETATM   12  P   UNL     1      -8.354   8.770  70.337  1.00  0.00    -0.175 P  
HETATM   13  O   UNL     1      -7.406  10.001  70.721  1.00  0.00    -0.323 OA 
HETATM   14  O   UNL     1      -7.947   8.105  69.061  1.00  0.00    -0.109 OA 
HETATM   15  O   UNL     1      -9.755   9.526  70.190  1.00  0.00    -0.214 OA 
ENDBRANCH  10  11
ENDBRANCH   9  10
ENDBRANCH   7   9
ENDBRANCH   6   7
ENDBRANCH   5   6
ENDBRANCH   2   5
TORSDOF 6
ENDMDL
MODEL      175
REMARK 921   NORMALIZED FREE ENERGY PREDICTED BY IDOCK:   -2.87 KCAL/MOL
REMARK 922        TOTAL FREE ENERGY PREDICTED BY IDOCK:   -3.96 KCAL/MOL
REMARK 923 INTER-LIGAND FREE ENERGY PREDICTED BY IDOCK:   -3.59 KCAL/MOL
REMARK 924 INTRA-LIGAND FREE ENERGY PREDICTED BY IDOCK:   -0.37 KCAL/MOL
REMARK 927      BINDING AFFINITY PREDICTED BY RF-SCORE:    0.00 PKD
ROOT
HETATM    1  N   UNL     1     -11.153   4.697  65.494  1.00  0.00    -0.942 NA 
HETATM    2  C   UNL     1      -9.731   4.579  65.195  1.00  0.00    -0.152 C  
HETATM    3  H2  UNL     1     -11.337   5.432  66.178  1.00  0.00     0.000 HD 
HETATM    4  H1  UNL     1     -11.689   4.834  64.637  1.00  0.00     0.000 HD 
ENDROOT
BRANCH   2   5
HETATM    5  C   UNL     1      -8.928   4.375  66.479  1.00  0.00    -0.117 C  
BRANCH   5   6
HETATM    6  C   UNL     1      -9.842   4.452  67.702  1.00  0.00    -0.113 C  
BRANCH   6   7
HETATM    7  N   UNL     1     -10.060   5.850  68.071  1.00  0.00    -0.148 NA 
HETATM    8  H   UNL     1     -11.020   6.014  68.371  1.00  0.00     0.000 HD 
BRANCH   7   9
HETATM    9  C   UNL     1      -9.095   6.282  69.088  1.00  0.00    -0.130 C  
BRANCH   9  10
HETATM   10  C   UNL     1      -9.754   6.408  70.462  1.00  0.00    -0.168 C  
BRANCH  10  11
HETATM   11  S   UNL     1     -11.535   6.778  70.344  1.00  0.00    -0.368 SA 
HETATM   12  P   UNL     1     -11.738   8.136  71.884  1.00  0.00    -0.362 P  
HETATM   13  O   UNL     1     -13.287   8.494  72.075  1.00  0.00    -0.339 OA 
HETATM   14  O   UNL     1     -11.094   7.665  73.148  1.00  0.00    -0.404 OA 
HETATM   15  O   UNL     1     -11.172   9.558  71.424  1.00  0.00    -0.351 OA 
ENDBRANCH  10  11
ENDBRANCH   9  10
ENDBRANCH   7   9
ENDBRANCH   6   7
ENDBRANCH   5   6
ENDBRANCH   2   5
TORSDOF 6
ENDMDL
MODEL      176
REMARK 921   NORMALIZED FREE ENERGY PREDICTED BY IDOCK:   -2.87 KCAL/MOL
REMARK 922        TOTAL FREE ENERGY PREDICTED BY IDOCK:   -3.96 KCAL/MOL
REMARK 923 INTER-LIGAND FREE ENERGY PREDICTED BY IDOCK:   -3.65 KCAL/MOL
REMARK 924 INTRA-LIGAND FREE ENERGY PREDICTED BY IDOCK:   -0.31 KCAL/MOL
REMARK 927      BINDING AFFINITY PREDICTED BY RF-SCORE:    0.00 PKD
ROOT
HETATM    1  N   UNL     1      -6.584  18.761  66.625  1.00  0.00    -0.188 NA 
HETATM    2  C   UNL     1      -7.764  18.730  67.480  1.00  0.00    -0.229 C  
HETATM    3  H2  UNL     1      -6.135  17.847  66.564  1.00  0.00     0.000 HD 
HETATM    4  H1  UNL     1      -6.819  19.131  65.704  1.00  0.00     0.000 HD 
ENDROOT
BRANCH   2   5
HETATM    5  C   UNL     1      -7.412  18.177  68.860  1.00  0.00    -0.246 C  
BRANCH   5   6
HETATM    6  C   UNL     1      -7.547  16.654  68.879  1.00  0.00    -0.240 C  
BRANCH   6   7
HETATM    7  N   UNL     1      -8.960  16.281  68.908  1.00  0.00    -0.238 NA 
HETATM    8  H   UNL     1      -9.556  17.044  68.588  1.00  0.00     0.000 HD 
BRANCH   7   9
HETATM    9  C   UNL     1      -9.197  15.052  68.144  1.00  0.00    -0.183 C  
BRANCH   9  10
HETATM   10  C   UNL     1      -8.766  15.214  66.685  1.00  0.00    -0.272 C  
BRANCH  10  11
HETATM   11  S   UNL     1      -9.870  16.328  65.757  1.00  0.00    -0.241 SA 
HETATM   12  P   UNL     1     -11.236  14.971  65.018  1.00  0.00    -0.377 P  
HETATM   13  O   UNL     1     -12.240  15.719  64.018  1.00  0.00    -0.664 OA 
HETATM   14  O   UNL     1     -10.580  13.782  64.393  1.00  0.00    -0.418 OA 
HETATM   15  O   UNL     1     -12.253  14.547  66.176  1.00  0.00    -0.353 OA 
ENDBRANCH  10  11
ENDBRANCH   9  10
ENDBRANCH   7   9
ENDBRANCH   6   7
ENDBRANCH   5   6
ENDBRANCH   2   5
TORSDOF 6
ENDMDL
MODEL      177
REMARK 921   NORMALIZED FREE ENERGY PREDICTED BY IDOCK:   -2.87 KCAL/MOL
REMARK 922        TOTAL FREE ENERGY PREDICTED BY IDOCK:   -3.95 KCAL/MOL
REMARK 923 INTER-LIGAND FREE ENERGY PREDICTED BY IDOCK:   -3.36 KCAL/MOL
REMARK 924 INTRA-LIGAND FREE ENERGY PREDICTED BY IDOCK:   -0.59 KCAL/MOL
REMARK 927      BINDING AFFINITY PREDICTED BY RF-SCORE:    0.00 PKD
ROOT
HETATM    1  N   UNL     1     -11.418   6.507  67.072  1.00  0.00    -0.743 NA 
HETATM    2  C   UNL     1     -10.970   6.669  68.450  1.00  0.00    -0.239 C  
HETATM    3  H2  UNL     1     -10.667   6.178  66.465  1.00  0.00     0.000 HD 
HETATM    4  H1  UNL     1     -12.234   5.897  67.030  1.00  0.00     0.000 HD 
ENDROOT
BRANCH   2   5
HETATM    5  C   UNL     1      -9.749   7.584  68.513  1.00  0.00    -0.159 C  
BRANCH   5   6
HETATM    6  C   UNL     1      -9.236   7.892  67.106  1.00  0.00    -0.146 C  
BRANCH   6   7
HETATM    7  N   UNL     1      -9.451   9.304  66.798  1.00  0.00    -0.164 NA 
HETATM    8  H   UNL     1      -8.687   9.885  67.144  1.00  0.00     0.000 HD 
BRANCH   7   9
HETATM    9  C   UNL     1      -9.673   9.502  65.361  1.00  0.00    -0.244 C  
BRANCH   9  10
HETATM   10  C   UNL     1      -9.467  10.965  64.964  1.00  0.00    -0.233 C  
BRANCH  10  11
HETATM   11  S   UNL     1     -11.030  11.902  64.942  1.00  0.00    -0.311 SA 
HETATM   12  P   UNL     1     -10.890  12.905  66.739  1.00  0.00    -0.279 P  
HETATM   13  O   UNL     1     -12.256  13.694  67.015  1.00  0.00    -0.389 OA 
HETATM   14  O   UNL     1     -10.506  12.004  67.868  1.00  0.00    -0.193 OA 
HETATM   15  O   UNL     1      -9.878  14.134  66.591  1.00  0.00    -0.264 OA 
ENDBRANCH  10  11
ENDBRANCH   9  10
ENDBRANCH   7   9
ENDBRANCH   6   7
ENDBRANCH   5   6
ENDBRANCH   2   5
TORSDOF 6
ENDMDL
MODEL      178
REMARK 921   NORMALIZED FREE ENERGY PREDICTED BY IDOCK:   -2.86 KCAL/MOL
REMARK 922        TOTAL FREE ENERGY PREDICTED BY IDOCK:   -3.95 KCAL/MOL
REMARK 923 INTER-LIGAND FREE ENERGY PREDICTED BY IDOCK:   -3.17 KCAL/MOL
REMARK 924 INTRA-LIGAND FREE ENERGY PREDICTED BY IDOCK:   -0.78 KCAL/MOL
REMARK 927      BINDING AFFINITY PREDICTED BY RF-SCORE:    0.00 PKD
ROOT
HETATM    1  N   UNL     1      -9.996   3.926  66.651  1.00  0.00    -0.374 NA 
HETATM    2  C   UNL     1     -10.627   5.181  66.263  1.00  0.00    -0.266 C  
HETATM    3  H2  UNL     1     -10.532   3.437  67.368  1.00  0.00     0.000 HD 
HETATM    4  H1  UNL     1      -9.834   3.338  65.833  1.00  0.00     0.000 HD 
ENDROOT
BRANCH   2   5
HETATM    5  C   UNL     1     -10.869   6.061  67.489  1.00  0.00    -0.393 C  
BRANCH   5   6
HETATM    6  C   UNL     1      -9.767   5.849  68.527  1.00  0.00    -0.126 C  
BRANCH   6   7
HETATM    7  N   UNL     1     -10.298   5.109  69.671  1.00  0.00    -0.272 NA 
HETATM    8  H   UNL     1     -10.473   4.132  69.438  1.00  0.00     0.000 HD 
BRANCH   7   9
HETATM    9  C   UNL     1      -9.418   5.238  70.837  1.00  0.00    -0.165 C  
BRANCH   9  10
HETATM   10  C   UNL     1      -8.909   6.672  70.993  1.00  0.00    -0.142 C  
BRANCH  10  11
HETATM   11  S   UNL     1      -9.799   7.584  72.296  1.00  0.00    -0.178 SA 
HETATM   12  P   UNL     1     -11.421   8.278  71.226  1.00  0.00    -0.291 P  
HETATM   13  O   UNL     1     -12.285   9.260  72.149  1.00  0.00    -0.359 OA 
HETATM   14  O   UNL     1     -11.023   8.907  69.930  1.00  0.00    -0.235 OA 
HETATM   15  O   UNL     1     -12.470   7.092  71.012  1.00  0.00    -0.376 OA 
ENDBRANCH  10  11
ENDBRANCH   9  10
ENDBRANCH   7   9
ENDBRANCH   6   7
ENDBRANCH   5   6
ENDBRANCH   2   5
TORSDOF 6
ENDMDL
MODEL      179
REMARK 921   NORMALIZED FREE ENERGY PREDICTED BY IDOCK:   -2.86 KCAL/MOL
REMARK 922        TOTAL FREE ENERGY PREDICTED BY IDOCK:   -3.94 KCAL/MOL
REMARK 923 INTER-LIGAND FREE ENERGY PREDICTED BY IDOCK:   -3.79 KCAL/MOL
REMARK 924 INTRA-LIGAND FREE ENERGY PREDICTED BY IDOCK:   -0.15 KCAL/MOL
REMARK 927      BINDING AFFINITY PREDICTED BY RF-SCORE:    0.00 PKD
ROOT
HETATM    1  N   UNL     1     -12.198  15.987  63.612  1.00  0.00    -0.977 NA 
HETATM    2  C   UNL     1     -11.288  16.188  64.734  1.00  0.00    -0.249 C  
HETATM    3  H2  UNL     1     -12.790  15.167  63.747  1.00  0.00     0.000 HD 
HETATM    4  H1  UNL     1     -12.748  16.829  63.443  1.00  0.00     0.000 HD 
ENDROOT
BRANCH   2   5
HETATM    5  C   UNL     1     -10.464  14.927  64.988  1.00  0.00    -0.429 C  
BRANCH   5   6
HETATM    6  C   UNL     1      -9.497  15.143  66.153  1.00  0.00    -0.319 C  
BRANCH   6   7
HETATM    7  N   UNL     1      -8.952  16.498  66.101  1.00  0.00    -0.392 NA 
HETATM    8  H   UNL     1      -9.557  17.165  66.581  1.00  0.00     0.000 HD 
BRANCH   7   9
HETATM    9  C   UNL     1      -7.583  16.536  66.624  1.00  0.00    -0.275 C  
BRANCH   9  10
HETATM   10  C   UNL     1      -6.932  17.898  66.380  1.00  0.00    -0.249 C  
BRANCH  10  11
HETATM   11  S   UNL     1      -7.791  19.244  67.260  1.00  0.00    -0.258 SA 
HETATM   12  P   UNL     1      -6.700  19.303  69.009  1.00  0.00    -0.330 P  
HETATM   13  O   UNL     1      -7.384  20.331  70.028  1.00  0.00     0.108 OA 
HETATM   14  O   UNL     1      -6.502  17.946  69.605  1.00  0.00    -0.226 OA 
HETATM   15  O   UNL     1      -5.308  20.045  68.750  1.00  0.00    -0.196 OA 
ENDBRANCH  10  11
ENDBRANCH   9  10
ENDBRANCH   7   9
ENDBRANCH   6   7
ENDBRANCH   5   6
ENDBRANCH   2   5
TORSDOF 6
ENDMDL
MODEL      180
REMARK 921   NORMALIZED FREE ENERGY PREDICTED BY IDOCK:   -2.84 KCAL/MOL
REMARK 922        TOTAL FREE ENERGY PREDICTED BY IDOCK:   -3.92 KCAL/MOL
REMARK 923 INTER-LIGAND FREE ENERGY PREDICTED BY IDOCK:   -3.65 KCAL/MOL
REMARK 924 INTRA-LIGAND FREE ENERGY PREDICTED BY IDOCK:   -0.27 KCAL/MOL
REMARK 927      BINDING AFFINITY PREDICTED BY RF-SCORE:    0.00 PKD
ROOT
HETATM    1  N   UNL     1      -8.475  17.756  68.559  1.00  0.00    -0.297 NA 
HETATM    2  C   UNL     1      -7.776  18.510  67.524  1.00  0.00    -0.229 C  
HETATM    3  H2  UNL     1      -8.142  16.794  68.617  1.00  0.00     0.000 HD 
HETATM    4  H1  UNL     1      -8.410  18.236  69.457  1.00  0.00     0.000 HD 
ENDROOT
BRANCH   2   5
HETATM    5  C   UNL     1      -7.875  17.792  66.179  1.00  0.00    -0.262 C  
BRANCH   5   6
HETATM    6  C   UNL     1      -8.463  16.393  66.359  1.00  0.00    -0.329 C  
BRANCH   6   7
HETATM    7  N   UNL     1      -9.814  16.347  65.803  1.00  0.00    -0.492 NA 
HETATM    8  H   UNL     1      -9.815  15.986  64.849  1.00  0.00     0.000 HD 
BRANCH   7   9
HETATM    9  C   UNL     1     -10.716  15.584  66.672  1.00  0.00    -0.306 C  
BRANCH   9  10
HETATM   10  C   UNL     1     -10.948  14.173  66.130  1.00  0.00    -0.309 C  
BRANCH  10  11
HETATM   11  S   UNL     1      -9.650  13.007  66.658  1.00  0.00    -0.260 SA 
HETATM   12  P   UNL     1     -10.709  11.237  66.643  1.00  0.00    -0.243 P  
HETATM   13  O   UNL     1      -9.793  10.065  67.236  1.00  0.00    -0.168 OA 
HETATM   14  O   UNL     1     -12.024  11.352  67.344  1.00  0.00    -0.606 OA 
HETATM   15  O   UNL     1     -10.882  10.728  65.137  1.00  0.00    -0.152 OA 
ENDBRANCH  10  11
ENDBRANCH   9  10
ENDBRANCH   7   9
ENDBRANCH   6   7
ENDBRANCH   5   6
ENDBRANCH   2   5
TORSDOF 6
ENDMDL
MODEL      181
REMARK 921   NORMALIZED FREE ENERGY PREDICTED BY IDOCK:   -2.84 KCAL/MOL
REMARK 922        TOTAL FREE ENERGY PREDICTED BY IDOCK:   -3.91 KCAL/MOL
REMARK 923 INTER-LIGAND FREE ENERGY PREDICTED BY IDOCK:   -3.57 KCAL/MOL
REMARK 924 INTRA-LIGAND FREE ENERGY PREDICTED BY IDOCK:   -0.35 KCAL/MOL
REMARK 927      BINDING AFFINITY PREDICTED BY RF-SCORE:    0.00 PKD
ROOT
HETATM    1  N   UNL     1      -9.640   4.605  68.835  1.00  0.00    -0.154 NA 
HETATM    2  C   UNL     1     -10.331   4.997  70.056  1.00  0.00    -0.233 C  
HETATM    3  H2  UNL     1      -9.183   5.399  68.385  1.00  0.00     0.000 HD 
HETATM    4  H1  UNL     1      -8.984   3.847  69.022  1.00  0.00     0.000 HD 
ENDROOT
BRANCH   2   5
HETATM    5  C   UNL     1     -11.314   6.133  69.775  1.00  0.00    -0.452 C  
BRANCH   5   6
HETATM    6  C   UNL     1     -11.023   6.771  68.417  1.00  0.00    -0.187 C  
BRANCH   6   7
HETATM    7  N   UNL     1      -9.949   7.753  68.549  1.00  0.00    -0.176 NA 
HETATM    8  H   UNL     1      -9.500   7.942  67.653  1.00  0.00     0.000 HD 
BRANCH   7   9
HETATM    9  C   UNL     1     -10.435   8.984  69.180  1.00  0.00    -0.225 C  
BRANCH   9  10
HETATM   10  C   UNL     1     -10.470  10.143  68.183  1.00  0.00    -0.206 C  
BRANCH  10  11
HETATM   11  S   UNL     1     -11.629  11.456  68.689  1.00  0.00    -0.332 SA 
HETATM   12  P   UNL     1     -11.401  12.780  67.123  1.00  0.00    -0.353 P  
HETATM   13  O   UNL     1     -12.226  14.116  67.432  1.00  0.00    -0.380 OA 
HETATM   14  O   UNL     1      -9.965  13.049  66.807  1.00  0.00    -0.234 OA 
HETATM   15  O   UNL     1     -12.198  12.243  65.845  1.00  0.00    -0.634 OA 
ENDBRANCH  10  11
ENDBRANCH   9  10
ENDBRANCH   7   9
ENDBRANCH   6   7
ENDBRANCH   5   6
ENDBRANCH   2   5
TORSDOF 6
ENDMDL
MODEL      182
REMARK 921   NORMALIZED FREE ENERGY PREDICTED BY IDOCK:   -2.81 KCAL/MOL
REMARK 922        TOTAL FREE ENERGY PREDICTED BY IDOCK:   -3.88 KCAL/MOL
REMARK 923 INTER-LIGAND FREE ENERGY PREDICTED BY IDOCK:   -3.48 KCAL/MOL
REMARK 924 INTRA-LIGAND FREE ENERGY PREDICTED BY IDOCK:   -0.40 KCAL/MOL
REMARK 927      BINDING AFFINITY PREDICTED BY RF-SCORE:    0.00 PKD
ROOT
HETATM    1  N   UNL     1     -10.900  15.268  66.962  1.00  0.00    -0.318 NA 
HETATM    2  C   UNL     1     -10.395  16.016  65.817  1.00  0.00    -0.378 C  
HETATM    3  H2  UNL     1     -10.994  14.273  66.754  1.00  0.00     0.000 HD 
HETATM    4  H1  UNL     1     -10.315  15.429  67.782  1.00  0.00     0.000 HD 
ENDROOT
BRANCH   2   5
HETATM    5  C   UNL     1     -11.271  15.774  64.590  1.00  0.00    -0.373 C  
BRANCH   5   6
HETATM    6  C   UNL     1     -11.618  14.290  64.461  1.00  0.00    -0.387 C  
BRANCH   6   7
HETATM    7  N   UNL     1     -10.406  13.519  64.191  1.00  0.00    -0.708 NA 
HETATM    8  H   UNL     1      -9.565  14.080  64.327  1.00  0.00     0.000 HD 
BRANCH   7   9
HETATM    9  C   UNL     1     -10.373  12.291  64.992  1.00  0.00    -0.291 C  
BRANCH   9  10
HETATM   10  C   UNL     1      -9.831  11.113  64.182  1.00  0.00    -0.291 C  
BRANCH  10  11
HETATM   11  S   UNL     1      -9.401   9.688  65.234  1.00  0.00    -0.260 SA 
HETATM   12  P   UNL     1      -7.357   9.927  65.370  1.00  0.00    -0.139 P  
HETATM   13  O   UNL     1      -6.725   8.673  66.139  1.00  0.00    -0.066 OA 
HETATM   14  O   UNL     1      -6.720  10.168  64.039  1.00  0.00    -0.129 OA 
HETATM   15  O   UNL     1      -7.020  11.095  66.408  1.00  0.00    -0.135 OA 
ENDBRANCH  10  11
ENDBRANCH   9  10
ENDBRANCH   7   9
ENDBRANCH   6   7
ENDBRANCH   5   6
ENDBRANCH   2   5
TORSDOF 6
ENDMDL
MODEL      183
REMARK 921   NORMALIZED FREE ENERGY PREDICTED BY IDOCK:   -2.81 KCAL/MOL
REMARK 922        TOTAL FREE ENERGY PREDICTED BY IDOCK:   -3.88 KCAL/MOL
REMARK 923 INTER-LIGAND FREE ENERGY PREDICTED BY IDOCK:   -3.18 KCAL/MOL
REMARK 924 INTRA-LIGAND FREE ENERGY PREDICTED BY IDOCK:   -0.70 KCAL/MOL
REMARK 927      BINDING AFFINITY PREDICTED BY RF-SCORE:    0.00 PKD
ROOT
HETATM    1  N   UNL     1      -9.364  14.239  68.028  1.00  0.00    -0.194 NA 
HETATM    2  C   UNL     1      -8.043  14.609  68.521  1.00  0.00    -0.146 C  
HETATM    3  H2  UNL     1      -9.750  13.444  68.538  1.00  0.00     0.000 HD 
HETATM    4  H1  UNL     1      -9.992  15.043  68.048  1.00  0.00     0.000 HD 
ENDROOT
BRANCH   2   5
HETATM    5  C   UNL     1      -7.103  13.405  68.490  1.00  0.00    -0.108 C  
BRANCH   5   6
HETATM    6  C   UNL     1      -7.605  12.357  67.497  1.00  0.00    -0.155 C  
BRANCH   6   7
HETATM    7  N   UNL     1      -8.544  11.455  68.160  1.00  0.00    -0.147 NA 
HETATM    8  H   UNL     1      -9.147  11.954  68.814  1.00  0.00     0.000 HD 
BRANCH   7   9
HETATM    9  C   UNL     1      -9.324  10.692  67.179  1.00  0.00    -0.155 C  
BRANCH   9  10
HETATM   10  C   UNL     1      -9.146  11.256  65.769  1.00  0.00    -0.203 C  
BRANCH  10  11
HETATM   11  S   UNL     1     -10.609  10.970  64.719  1.00  0.00    -0.230 SA 
HETATM   12  P   UNL     1     -11.668  12.705  65.073  1.00  0.00    -0.400 P  
HETATM   13  O   UNL     1     -13.099  12.608  64.360  1.00  0.00    -0.752 OA 
HETATM   14  O   UNL     1     -11.770  13.025  66.529  1.00  0.00    -0.344 OA 
HETATM   15  O   UNL     1     -11.019  13.909  64.246  1.00  0.00    -0.347 OA 
ENDBRANCH  10  11
ENDBRANCH   9  10
ENDBRANCH   7   9
ENDBRANCH   6   7
ENDBRANCH   5   6
ENDBRANCH   2   5
TORSDOF 6
ENDMDL
MODEL      184
REMARK 921   NORMALIZED FREE ENERGY PREDICTED BY IDOCK:   -2.80 KCAL/MOL
REMARK 922        TOTAL FREE ENERGY PREDICTED BY IDOCK:   -3.87 KCAL/MOL
REMARK 923 INTER-LIGAND FREE ENERGY PREDICTED BY IDOCK:   -3.75 KCAL/MOL
REMARK 924 INTRA-LIGAND FREE ENERGY PREDICTED BY IDOCK:   -0.12 KCAL/MOL
REMARK 927      BINDING AFFINITY PREDICTED BY RF-SCORE:    0.00 PKD
ROOT
HETATM    1  N   UNL     1     -11.346   4.929  65.320  1.00  0.00    -0.877 NA 
HETATM    2  C   UNL     1     -10.058   4.865  65.999  1.00  0.00    -0.239 C  
HETATM    3  H2  UNL     1     -11.327   5.575  64.531  1.00  0.00     0.000 HD 
HETATM    4  H1  UNL     1     -11.649   3.997  65.039  1.00  0.00     0.000 HD 
ENDROOT
BRANCH   2   5
HETATM    5  C   UNL     1      -9.603   6.261  66.420  1.00  0.00    -0.159 C  
BRANCH   5   6
HETATM    6  C   UNL     1     -10.716   6.980  67.185  1.00  0.00    -0.363 C  
BRANCH   6   7
HETATM    7  N   UNL     1     -10.837   8.356  66.707  1.00  0.00    -0.255 NA 
HETATM    8  H   UNL     1     -11.778   8.553  66.365  1.00  0.00     0.000 HD 
BRANCH   7   9
HETATM    9  C   UNL     1     -10.427   9.311  67.742  1.00  0.00    -0.255 C  
BRANCH   9  10
HETATM   10  C   UNL     1     -10.874  10.732  67.395  1.00  0.00    -0.290 C  
BRANCH  10  11
HETATM   11  S   UNL     1      -9.897  11.998  68.270  1.00  0.00    -0.200 SA 
HETATM   12  P   UNL     1     -10.643  13.713  67.400  1.00  0.00    -0.261 P  
HETATM   13  O   UNL     1      -9.804  14.977  67.914  1.00  0.00    -0.215 OA 
HETATM   14  O   UNL     1     -10.693  13.621  65.909  1.00  0.00    -0.276 OA 
HETATM   15  O   UNL     1     -12.076  14.052  68.022  1.00  0.00    -0.362 OA 
ENDBRANCH  10  11
ENDBRANCH   9  10
ENDBRANCH   7   9
ENDBRANCH   6   7
ENDBRANCH   5   6
ENDBRANCH   2   5
TORSDOF 6
ENDMDL
MODEL      185
REMARK 921   NORMALIZED FREE ENERGY PREDICTED BY IDOCK:   -2.80 KCAL/MOL
REMARK 922        TOTAL FREE ENERGY PREDICTED BY IDOCK:   -3.86 KCAL/MOL
REMARK 923 INTER-LIGAND FREE ENERGY PREDICTED BY IDOCK:   -3.25 KCAL/MOL
REMARK 924 INTRA-LIGAND FREE ENERGY PREDICTED BY IDOCK:   -0.61 KCAL/MOL
REMARK 927      BINDING AFFINITY PREDICTED BY RF-SCORE:    0.00 PKD
ROOT
HETATM    1  N   UNL     1     -11.279  14.269  70.792  1.00  0.00    -0.485 NA 
HETATM    2  C   UNL     1     -12.146  13.645  69.799  1.00  0.00    -0.334 C  
HETATM    3  H2  UNL     1     -11.255  15.284  70.690  1.00  0.00     0.000 HD 
HETATM    4  H1  UNL     1     -11.555  13.989  71.734  1.00  0.00     0.000 HD 
ENDROOT
BRANCH   2   5
HETATM    5  C   UNL     1     -11.733  14.064  68.389  1.00  0.00    -0.389 C  
BRANCH   5   6
HETATM    6  C   UNL     1     -10.358  13.492  68.040  1.00  0.00    -0.241 C  
BRANCH   6   7
HETATM    7  N   UNL     1     -10.247  12.125  68.543  1.00  0.00    -0.242 NA 
HETATM    8  H   UNL     1     -11.118  11.608  68.424  1.00  0.00     0.000 HD 
BRANCH   7   9
HETATM    9  C   UNL     1      -9.115  11.426  67.925  1.00  0.00    -0.164 C  
BRANCH   9  10
HETATM   10  C   UNL     1      -8.555  10.347  68.852  1.00  0.00    -0.149 C  
BRANCH  10  11
HETATM   11  S   UNL     1      -9.603   8.855  68.890  1.00  0.00    -0.163 SA 
HETATM   12  P   UNL     1     -10.519   9.088  70.723  1.00  0.00    -0.294 P  
HETATM   13  O   UNL     1     -11.392   7.786  71.050  1.00  0.00    -0.263 OA 
HETATM   14  O   UNL     1      -9.547   9.418  71.810  1.00  0.00    -0.239 OA 
HETATM   15  O   UNL     1     -11.677  10.185  70.611  1.00  0.00    -0.287 OA 
ENDBRANCH  10  11
ENDBRANCH   9  10
ENDBRANCH   7   9
ENDBRANCH   6   7
ENDBRANCH   5   6
ENDBRANCH   2   5
TORSDOF 6
ENDMDL
MODEL      186
REMARK 921   NORMALIZED FREE ENERGY PREDICTED BY IDOCK:   -2.79 KCAL/MOL
REMARK 922        TOTAL FREE ENERGY PREDICTED BY IDOCK:   -3.85 KCAL/MOL
REMARK 923 INTER-LIGAND FREE ENERGY PREDICTED BY IDOCK:   -3.35 KCAL/MOL
REMARK 924 INTRA-LIGAND FREE ENERGY PREDICTED BY IDOCK:   -0.51 KCAL/MOL
REMARK 927      BINDING AFFINITY PREDICTED BY RF-SCORE:    0.00 PKD
ROOT
HETATM    1  N   UNL     1      -9.928   9.939  65.147  1.00  0.00    -0.362 NA 
HETATM    2  C   UNL     1      -9.576  11.205  64.515  1.00  0.00    -0.250 C  
HETATM    3  H2  UNL     1     -10.668   9.454  64.639  1.00  0.00     0.000 HD 
HETATM    4  H1  UNL     1      -9.100   9.354  65.261  1.00  0.00     0.000 HD 
ENDROOT
BRANCH   2   5
HETATM    5  C   UNL     1     -10.816  12.081  64.345  1.00  0.00    -0.378 C  
BRANCH   5   6
HETATM    6  C   UNL     1     -11.076  12.895  65.613  1.00  0.00    -0.279 C  
BRANCH   6   7
HETATM    7  N   UNL     1     -10.764  14.302  65.373  1.00  0.00    -0.323 NA 
HETATM    8  H   UNL     1     -11.554  14.906  65.600  1.00  0.00     0.000 HD 
BRANCH   7   9
HETATM    9  C   UNL     1      -9.551  14.703  66.094  1.00  0.00    -0.307 C  
BRANCH   9  10
HETATM   10  C   UNL     1      -9.312  13.815  67.316  1.00  0.00    -0.239 C  
BRANCH  10  11
HETATM   11  S   UNL     1      -9.341  14.760  68.875  1.00  0.00    -0.151 SA 
HETATM   12  P   UNL     1     -11.356  14.699  69.313  1.00  0.00    -0.318 P  
HETATM   13  O   UNL     1     -11.650  15.618  70.591  1.00  0.00    -0.300 OA 
HETATM   14  O   UNL     1     -12.207  15.056  68.137  1.00  0.00    -0.142 OA 
HETATM   15  O   UNL     1     -11.734  13.262  69.903  1.00  0.00    -0.297 OA 
ENDBRANCH  10  11
ENDBRANCH   9  10
ENDBRANCH   7   9
ENDBRANCH   6   7
ENDBRANCH   5   6
ENDBRANCH   2   5
TORSDOF 6
ENDMDL
MODEL      187
REMARK 921   NORMALIZED FREE ENERGY PREDICTED BY IDOCK:   -2.79 KCAL/MOL
REMARK 922        TOTAL FREE ENERGY PREDICTED BY IDOCK:   -3.85 KCAL/MOL
REMARK 923 INTER-LIGAND FREE ENERGY PREDICTED BY IDOCK:   -3.44 KCAL/MOL
REMARK 924 INTRA-LIGAND FREE ENERGY PREDICTED BY IDOCK:   -0.41 KCAL/MOL
REMARK 927      BINDING AFFINITY PREDICTED BY RF-SCORE:    0.00 PKD
ROOT
HETATM    1  N   UNL     1     -11.433  12.992  63.824  1.00  0.00    -0.534 NA 
HETATM    2  C   UNL     1     -11.980  13.837  64.877  1.00  0.00    -0.390 C  
HETATM    3  H2  UNL     1     -10.497  12.656  64.054  1.00  0.00     0.000 HD 
HETATM    4  H1  UNL     1     -12.070  12.223  63.614  1.00  0.00     0.000 HD 
ENDROOT
BRANCH   2   5
HETATM    5  C   UNL     1     -11.026  14.988  65.191  1.00  0.00    -0.417 C  
BRANCH   5   6
HETATM    6  C   UNL     1     -10.553  14.913  66.643  1.00  0.00    -0.305 C  
BRANCH   6   7
HETATM    7  N   UNL     1      -9.109  15.127  66.707  1.00  0.00    -0.238 NA 
HETATM    8  H   UNL     1      -8.880  15.999  67.184  1.00  0.00     0.000 HD 
BRANCH   7   9
HETATM    9  C   UNL     1      -8.433  13.980  67.322  1.00  0.00    -0.207 C  
BRANCH   9  10
HETATM   10  C   UNL     1      -9.264  12.704  67.182  1.00  0.00    -0.214 C  
BRANCH  10  11
HETATM   11  S   UNL     1      -8.240  11.252  66.776  1.00  0.00    -0.160 SA 
HETATM   12  P   UNL     1      -9.681   9.973  66.038  1.00  0.00    -0.272 P  
HETATM   13  O   UNL     1      -9.024   8.540  65.753  1.00  0.00    -0.182 OA 
HETATM   14  O   UNL     1     -10.881   9.891  66.927  1.00  0.00    -0.178 OA 
HETATM   15  O   UNL     1     -10.074  10.406  64.551  1.00  0.00    -0.346 OA 
ENDBRANCH  10  11
ENDBRANCH   9  10
ENDBRANCH   7   9
ENDBRANCH   6   7
ENDBRANCH   5   6
ENDBRANCH   2   5
TORSDOF 6
ENDMDL
MODEL      188
REMARK 921   NORMALIZED FREE ENERGY PREDICTED BY IDOCK:   -2.79 KCAL/MOL
REMARK 922        TOTAL FREE ENERGY PREDICTED BY IDOCK:   -3.85 KCAL/MOL
REMARK 923 INTER-LIGAND FREE ENERGY PREDICTED BY IDOCK:   -4.13 KCAL/MOL
REMARK 924 INTRA-LIGAND FREE ENERGY PREDICTED BY IDOCK:    0.29 KCAL/MOL
REMARK 927      BINDING AFFINITY PREDICTED BY RF-SCORE:    0.00 PKD
ROOT
HETATM    1  N   UNL     1     -14.223   8.879  73.202  1.00  0.00    -1.200 NA 
HETATM    2  C   UNL     1     -14.268   8.223  71.902  1.00  0.00    -0.454 C  
HETATM    3  H2  UNL     1     -13.317   9.315  73.376  1.00  0.00     0.000 HD 
HETATM    4  H1  UNL     1     -14.989   9.547  73.293  1.00  0.00     0.000 HD 
ENDROOT
BRANCH   2   5
HETATM    5  C   UNL     1     -13.122   7.222  71.766  1.00  0.00    -0.365 C  
BRANCH   5   6
HETATM    6  C   UNL     1     -12.008   7.796  70.891  1.00  0.00    -0.210 C  
BRANCH   6   7
HETATM    7  N   UNL     1     -11.832   6.965  69.702  1.00  0.00    -0.610 NA 
HETATM    8  H   UNL     1     -11.533   7.518  68.898  1.00  0.00     0.000 HD 
BRANCH   7   9
HETATM    9  C   UNL     1     -10.913   5.854  69.966  1.00  0.00    -0.360 C  
BRANCH   9  10
HETATM   10  C   UNL     1     -10.428   5.868  71.417  1.00  0.00    -0.236 C  
BRANCH  10  11
HETATM   11  S   UNL     1      -8.609   5.844  71.539  1.00  0.00    -0.132 SA 
HETATM   12  P   UNL     1      -8.336   6.932  73.270  1.00  0.00    -0.120 P  
HETATM   13  O   UNL     1      -6.771   7.180  73.500  1.00  0.00    -0.066 OA 
HETATM   14  O   UNL     1      -9.129   8.199  73.279  1.00  0.00    -0.261 OA 
HETATM   15  O   UNL     1      -8.668   6.016  74.538  1.00  0.00    -0.121 OA 
ENDBRANCH  10  11
ENDBRANCH   9  10
ENDBRANCH   7   9
ENDBRANCH   6   7
ENDBRANCH   5   6
ENDBRANCH   2   5
TORSDOF 6
ENDMDL
MODEL      189
REMARK 921   NORMALIZED FREE ENERGY PREDICTED BY IDOCK:   -2.77 KCAL/MOL
REMARK 922        TOTAL FREE ENERGY PREDICTED BY IDOCK:   -3.82 KCAL/MOL
REMARK 923 INTER-LIGAND FREE ENERGY PREDICTED BY IDOCK:   -2.94 KCAL/MOL
REMARK 924 INTRA-LIGAND FREE ENERGY PREDICTED BY IDOCK:   -0.88 KCAL/MOL
REMARK 927      BINDING AFFINITY PREDICTED BY RF-SCORE:    0.00 PKD
ROOT
HETATM    1  N   UNL     1      -9.867   6.467  66.384  1.00  0.00    -0.363 NA 
HETATM    2  C   UNL     1     -11.111   6.217  67.102  1.00  0.00    -0.242 C  
HETATM    3  H2  UNL     1      -9.084   5.957  66.793  1.00  0.00     0.000 HD 
HETATM    4  H1  UNL     1      -9.978   6.260  65.392  1.00  0.00     0.000 HD 
ENDROOT
BRANCH   2   5
HETATM    5  C   UNL     1     -10.945   6.529  68.588  1.00  0.00    -0.363 C  
BRANCH   5   6
HETATM    6  C   UNL     1     -10.252   7.878  68.779  1.00  0.00    -0.205 C  
BRANCH   6   7
HETATM    7  N   UNL     1     -11.022   8.930  68.119  1.00  0.00    -0.473 NA 
HETATM    8  H   UNL     1     -12.016   8.861  68.337  1.00  0.00     0.000 HD 
BRANCH   7   9
HETATM    9  C   UNL     1     -10.488  10.257  68.444  1.00  0.00    -0.200 C  
BRANCH   9  10
HETATM   10  C   UNL     1     -10.812  11.270  67.345  1.00  0.00    -0.262 C  
BRANCH  10  11
HETATM   11  S   UNL     1      -9.350  11.693  66.342  1.00  0.00    -0.216 SA 
HETATM   12  P   UNL     1      -9.609  10.413  64.745  1.00  0.00    -0.337 P  
HETATM   13  O   UNL     1      -8.332  10.497  63.784  1.00  0.00    -0.165 OA 
HETATM   14  O   UNL     1      -9.913   9.014  65.178  1.00  0.00     0.249 OA 
HETATM   15  O   UNL     1     -10.737  10.990  63.771  1.00  0.00    -0.362 OA 
ENDBRANCH  10  11
ENDBRANCH   9  10
ENDBRANCH   7   9
ENDBRANCH   6   7
ENDBRANCH   5   6
ENDBRANCH   2   5
TORSDOF 6
ENDMDL
MODEL      190
REMARK 921   NORMALIZED FREE ENERGY PREDICTED BY IDOCK:   -2.76 KCAL/MOL
REMARK 922        TOTAL FREE ENERGY PREDICTED BY IDOCK:   -3.81 KCAL/MOL
REMARK 923 INTER-LIGAND FREE ENERGY PREDICTED BY IDOCK:   -3.56 KCAL/MOL
REMARK 924 INTRA-LIGAND FREE ENERGY PREDICTED BY IDOCK:   -0.25 KCAL/MOL
REMARK 927      BINDING AFFINITY PREDICTED BY RF-SCORE:    0.00 PKD
ROOT
HETATM    1  N   UNL     1      -9.291   8.839  71.149  1.00  0.00    -0.210 NA 
HETATM    2  C   UNL     1     -10.257   9.542  70.313  1.00  0.00    -0.260 C  
HETATM    3  H2  UNL     1      -9.530   7.853  71.258  1.00  0.00     0.000 HD 
HETATM    4  H1  UNL     1      -8.346   8.962  70.786  1.00  0.00     0.000 HD 
ENDROOT
BRANCH   2   5
HETATM    5  C   UNL     1     -11.672   9.358  70.858  1.00  0.00    -0.378 C  
BRANCH   5   6
HETATM    6  C   UNL     1     -12.195  10.669  71.446  1.00  0.00    -0.302 C  
BRANCH   6   7
HETATM    7  N   UNL     1     -11.668  11.800  70.685  1.00  0.00    -0.432 NA 
HETATM    8  H   UNL     1     -11.199  11.494  69.833  1.00  0.00     0.000 HD 
BRANCH   7   9
HETATM    9  C   UNL     1     -12.721  12.780  70.401  1.00  0.00     0.074 C  
BRANCH   9  10
HETATM   10  C   UNL     1     -13.658  12.952  71.598  1.00  0.00    -0.040 C  
BRANCH  10  11
HETATM   11  S   UNL     1     -14.150  14.689  71.848  1.00  0.00    -0.566 SA 
HETATM   12  P   UNL     1     -12.689  15.305  73.167  1.00  0.00    -0.586 P  
HETATM   13  O   UNL     1     -13.013  16.793  73.662  1.00  0.00    -0.287 OA 
HETATM   14  O   UNL     1     -12.502  14.348  74.300  1.00  0.00    -0.164 OA 
HETATM   15  O   UNL     1     -11.323  15.560  72.376  1.00  0.00    -0.413 OA 
ENDBRANCH  10  11
ENDBRANCH   9  10
ENDBRANCH   7   9
ENDBRANCH   6   7
ENDBRANCH   5   6
ENDBRANCH   2   5
TORSDOF 6
ENDMDL
MODEL      191
REMARK 921   NORMALIZED FREE ENERGY PREDICTED BY IDOCK:   -2.75 KCAL/MOL
REMARK 922        TOTAL FREE ENERGY PREDICTED BY IDOCK:   -3.80 KCAL/MOL
REMARK 923 INTER-LIGAND FREE ENERGY PREDICTED BY IDOCK:   -3.57 KCAL/MOL
REMARK 924 INTRA-LIGAND FREE ENERGY PREDICTED BY IDOCK:   -0.23 KCAL/MOL
REMARK 927      BINDING AFFINITY PREDICTED BY RF-SCORE:    0.00 PKD
ROOT
HETATM    1  N   UNL     1     -12.653   8.151  72.785  1.00  0.00    -0.606 NA 
HETATM    2  C   UNL     1     -11.841   9.089  72.021  1.00  0.00    -0.356 C  
HETATM    3  H2  UNL     1     -13.263   7.598  72.183  1.00  0.00     0.000 HD 
HETATM    4  H1  UNL     1     -12.062   7.560  73.370  1.00  0.00     0.000 HD 
ENDROOT
BRANCH   2   5
HETATM    5  C   UNL     1     -12.726   9.975  71.145  1.00  0.00    -0.484 C  
BRANCH   5   6
HETATM    6  C   UNL     1     -11.870  10.887  70.266  1.00  0.00    -0.361 C  
BRANCH   6   7
HETATM    7  N   UNL     1     -12.318  10.800  68.877  1.00  0.00    -0.786 NA 
HETATM    8  H   UNL     1     -12.817  11.642  68.590  1.00  0.00     0.000 HD 
BRANCH   7   9
HETATM    9  C   UNL     1     -11.197  10.504  67.979  1.00  0.00    -0.294 C  
BRANCH   9  10
HETATM   10  C   UNL     1      -9.855  10.800  68.650  1.00  0.00    -0.184 C  
BRANCH  10  11
HETATM   11  S   UNL     1      -8.661   9.439  68.439  1.00  0.00    -0.124 SA 
HETATM   12  P   UNL     1      -7.423  10.246  67.000  1.00  0.00    -0.097 P  
HETATM   13  O   UNL     1      -6.362   9.142  66.532  1.00  0.00    -0.064 OA 
HETATM   14  O   UNL     1      -8.186  10.835  65.856  1.00  0.00    -0.157 OA 
HETATM   15  O   UNL     1      -6.444  11.316  67.671  1.00  0.00    -0.061 OA 
ENDBRANCH  10  11
ENDBRANCH   9  10
ENDBRANCH   7   9
ENDBRANCH   6   7
ENDBRANCH   5   6
ENDBRANCH   2   5
TORSDOF 6
ENDMDL
MODEL      192
REMARK 921   NORMALIZED FREE ENERGY PREDICTED BY IDOCK:   -2.74 KCAL/MOL
REMARK 922        TOTAL FREE ENERGY PREDICTED BY IDOCK:   -3.79 KCAL/MOL
REMARK 923 INTER-LIGAND FREE ENERGY PREDICTED BY IDOCK:   -3.66 KCAL/MOL
REMARK 924 INTRA-LIGAND FREE ENERGY PREDICTED BY IDOCK:   -0.13 KCAL/MOL
REMARK 927      BINDING AFFINITY PREDICTED BY RF-SCORE:    0.00 PKD
ROOT
HETATM    1  N   UNL     1     -12.948  12.171  64.139  1.00  0.00    -0.687 NA 
HETATM    2  C   UNL     1     -11.967  13.138  63.662  1.00  0.00    -0.514 C  
HETATM    3  H2  UNL     1     -13.860  12.309  63.702  1.00  0.00     0.000 HD 
HETATM    4  H1  UNL     1     -12.606  11.219  64.011  1.00  0.00     0.000 HD 
ENDROOT
BRANCH   2   5
HETATM    5  C   UNL     1     -12.480  14.563  63.855  1.00  0.00     0.048 C  
BRANCH   5   6
HETATM    6  C   UNL     1     -11.751  15.244  65.014  1.00  0.00    -0.174 C  
BRANCH   6   7
HETATM    7  N   UNL     1     -10.921  16.335  64.507  1.00  0.00    -0.980 NA 
HETATM    8  H   UNL     1     -11.368  16.815  63.726  1.00  0.00     0.000 HD 
BRANCH   7   9
HETATM    9  C   UNL     1     -10.562  17.267  65.581  1.00  0.00    -0.166 C  
BRANCH   9  10
HETATM   10  C   UNL     1      -9.059  17.237  65.863  1.00  0.00     0.036 C  
BRANCH  10  11
HETATM   11  S   UNL     1      -8.578  15.818  66.901  1.00  0.00    -0.272 SA 
HETATM   12  P   UNL     1      -9.638  16.236  68.621  1.00  0.00    -0.256 P  
HETATM   13  O   UNL     1      -9.242  15.182  69.759  1.00  0.00    -0.152 OA 
HETATM   14  O   UNL     1      -9.471  17.654  69.064  1.00  0.00    -0.212 OA 
HETATM   15  O   UNL     1     -11.177  15.860  68.408  1.00  0.00    -0.334 OA 
ENDBRANCH  10  11
ENDBRANCH   9  10
ENDBRANCH   7   9
ENDBRANCH   6   7
ENDBRANCH   5   6
ENDBRANCH   2   5
TORSDOF 6
ENDMDL
MODEL      193
REMARK 921   NORMALIZED FREE ENERGY PREDICTED BY IDOCK:   -2.73 KCAL/MOL
REMARK 922        TOTAL FREE ENERGY PREDICTED BY IDOCK:   -3.78 KCAL/MOL
REMARK 923 INTER-LIGAND FREE ENERGY PREDICTED BY IDOCK:   -3.40 KCAL/MOL
REMARK 924 INTRA-LIGAND FREE ENERGY PREDICTED BY IDOCK:   -0.37 KCAL/MOL
REMARK 927      BINDING AFFINITY PREDICTED BY RF-SCORE:    0.00 PKD
ROOT
HETATM    1  N   UNL     1     -10.905   8.626  67.996  1.00  0.00    -0.477 NA 
HETATM    2  C   UNL     1     -10.989   8.199  69.388  1.00  0.00    -0.002 C  
HETATM    3  H2  UNL     1     -10.094   9.222  67.830  1.00  0.00     0.000 HD 
HETATM    4  H1  UNL     1     -10.917   7.819  67.373  1.00  0.00     0.000 HD 
ENDROOT
BRANCH   2   5
HETATM    5  C   UNL     1     -10.972   9.408  70.321  1.00  0.00    -0.305 C  
BRANCH   5   6
HETATM    6  C   UNL     1     -10.644  10.683  69.543  1.00  0.00    -0.230 C  
BRANCH   6   7
HETATM    7  N   UNL     1     -11.850  11.494  69.387  1.00  0.00    -0.328 NA 
HETATM    8  H   UNL     1     -12.562  11.007  68.843  1.00  0.00     0.000 HD 
BRANCH   7   9
HETATM    9  C   UNL     1     -12.366  11.926  70.690  1.00  0.00    -0.313 C  
BRANCH   9  10
HETATM   10  C   UNL     1     -12.368  13.451  70.809  1.00  0.00    -0.354 C  
BRANCH  10  11
HETATM   11  S   UNL     1     -12.213  14.271  69.188  1.00  0.00    -0.151 SA 
HETATM   12  P   UNL     1     -10.969  15.841  69.681  1.00  0.00    -0.372 P  
HETATM   13  O   UNL     1     -10.813  16.812  68.417  1.00  0.00    -0.343 OA 
HETATM   14  O   UNL     1     -11.418  16.562  70.910  1.00  0.00    -0.311 OA 
HETATM   15  O   UNL     1      -9.466  15.313  69.820  1.00  0.00    -0.218 OA 
ENDBRANCH  10  11
ENDBRANCH   9  10
ENDBRANCH   7   9
ENDBRANCH   6   7
ENDBRANCH   5   6
ENDBRANCH   2   5
TORSDOF 6
ENDMDL
MODEL      194
REMARK 921   NORMALIZED FREE ENERGY PREDICTED BY IDOCK:   -2.72 KCAL/MOL
REMARK 922        TOTAL FREE ENERGY PREDICTED BY IDOCK:   -3.75 KCAL/MOL
REMARK 923 INTER-LIGAND FREE ENERGY PREDICTED BY IDOCK:   -3.40 KCAL/MOL
REMARK 924 INTRA-LIGAND FREE ENERGY PREDICTED BY IDOCK:   -0.35 KCAL/MOL
REMARK 927      BINDING AFFINITY PREDICTED BY RF-SCORE:    0.00 PKD
ROOT
HETATM    1  N   UNL     1      -8.168  11.706  66.142  1.00  0.00    -0.378 NA 
HETATM    2  C   UNL     1      -9.533  12.000  66.563  1.00  0.00    -0.228 C  
HETATM    3  H2  UNL     1      -8.133  11.365  65.181  1.00  0.00     0.000 HD 
HETATM    4  H1  UNL     1      -7.569  12.520  66.278  1.00  0.00     0.000 HD 
ENDROOT
BRANCH   2   5
HETATM    5  C   UNL     1     -10.430  10.781  66.361  1.00  0.00    -0.293 C  
BRANCH   5   6
HETATM    6  C   UNL     1      -9.588   9.515  66.200  1.00  0.00    -0.239 C  
BRANCH   6   7
HETATM    7  N   UNL     1      -9.087   9.083  67.503  1.00  0.00    -0.132 NA 
HETATM    8  H   UNL     1      -8.357   9.706  67.850  1.00  0.00     0.000 HD 
BRANCH   7   9
HETATM    9  C   UNL     1     -10.182   8.941  68.468  1.00  0.00    -0.197 C  
BRANCH   9  10
HETATM   10  C   UNL     1     -10.003   9.891  69.654  1.00  0.00    -0.231 C  
BRANCH  10  11
HETATM   11  S   UNL     1      -9.552   9.010  71.185  1.00  0.00    -0.281 SA 
HETATM   12  P   UNL     1     -11.423   8.487  71.880  1.00  0.00    -0.385 P  
HETATM   13  O   UNL     1     -11.283   7.822  73.330  1.00  0.00    -0.350 OA 
HETATM   14  O   UNL     1     -12.380   9.635  71.862  1.00  0.00    -0.375 OA 
HETATM   15  O   UNL     1     -11.977   7.241  71.047  1.00  0.00    -0.311 OA 
ENDBRANCH  10  11
ENDBRANCH   9  10
ENDBRANCH   7   9
ENDBRANCH   6   7
ENDBRANCH   5   6
ENDBRANCH   2   5
TORSDOF 6
ENDMDL
MODEL      195
REMARK 921   NORMALIZED FREE ENERGY PREDICTED BY IDOCK:   -2.71 KCAL/MOL
REMARK 922        TOTAL FREE ENERGY PREDICTED BY IDOCK:   -3.74 KCAL/MOL
REMARK 923 INTER-LIGAND FREE ENERGY PREDICTED BY IDOCK:   -3.34 KCAL/MOL
REMARK 924 INTRA-LIGAND FREE ENERGY PREDICTED BY IDOCK:   -0.40 KCAL/MOL
REMARK 927      BINDING AFFINITY PREDICTED BY RF-SCORE:    0.00 PKD
ROOT
HETATM    1  N   UNL     1      -8.414   6.398  69.517  1.00  0.00    -0.132 NA 
HETATM    2  C   UNL     1      -9.639   6.079  68.794  1.00  0.00    -0.129 C  
HETATM    3  H2  UNL     1      -8.599   6.625  70.495  1.00  0.00     0.000 HD 
HETATM    4  H1  UNL     1      -7.737   5.641  69.425  1.00  0.00     0.000 HD 
ENDROOT
BRANCH   2   5
HETATM    5  C   UNL     1     -10.653   7.213  68.932  1.00  0.00    -0.218 C  
BRANCH   5   6
HETATM    6  C   UNL     1      -9.942   8.565  69.001  1.00  0.00    -0.193 C  
BRANCH   6   7
HETATM    7  N   UNL     1     -10.330   9.390  67.860  1.00  0.00    -0.212 NA 
HETATM    8  H   UNL     1     -10.928  10.166  68.143  1.00  0.00     0.000 HD 
BRANCH   7   9
HETATM    9  C   UNL     1      -9.152   9.857  67.121  1.00  0.00    -0.138 C  
BRANCH   9  10
HETATM   10  C   UNL     1      -9.550  10.772  65.962  1.00  0.00    -0.201 C  
BRANCH  10  11
HETATM   11  S   UNL     1      -9.623  12.524  66.457  1.00  0.00    -0.243 SA 
HETATM   12  P   UNL     1     -11.659  12.766  66.678  1.00  0.00    -0.387 P  
HETATM   13  O   UNL     1     -11.983  14.307  66.967  1.00  0.00    -0.414 OA 
HETATM   14  O   UNL     1     -12.429  12.223  65.517  1.00  0.00    -0.597 OA 
HETATM   15  O   UNL     1     -12.131  12.113  68.059  1.00  0.00    -0.478 OA 
ENDBRANCH  10  11
ENDBRANCH   9  10
ENDBRANCH   7   9
ENDBRANCH   6   7
ENDBRANCH   5   6
ENDBRANCH   2   5
TORSDOF 6
ENDMDL
MODEL      196
REMARK 921   NORMALIZED FREE ENERGY PREDICTED BY IDOCK:   -2.70 KCAL/MOL
REMARK 922        TOTAL FREE ENERGY PREDICTED BY IDOCK:   -3.73 KCAL/MOL
REMARK 923 INTER-LIGAND FREE ENERGY PREDICTED BY IDOCK:   -3.74 KCAL/MOL
REMARK 924 INTRA-LIGAND FREE ENERGY PREDICTED BY IDOCK:    0.00 KCAL/MOL
REMARK 927      BINDING AFFINITY PREDICTED BY RF-SCORE:    0.00 PKD
ROOT
HETATM    1  N   UNL     1     -11.182  13.887  63.998  1.00  0.00    -0.575 NA 
HETATM    2  C   UNL     1     -11.854  13.633  65.266  1.00  0.00    -0.349 C  
HETATM    3  H2  UNL     1     -10.630  13.084  63.694  1.00  0.00     0.000 HD 
HETATM    4  H1  UNL     1     -11.856  14.174  63.287  1.00  0.00     0.000 HD 
ENDROOT
BRANCH   2   5
HETATM    5  C   UNL     1     -10.845  13.203  66.330  1.00  0.00    -0.299 C  
BRANCH   5   6
HETATM    6  C   UNL     1      -9.418  13.490  65.864  1.00  0.00    -0.025 C  
BRANCH   6   7
HETATM    7  N   UNL     1      -8.462  12.902  66.800  1.00  0.00    -0.411 NA 
HETATM    8  H   UNL     1      -7.765  12.334  66.319  1.00  0.00     0.000 HD 
BRANCH   7   9
HETATM    9  C   UNL     1      -7.836  13.935  67.632  1.00  0.00    -0.179 C  
BRANCH   9  10
HETATM   10  C   UNL     1      -8.539  15.284  67.466  1.00  0.00    -0.177 C  
BRANCH  10  11
HETATM   11  S   UNL     1      -7.391  16.604  66.954  1.00  0.00    -0.249 SA 
HETATM   12  P   UNL     1      -8.731  18.093  66.462  1.00  0.00    -0.204 P  
HETATM   13  O   UNL     1      -7.939  19.330  65.822  1.00  0.00    -0.446 OA 
HETATM   14  O   UNL     1      -9.836  17.600  65.584  1.00  0.00    -0.536 OA 
HETATM   15  O   UNL     1      -9.291  18.775  67.794  1.00  0.00    -0.286 OA 
ENDBRANCH  10  11
ENDBRANCH   9  10
ENDBRANCH   7   9
ENDBRANCH   6   7
ENDBRANCH   5   6
ENDBRANCH   2   5
TORSDOF 6
ENDMDL
MODEL      197
REMARK 921   NORMALIZED FREE ENERGY PREDICTED BY IDOCK:   -2.70 KCAL/MOL
REMARK 922        TOTAL FREE ENERGY PREDICTED BY IDOCK:   -3.73 KCAL/MOL
REMARK 923 INTER-LIGAND FREE ENERGY PREDICTED BY IDOCK:   -3.61 KCAL/MOL
REMARK 924 INTRA-LIGAND FREE ENERGY PREDICTED BY IDOCK:   -0.12 KCAL/MOL
REMARK 927      BINDING AFFINITY PREDICTED BY RF-SCORE:    0.00 PKD
ROOT
HETATM    1  N   UNL     1      -8.939   8.410  64.975  1.00  0.00    -0.413 NA 
HETATM    2  C   UNL     1      -9.693   8.833  66.149  1.00  0.00    -0.250 C  
HETATM    3  H2  UNL     1      -7.962   8.703  65.026  1.00  0.00     0.000 HD 
HETATM    4  H1  UNL     1      -9.026   7.403  64.837  1.00  0.00     0.000 HD 
ENDROOT
BRANCH   2   5
HETATM    5  C   UNL     1      -9.563  10.341  66.356  1.00  0.00    -0.233 C  
BRANCH   5   6
HETATM    6  C   UNL     1     -10.909  10.946  66.755  1.00  0.00    -0.224 C  
BRANCH   6   7
HETATM    7  N   UNL     1     -10.701  12.250  67.382  1.00  0.00    -0.225 NA 
HETATM    8  H   UNL     1     -10.006  12.202  68.127  1.00  0.00     0.000 HD 
BRANCH   7   9
HETATM    9  C   UNL     1     -10.352  13.266  66.383  1.00  0.00    -0.286 C  
BRANCH   9  10
HETATM   10  C   UNL     1      -9.639  14.456  67.027  1.00  0.00    -0.247 C  
BRANCH  10  11
HETATM   11  S   UNL     1     -10.047  16.032  66.208  1.00  0.00    -0.333 SA 
HETATM   12  P   UNL     1     -10.354  17.239  67.852  1.00  0.00    -0.383 P  
HETATM   13  O   UNL     1     -10.888  18.670  67.369  1.00  0.00    -0.439 OA 
HETATM   14  O   UNL     1     -11.248  16.603  68.868  1.00  0.00    -0.295 OA 
HETATM   15  O   UNL     1      -8.946  17.660  68.481  1.00  0.00    -0.283 OA 
ENDBRANCH  10  11
ENDBRANCH   9  10
ENDBRANCH   7   9
ENDBRANCH   6   7
ENDBRANCH   5   6
ENDBRANCH   2   5
TORSDOF 6
ENDMDL
MODEL      198
REMARK 921   NORMALIZED FREE ENERGY PREDICTED BY IDOCK:   -2.70 KCAL/MOL
REMARK 922        TOTAL FREE ENERGY PREDICTED BY IDOCK:   -3.73 KCAL/MOL
REMARK 923 INTER-LIGAND FREE ENERGY PREDICTED BY IDOCK:   -3.24 KCAL/MOL
REMARK 924 INTRA-LIGAND FREE ENERGY PREDICTED BY IDOCK:   -0.49 KCAL/MOL
REMARK 927      BINDING AFFINITY PREDICTED BY RF-SCORE:    0.00 PKD
ROOT
HETATM    1  N   UNL     1     -12.332  14.221  67.183  1.00  0.00    -0.586 NA 
HETATM    2  C   UNL     1     -11.522  15.220  67.870  1.00  0.00    -0.316 C  
HETATM    3  H2  UNL     1     -13.021  13.797  67.806  1.00  0.00     0.000 HD 
HETATM    4  H1  UNL     1     -12.769  14.623  66.354  1.00  0.00     0.000 HD 
ENDROOT
BRANCH   2   5
HETATM    5  C   UNL     1     -10.868  14.619  69.112  1.00  0.00    -0.269 C  
BRANCH   5   6
HETATM    6  C   UNL     1     -10.681  13.111  68.944  1.00  0.00    -0.169 C  
BRANCH   6   7
HETATM    7  N   UNL     1     -11.624  12.395  69.801  1.00  0.00    -0.469 NA 
HETATM    8  H   UNL     1     -12.544  12.833  69.796  1.00  0.00     0.000 HD 
BRANCH   7   9
HETATM    9  C   UNL     1     -11.698  10.977  69.434  1.00  0.00    -0.323 C  
BRANCH   9  10
HETATM   10  C   UNL     1     -11.315  10.761  67.969  1.00  0.00    -0.307 C  
BRANCH  10  11
HETATM   11  S   UNL     1     -10.535   9.138  67.689  1.00  0.00    -0.246 SA 
HETATM   12  P   UNL     1      -8.764   9.391  68.716  1.00  0.00    -0.136 P  
HETATM   13  O   UNL     1      -7.824   8.118  68.475  1.00  0.00    -0.113 OA 
HETATM   14  O   UNL     1      -8.087  10.680  68.377  1.00  0.00    -0.111 OA 
HETATM   15  O   UNL     1      -9.029   9.256  70.286  1.00  0.00    -0.189 OA 
ENDBRANCH  10  11
ENDBRANCH   9  10
ENDBRANCH   7   9
ENDBRANCH   6   7
ENDBRANCH   5   6
ENDBRANCH   2   5
TORSDOF 6
ENDMDL
MODEL      199
REMARK 921   NORMALIZED FREE ENERGY PREDICTED BY IDOCK:   -2.70 KCAL/MOL
REMARK 922        TOTAL FREE ENERGY PREDICTED BY IDOCK:   -3.72 KCAL/MOL
REMARK 923 INTER-LIGAND FREE ENERGY PREDICTED BY IDOCK:   -3.54 KCAL/MOL
REMARK 924 INTRA-LIGAND FREE ENERGY PREDICTED BY IDOCK:   -0.18 KCAL/MOL
REMARK 927      BINDING AFFINITY PREDICTED BY RF-SCORE:    0.00 PKD
ROOT
HETATM    1  N   UNL     1     -12.078  15.974  63.892  1.00  0.00    -1.257 NA 
HETATM    2  C   UNL     1     -11.965  14.533  64.080  1.00  0.00    -0.321 C  
HETATM    3  H2  UNL     1     -11.203  16.384  63.565  1.00  0.00     0.000 HD 
HETATM    4  H1  UNL     1     -12.855  16.194  63.268  1.00  0.00     0.000 HD 
ENDROOT
BRANCH   2   5
HETATM    5  C   UNL     1     -10.802  14.205  65.015  1.00  0.00    -0.408 C  
BRANCH   5   6
HETATM    6  C   UNL     1     -11.061  12.890  65.752  1.00  0.00    -0.284 C  
BRANCH   6   7
HETATM    7  N   UNL     1     -11.394  11.840  64.792  1.00  0.00    -0.284 NA 
HETATM    8  H   UNL     1     -11.556  12.220  63.860  1.00  0.00     0.000 HD 
BRANCH   7   9
HETATM    9  C   UNL     1     -10.366  10.794  64.777  1.00  0.00    -0.310 C  
BRANCH   9  10
HETATM   10  C   UNL     1      -9.558  10.790  66.077  1.00  0.00    -0.201 C  
BRANCH  10  11
HETATM   11  S   UNL     1      -9.201   9.103  66.665  1.00  0.00    -0.176 SA 
HETATM   12  P   UNL     1      -7.388   9.409  67.600  1.00  0.00    -0.083 P  
HETATM   13  O   UNL     1      -6.790   8.000  68.072  1.00  0.00    -0.068 OA 
HETATM   14  O   UNL     1      -6.433  10.186  66.753  1.00  0.00    -0.068 OA 
HETATM   15  O   UNL     1      -7.626  10.106  69.019  1.00  0.00    -0.081 OA 
ENDBRANCH  10  11
ENDBRANCH   9  10
ENDBRANCH   7   9
ENDBRANCH   6   7
ENDBRANCH   5   6
ENDBRANCH   2   5
TORSDOF 6
ENDMDL
MODEL      200
REMARK 921   NORMALIZED FREE ENERGY PREDICTED BY IDOCK:   -2.69 KCAL/MOL
REMARK 922        TOTAL FREE ENERGY PREDICTED BY IDOCK:   -3.72 KCAL/MOL
REMARK 923 INTER-LIGAND FREE ENERGY PREDICTED BY IDOCK:   -3.29 KCAL/MOL
REMARK 924 INTRA-LIGAND FREE ENERGY PREDICTED BY IDOCK:   -0.43 KCAL/MOL
REMARK 927      BINDING AFFINITY PREDICTED BY RF-SCORE:    0.00 PKD
ROOT
HETATM    1  N   UNL     1      -6.852  12.734  69.634  1.00  0.00    -0.342 NA 
HETATM    2  C   UNL     1      -7.472  11.949  68.575  1.00  0.00    -0.117 C  
HETATM    3  H2  UNL     1      -7.545  13.244  70.184  1.00  0.00     0.000 HD 
HETATM    4  H1  UNL     1      -6.263  12.143  70.221  1.00  0.00     0.000 HD 
ENDROOT
BRANCH   2   5
HETATM    5  C   UNL     1      -8.354  12.834  67.696  1.00  0.00    -0.175 C  
BRANCH   5   6
HETATM    6  C   UNL     1      -8.482  14.232  68.301  1.00  0.00    -0.167 C  
BRANCH   6   7
HETATM    7  N   UNL     1      -7.473  15.118  67.724  1.00  0.00    -0.145 NA 
HETATM    8  H   UNL     1      -7.137  14.770  66.826  1.00  0.00     0.000 HD 
BRANCH   7   9
HETATM    9  C   UNL     1      -7.977  16.492  67.618  1.00  0.00    -0.163 C  
BRANCH   9  10
HETATM   10  C   UNL     1      -9.504  16.532  67.695  1.00  0.00    -0.225 C  
BRANCH  10  11
HETATM   11  S   UNL     1     -10.262  17.065  66.126  1.00  0.00    -0.304 SA 
HETATM   12  P   UNL     1     -10.251  19.112  66.383  1.00  0.00    -0.491 P  
HETATM   13  O   UNL     1     -11.030  19.804  65.167  1.00  0.00    -0.352 OA 
HETATM   14  O   UNL     1     -10.784  19.523  67.718  1.00  0.00    -0.446 OA 
HETATM   15  O   UNL     1      -8.777  19.677  66.134  1.00  0.00    -0.361 OA 
ENDBRANCH  10  11
ENDBRANCH   9  10
ENDBRANCH   7   9
ENDBRANCH   6   7
ENDBRANCH   5   6
ENDBRANCH   2   5
TORSDOF 6
ENDMDL
MODEL      201
REMARK 921   NORMALIZED FREE ENERGY PREDICTED BY IDOCK:   -2.68 KCAL/MOL
REMARK 922        TOTAL FREE ENERGY PREDICTED BY IDOCK:   -3.70 KCAL/MOL
REMARK 923 INTER-LIGAND FREE ENERGY PREDICTED BY IDOCK:   -3.32 KCAL/MOL
REMARK 924 INTRA-LIGAND FREE ENERGY PREDICTED BY IDOCK:   -0.37 KCAL/MOL
REMARK 927      BINDING AFFINITY PREDICTED BY RF-SCORE:    0.00 PKD
ROOT
HETATM    1  N   UNL     1      -9.262   7.518  67.261  1.00  0.00    -0.129 NA 
HETATM    2  C   UNL     1      -9.533   8.950  67.255  1.00  0.00    -0.154 C  
HETATM    3  H2  UNL     1      -8.667   7.241  66.479  1.00  0.00     0.000 HD 
HETATM    4  H1  UNL     1      -8.869   7.231  68.157  1.00  0.00     0.000 HD 
ENDROOT
BRANCH   2   5
HETATM    5  C   UNL     1     -10.123   9.379  65.913  1.00  0.00    -0.243 C  
BRANCH   5   6
HETATM    6  C   UNL     1      -9.858  10.864  65.660  1.00  0.00    -0.241 C  
BRANCH   6   7
HETATM    7  N   UNL     1     -10.987  11.658  66.138  1.00  0.00    -0.293 NA 
HETATM    8  H   UNL     1     -10.717  12.271  66.907  1.00  0.00     0.000 HD 
BRANCH   7   9
HETATM    9  C   UNL     1     -11.606  12.409  65.040  1.00  0.00    -0.345 C  
BRANCH   9  10
HETATM   10  C   UNL     1     -10.671  13.502  64.519  1.00  0.00    -0.418 C  
BRANCH  10  11
HETATM   11  S   UNL     1     -11.289  15.176  64.889  1.00  0.00    -0.364 SA 
HETATM   12  P   UNL     1     -10.252  15.581  66.626  1.00  0.00    -0.297 P  
HETATM   13  O   UNL     1     -10.761  16.972  67.236  1.00  0.00    -0.299 OA 
HETATM   14  O   UNL     1     -10.325  14.458  67.610  1.00  0.00    -0.236 OA 
HETATM   15  O   UNL     1      -8.741  15.963  66.273  1.00  0.00    -0.306 OA 
ENDBRANCH  10  11
ENDBRANCH   9  10
ENDBRANCH   7   9
ENDBRANCH   6   7
ENDBRANCH   5   6
ENDBRANCH   2   5
TORSDOF 6
ENDMDL
MODEL      202
REMARK 921   NORMALIZED FREE ENERGY PREDICTED BY IDOCK:   -2.68 KCAL/MOL
REMARK 922        TOTAL FREE ENERGY PREDICTED BY IDOCK:   -3.70 KCAL/MOL
REMARK 923 INTER-LIGAND FREE ENERGY PREDICTED BY IDOCK:   -3.42 KCAL/MOL
REMARK 924 INTRA-LIGAND FREE ENERGY PREDICTED BY IDOCK:   -0.28 KCAL/MOL
REMARK 927      BINDING AFFINITY PREDICTED BY RF-SCORE:    0.00 PKD
ROOT
HETATM    1  N   UNL     1      -7.497   8.535  67.868  1.00  0.00    -0.096 NA 
HETATM    2  C   UNL     1      -8.255   9.370  66.944  1.00  0.00    -0.116 C  
HETATM    3  H2  UNL     1      -7.074   7.735  67.397  1.00  0.00     0.000 HD 
HETATM    4  H1  UNL     1      -6.803   9.091  68.367  1.00  0.00     0.000 HD 
ENDROOT
BRANCH   2   5
HETATM    5  C   UNL     1      -9.294   8.538  66.197  1.00  0.00    -0.279 C  
BRANCH   5   6
HETATM    6  C   UNL     1     -10.573   8.406  67.026  1.00  0.00    -0.246 C  
BRANCH   6   7
HETATM    7  N   UNL     1     -11.058   7.028  66.974  1.00  0.00    -0.622 NA 
HETATM    8  H   UNL     1     -10.851   6.590  66.077  1.00  0.00     0.000 HD 
BRANCH   7   9
HETATM    9  C   UNL     1     -10.530   6.241  68.094  1.00  0.00    -0.226 C  
BRANCH   9  10
HETATM   10  C   UNL     1     -10.373   7.099  69.351  1.00  0.00    -0.198 C  
BRANCH  10  11
HETATM   11  S   UNL     1     -11.778   6.911  70.497  1.00  0.00    -0.327 SA 
HETATM   12  P   UNL     1     -11.736   8.744  71.443  1.00  0.00    -0.348 P  
HETATM   13  O   UNL     1     -12.809   8.753  72.631  1.00  0.00    -0.383 OA 
HETATM   14  O   UNL     1     -10.363   9.117  71.904  1.00  0.00    -0.335 OA 
HETATM   15  O   UNL     1     -12.363   9.858  70.485  1.00  0.00    -0.241 OA 
ENDBRANCH  10  11
ENDBRANCH   9  10
ENDBRANCH   7   9
ENDBRANCH   6   7
ENDBRANCH   5   6
ENDBRANCH   2   5
TORSDOF 6
ENDMDL
MODEL      203
REMARK 921   NORMALIZED FREE ENERGY PREDICTED BY IDOCK:   -2.68 KCAL/MOL
REMARK 922        TOTAL FREE ENERGY PREDICTED BY IDOCK:   -3.70 KCAL/MOL
REMARK 923 INTER-LIGAND FREE ENERGY PREDICTED BY IDOCK:   -3.51 KCAL/MOL
REMARK 924 INTRA-LIGAND FREE ENERGY PREDICTED BY IDOCK:   -0.19 KCAL/MOL
REMARK 927      BINDING AFFINITY PREDICTED BY RF-SCORE:    0.00 PKD
ROOT
HETATM    1  N   UNL     1     -11.864  15.630  68.405  1.00  0.00    -0.467 NA 
HETATM    2  C   UNL     1     -11.305  15.357  67.086  1.00  0.00    -0.203 C  
HETATM    3  H2  UNL     1     -11.171  16.039  69.033  1.00  0.00     0.000 HD 
HETATM    4  H1  UNL     1     -12.696  16.214  68.327  1.00  0.00     0.000 HD 
ENDROOT
BRANCH   2   5
HETATM    5  C   UNL     1     -10.058  14.482  67.203  1.00  0.00    -0.252 C  
BRANCH   5   6
HETATM    6  C   UNL     1      -9.942  13.898  68.611  1.00  0.00    -0.189 C  
BRANCH   6   7
HETATM    7  N   UNL     1     -10.237  12.467  68.581  1.00  0.00    -0.358 NA 
HETATM    8  H   UNL     1      -9.531  11.928  69.082  1.00  0.00     0.000 HD 
BRANCH   7   9
HETATM    9  C   UNL     1     -11.586  12.196  69.089  1.00  0.00    -0.319 C  
BRANCH   9  10
HETATM   10  C   UNL     1     -11.598  10.978  70.014  1.00  0.00    -0.344 C  
BRANCH  10  11
HETATM   11  S   UNL     1     -12.903  11.084  71.281  1.00  0.00    -0.392 SA 
HETATM   12  P   UNL     1     -13.097   9.093  71.785  1.00  0.00    -0.446 P  
HETATM   13  O   UNL     1     -14.326   8.918  72.797  1.00  0.00    -0.600 OA 
HETATM   14  O   UNL     1     -13.207   8.208  70.585  1.00  0.00     0.331 OA 
HETATM   15  O   UNL     1     -11.886   8.658  72.733  1.00  0.00    -0.270 OA 
ENDBRANCH  10  11
ENDBRANCH   9  10
ENDBRANCH   7   9
ENDBRANCH   6   7
ENDBRANCH   5   6
ENDBRANCH   2   5
TORSDOF 6
ENDMDL
MODEL      204
REMARK 921   NORMALIZED FREE ENERGY PREDICTED BY IDOCK:   -2.67 KCAL/MOL
REMARK 922        TOTAL FREE ENERGY PREDICTED BY IDOCK:   -3.69 KCAL/MOL
REMARK 923 INTER-LIGAND FREE ENERGY PREDICTED BY IDOCK:   -3.30 KCAL/MOL
REMARK 924 INTRA-LIGAND FREE ENERGY PREDICTED BY IDOCK:   -0.39 KCAL/MOL
REMARK 927      BINDING AFFINITY PREDICTED BY RF-SCORE:    0.00 PKD
ROOT
HETATM    1  N   UNL     1      -9.562   8.449  69.693  1.00  0.00    -0.163 NA 
HETATM    2  C   UNL     1      -9.313   7.897  68.367  1.00  0.00    -0.140 C  
HETATM    3  H2  UNL     1     -10.508   8.246  70.017  1.00  0.00     0.000 HD 
HETATM    4  H1  UNL     1      -8.857   8.123  70.355  1.00  0.00     0.000 HD 
ENDROOT
BRANCH   2   5
HETATM    5  C   UNL     1     -10.368   8.385  67.376  1.00  0.00    -0.355 C  
BRANCH   5   6
HETATM    6  C   UNL     1      -9.824   9.542  66.538  1.00  0.00    -0.240 C  
BRANCH   6   7
HETATM    7  N   UNL     1      -9.244  10.559  67.413  1.00  0.00    -0.142 NA 
HETATM    8  H   UNL     1      -8.246  10.404  67.559  1.00  0.00     0.000 HD 
BRANCH   7   9
HETATM    9  C   UNL     1      -9.512  11.908  66.904  1.00  0.00    -0.199 C  
BRANCH   9  10
HETATM   10  C   UNL     1     -10.943  12.346  67.219  1.00  0.00    -0.260 C  
BRANCH  10  11
HETATM   11  S   UNL     1     -11.999  12.383  65.734  1.00  0.00    -0.285 SA 
HETATM   12  P   UNL     1     -11.655  14.309  65.079  1.00  0.00    -0.408 P  
HETATM   13  O   UNL     1     -12.620  14.630  63.842  1.00  0.00    -0.834 OA 
HETATM   14  O   UNL     1     -11.774  15.316  66.178  1.00  0.00    -0.097 OA 
HETATM   15  O   UNL     1     -10.232  14.385  64.357  1.00  0.00    -0.175 OA 
ENDBRANCH  10  11
ENDBRANCH   9  10
ENDBRANCH   7   9
ENDBRANCH   6   7
ENDBRANCH   5   6
ENDBRANCH   2   5
TORSDOF 6
ENDMDL
MODEL      205
REMARK 921   NORMALIZED FREE ENERGY PREDICTED BY IDOCK:   -2.66 KCAL/MOL
REMARK 922        TOTAL FREE ENERGY PREDICTED BY IDOCK:   -3.68 KCAL/MOL
REMARK 923 INTER-LIGAND FREE ENERGY PREDICTED BY IDOCK:   -3.51 KCAL/MOL
REMARK 924 INTRA-LIGAND FREE ENERGY PREDICTED BY IDOCK:   -0.17 KCAL/MOL
REMARK 927      BINDING AFFINITY PREDICTED BY RF-SCORE:    0.00 PKD
ROOT
HETATM    1  N   UNL     1     -12.788   6.776  71.945  1.00  0.00    -0.509 NA 
HETATM    2  C   UNL     1     -11.421   6.332  72.188  1.00  0.00    -0.307 C  
HETATM    3  H2  UNL     1     -13.403   5.998  71.706  1.00  0.00     0.000 HD 
HETATM    4  H1  UNL     1     -13.139   7.305  72.743  1.00  0.00     0.000 HD 
ENDROOT
BRANCH   2   5
HETATM    5  C   UNL     1     -10.894   5.540  70.993  1.00  0.00    -0.243 C  
BRANCH   5   6
HETATM    6  C   UNL     1     -11.140   6.304  69.692  1.00  0.00    -0.412 C  
BRANCH   6   7
HETATM    7  N   UNL     1      -9.943   7.058  69.325  1.00  0.00    -0.159 NA 
HETATM    8  H   UNL     1      -9.104   6.660  69.747  1.00  0.00     0.000 HD 
BRANCH   7   9
HETATM    9  C   UNL     1      -9.815   7.168  67.868  1.00  0.00    -0.144 C  
BRANCH   9  10
HETATM   10  C   UNL     1     -10.345   8.511  67.364  1.00  0.00    -0.286 C  
BRANCH  10  11
HETATM   11  S   UNL     1     -10.048   9.862  68.551  1.00  0.00    -0.175 SA 
HETATM   12  P   UNL     1     -10.400  11.501  67.348  1.00  0.00    -0.222 P  
HETATM   13  O   UNL     1     -10.041  12.838  68.152  1.00  0.00    -0.226 OA 
HETATM   14  O   UNL     1      -9.688  11.409  66.036  1.00  0.00    -0.208 OA 
HETATM   15  O   UNL     1     -11.974  11.699  67.156  1.00  0.00    -0.614 OA 
ENDBRANCH  10  11
ENDBRANCH   9  10
ENDBRANCH   7   9
ENDBRANCH   6   7
ENDBRANCH   5   6
ENDBRANCH   2   5
TORSDOF 6
ENDMDL
MODEL      206
REMARK 921   NORMALIZED FREE ENERGY PREDICTED BY IDOCK:   -2.66 KCAL/MOL
REMARK 922        TOTAL FREE ENERGY PREDICTED BY IDOCK:   -3.67 KCAL/MOL
REMARK 923 INTER-LIGAND FREE ENERGY PREDICTED BY IDOCK:   -3.18 KCAL/MOL
REMARK 924 INTRA-LIGAND FREE ENERGY PREDICTED BY IDOCK:   -0.49 KCAL/MOL
REMARK 927      BINDING AFFINITY PREDICTED BY RF-SCORE:    0.00 PKD
ROOT
HETATM    1  N   UNL     1      -6.145   9.732  65.245  1.00  0.00    -0.077 NA 
HETATM    2  C   UNL     1      -6.281  10.117  63.846  1.00  0.00    -0.133 C  
HETATM    3  H2  UNL     1      -6.606   8.843  65.441  1.00  0.00     0.000 HD 
HETATM    4  H1  UNL     1      -5.163   9.718  65.519  1.00  0.00     0.000 HD 
ENDROOT
BRANCH   2   5
HETATM    5  C   UNL     1      -7.752  10.139  63.436  1.00  0.00    -0.153 C  
BRANCH   5   6
HETATM    6  C   UNL     1      -8.574   9.216  64.336  1.00  0.00    -0.181 C  
BRANCH   6   7
HETATM    7  N   UNL     1      -9.839   9.859  64.685  1.00  0.00    -0.408 NA 
HETATM    8  H   UNL     1      -9.867  10.122  65.670  1.00  0.00     0.000 HD 
BRANCH   7   9
HETATM    9  C   UNL     1     -10.106  11.006  63.811  1.00  0.00    -0.363 C  
BRANCH   9  10
HETATM   10  C   UNL     1     -11.161  11.933  64.417  1.00  0.00    -0.336 C  
BRANCH  10  11
HETATM   11  S   UNL     1     -10.422  13.237  65.454  1.00  0.00    -0.305 SA 
HETATM   12  P   UNL     1     -10.615  12.384  67.322  1.00  0.00    -0.232 P  
HETATM   13  O   UNL     1     -10.163  13.440  68.438  1.00  0.00    -0.243 OA 
HETATM   14  O   UNL     1     -11.987  11.842  67.564  1.00  0.00    -0.586 OA 
HETATM   15  O   UNL     1      -9.492  11.264  67.520  1.00  0.00    -0.167 OA 
ENDBRANCH  10  11
ENDBRANCH   9  10
ENDBRANCH   7   9
ENDBRANCH   6   7
ENDBRANCH   5   6
ENDBRANCH   2   5
TORSDOF 6
ENDMDL
MODEL      207
REMARK 921   NORMALIZED FREE ENERGY PREDICTED BY IDOCK:   -2.65 KCAL/MOL
REMARK 922        TOTAL FREE ENERGY PREDICTED BY IDOCK:   -3.66 KCAL/MOL
REMARK 923 INTER-LIGAND FREE ENERGY PREDICTED BY IDOCK:   -3.51 KCAL/MOL
REMARK 924 INTRA-LIGAND FREE ENERGY PREDICTED BY IDOCK:   -0.15 KCAL/MOL
REMARK 927      BINDING AFFINITY PREDICTED BY RF-SCORE:    0.00 PKD
ROOT
HETATM    1  N   UNL     1      -9.678  19.350  68.741  1.00  0.00    -0.430 NA 
HETATM    2  C   UNL     1      -8.803  18.308  68.219  1.00  0.00    -0.287 C  
HETATM    3  H2  UNL     1     -10.458  18.961  69.271  1.00  0.00     0.000 HD 
HETATM    4  H1  UNL     1      -9.144  20.023  69.291  1.00  0.00     0.000 HD 
ENDROOT
BRANCH   2   5
HETATM    5  C   UNL     1      -9.603  17.300  67.395  1.00  0.00    -0.252 C  
BRANCH   5   6
HETATM    6  C   UNL     1     -10.120  16.169  68.284  1.00  0.00    -0.232 C  
BRANCH   6   7
HETATM    7  N   UNL     1     -11.045  15.327  67.528  1.00  0.00    -0.320 NA 
HETATM    8  H   UNL     1     -10.574  14.843  66.765  1.00  0.00     0.000 HD 
BRANCH   7   9
HETATM    9  C   UNL     1     -11.747  14.391  68.412  1.00  0.00    -0.332 C  
BRANCH   9  10
HETATM   10  C   UNL     1     -11.472  12.940  68.014  1.00  0.00    -0.319 C  
BRANCH  10  11
HETATM   11  S   UNL     1     -11.707  12.655  66.229  1.00  0.00    -0.400 SA 
HETATM   12  P   UNL     1     -10.040  11.514  65.810  1.00  0.00    -0.259 P  
HETATM   13  O   UNL     1      -9.948  11.267  64.231  1.00  0.00    -0.253 OA 
HETATM   14  O   UNL     1      -8.788  12.102  66.376  1.00  0.00    -0.184 OA 
HETATM   15  O   UNL     1     -10.274  10.016  66.318  1.00  0.00    -0.241 OA 
ENDBRANCH  10  11
ENDBRANCH   9  10
ENDBRANCH   7   9
ENDBRANCH   6   7
ENDBRANCH   5   6
ENDBRANCH   2   5
TORSDOF 6
ENDMDL
MODEL      208
REMARK 921   NORMALIZED FREE ENERGY PREDICTED BY IDOCK:   -2.65 KCAL/MOL
REMARK 922        TOTAL FREE ENERGY PREDICTED BY IDOCK:   -3.66 KCAL/MOL
REMARK 923 INTER-LIGAND FREE ENERGY PREDICTED BY IDOCK:   -3.42 KCAL/MOL
REMARK 924 INTRA-LIGAND FREE ENERGY PREDICTED BY IDOCK:   -0.24 KCAL/MOL
REMARK 927      BINDING AFFINITY PREDICTED BY RF-SCORE:    0.00 PKD
ROOT
HETATM    1  N   UNL     1      -8.299   5.389  71.756  1.00  0.00    -0.118 NA 
HETATM    2  C   UNL     1      -9.387   6.352  71.866  1.00  0.00    -0.152 C  
HETATM    3  H2  UNL     1      -8.151   5.092  70.790  1.00  0.00     0.000 HD 
HETATM    4  H1  UNL     1      -7.446   5.763  72.172  1.00  0.00     0.000 HD 
ENDROOT
BRANCH   2   5
HETATM    5  C   UNL     1     -10.664   5.792  71.243  1.00  0.00    -0.323 C  
BRANCH   5   6
HETATM    6  C   UNL     1     -11.492   6.913  70.614  1.00  0.00    -0.336 C  
BRANCH   6   7
HETATM    7  N   UNL     1     -11.620   6.688  69.176  1.00  0.00    -0.628 NA 
HETATM    8  H   UNL     1     -12.361   7.261  68.771  1.00  0.00     0.000 HD 
BRANCH   7   9
HETATM    9  C   UNL     1     -10.339   6.899  68.493  1.00  0.00    -0.186 C  
BRANCH   9  10
HETATM   10  C   UNL     1     -10.480   7.900  67.345  1.00  0.00    -0.290 C  
BRANCH  10  11
HETATM   11  S   UNL     1      -9.340   9.312  67.514  1.00  0.00    -0.128 SA 
HETATM   12  P   UNL     1     -10.584  10.691  68.413  1.00  0.00    -0.239 P  
HETATM   13  O   UNL     1      -9.827  12.097  68.522  1.00  0.00    -0.209 OA 
HETATM   14  O   UNL     1     -11.907  10.800  67.725  1.00  0.00    -0.538 OA 
HETATM   15  O   UNL     1     -10.749  10.336  69.962  1.00  0.00    -0.272 OA 
ENDBRANCH  10  11
ENDBRANCH   9  10
ENDBRANCH   7   9
ENDBRANCH   6   7
ENDBRANCH   5   6
ENDBRANCH   2   5
TORSDOF 6
ENDMDL
MODEL      209
REMARK 921   NORMALIZED FREE ENERGY PREDICTED BY IDOCK:   -2.64 KCAL/MOL
REMARK 922        TOTAL FREE ENERGY PREDICTED BY IDOCK:   -3.65 KCAL/MOL
REMARK 923 INTER-LIGAND FREE ENERGY PREDICTED BY IDOCK:   -3.54 KCAL/MOL
REMARK 924 INTRA-LIGAND FREE ENERGY PREDICTED BY IDOCK:   -0.11 KCAL/MOL
REMARK 927      BINDING AFFINITY PREDICTED BY RF-SCORE:    0.00 PKD
ROOT
HETATM    1  N   UNL     1     -10.092  19.523  67.916  1.00  0.00    -0.391 NA 
HETATM    2  C   UNL     1     -10.089  18.735  66.690  1.00  0.00    -0.378 C  
HETATM    3  H2  UNL     1      -9.365  19.219  68.565  1.00  0.00     0.000 HD 
HETATM    4  H1  UNL     1     -10.017  20.518  67.703  1.00  0.00     0.000 HD 
ENDROOT
BRANCH   2   5
HETATM    5  C   UNL     1     -10.202  17.246  67.009  1.00  0.00    -0.320 C  
BRANCH   5   6
HETATM    6  C   UNL     1     -10.251  16.423  65.722  1.00  0.00    -0.348 C  
BRANCH   6   7
HETATM    7  N   UNL     1     -10.978  15.177  65.956  1.00  0.00    -0.335 NA 
HETATM    8  H   UNL     1     -11.780  15.087  65.332  1.00  0.00     0.000 HD 
BRANCH   7   9
HETATM    9  C   UNL     1     -10.084  14.019  65.858  1.00  0.00    -0.321 C  
BRANCH   9  10
HETATM   10  C   UNL     1     -10.749  12.865  65.106  1.00  0.00    -0.305 C  
BRANCH  10  11
HETATM   11  S   UNL     1     -10.959  11.387  66.152  1.00  0.00    -0.186 SA 
HETATM   12  P   UNL     1      -9.476  10.174  65.386  1.00  0.00    -0.284 P  
HETATM   13  O   UNL     1      -9.572   8.726  66.062  1.00  0.00    -0.245 OA 
HETATM   14  O   UNL     1      -9.500  10.116  63.892  1.00  0.00    -0.274 OA 
HETATM   15  O   UNL     1      -8.053  10.651  65.937  1.00  0.00    -0.153 OA 
ENDBRANCH  10  11
ENDBRANCH   9  10
ENDBRANCH   7   9
ENDBRANCH   6   7
ENDBRANCH   5   6
ENDBRANCH   2   5
TORSDOF 6
ENDMDL
MODEL      210
REMARK 921   NORMALIZED FREE ENERGY PREDICTED BY IDOCK:   -2.62 KCAL/MOL
REMARK 922        TOTAL FREE ENERGY PREDICTED BY IDOCK:   -3.63 KCAL/MOL
REMARK 923 INTER-LIGAND FREE ENERGY PREDICTED BY IDOCK:   -3.22 KCAL/MOL
REMARK 924 INTRA-LIGAND FREE ENERGY PREDICTED BY IDOCK:   -0.41 KCAL/MOL
REMARK 927      BINDING AFFINITY PREDICTED BY RF-SCORE:    0.00 PKD
ROOT
HETATM    1  N   UNL     1      -9.061   5.794  72.074  1.00  0.00    -0.138 NA 
HETATM    2  C   UNL     1      -9.877   5.845  70.867  1.00  0.00    -0.179 C  
HETATM    3  H2  UNL     1      -9.478   5.198  72.789  1.00  0.00     0.000 HD 
HETATM    4  H1  UNL     1      -8.108   5.507  71.850  1.00  0.00     0.000 HD 
ENDROOT
BRANCH   2   5
HETATM    5  C   UNL     1     -11.303   6.275  71.202  1.00  0.00    -0.364 C  
BRANCH   5   6
HETATM    6  C   UNL     1     -11.485   7.773  70.955  1.00  0.00    -0.281 C  
BRANCH   6   7
HETATM    7  N   UNL     1     -10.301   8.498  71.411  1.00  0.00    -0.220 NA 
HETATM    8  H   UNL     1      -9.511   7.872  71.562  1.00  0.00     0.000 HD 
BRANCH   7   9
HETATM    9  C   UNL     1      -9.961   9.586  70.488  1.00  0.00    -0.273 C  
BRANCH   9  10
HETATM   10  C   UNL     1     -11.188  10.435  70.153  1.00  0.00    -0.321 C  
BRANCH  10  11
HETATM   11  S   UNL     1     -11.386  10.688  68.359  1.00  0.00    -0.248 SA 
HETATM   12  P   UNL     1     -11.324  12.747  68.262  1.00  0.00    -0.347 P  
HETATM   13  O   UNL     1     -11.640  13.219  66.765  1.00  0.00    -0.330 OA 
HETATM   14  O   UNL     1     -12.217  13.394  69.271  1.00  0.00    -0.284 OA 
HETATM   15  O   UNL     1      -9.812  13.246  68.404  1.00  0.00    -0.234 OA 
ENDBRANCH  10  11
ENDBRANCH   9  10
ENDBRANCH   7   9
ENDBRANCH   6   7
ENDBRANCH   5   6
ENDBRANCH   2   5
TORSDOF 6
ENDMDL
MODEL      211
REMARK 921   NORMALIZED FREE ENERGY PREDICTED BY IDOCK:   -2.62 KCAL/MOL
REMARK 922        TOTAL FREE ENERGY PREDICTED BY IDOCK:   -3.63 KCAL/MOL
REMARK 923 INTER-LIGAND FREE ENERGY PREDICTED BY IDOCK:   -3.38 KCAL/MOL
REMARK 924 INTRA-LIGAND FREE ENERGY PREDICTED BY IDOCK:   -0.24 KCAL/MOL
REMARK 927      BINDING AFFINITY PREDICTED BY RF-SCORE:    0.00 PKD
ROOT
HETATM    1  N   UNL     1      -7.349  20.652  66.383  1.00  0.00    -0.493 NA 
HETATM    2  C   UNL     1      -8.522  19.822  66.627  1.00  0.00    -0.333 C  
HETATM    3  H2  UNL     1      -6.481  20.146  66.564  1.00  0.00     0.000 HD 
HETATM    4  H1  UNL     1      -7.372  21.037  65.439  1.00  0.00     0.000 HD 
ENDROOT
BRANCH   2   5
HETATM    5  C   UNL     1      -8.486  19.245  68.041  1.00  0.00    -0.352 C  
BRANCH   5   6
HETATM    6  C   UNL     1      -7.047  18.940  68.460  1.00  0.00    -0.278 C  
BRANCH   6   7
HETATM    7  N   UNL     1      -6.734  17.541  68.180  1.00  0.00    -0.186 NA 
HETATM    8  H   UNL     1      -5.804  17.438  67.774  1.00  0.00     0.000 HD 
BRANCH   7   9
HETATM    9  C   UNL     1      -6.894  16.714  69.382  1.00  0.00    -0.218 C  
BRANCH   9  10
HETATM   10  C   UNL     1      -7.755  15.483  69.098  1.00  0.00    -0.210 C  
BRANCH  10  11
HETATM   11  S   UNL     1      -7.836  15.089  67.320  1.00  0.00    -0.195 SA 
HETATM   12  P   UNL     1      -9.797  14.469  67.163  1.00  0.00    -0.256 P  
HETATM   13  O   UNL     1     -10.062  13.913  65.685  1.00  0.00    -0.310 OA 
HETATM   14  O   UNL     1     -10.172  13.485  68.224  1.00  0.00    -0.237 OA 
HETATM   15  O   UNL     1     -10.765  15.741  67.165  1.00  0.00    -0.314 OA 
ENDBRANCH  10  11
ENDBRANCH   9  10
ENDBRANCH   7   9
ENDBRANCH   6   7
ENDBRANCH   5   6
ENDBRANCH   2   5
TORSDOF 6
ENDMDL
MODEL      212
REMARK 921   NORMALIZED FREE ENERGY PREDICTED BY IDOCK:   -2.62 KCAL/MOL
REMARK 922        TOTAL FREE ENERGY PREDICTED BY IDOCK:   -3.62 KCAL/MOL
REMARK 923 INTER-LIGAND FREE ENERGY PREDICTED BY IDOCK:   -3.25 KCAL/MOL
REMARK 924 INTRA-LIGAND FREE ENERGY PREDICTED BY IDOCK:   -0.36 KCAL/MOL
REMARK 927      BINDING AFFINITY PREDICTED BY RF-SCORE:    0.00 PKD
ROOT
HETATM    1  N   UNL     1     -10.000   3.913  72.181  1.00  0.00    -0.169 NA 
HETATM    2  C   UNL     1     -10.511   4.577  73.374  1.00  0.00    -0.201 C  
HETATM    3  H2  UNL     1      -9.835   4.573  71.421  1.00  0.00     0.000 HD 
HETATM    4  H1  UNL     1      -9.163   3.374  72.403  1.00  0.00     0.000 HD 
ENDROOT
BRANCH   2   5
HETATM    5  C   UNL     1     -11.764   5.385  73.043  1.00  0.00    -0.195 C  
BRANCH   5   6
HETATM    6  C   UNL     1     -11.418   6.567  72.138  1.00  0.00    -0.292 C  
BRANCH   6   7
HETATM    7  N   UNL     1     -11.636   7.822  72.854  1.00  0.00    -0.603 NA 
HETATM    8  H   UNL     1     -10.852   8.046  73.466  1.00  0.00     0.000 HD 
BRANCH   7   9
HETATM    9  C   UNL     1     -11.926   8.917  71.922  1.00  0.00    -0.371 C  
BRANCH   9  10
HETATM   10  C   UNL     1     -11.401   8.607  70.520  1.00  0.00    -0.218 C  
BRANCH  10  11
HETATM   11  S   UNL     1     -10.104   9.775  69.993  1.00  0.00    -0.264 SA 
HETATM   12  P   UNL     1      -8.463   8.965  70.946  1.00  0.00    -0.193 P  
HETATM   13  O   UNL     1      -7.204   9.934  70.750  1.00  0.00    -0.305 OA 
HETATM   14  O   UNL     1      -8.733   8.655  72.383  1.00  0.00    -0.336 OA 
HETATM   15  O   UNL     1      -7.958   7.677  70.146  1.00  0.00    -0.105 OA 
ENDBRANCH  10  11
ENDBRANCH   9  10
ENDBRANCH   7   9
ENDBRANCH   6   7
ENDBRANCH   5   6
ENDBRANCH   2   5
TORSDOF 6
ENDMDL
MODEL      213
REMARK 921   NORMALIZED FREE ENERGY PREDICTED BY IDOCK:   -2.61 KCAL/MOL
REMARK 922        TOTAL FREE ENERGY PREDICTED BY IDOCK:   -3.61 KCAL/MOL
REMARK 923 INTER-LIGAND FREE ENERGY PREDICTED BY IDOCK:   -3.39 KCAL/MOL
REMARK 924 INTRA-LIGAND FREE ENERGY PREDICTED BY IDOCK:   -0.22 KCAL/MOL
REMARK 927      BINDING AFFINITY PREDICTED BY RF-SCORE:    0.00 PKD
ROOT
HETATM    1  N   UNL     1     -10.837  12.569  67.129  1.00  0.00    -0.244 NA 
HETATM    2  C   UNL     1     -10.791  12.160  68.528  1.00  0.00    -0.236 C  
HETATM    3  H2  UNL     1     -11.792  12.591  66.771  1.00  0.00     0.000 HD 
HETATM    4  H1  UNL     1     -10.363  13.463  67.002  1.00  0.00     0.000 HD 
ENDROOT
BRANCH   2   5
HETATM    5  C   UNL     1     -11.500  10.821  68.718  1.00  0.00    -0.364 C  
BRANCH   5   6
HETATM    6  C   UNL     1     -11.767  10.561  70.201  1.00  0.00    -0.326 C  
BRANCH   6   7
HETATM    7  N   UNL     1     -12.368   9.240  70.373  1.00  0.00    -0.459 NA 
HETATM    8  H   UNL     1     -12.478   8.758  69.481  1.00  0.00     0.000 HD 
BRANCH   7   9
HETATM    9  C   UNL     1     -11.606   8.434  71.333  1.00  0.00    -0.284 C  
BRANCH   9  10
HETATM   10  C   UNL     1     -10.526   7.609  70.631  1.00  0.00    -0.216 C  
BRANCH  10  11
HETATM   11  S   UNL     1     -11.227   6.229  69.669  1.00  0.00    -0.417 SA 
HETATM   12  P   UNL     1     -10.266   6.506  67.864  1.00  0.00    -0.218 P  
HETATM   13  O   UNL     1     -10.853   5.477  66.786  1.00  0.00    -0.281 OA 
HETATM   14  O   UNL     1     -10.323   7.925  67.399  1.00  0.00    -0.228 OA 
HETATM   15  O   UNL     1      -8.761   5.977  67.970  1.00  0.00    -0.114 OA 
ENDBRANCH  10  11
ENDBRANCH   9  10
ENDBRANCH   7   9
ENDBRANCH   6   7
ENDBRANCH   5   6
ENDBRANCH   2   5
TORSDOF 6
ENDMDL
MODEL      214
REMARK 921   NORMALIZED FREE ENERGY PREDICTED BY IDOCK:   -2.61 KCAL/MOL
REMARK 922        TOTAL FREE ENERGY PREDICTED BY IDOCK:   -3.61 KCAL/MOL
REMARK 923 INTER-LIGAND FREE ENERGY PREDICTED BY IDOCK:   -3.46 KCAL/MOL
REMARK 924 INTRA-LIGAND FREE ENERGY PREDICTED BY IDOCK:   -0.16 KCAL/MOL
REMARK 927      BINDING AFFINITY PREDICTED BY RF-SCORE:    0.00 PKD
ROOT
HETATM    1  N   UNL     1      -8.764   7.182  66.900  1.00  0.00    -0.122 NA 
HETATM    2  C   UNL     1      -8.901   8.308  67.816  1.00  0.00    -0.137 C  
HETATM    3  H2  UNL     1      -8.671   7.490  65.931  1.00  0.00     0.000 HD 
HETATM    4  H1  UNL     1      -7.989   6.583  67.182  1.00  0.00     0.000 HD 
ENDROOT
BRANCH   2   5
HETATM    5  C   UNL     1     -10.062   9.206  67.392  1.00  0.00    -0.289 C  
BRANCH   5   6
HETATM    6  C   UNL     1     -11.030   9.416  68.557  1.00  0.00    -0.030 C  
BRANCH   6   7
HETATM    7  N   UNL     1     -11.840  10.610  68.320  1.00  0.00    -0.786 NA 
HETATM    8  H   UNL     1     -12.769  10.521  68.731  1.00  0.00     0.000 HD 
BRANCH   7   9
HETATM    9  C   UNL     1     -11.152  11.815  68.794  1.00  0.00    -0.241 C  
BRANCH   9  10
HETATM   10  C   UNL     1     -11.293  12.965  67.796  1.00  0.00    -0.299 C  
BRANCH  10  11
HETATM   11  S   UNL     1      -9.686  13.708  67.364  1.00  0.00    -0.234 SA 
HETATM   12  P   UNL     1     -10.312  15.345  66.276  1.00  0.00    -0.327 P  
HETATM   13  O   UNL     1      -9.038  16.084  65.647  1.00  0.00    -0.357 OA 
HETATM   14  O   UNL     1     -11.338  14.990  65.249  1.00  0.00    -0.352 OA 
HETATM   15  O   UNL     1     -10.836  16.482  67.270  1.00  0.00    -0.280 OA 
ENDBRANCH  10  11
ENDBRANCH   9  10
ENDBRANCH   7   9
ENDBRANCH   6   7
ENDBRANCH   5   6
ENDBRANCH   2   5
TORSDOF 6
ENDMDL
MODEL      215
REMARK 921   NORMALIZED FREE ENERGY PREDICTED BY IDOCK:   -2.60 KCAL/MOL
REMARK 922        TOTAL FREE ENERGY PREDICTED BY IDOCK:   -3.60 KCAL/MOL
REMARK 923 INTER-LIGAND FREE ENERGY PREDICTED BY IDOCK:   -3.17 KCAL/MOL
REMARK 924 INTRA-LIGAND FREE ENERGY PREDICTED BY IDOCK:   -0.42 KCAL/MOL
REMARK 927      BINDING AFFINITY PREDICTED BY RF-SCORE:    0.00 PKD
ROOT
HETATM    1  N   UNL     1      -9.576   3.282  68.144  1.00  0.00    -0.143 NA 
HETATM    2  C   UNL     1      -9.227   2.939  66.771  1.00  0.00    -0.124 C  
HETATM    3  H2  UNL     1     -10.584   3.384  68.266  1.00  0.00     0.000 HD 
HETATM    4  H1  UNL     1      -9.183   2.600  68.794  1.00  0.00     0.000 HD 
ENDROOT
BRANCH   2   5
HETATM    5  C   UNL     1      -9.815   3.960  65.798  1.00  0.00    -0.143 C  
BRANCH   5   6
HETATM    6  C   UNL     1      -9.707   5.373  66.373  1.00  0.00    -0.166 C  
BRANCH   6   7
HETATM    7  N   UNL     1     -11.024   5.833  66.810  1.00  0.00    -0.581 NA 
HETATM    8  H   UNL     1     -11.622   5.054  67.085  1.00  0.00     0.000 HD 
BRANCH   7   9
HETATM    9  C   UNL     1     -10.905   6.829  67.881  1.00  0.00    -0.247 C  
BRANCH   9  10
HETATM   10  C   UNL     1     -11.308   6.240  69.234  1.00  0.00    -0.341 C  
BRANCH  10  11
HETATM   11  S   UNL     1     -10.224   6.806  70.585  1.00  0.00    -0.197 SA 
HETATM   12  P   UNL     1     -11.576   6.880  72.142  1.00  0.00    -0.264 P  
HETATM   13  O   UNL     1     -10.868   7.515  73.430  1.00  0.00    -0.394 OA 
HETATM   14  O   UNL     1     -12.838   7.589  71.769  1.00  0.00    -0.326 OA 
HETATM   15  O   UNL     1     -11.863   5.401  72.676  1.00  0.00    -0.247 OA 
ENDBRANCH  10  11
ENDBRANCH   9  10
ENDBRANCH   7   9
ENDBRANCH   6   7
ENDBRANCH   5   6
ENDBRANCH   2   5
TORSDOF 6
ENDMDL
MODEL      216
REMARK 921   NORMALIZED FREE ENERGY PREDICTED BY IDOCK:   -2.60 KCAL/MOL
REMARK 922        TOTAL FREE ENERGY PREDICTED BY IDOCK:   -3.60 KCAL/MOL
REMARK 923 INTER-LIGAND FREE ENERGY PREDICTED BY IDOCK:   -3.45 KCAL/MOL
REMARK 924 INTRA-LIGAND FREE ENERGY PREDICTED BY IDOCK:   -0.14 KCAL/MOL
REMARK 927      BINDING AFFINITY PREDICTED BY RF-SCORE:    0.00 PKD
ROOT
HETATM    1  N   UNL     1      -6.044  20.028  66.165  1.00  0.00    -0.173 NA 
HETATM    2  C   UNL     1      -7.379  19.477  66.363  1.00  0.00    -0.253 C  
HETATM    3  H2  UNL     1      -5.402  19.337  65.776  1.00  0.00     0.000 HD 
HETATM    4  H1  UNL     1      -6.086  20.871  65.592  1.00  0.00     0.000 HD 
ENDROOT
BRANCH   2   5
HETATM    5  C   UNL     1      -7.316  18.215  67.221  1.00  0.00    -0.219 C  
BRANCH   5   6
HETATM    6  C   UNL     1      -6.542  17.112  66.498  1.00  0.00    -0.242 C  
BRANCH   6   7
HETATM    7  N   UNL     1      -7.233  15.834  66.659  1.00  0.00    -0.229 NA 
HETATM    8  H   UNL     1      -6.616  15.046  66.460  1.00  0.00     0.000 HD 
BRANCH   7   9
HETATM    9  C   UNL     1      -7.836  15.725  67.991  1.00  0.00    -0.132 C  
BRANCH   9  10
HETATM   10  C   UNL     1      -9.290  15.257  67.906  1.00  0.00    -0.189 C  
BRANCH  10  11
HETATM   11  S   UNL     1      -9.470  13.733  66.922  1.00  0.00    -0.269 SA 
HETATM   12  P   UNL     1     -11.461  13.308  67.253  1.00  0.00    -0.381 P  
HETATM   13  O   UNL     1     -11.818  11.891  66.597  1.00  0.00    -0.591 OA 
HETATM   14  O   UNL     1     -11.828  13.382  68.700  1.00  0.00    -0.329 OA 
HETATM   15  O   UNL     1     -12.372  14.272  66.361  1.00  0.00    -0.448 OA 
ENDBRANCH  10  11
ENDBRANCH   9  10
ENDBRANCH   7   9
ENDBRANCH   6   7
ENDBRANCH   5   6
ENDBRANCH   2   5
TORSDOF 6
ENDMDL
MODEL      217
REMARK 921   NORMALIZED FREE ENERGY PREDICTED BY IDOCK:   -2.60 KCAL/MOL
REMARK 922        TOTAL FREE ENERGY PREDICTED BY IDOCK:   -3.59 KCAL/MOL
REMARK 923 INTER-LIGAND FREE ENERGY PREDICTED BY IDOCK:   -2.84 KCAL/MOL
REMARK 924 INTRA-LIGAND FREE ENERGY PREDICTED BY IDOCK:   -0.75 KCAL/MOL
REMARK 927      BINDING AFFINITY PREDICTED BY RF-SCORE:    0.00 PKD
ROOT
HETATM    1  N   UNL     1      -7.197  13.928  69.636  1.00  0.00    -0.330 NA 
HETATM    2  C   UNL     1      -5.846  13.387  69.721  1.00  0.00    -0.119 C  
HETATM    3  H2  UNL     1      -7.879  13.319  70.090  1.00  0.00     0.000 HD 
HETATM    4  H1  UNL     1      -7.228  14.876  70.011  1.00  0.00     0.000 HD 
ENDROOT
BRANCH   2   5
HETATM    5  C   UNL     1      -5.801  11.967  69.160  1.00  0.00    -0.067 C  
BRANCH   5   6
HETATM    6  C   UNL     1      -7.129  11.611  68.491  1.00  0.00    -0.089 C  
BRANCH   6   7
HETATM    7  N   UNL     1      -8.049  11.051  69.479  1.00  0.00    -0.373 NA 
HETATM    8  H   UNL     1      -8.256  11.720  70.220  1.00  0.00     0.000 HD 
BRANCH   7   9
HETATM    9  C   UNL     1      -9.272  10.556  68.839  1.00  0.00    -0.183 C  
BRANCH   9  10
HETATM   10  C   UNL     1      -9.401  11.080  67.407  1.00  0.00    -0.155 C  
BRANCH  10  11
HETATM   11  S   UNL     1     -11.059  11.756  67.064  1.00  0.00    -0.319 SA 
HETATM   12  P   UNL     1     -10.672  13.778  67.201  1.00  0.00    -0.285 P  
HETATM   13  O   UNL     1     -12.047  14.591  67.087  1.00  0.00    -0.397 OA 
HETATM   14  O   UNL     1      -9.896  14.129  68.430  1.00  0.00    -0.221 OA 
HETATM   15  O   UNL     1      -9.936  14.276  65.873  1.00  0.00    -0.299 OA 
ENDBRANCH  10  11
ENDBRANCH   9  10
ENDBRANCH   7   9
ENDBRANCH   6   7
ENDBRANCH   5   6
ENDBRANCH   2   5
TORSDOF 6
ENDMDL
MODEL      218
REMARK 921   NORMALIZED FREE ENERGY PREDICTED BY IDOCK:   -2.57 KCAL/MOL
REMARK 922        TOTAL FREE ENERGY PREDICTED BY IDOCK:   -3.56 KCAL/MOL
REMARK 923 INTER-LIGAND FREE ENERGY PREDICTED BY IDOCK:   -3.51 KCAL/MOL
REMARK 924 INTRA-LIGAND FREE ENERGY PREDICTED BY IDOCK:   -0.05 KCAL/MOL
REMARK 927      BINDING AFFINITY PREDICTED BY RF-SCORE:    0.00 PKD
ROOT
HETATM    1  N   UNL     1      -6.374   6.622  65.585  1.00  0.00    -0.044 NA 
HETATM    2  C   UNL     1      -6.959   7.874  66.050  1.00  0.00    -0.061 C  
HETATM    3  H2  UNL     1      -6.591   6.443  64.604  1.00  0.00     0.000 HD 
HETATM    4  H1  UNL     1      -5.369   6.610  65.759  1.00  0.00     0.000 HD 
ENDROOT
BRANCH   2   5
HETATM    5  C   UNL     1      -8.464   7.892  65.790  1.00  0.00    -0.152 C  
BRANCH   5   6
HETATM    6  C   UNL     1      -8.862   9.156  65.028  1.00  0.00    -0.189 C  
BRANCH   6   7
HETATM    7  N   UNL     1      -9.394  10.150  65.958  1.00  0.00    -0.161 NA 
HETATM    8  H   UNL     1      -8.806  10.241  66.787  1.00  0.00     0.000 HD 
BRANCH   7   9
HETATM    9  C   UNL     1      -9.594  11.441  65.293  1.00  0.00    -0.228 C  
BRANCH   9  10
HETATM   10  C   UNL     1     -10.220  12.464  66.242  1.00  0.00    -0.238 C  
BRANCH  10  11
HETATM   11  S   UNL     1     -10.412  14.102  65.465  1.00  0.00    -0.359 SA 
HETATM   12  P   UNL     1     -12.222  13.851  64.507  1.00  0.00    -0.358 P  
HETATM   13  O   UNL     1     -12.530  15.140  63.608  1.00  0.00    -0.607 OA 
HETATM   14  O   UNL     1     -12.283  12.576  63.728  1.00  0.00    -0.453 OA 
HETATM   15  O   UNL     1     -13.411  13.954  65.569  1.00  0.00    -0.657 OA 
ENDBRANCH  10  11
ENDBRANCH   9  10
ENDBRANCH   7   9
ENDBRANCH   6   7
ENDBRANCH   5   6
ENDBRANCH   2   5
TORSDOF 6
ENDMDL
MODEL      219
REMARK 921   NORMALIZED FREE ENERGY PREDICTED BY IDOCK:   -2.55 KCAL/MOL
REMARK 922        TOTAL FREE ENERGY PREDICTED BY IDOCK:   -3.52 KCAL/MOL
REMARK 923 INTER-LIGAND FREE ENERGY PREDICTED BY IDOCK:   -3.30 KCAL/MOL
REMARK 924 INTRA-LIGAND FREE ENERGY PREDICTED BY IDOCK:   -0.22 KCAL/MOL
REMARK 927      BINDING AFFINITY PREDICTED BY RF-SCORE:    0.00 PKD
ROOT
HETATM    1  N   UNL     1     -13.653   9.874  70.741  1.00  0.00    -0.500 NA 
HETATM    2  C   UNL     1     -13.448   9.530  72.143  1.00  0.00    -0.456 C  
HETATM    3  H2  UNL     1     -13.855   9.050  70.174  1.00  0.00     0.000 HD 
HETATM    4  H1  UNL     1     -14.379  10.584  70.649  1.00  0.00     0.000 HD 
ENDROOT
BRANCH   2   5
HETATM    5  C   UNL     1     -12.361   8.466  72.281  1.00  0.00    -0.436 C  
BRANCH   5   6
HETATM    6  C   UNL     1     -12.792   7.167  71.600  1.00  0.00    -0.379 C  
BRANCH   6   7
HETATM    7  N   UNL     1     -11.793   6.769  70.610  1.00  0.00    -0.412 NA 
HETATM    8  H   UNL     1     -11.755   7.425  69.830  1.00  0.00     0.000 HD 
BRANCH   7   9
HETATM    9  C   UNL     1     -10.476   6.593  71.232  1.00  0.00    -0.215 C  
BRANCH   9  10
HETATM   10  C   UNL     1      -9.390   7.337  70.455  1.00  0.00    -0.158 C  
BRANCH  10  11
HETATM   11  S   UNL     1      -8.792   8.813  71.342  1.00  0.00    -0.215 SA 
HETATM   12  P   UNL     1      -7.115   8.042  72.263  1.00  0.00    -0.095 P  
HETATM   13  O   UNL     1      -6.496   9.143  73.246  1.00  0.00    -0.322 OA 
HETATM   14  O   UNL     1      -7.388   6.743  72.951  1.00  0.00    -0.079 OA 
HETATM   15  O   UNL     1      -5.929   7.912  71.199  1.00  0.00    -0.034 OA 
ENDBRANCH  10  11
ENDBRANCH   9  10
ENDBRANCH   7   9
ENDBRANCH   6   7
ENDBRANCH   5   6
ENDBRANCH   2   5
TORSDOF 6
ENDMDL
MODEL      220
REMARK 921   NORMALIZED FREE ENERGY PREDICTED BY IDOCK:   -2.53 KCAL/MOL
REMARK 922        TOTAL FREE ENERGY PREDICTED BY IDOCK:   -3.51 KCAL/MOL
REMARK 923 INTER-LIGAND FREE ENERGY PREDICTED BY IDOCK:   -3.11 KCAL/MOL
REMARK 924 INTRA-LIGAND FREE ENERGY PREDICTED BY IDOCK:   -0.40 KCAL/MOL
REMARK 927      BINDING AFFINITY PREDICTED BY RF-SCORE:    0.00 PKD
ROOT
HETATM    1  N   UNL     1     -10.301   5.482  69.114  1.00  0.00    -0.239 NA 
HETATM    2  C   UNL     1      -9.728   4.400  69.905  1.00  0.00    -0.221 C  
HETATM    3  H2  UNL     1      -9.891   6.385  69.353  1.00  0.00     0.000 HD 
HETATM    4  H1  UNL     1     -10.217   5.280  68.118  1.00  0.00     0.000 HD 
ENDROOT
BRANCH   2   5
HETATM    5  C   UNL     1      -9.854   4.702  71.397  1.00  0.00    -0.264 C  
BRANCH   5   6
HETATM    6  C   UNL     1      -9.144   6.012  71.741  1.00  0.00    -0.145 C  
BRANCH   6   7
HETATM    7  N   UNL     1     -10.127   7.082  71.903  1.00  0.00    -0.183 NA 
HETATM    8  H   UNL     1     -10.700   6.943  72.735  1.00  0.00     0.000 HD 
BRANCH   7   9
HETATM    9  C   UNL     1      -9.478   8.397  71.907  1.00  0.00    -0.253 C  
BRANCH   9  10
HETATM   10  C   UNL     1      -9.563   9.062  70.532  1.00  0.00    -0.219 C  
BRANCH  10  11
HETATM   11  S   UNL     1     -11.222   9.735  70.190  1.00  0.00    -0.272 SA 
HETATM   12  P   UNL     1     -10.899  10.609  68.350  1.00  0.00    -0.282 P  
HETATM   13  O   UNL     1     -12.209  11.417  67.908  1.00  0.00    -0.592 OA 
HETATM   14  O   UNL     1      -9.665  11.454  68.327  1.00  0.00    -0.187 OA 
HETATM   15  O   UNL     1     -10.865   9.481  67.217  1.00  0.00    -0.251 OA 
ENDBRANCH  10  11
ENDBRANCH   9  10
ENDBRANCH   7   9
ENDBRANCH   6   7
ENDBRANCH   5   6
ENDBRANCH   2   5
TORSDOF 6
ENDMDL
MODEL      221
REMARK 921   NORMALIZED FREE ENERGY PREDICTED BY IDOCK:   -2.52 KCAL/MOL
REMARK 922        TOTAL FREE ENERGY PREDICTED BY IDOCK:   -3.48 KCAL/MOL
REMARK 923 INTER-LIGAND FREE ENERGY PREDICTED BY IDOCK:   -3.11 KCAL/MOL
REMARK 924 INTRA-LIGAND FREE ENERGY PREDICTED BY IDOCK:   -0.37 KCAL/MOL
REMARK 927      BINDING AFFINITY PREDICTED BY RF-SCORE:    0.00 PKD
ROOT
HETATM    1  N   UNL     1     -10.515  15.850  67.078  1.00  0.00    -0.303 NA 
HETATM    2  C   UNL     1     -10.378  16.557  65.811  1.00  0.00    -0.341 C  
HETATM    3  H2  UNL     1     -10.185  14.887  67.014  1.00  0.00     0.000 HD 
HETATM    4  H1  UNL     1     -10.048  16.362  67.826  1.00  0.00     0.000 HD 
ENDROOT
BRANCH   2   5
HETATM    5  C   UNL     1     -11.078  15.790  64.691  1.00  0.00    -0.376 C  
BRANCH   5   6
HETATM    6  C   UNL     1     -11.406  14.365  65.139  1.00  0.00    -0.359 C  
BRANCH   6   7
HETATM    7  N   UNL     1     -10.194  13.549  65.125  1.00  0.00    -0.455 NA 
HETATM    8  H   UNL     1      -9.363  14.107  65.321  1.00  0.00     0.000 HD 
BRANCH   7   9
HETATM    9  C   UNL     1     -10.312  12.414  66.046  1.00  0.00    -0.251 C  
BRANCH   9  10
HETATM   10  C   UNL     1      -8.956  12.041  66.646  1.00  0.00    -0.204 C  
BRANCH  10  11
HETATM   11  S   UNL     1      -9.121  11.128  68.215  1.00  0.00    -0.167 SA 
HETATM   12  P   UNL     1      -9.216   9.191  67.512  1.00  0.00    -0.128 P  
HETATM   13  O   UNL     1      -9.524   8.198  68.730  1.00  0.00    -0.147 OA 
HETATM   14  O   UNL     1     -10.186   9.039  66.385  1.00  0.00    -0.288 OA 
HETATM   15  O   UNL     1      -7.752   8.694  67.105  1.00  0.00    -0.095 OA 
ENDBRANCH  10  11
ENDBRANCH   9  10
ENDBRANCH   7   9
ENDBRANCH   6   7
ENDBRANCH   5   6
ENDBRANCH   2   5
TORSDOF 6
ENDMDL
MODEL      222
REMARK 921   NORMALIZED FREE ENERGY PREDICTED BY IDOCK:   -2.51 KCAL/MOL
REMARK 922        TOTAL FREE ENERGY PREDICTED BY IDOCK:   -3.48 KCAL/MOL
REMARK 923 INTER-LIGAND FREE ENERGY PREDICTED BY IDOCK:   -3.16 KCAL/MOL
REMARK 924 INTRA-LIGAND FREE ENERGY PREDICTED BY IDOCK:   -0.31 KCAL/MOL
REMARK 927      BINDING AFFINITY PREDICTED BY RF-SCORE:    0.00 PKD
ROOT
HETATM    1  N   UNL     1     -13.040   7.523  70.950  1.00  0.00    -0.589 NA 
HETATM    2  C   UNL     1     -13.030   8.468  72.060  1.00  0.00    -0.371 C  
HETATM    3  H2  UNL     1     -12.558   7.894  70.131  1.00  0.00     0.000 HD 
HETATM    4  H1  UNL     1     -12.655   6.624  71.241  1.00  0.00     0.000 HD 
ENDROOT
BRANCH   2   5
HETATM    5  C   UNL     1     -13.607   9.813  71.623  1.00  0.00    -0.371 C  
BRANCH   5   6
HETATM    6  C   UNL     1     -12.487  10.778  71.233  1.00  0.00    -0.399 C  
BRANCH   6   7
HETATM    7  N   UNL     1     -11.271  10.028  70.924  1.00  0.00    -0.343 NA 
HETATM    8  H   UNL     1     -11.266   9.115  71.380  1.00  0.00     0.000 HD 
BRANCH   7   9
HETATM    9  C   UNL     1     -11.080   9.909  69.475  1.00  0.00    -0.217 C  
BRANCH   9  10
HETATM   10  C   UNL     1      -9.929   8.957  69.143  1.00  0.00    -0.190 C  
BRANCH  10  11
HETATM   11  S   UNL     1      -9.993   8.369  67.419  1.00  0.00    -0.235 SA 
HETATM   12  P   UNL     1      -8.790   6.698  67.549  1.00  0.00    -0.114 P  
HETATM   13  O   UNL     1      -8.568   6.088  66.085  1.00  0.00    -0.131 OA 
HETATM   14  O   UNL     1      -7.504   6.975  68.259  1.00  0.00    -0.094 OA 
HETATM   15  O   UNL     1      -9.600   5.504  68.235  1.00  0.00    -0.111 OA 
ENDBRANCH  10  11
ENDBRANCH   9  10
ENDBRANCH   7   9
ENDBRANCH   6   7
ENDBRANCH   5   6
ENDBRANCH   2   5
TORSDOF 6
ENDMDL
MODEL      223
REMARK 921   NORMALIZED FREE ENERGY PREDICTED BY IDOCK:   -2.50 KCAL/MOL
REMARK 922        TOTAL FREE ENERGY PREDICTED BY IDOCK:   -3.46 KCAL/MOL
REMARK 923 INTER-LIGAND FREE ENERGY PREDICTED BY IDOCK:   -3.09 KCAL/MOL
REMARK 924 INTRA-LIGAND FREE ENERGY PREDICTED BY IDOCK:   -0.37 KCAL/MOL
REMARK 927      BINDING AFFINITY PREDICTED BY RF-SCORE:    0.00 PKD
ROOT
HETATM    1  N   UNL     1      -6.202  12.981  69.338  1.00  0.00    -0.107 NA 
HETATM    2  C   UNL     1      -6.201  12.981  67.880  1.00  0.00    -0.134 C  
HETATM    3  H2  UNL     1      -7.121  12.747  69.716  1.00  0.00     0.000 HD 
HETATM    4  H1  UNL     1      -5.475  12.363  69.696  1.00  0.00     0.000 HD 
ENDROOT
BRANCH   2   5
HETATM    5  C   UNL     1      -7.290  13.908  67.343  1.00  0.00    -0.129 C  
BRANCH   5   6
HETATM    6  C   UNL     1      -7.817  14.817  68.453  1.00  0.00    -0.128 C  
BRANCH   6   7
HETATM    7  N   UNL     1      -9.100  14.314  68.941  1.00  0.00    -0.366 NA 
HETATM    8  H   UNL     1      -9.436  14.852  69.738  1.00  0.00     0.000 HD 
BRANCH   7   9
HETATM    9  C   UNL     1     -10.092  14.267  67.862  1.00  0.00    -0.233 C  
BRANCH   9  10
HETATM   10  C   UNL     1     -10.311  15.651  67.248  1.00  0.00    -0.277 C  
BRANCH  10  11
HETATM   11  S   UNL     1     -10.963  16.849  68.457  1.00  0.00    -0.216 SA 
HETATM   12  P   UNL     1      -9.957  18.553  67.876  1.00  0.00    -0.386 P  
HETATM   13  O   UNL     1     -10.261  19.731  68.917  1.00  0.00    -0.443 OA 
HETATM   14  O   UNL     1      -8.493  18.315  67.685  1.00  0.00    -0.250 OA 
HETATM   15  O   UNL     1     -10.635  19.155  66.560  1.00  0.00    -0.418 OA 
ENDBRANCH  10  11
ENDBRANCH   9  10
ENDBRANCH   7   9
ENDBRANCH   6   7
ENDBRANCH   5   6
ENDBRANCH   2   5
TORSDOF 6
ENDMDL
MODEL      224
REMARK 921   NORMALIZED FREE ENERGY PREDICTED BY IDOCK:   -2.49 KCAL/MOL
REMARK 922        TOTAL FREE ENERGY PREDICTED BY IDOCK:   -3.45 KCAL/MOL
REMARK 923 INTER-LIGAND FREE ENERGY PREDICTED BY IDOCK:   -3.51 KCAL/MOL
REMARK 924 INTRA-LIGAND FREE ENERGY PREDICTED BY IDOCK:    0.06 KCAL/MOL
REMARK 927      BINDING AFFINITY PREDICTED BY RF-SCORE:    0.00 PKD
ROOT
HETATM    1  N   UNL     1     -10.908  12.543  67.375  1.00  0.00    -0.234 NA 
HETATM    2  C   UNL     1     -11.235  12.346  68.782  1.00  0.00    -0.273 C  
HETATM    3  H2  UNL     1     -11.713  12.377  66.771  1.00  0.00     0.000 HD 
HETATM    4  H1  UNL     1     -10.508  13.470  67.227  1.00  0.00     0.000 HD 
ENDROOT
BRANCH   2   5
HETATM    5  C   UNL     1     -11.833  10.958  69.003  1.00  0.00    -0.370 C  
BRANCH   5   6
HETATM    6  C   UNL     1     -12.311  10.803  70.447  1.00  0.00    -0.353 C  
BRANCH   6   7
HETATM    7  N   UNL     1     -12.919   9.487  70.631  1.00  0.00    -0.537 NA 
HETATM    8  H   UNL     1     -12.664   8.847  69.879  1.00  0.00     0.000 HD 
BRANCH   7   9
HETATM    9  C   UNL     1     -12.587   8.933  71.948  1.00  0.00    -0.377 C  
BRANCH   9  10
HETATM   10  C   UNL     1     -11.394   7.980  71.865  1.00  0.00    -0.283 C  
BRANCH  10  11
HETATM   11  S   UNL     1      -9.823   8.862  71.586  1.00  0.00    -0.299 SA 
HETATM   12  P   UNL     1      -8.604   7.890  72.938  1.00  0.00    -0.223 P  
HETATM   13  O   UNL     1      -7.177   8.615  72.983  1.00  0.00    -0.311 OA 
HETATM   14  O   UNL     1      -9.232   7.769  74.289  1.00  0.00    -0.144 OA 
HETATM   15  O   UNL     1      -8.180   6.465  72.352  1.00  0.00    -0.107 OA 
ENDBRANCH  10  11
ENDBRANCH   9  10
ENDBRANCH   7   9
ENDBRANCH   6   7
ENDBRANCH   5   6
ENDBRANCH   2   5
TORSDOF 6
ENDMDL
MODEL      225
REMARK 921   NORMALIZED FREE ENERGY PREDICTED BY IDOCK:   -2.49 KCAL/MOL
REMARK 922        TOTAL FREE ENERGY PREDICTED BY IDOCK:   -3.45 KCAL/MOL
REMARK 923 INTER-LIGAND FREE ENERGY PREDICTED BY IDOCK:   -3.12 KCAL/MOL
REMARK 924 INTRA-LIGAND FREE ENERGY PREDICTED BY IDOCK:   -0.33 KCAL/MOL
REMARK 927      BINDING AFFINITY PREDICTED BY RF-SCORE:    0.00 PKD
ROOT
HETATM    1  N   UNL     1      -7.041  13.393  69.495  1.00  0.00    -0.322 NA 
HETATM    2  C   UNL     1      -6.837  13.613  68.069  1.00  0.00    -0.138 C  
HETATM    3  H2  UNL     1      -8.031  13.413  69.745  1.00  0.00     0.000 HD 
HETATM    4  H1  UNL     1      -6.593  12.526  69.792  1.00  0.00     0.000 HD 
ENDROOT
BRANCH   2   5
HETATM    5  C   UNL     1      -7.508  14.912  67.625  1.00  0.00    -0.205 C  
BRANCH   5   6
HETATM    6  C   UNL     1      -8.299  15.529  68.779  1.00  0.00    -0.187 C  
BRANCH   6   7
HETATM    7  N   UNL     1      -9.554  16.087  68.279  1.00  0.00    -0.208 NA 
HETATM    8  H   UNL     1      -9.682  15.892  67.286  1.00  0.00     0.000 HD 
BRANCH   7   9
HETATM    9  C   UNL     1     -10.693  15.618  69.074  1.00  0.00    -0.236 C  
BRANCH   9  10
HETATM   10  C   UNL     1     -11.539  14.612  68.293  1.00  0.00    -0.326 C  
BRANCH  10  11
HETATM   11  S   UNL     1     -11.742  15.088  66.545  1.00  0.00    -0.027 SA 
HETATM   12  P   UNL     1     -11.250  13.314  65.614  1.00  0.00    -0.297 P  
HETATM   13  O   UNL     1     -11.206  13.540  64.029  1.00  0.00    -0.353 OA 
HETATM   14  O   UNL     1      -9.985  12.722  66.147  1.00  0.00    -0.258 OA 
HETATM   15  O   UNL     1     -12.474  12.292  65.722  1.00  0.00    -0.564 OA 
ENDBRANCH  10  11
ENDBRANCH   9  10
ENDBRANCH   7   9
ENDBRANCH   6   7
ENDBRANCH   5   6
ENDBRANCH   2   5
TORSDOF 6
ENDMDL
MODEL      226
REMARK 921   NORMALIZED FREE ENERGY PREDICTED BY IDOCK:   -2.49 KCAL/MOL
REMARK 922        TOTAL FREE ENERGY PREDICTED BY IDOCK:   -3.44 KCAL/MOL
REMARK 923 INTER-LIGAND FREE ENERGY PREDICTED BY IDOCK:   -2.68 KCAL/MOL
REMARK 924 INTRA-LIGAND FREE ENERGY PREDICTED BY IDOCK:   -0.76 KCAL/MOL
REMARK 927      BINDING AFFINITY PREDICTED BY RF-SCORE:    0.00 PKD
ROOT
HETATM    1  N   UNL     1     -11.828   8.382  70.243  1.00  0.00    -0.461 NA 
HETATM    2  C   UNL     1     -12.174   7.523  71.368  1.00  0.00    -0.335 C  
HETATM    3  H2  UNL     1     -10.831   8.340  70.026  1.00  0.00     0.000 HD 
HETATM    4  H1  UNL     1     -12.402   8.157  69.430  1.00  0.00     0.000 HD 
ENDROOT
BRANCH   2   5
HETATM    5  C   UNL     1     -11.314   7.861  72.585  1.00  0.00    -0.468 C  
BRANCH   5   6
HETATM    6  C   UNL     1      -9.958   7.161  72.495  1.00  0.00    -0.168 C  
BRANCH   6   7
HETATM    7  N   UNL     1      -9.029   7.977  71.716  1.00  0.00    -0.135 NA 
HETATM    8  H   UNL     1      -8.477   8.592  72.313  1.00  0.00     0.000 HD 
BRANCH   7   9
HETATM    9  C   UNL     1      -8.175   7.139  70.867  1.00  0.00    -0.116 C  
BRANCH   9  10
HETATM   10  C   UNL     1      -8.652   7.152  69.414  1.00  0.00    -0.134 C  
BRANCH  10  11
HETATM   11  S   UNL     1      -7.627   8.230  68.359  1.00  0.00    -0.102 SA 
HETATM   12  P   UNL     1      -7.959  10.057  69.257  1.00  0.00    -0.157 P  
HETATM   13  O   UNL     1      -7.266  11.210  68.388  1.00  0.00    -0.074 OA 
HETATM   14  O   UNL     1      -9.410  10.316  69.506  1.00  0.00    -0.213 OA 
HETATM   15  O   UNL     1      -7.100  10.160  70.601  1.00  0.00    -0.312 OA 
ENDBRANCH  10  11
ENDBRANCH   9  10
ENDBRANCH   7   9
ENDBRANCH   6   7
ENDBRANCH   5   6
ENDBRANCH   2   5
TORSDOF 6
ENDMDL
MODEL      227
REMARK 921   NORMALIZED FREE ENERGY PREDICTED BY IDOCK:   -2.48 KCAL/MOL
REMARK 922        TOTAL FREE ENERGY PREDICTED BY IDOCK:   -3.44 KCAL/MOL
REMARK 923 INTER-LIGAND FREE ENERGY PREDICTED BY IDOCK:   -3.02 KCAL/MOL
REMARK 924 INTRA-LIGAND FREE ENERGY PREDICTED BY IDOCK:   -0.42 KCAL/MOL
REMARK 927      BINDING AFFINITY PREDICTED BY RF-SCORE:    0.00 PKD
ROOT
HETATM    1  N   UNL     1     -10.028   6.989  66.214  1.00  0.00    -0.435 NA 
HETATM    2  C   UNL     1     -11.211   6.821  67.049  1.00  0.00    -0.152 C  
HETATM    3  H2  UNL     1      -9.331   6.266  66.395  1.00  0.00     0.000 HD 
HETATM    4  H1  UNL     1     -10.287   7.027  65.229  1.00  0.00     0.000 HD 
ENDROOT
BRANCH   2   5
HETATM    5  C   UNL     1     -10.823   6.764  68.525  1.00  0.00    -0.280 C  
BRANCH   5   6
HETATM    6  C   UNL     1      -9.865   7.904  68.873  1.00  0.00    -0.173 C  
BRANCH   6   7
HETATM    7  N   UNL     1     -10.505   9.190  68.605  1.00  0.00    -0.229 NA 
HETATM    8  H   UNL     1     -11.367   9.300  69.140  1.00  0.00     0.000 HD 
BRANCH   7   9
HETATM    9  C   UNL     1      -9.577  10.301  68.841  1.00  0.00    -0.190 C  
BRANCH   9  10
HETATM   10  C   UNL     1     -10.290  11.651  68.746  1.00  0.00    -0.195 C  
BRANCH  10  11
HETATM   11  S   UNL     1      -9.563  12.728  67.468  1.00  0.00    -0.198 SA 
HETATM   12  P   UNL     1     -11.062  12.690  66.051  1.00  0.00    -0.315 P  
HETATM   13  O   UNL     1     -10.569  13.462  64.736  1.00  0.00    -0.358 OA 
HETATM   14  O   UNL     1     -11.538  11.303  65.760  1.00  0.00    -0.078 OA 
HETATM   15  O   UNL     1     -12.259  13.645  66.508  1.00  0.00    -0.419 OA 
ENDBRANCH  10  11
ENDBRANCH   9  10
ENDBRANCH   7   9
ENDBRANCH   6   7
ENDBRANCH   5   6
ENDBRANCH   2   5
TORSDOF 6
ENDMDL
MODEL      228
REMARK 921   NORMALIZED FREE ENERGY PREDICTED BY IDOCK:   -2.48 KCAL/MOL
REMARK 922        TOTAL FREE ENERGY PREDICTED BY IDOCK:   -3.43 KCAL/MOL
REMARK 923 INTER-LIGAND FREE ENERGY PREDICTED BY IDOCK:   -2.77 KCAL/MOL
REMARK 924 INTRA-LIGAND FREE ENERGY PREDICTED BY IDOCK:   -0.67 KCAL/MOL
REMARK 927      BINDING AFFINITY PREDICTED BY RF-SCORE:    0.00 PKD
ROOT
HETATM    1  N   UNL     1      -6.883   4.610  71.759  1.00  0.00    -0.041 NA 
HETATM    2  C   UNL     1      -7.676   4.665  70.537  1.00  0.00    -0.054 C  
HETATM    3  H2  UNL     1      -7.038   3.742  72.273  1.00  0.00     0.000 HD 
HETATM    4  H1  UNL     1      -5.895   4.756  71.552  1.00  0.00     0.000 HD 
ENDROOT
BRANCH   2   5
HETATM    5  C   UNL     1      -9.155   4.446  70.847  1.00  0.00    -0.186 C  
BRANCH   5   6
HETATM    6  C   UNL     1      -9.944   5.740  70.643  1.00  0.00    -0.194 C  
BRANCH   6   7
HETATM    7  N   UNL     1      -9.190   6.871  71.179  1.00  0.00    -0.155 NA 
HETATM    8  H   UNL     1      -8.285   6.579  71.547  1.00  0.00     0.000 HD 
BRANCH   7   9
HETATM    9  C   UNL     1      -9.050   7.934  70.178  1.00  0.00    -0.152 C  
BRANCH   9  10
HETATM   10  C   UNL     1     -10.398   8.283  69.546  1.00  0.00    -0.219 C  
BRANCH  10  11
HETATM   11  S   UNL     1     -11.267   9.604  70.455  1.00  0.00    -0.299 SA 
HETATM   12  P   UNL     1     -12.453   8.475  71.710  1.00  0.00    -0.381 P  
HETATM   13  O   UNL     1     -13.442   9.442  72.517  1.00  0.00    -0.455 OA 
HETATM   14  O   UNL     1     -13.175   7.385  70.987  1.00  0.00    -0.249 OA 
HETATM   15  O   UNL     1     -11.570   7.905  72.914  1.00  0.00    -0.383 OA 
ENDBRANCH  10  11
ENDBRANCH   9  10
ENDBRANCH   7   9
ENDBRANCH   6   7
ENDBRANCH   5   6
ENDBRANCH   2   5
TORSDOF 6
ENDMDL
MODEL      229
REMARK 921   NORMALIZED FREE ENERGY PREDICTED BY IDOCK:   -2.48 KCAL/MOL
REMARK 922        TOTAL FREE ENERGY PREDICTED BY IDOCK:   -3.43 KCAL/MOL
REMARK 923 INTER-LIGAND FREE ENERGY PREDICTED BY IDOCK:   -3.12 KCAL/MOL
REMARK 924 INTRA-LIGAND FREE ENERGY PREDICTED BY IDOCK:   -0.32 KCAL/MOL
REMARK 927      BINDING AFFINITY PREDICTED BY RF-SCORE:    0.00 PKD
ROOT
HETATM    1  N   UNL     1     -11.404   4.991  65.515  1.00  0.00    -0.856 NA 
HETATM    2  C   UNL     1     -10.277   4.515  66.307  1.00  0.00    -0.239 C  
HETATM    3  H2  UNL     1     -11.189   5.865  65.036  1.00  0.00     0.000 HD 
HETATM    4  H1  UNL     1     -11.716   4.269  64.866  1.00  0.00     0.000 HD 
ENDROOT
BRANCH   2   5
HETATM    5  C   UNL     1      -9.811   5.596  67.281  1.00  0.00    -0.163 C  
BRANCH   5   6
HETATM    6  C   UNL     1     -10.622   6.877  67.088  1.00  0.00    -0.338 C  
BRANCH   6   7
HETATM    7  N   UNL     1      -9.830   7.861  66.353  1.00  0.00    -0.424 NA 
HETATM    8  H   UNL     1      -9.900   7.721  65.345  1.00  0.00     0.000 HD 
BRANCH   7   9
HETATM    9  C   UNL     1     -10.199   9.227  66.737  1.00  0.00    -0.255 C  
BRANCH   9  10
HETATM   10  C   UNL     1      -9.759  10.239  65.677  1.00  0.00    -0.247 C  
BRANCH  10  11
HETATM   11  S   UNL     1      -7.947  10.292  65.480  1.00  0.00    -0.153 SA 
HETATM   12  P   UNL     1      -7.407  11.234  67.234  1.00  0.00    -0.138 P  
HETATM   13  O   UNL     1      -5.835  11.536  67.213  1.00  0.00    -0.068 OA 
HETATM   14  O   UNL     1      -8.225  12.457  67.501  1.00  0.00    -0.152 OA 
HETATM   15  O   UNL     1      -7.481  10.195  68.447  1.00  0.00    -0.083 OA 
ENDBRANCH  10  11
ENDBRANCH   9  10
ENDBRANCH   7   9
ENDBRANCH   6   7
ENDBRANCH   5   6
ENDBRANCH   2   5
TORSDOF 6
ENDMDL
MODEL      230
REMARK 921   NORMALIZED FREE ENERGY PREDICTED BY IDOCK:   -2.48 KCAL/MOL
REMARK 922        TOTAL FREE ENERGY PREDICTED BY IDOCK:   -3.43 KCAL/MOL
REMARK 923 INTER-LIGAND FREE ENERGY PREDICTED BY IDOCK:   -3.30 KCAL/MOL
REMARK 924 INTRA-LIGAND FREE ENERGY PREDICTED BY IDOCK:   -0.14 KCAL/MOL
REMARK 927      BINDING AFFINITY PREDICTED BY RF-SCORE:    0.00 PKD
ROOT
HETATM    1  N   UNL     1     -11.083   5.760  72.714  1.00  0.00    -0.269 NA 
HETATM    2  C   UNL     1     -11.096   7.217  72.669  1.00  0.00    -0.292 C  
HETATM    3  H2  UNL     1     -10.934   5.353  71.790  1.00  0.00     0.000 HD 
HETATM    4  H1  UNL     1     -10.394   5.429  73.389  1.00  0.00     0.000 HD 
ENDROOT
BRANCH   2   5
HETATM    5  C   UNL     1     -12.127   7.713  71.657  1.00  0.00    -0.336 C  
BRANCH   5   6
HETATM    6  C   UNL     1     -12.409   9.202  71.864  1.00  0.00    -0.385 C  
BRANCH   6   7
HETATM    7  N   UNL     1     -12.701   9.834  70.579  1.00  0.00    -0.530 NA 
HETATM    8  H   UNL     1     -13.628  10.261  70.573  1.00  0.00     0.000 HD 
BRANCH   7   9
HETATM    9  C   UNL     1     -11.658  10.801  70.218  1.00  0.00    -0.338 C  
BRANCH   9  10
HETATM   10  C   UNL     1     -11.349  10.751  68.721  1.00  0.00    -0.288 C  
BRANCH  10  11
HETATM   11  S   UNL     1      -9.666  10.136  68.383  1.00  0.00    -0.151 SA 
HETATM   12  P   UNL     1      -8.890  11.733  67.333  1.00  0.00    -0.178 P  
HETATM   13  O   UNL     1      -7.435  11.350  66.783  1.00  0.00    -0.141 OA 
HETATM   14  O   UNL     1      -9.808  12.207  66.252  1.00  0.00    -0.224 OA 
HETATM   15  O   UNL     1      -8.510  12.909  68.346  1.00  0.00    -0.163 OA 
ENDBRANCH  10  11
ENDBRANCH   9  10
ENDBRANCH   7   9
ENDBRANCH   6   7
ENDBRANCH   5   6
ENDBRANCH   2   5
TORSDOF 6
ENDMDL
MODEL      231
REMARK 921   NORMALIZED FREE ENERGY PREDICTED BY IDOCK:   -2.48 KCAL/MOL
REMARK 922        TOTAL FREE ENERGY PREDICTED BY IDOCK:   -3.43 KCAL/MOL
REMARK 923 INTER-LIGAND FREE ENERGY PREDICTED BY IDOCK:   -3.08 KCAL/MOL
REMARK 924 INTRA-LIGAND FREE ENERGY PREDICTED BY IDOCK:   -0.35 KCAL/MOL
REMARK 927      BINDING AFFINITY PREDICTED BY RF-SCORE:    0.00 PKD
ROOT
HETATM    1  N   UNL     1      -6.912  14.322  70.233  1.00  0.00    -0.397 NA 
HETATM    2  C   UNL     1      -6.654  13.341  69.185  1.00  0.00    -0.105 C  
HETATM    3  H2  UNL     1      -7.855  14.233  70.611  1.00  0.00     0.000 HD 
HETATM    4  H1  UNL     1      -6.203  14.260  70.964  1.00  0.00     0.000 HD 
ENDROOT
BRANCH   2   5
HETATM    5  C   UNL     1      -7.715  13.434  68.091  1.00  0.00    -0.143 C  
BRANCH   5   6
HETATM    6  C   UNL     1      -8.466  12.109  67.957  1.00  0.00    -0.170 C  
BRANCH   6   7
HETATM    7  N   UNL     1      -9.450  11.985  69.030  1.00  0.00    -0.390 NA 
HETATM    8  H   UNL     1      -9.193  12.548  69.841  1.00  0.00     0.000 HD 
BRANCH   7   9
HETATM    9  C   UNL     1     -10.797  12.310  68.551  1.00  0.00    -0.237 C  
BRANCH   9  10
HETATM   10  C   UNL     1     -11.726  11.099  68.641  1.00  0.00    -0.320 C  
BRANCH  10  11
HETATM   11  S   UNL     1     -12.037  10.592  70.365  1.00  0.00    -0.368 SA 
HETATM   12  P   UNL     1     -10.676   9.053  70.553  1.00  0.00    -0.276 P  
HETATM   13  O   UNL     1     -10.879   8.335  71.970  1.00  0.00    -0.257 OA 
HETATM   14  O   UNL     1     -10.736   8.094  69.407  1.00  0.00    -0.224 OA 
HETATM   15  O   UNL     1      -9.208   9.654  70.746  1.00  0.00    -0.193 OA 
ENDBRANCH  10  11
ENDBRANCH   9  10
ENDBRANCH   7   9
ENDBRANCH   6   7
ENDBRANCH   5   6
ENDBRANCH   2   5
TORSDOF 6
ENDMDL
MODEL      232
REMARK 921   NORMALIZED FREE ENERGY PREDICTED BY IDOCK:   -2.47 KCAL/MOL
REMARK 922        TOTAL FREE ENERGY PREDICTED BY IDOCK:   -3.42 KCAL/MOL
REMARK 923 INTER-LIGAND FREE ENERGY PREDICTED BY IDOCK:   -2.83 KCAL/MOL
REMARK 924 INTRA-LIGAND FREE ENERGY PREDICTED BY IDOCK:   -0.59 KCAL/MOL
REMARK 927      BINDING AFFINITY PREDICTED BY RF-SCORE:    0.00 PKD
ROOT
HETATM    1  N   UNL     1      -8.927   4.404  72.037  1.00  0.00    -0.119 NA 
HETATM    2  C   UNL     1      -9.525   4.913  73.265  1.00  0.00    -0.123 C  
HETATM    3  H2  UNL     1      -9.358   4.813  71.208  1.00  0.00     0.000 HD 
HETATM    4  H1  UNL     1      -7.917   4.542  72.047  1.00  0.00     0.000 HD 
ENDROOT
BRANCH   2   5
HETATM    5  C   UNL     1     -11.039   4.705  73.251  1.00  0.00    -0.403 C  
BRANCH   5   6
HETATM    6  C   UNL     1     -11.724   5.806  72.442  1.00  0.00    -0.223 C  
BRANCH   6   7
HETATM    7  N   UNL     1     -10.944   7.040  72.522  1.00  0.00    -0.250 NA 
HETATM    8  H   UNL     1     -10.265   7.104  71.764  1.00  0.00     0.000 HD 
BRANCH   7   9
HETATM    9  C   UNL     1     -11.820   8.215  72.564  1.00  0.00    -0.376 C  
BRANCH   9  10
HETATM   10  C   UNL     1     -12.302   8.600  71.164  1.00  0.00    -0.213 C  
BRANCH  10  11
HETATM   11  S   UNL     1     -11.564  10.161  70.582  1.00  0.00    -0.365 SA 
HETATM   12  P   UNL     1      -9.977   9.437  69.481  1.00  0.00    -0.220 P  
HETATM   13  O   UNL     1      -9.070  10.661  68.987  1.00  0.00    -0.174 OA 
HETATM   14  O   UNL     1      -9.194   8.401  70.221  1.00  0.00    -0.148 OA 
HETATM   15  O   UNL     1     -10.504   8.889  68.075  1.00  0.00    -0.220 OA 
ENDBRANCH  10  11
ENDBRANCH   9  10
ENDBRANCH   7   9
ENDBRANCH   6   7
ENDBRANCH   5   6
ENDBRANCH   2   5
TORSDOF 6
ENDMDL
MODEL      233
REMARK 921   NORMALIZED FREE ENERGY PREDICTED BY IDOCK:   -2.46 KCAL/MOL
REMARK 922        TOTAL FREE ENERGY PREDICTED BY IDOCK:   -3.41 KCAL/MOL
REMARK 923 INTER-LIGAND FREE ENERGY PREDICTED BY IDOCK:   -3.04 KCAL/MOL
REMARK 924 INTRA-LIGAND FREE ENERGY PREDICTED BY IDOCK:   -0.37 KCAL/MOL
REMARK 927      BINDING AFFINITY PREDICTED BY RF-SCORE:    0.00 PKD
ROOT
HETATM    1  N   UNL     1      -9.096   9.140  64.112  1.00  0.00    -0.418 NA 
HETATM    2  C   UNL     1      -8.630   8.483  65.327  1.00  0.00    -0.165 C  
HETATM    3  H2  UNL     1      -8.479   9.903  63.832  1.00  0.00     0.000 HD 
HETATM    4  H1  UNL     1      -9.221   8.459  63.362  1.00  0.00     0.000 HD 
ENDROOT
BRANCH   2   5
HETATM    5  C   UNL     1      -8.444   9.501  66.449  1.00  0.00    -0.131 C  
BRANCH   5   6
HETATM    6  C   UNL     1      -9.790   9.860  67.078  1.00  0.00    -0.191 C  
BRANCH   6   7
HETATM    7  N   UNL     1     -10.446  10.899  66.287  1.00  0.00    -0.256 NA 
HETATM    8  H   UNL     1     -11.357  11.148  66.674  1.00  0.00     0.000 HD 
BRANCH   7   9
HETATM    9  C   UNL     1      -9.582  12.075  66.141  1.00  0.00    -0.239 C  
BRANCH   9  10
HETATM   10  C   UNL     1      -9.355  12.768  67.485  1.00  0.00    -0.189 C  
BRANCH  10  11
HETATM   11  S   UNL     1     -10.536  14.126  67.773  1.00  0.00    -0.244 SA 
HETATM   12  P   UNL     1      -9.875  15.498  66.382  1.00  0.00    -0.328 P  
HETATM   13  O   UNL     1     -10.685  16.868  66.560  1.00  0.00    -0.222 OA 
HETATM   14  O   UNL     1      -8.394  15.693  66.432  1.00  0.00    -0.278 OA 
HETATM   15  O   UNL     1     -10.367  15.064  64.924  1.00  0.00    -0.383 OA 
ENDBRANCH  10  11
ENDBRANCH   9  10
ENDBRANCH   7   9
ENDBRANCH   6   7
ENDBRANCH   5   6
ENDBRANCH   2   5
TORSDOF 6
ENDMDL
MODEL      234
REMARK 921   NORMALIZED FREE ENERGY PREDICTED BY IDOCK:   -2.45 KCAL/MOL
REMARK 922        TOTAL FREE ENERGY PREDICTED BY IDOCK:   -3.40 KCAL/MOL
REMARK 923 INTER-LIGAND FREE ENERGY PREDICTED BY IDOCK:   -3.04 KCAL/MOL
REMARK 924 INTRA-LIGAND FREE ENERGY PREDICTED BY IDOCK:   -0.36 KCAL/MOL
REMARK 927      BINDING AFFINITY PREDICTED BY RF-SCORE:    0.00 PKD
ROOT
HETATM    1  N   UNL     1     -11.418   6.679  67.431  1.00  0.00    -0.740 NA 
HETATM    2  C   UNL     1     -10.540   6.075  68.425  1.00  0.00    -0.261 C  
HETATM    3  H2  UNL     1     -10.910   7.304  66.805  1.00  0.00     0.000 HD 
HETATM    4  H1  UNL     1     -11.926   5.959  66.917  1.00  0.00     0.000 HD 
ENDROOT
BRANCH   2   5
HETATM    5  C   UNL     1      -9.780   7.154  69.195  1.00  0.00    -0.158 C  
BRANCH   5   6
HETATM    6  C   UNL     1     -10.512   8.494  69.105  1.00  0.00    -0.205 C  
BRANCH   6   7
HETATM    7  N   UNL     1      -9.822   9.374  68.164  1.00  0.00    -0.155 NA 
HETATM    8  H   UNL     1      -9.248   8.845  67.507  1.00  0.00     0.000 HD 
BRANCH   7   9
HETATM    9  C   UNL     1     -10.771  10.250  67.470  1.00  0.00    -0.294 C  
BRANCH   9  10
HETATM   10  C   UNL     1     -10.100  11.548  67.017  1.00  0.00    -0.210 C  
BRANCH  10  11
HETATM   11  S   UNL     1     -10.450  12.938  68.144  1.00  0.00    -0.242 SA 
HETATM   12  P   UNL     1      -8.786  14.112  67.817  1.00  0.00    -0.211 P  
HETATM   13  O   UNL     1      -8.798  15.346  68.839  1.00  0.00    -0.181 OA 
HETATM   14  O   UNL     1      -7.514  13.329  67.874  1.00  0.00    -0.111 OA 
HETATM   15  O   UNL     1      -8.942  14.891  66.430  1.00  0.00    -0.270 OA 
ENDBRANCH  10  11
ENDBRANCH   9  10
ENDBRANCH   7   9
ENDBRANCH   6   7
ENDBRANCH   5   6
ENDBRANCH   2   5
TORSDOF 6
ENDMDL
MODEL      235
REMARK 921   NORMALIZED FREE ENERGY PREDICTED BY IDOCK:   -2.45 KCAL/MOL
REMARK 922        TOTAL FREE ENERGY PREDICTED BY IDOCK:   -3.39 KCAL/MOL
REMARK 923 INTER-LIGAND FREE ENERGY PREDICTED BY IDOCK:   -3.03 KCAL/MOL
REMARK 924 INTRA-LIGAND FREE ENERGY PREDICTED BY IDOCK:   -0.36 KCAL/MOL
REMARK 927      BINDING AFFINITY PREDICTED BY RF-SCORE:    0.00 PKD
ROOT
HETATM    1  N   UNL     1     -10.439  13.978  68.478  1.00  0.00    -0.245 NA 
HETATM    2  C   UNL     1     -11.790  13.520  68.179  1.00  0.00    -0.365 C  
HETATM    3  H2  UNL     1      -9.737  13.461  67.947  1.00  0.00     0.000 HD 
HETATM    4  H1  UNL     1     -10.361  14.984  68.330  1.00  0.00     0.000 HD 
ENDROOT
BRANCH   2   5
HETATM    5  C   UNL     1     -11.908  12.014  68.400  1.00  0.00    -0.360 C  
BRANCH   5   6
HETATM    6  C   UNL     1     -10.542  11.342  68.255  1.00  0.00    -0.197 C  
BRANCH   6   7
HETATM    7  N   UNL     1     -10.048  10.932  69.567  1.00  0.00    -0.437 NA 
HETATM    8  H   UNL     1     -10.693  11.197  70.311  1.00  0.00     0.000 HD 
BRANCH   7   9
HETATM    9  C   UNL     1      -9.753   9.495  69.595  1.00  0.00    -0.200 C  
BRANCH   9  10
HETATM   10  C   UNL     1     -10.731   8.744  70.498  1.00  0.00    -0.223 C  
BRANCH  10  11
HETATM   11  S   UNL     1     -11.116   7.078  69.867  1.00  0.00    -0.245 SA 
HETATM   12  P   UNL     1     -10.030   5.919  71.184  1.00  0.00    -0.201 P  
HETATM   13  O   UNL     1     -10.092   4.388  70.721  1.00  0.00    -0.204 OA 
HETATM   14  O   UNL     1      -8.629   6.413  71.358  1.00  0.00    -0.129 OA 
HETATM   15  O   UNL     1     -10.802   5.825  72.580  1.00  0.00    -0.223 OA 
ENDBRANCH  10  11
ENDBRANCH   9  10
ENDBRANCH   7   9
ENDBRANCH   6   7
ENDBRANCH   5   6
ENDBRANCH   2   5
TORSDOF 6
ENDMDL
MODEL      236
REMARK 921   NORMALIZED FREE ENERGY PREDICTED BY IDOCK:   -2.45 KCAL/MOL
REMARK 922        TOTAL FREE ENERGY PREDICTED BY IDOCK:   -3.39 KCAL/MOL
REMARK 923 INTER-LIGAND FREE ENERGY PREDICTED BY IDOCK:   -2.61 KCAL/MOL
REMARK 924 INTRA-LIGAND FREE ENERGY PREDICTED BY IDOCK:   -0.78 KCAL/MOL
REMARK 927      BINDING AFFINITY PREDICTED BY RF-SCORE:    0.00 PKD
ROOT
HETATM    1  N   UNL     1     -10.635   6.572  66.358  1.00  0.00    -0.489 NA 
HETATM    2  C   UNL     1     -11.033   6.430  67.753  1.00  0.00    -0.332 C  
HETATM    3  H2  UNL     1     -10.327   5.685  65.959  1.00  0.00     0.000 HD 
HETATM    4  H1  UNL     1     -11.387   6.993  65.812  1.00  0.00     0.000 HD 
ENDROOT
BRANCH   2   5
HETATM    5  C   UNL     1      -9.906   5.801  68.571  1.00  0.00    -0.177 C  
BRANCH   5   6
HETATM    6  C   UNL     1      -8.544   6.172  67.983  1.00  0.00    -0.115 C  
BRANCH   6   7
HETATM    7  N   UNL     1      -8.396   7.626  67.954  1.00  0.00    -0.122 NA 
HETATM    8  H   UNL     1      -8.374   8.020  68.894  1.00  0.00     0.000 HD 
BRANCH   7   9
HETATM    9  C   UNL     1      -7.217   8.019  67.174  1.00  0.00    -0.087 C  
BRANCH   9  10
HETATM   10  C   UNL     1      -7.229   9.518  66.868  1.00  0.00    -0.087 C  
BRANCH  10  11
HETATM   11  S   UNL     1      -7.464   9.860  65.093  1.00  0.00    -0.138 SA 
HETATM   12  P   UNL     1      -9.438  10.457  65.086  1.00  0.00    -0.302 P  
HETATM   13  O   UNL     1      -9.924  10.666  63.574  1.00  0.00    -0.321 OA 
HETATM   14  O   UNL     1     -10.320   9.524  65.851  1.00  0.00    -0.206 OA 
HETATM   15  O   UNL     1      -9.548  11.956  65.629  1.00  0.00    -0.233 OA 
ENDBRANCH  10  11
ENDBRANCH   9  10
ENDBRANCH   7   9
ENDBRANCH   6   7
ENDBRANCH   5   6
ENDBRANCH   2   5
TORSDOF 6
ENDMDL
MODEL      237
REMARK 921   NORMALIZED FREE ENERGY PREDICTED BY IDOCK:   -2.44 KCAL/MOL
REMARK 922        TOTAL FREE ENERGY PREDICTED BY IDOCK:   -3.38 KCAL/MOL
REMARK 923 INTER-LIGAND FREE ENERGY PREDICTED BY IDOCK:   -2.68 KCAL/MOL
REMARK 924 INTRA-LIGAND FREE ENERGY PREDICTED BY IDOCK:   -0.70 KCAL/MOL
REMARK 927      BINDING AFFINITY PREDICTED BY RF-SCORE:    0.00 PKD
ROOT
HETATM    1  N   UNL     1      -9.571   4.534  69.402  1.00  0.00    -0.178 NA 
HETATM    2  C   UNL     1     -10.545   5.156  70.291  1.00  0.00    -0.160 C  
HETATM    3  H2  UNL     1      -8.991   5.229  68.930  1.00  0.00     0.000 HD 
HETATM    4  H1  UNL     1      -9.008   3.852  69.910  1.00  0.00     0.000 HD 
ENDROOT
BRANCH   2   5
HETATM    5  C   UNL     1     -11.389   6.178  69.531  1.00  0.00    -0.426 C  
BRANCH   5   6
HETATM    6  C   UNL     1     -10.573   6.820  68.409  1.00  0.00    -0.227 C  
BRANCH   6   7
HETATM    7  N   UNL     1      -9.926   8.035  68.899  1.00  0.00    -0.189 NA 
HETATM    8  H   UNL     1      -9.491   8.561  68.141  1.00  0.00     0.000 HD 
BRANCH   7   9
HETATM    9  C   UNL     1     -10.867   8.863  69.661  1.00  0.00    -0.178 C  
BRANCH   9  10
HETATM   10  C   UNL     1     -10.207   9.449  70.910  1.00  0.00    -0.303 C  
BRANCH  10  11
HETATM   11  S   UNL     1     -10.371   8.354  72.358  1.00  0.00    -0.302 SA 
HETATM   12  P   UNL     1      -8.442   7.639  72.506  1.00  0.00    -0.144 P  
HETATM   13  O   UNL     1      -8.379   6.511  73.641  1.00  0.00    -0.117 OA 
HETATM   14  O   UNL     1      -7.906   7.165  71.193  1.00  0.00    -0.096 OA 
HETATM   15  O   UNL     1      -7.503   8.755  73.161  1.00  0.00    -0.364 OA 
ENDBRANCH  10  11
ENDBRANCH   9  10
ENDBRANCH   7   9
ENDBRANCH   6   7
ENDBRANCH   5   6
ENDBRANCH   2   5
TORSDOF 6
ENDMDL
MODEL      238
REMARK 921   NORMALIZED FREE ENERGY PREDICTED BY IDOCK:   -2.44 KCAL/MOL
REMARK 922        TOTAL FREE ENERGY PREDICTED BY IDOCK:   -3.37 KCAL/MOL
REMARK 923 INTER-LIGAND FREE ENERGY PREDICTED BY IDOCK:   -2.66 KCAL/MOL
REMARK 924 INTRA-LIGAND FREE ENERGY PREDICTED BY IDOCK:   -0.72 KCAL/MOL
REMARK 927      BINDING AFFINITY PREDICTED BY RF-SCORE:    0.00 PKD
ROOT
HETATM    1  N   UNL     1     -12.470  11.441  69.215  1.00  0.00    -0.253 NA 
HETATM    2  C   UNL     1     -12.194  11.414  70.646  1.00  0.00    -0.389 C  
HETATM    3  H2  UNL     1     -12.879  10.565  68.890  1.00  0.00     0.000 HD 
HETATM    4  H1  UNL     1     -13.054  12.243  68.978  1.00  0.00     0.000 HD 
ENDROOT
BRANCH   2   5
HETATM    5  C   UNL     1     -11.319  10.213  71.000  1.00  0.00    -0.385 C  
BRANCH   5   6
HETATM    6  C   UNL     1     -11.983   8.912  70.548  1.00  0.00     0.017 C  
BRANCH   6   7
HETATM    7  N   UNL     1     -11.328   8.414  69.341  1.00  0.00    -0.348 NA 
HETATM    8  H   UNL     1     -11.531   9.002  68.533  1.00  0.00     0.000 HD 
BRANCH   7   9
HETATM    9  C   UNL     1      -9.884   8.262  69.549  1.00  0.00    -0.181 C  
BRANCH   9  10
HETATM   10  C   UNL     1      -9.124   8.298  68.223  1.00  0.00    -0.135 C  
BRANCH  10  11
HETATM   11  S   UNL     1      -8.364   9.924  67.904  1.00  0.00    -0.113 SA 
HETATM   12  P   UNL     1      -9.517  10.571  66.320  1.00  0.00    -0.195 P  
HETATM   13  O   UNL     1      -8.920  11.945  65.756  1.00  0.00    -0.104 OA 
HETATM   14  O   UNL     1      -9.666   9.528  65.259  1.00  0.00    -0.293 OA 
HETATM   15  O   UNL     1     -10.934  11.076  66.858  1.00  0.00    -0.276 OA 
ENDBRANCH  10  11
ENDBRANCH   9  10
ENDBRANCH   7   9
ENDBRANCH   6   7
ENDBRANCH   5   6
ENDBRANCH   2   5
TORSDOF 6
ENDMDL
MODEL      239
REMARK 921   NORMALIZED FREE ENERGY PREDICTED BY IDOCK:   -2.42 KCAL/MOL
REMARK 922        TOTAL FREE ENERGY PREDICTED BY IDOCK:   -3.35 KCAL/MOL
REMARK 923 INTER-LIGAND FREE ENERGY PREDICTED BY IDOCK:   -2.90 KCAL/MOL
REMARK 924 INTRA-LIGAND FREE ENERGY PREDICTED BY IDOCK:   -0.45 KCAL/MOL
REMARK 927      BINDING AFFINITY PREDICTED BY RF-SCORE:    0.00 PKD
ROOT
HETATM    1  N   UNL     1      -8.481  11.700  66.239  1.00  0.00    -0.343 NA 
HETATM    2  C   UNL     1      -9.504  12.450  66.957  1.00  0.00    -0.211 C  
HETATM    3  H2  UNL     1      -8.785  11.449  65.298  1.00  0.00     0.000 HD 
HETATM    4  H1  UNL     1      -7.601  12.214  66.229  1.00  0.00     0.000 HD 
ENDROOT
BRANCH   2   5
HETATM    5  C   UNL     1     -10.823  11.679  66.973  1.00  0.00    -0.311 C  
BRANCH   5   6
HETATM    6  C   UNL     1     -10.583  10.213  67.334  1.00  0.00    -0.272 C  
BRANCH   6   7
HETATM    7  N   UNL     1     -10.043  10.116  68.688  1.00  0.00    -0.165 NA 
HETATM    8  H   UNL     1      -9.202  10.682  68.798  1.00  0.00     0.000 HD 
BRANCH   7   9
HETATM    9  C   UNL     1     -11.060  10.460  69.687  1.00  0.00    -0.276 C  
BRANCH   9  10
HETATM   10  C   UNL     1     -10.887   9.635  70.963  1.00  0.00    -0.342 C  
BRANCH  10  11
HETATM   11  S   UNL     1     -10.179   7.988  70.632  1.00  0.00    -0.198 SA 
HETATM   12  P   UNL     1      -8.480   8.069  71.799  1.00  0.00    -0.155 P  
HETATM   13  O   UNL     1      -7.596   6.759  71.543  1.00  0.00    -0.086 OA 
HETATM   14  O   UNL     1      -7.709   9.334  71.598  1.00  0.00    -0.336 OA 
HETATM   15  O   UNL     1      -8.871   7.852  73.334  1.00  0.00    -0.207 OA 
ENDBRANCH  10  11
ENDBRANCH   9  10
ENDBRANCH   7   9
ENDBRANCH   6   7
ENDBRANCH   5   6
ENDBRANCH   2   5
TORSDOF 6
ENDMDL
MODEL      240
REMARK 921   NORMALIZED FREE ENERGY PREDICTED BY IDOCK:   -2.40 KCAL/MOL
REMARK 922        TOTAL FREE ENERGY PREDICTED BY IDOCK:   -3.32 KCAL/MOL
REMARK 923 INTER-LIGAND FREE ENERGY PREDICTED BY IDOCK:   -3.19 KCAL/MOL
REMARK 924 INTRA-LIGAND FREE ENERGY PREDICTED BY IDOCK:   -0.13 KCAL/MOL
REMARK 927      BINDING AFFINITY PREDICTED BY RF-SCORE:    0.00 PKD
ROOT
HETATM    1  N   UNL     1      -9.469   8.381  65.677  1.00  0.00    -0.438 NA 
HETATM    2  C   UNL     1     -10.268   8.343  66.896  1.00  0.00    -0.313 C  
HETATM    3  H2  UNL     1      -8.611   8.920  65.802  1.00  0.00     0.000 HD 
HETATM    4  H1  UNL     1      -9.277   7.436  65.345  1.00  0.00     0.000 HD 
ENDROOT
BRANCH   2   5
HETATM    5  C   UNL     1     -10.555   9.759  67.393  1.00  0.00    -0.330 C  
BRANCH   5   6
HETATM    6  C   UNL     1     -10.385  10.771  66.259  1.00  0.00    -0.244 C  
BRANCH   6   7
HETATM    7  N   UNL     1     -10.889  12.077  66.679  1.00  0.00    -0.260 NA 
HETATM    8  H   UNL     1     -11.611  11.989  67.394  1.00  0.00     0.000 HD 
BRANCH   7   9
HETATM    9  C   UNL     1      -9.794  12.947  67.121  1.00  0.00    -0.225 C  
BRANCH   9  10
HETATM   10  C   UNL     1      -9.895  14.334  66.485  1.00  0.00    -0.288 C  
BRANCH  10  11
HETATM   11  S   UNL     1     -10.296  15.627  67.706  1.00  0.00    -0.271 SA 
HETATM   12  P   UNL     1      -8.521  16.677  67.736  1.00  0.00    -0.193 P  
HETATM   13  O   UNL     1      -8.585  17.796  68.879  1.00  0.00    -0.238 OA 
HETATM   14  O   UNL     1      -7.331  15.782  67.870  1.00  0.00    -0.122 OA 
HETATM   15  O   UNL     1      -8.422  17.603  66.437  1.00  0.00    -0.272 OA 
ENDBRANCH  10  11
ENDBRANCH   9  10
ENDBRANCH   7   9
ENDBRANCH   6   7
ENDBRANCH   5   6
ENDBRANCH   2   5
TORSDOF 6
ENDMDL
MODEL      241
REMARK 921   NORMALIZED FREE ENERGY PREDICTED BY IDOCK:   -2.39 KCAL/MOL
REMARK 922        TOTAL FREE ENERGY PREDICTED BY IDOCK:   -3.31 KCAL/MOL
REMARK 923 INTER-LIGAND FREE ENERGY PREDICTED BY IDOCK:   -3.16 KCAL/MOL
REMARK 924 INTRA-LIGAND FREE ENERGY PREDICTED BY IDOCK:   -0.15 KCAL/MOL
REMARK 927      BINDING AFFINITY PREDICTED BY RF-SCORE:    0.00 PKD
ROOT
HETATM    1  N   UNL     1     -12.581  10.804  71.590  1.00  0.00    -0.382 NA 
HETATM    2  C   UNL     1     -12.171  11.117  70.227  1.00  0.00    -0.352 C  
HETATM    3  H2  UNL     1     -11.793  10.823  72.238  1.00  0.00     0.000 HD 
HETATM    4  H1  UNL     1     -13.333  11.424  71.889  1.00  0.00     0.000 HD 
ENDROOT
BRANCH   2   5
HETATM    5  C   UNL     1     -11.045  10.187  69.778  1.00  0.00    -0.328 C  
BRANCH   5   6
HETATM    6  C   UNL     1     -10.989  10.109  68.252  1.00  0.00    -0.248 C  
BRANCH   6   7
HETATM    7  N   UNL     1     -10.793   8.723  67.833  1.00  0.00    -0.488 NA 
HETATM    8  H   UNL     1     -11.656   8.184  67.900  1.00  0.00     0.000 HD 
BRANCH   7   9
HETATM    9  C   UNL     1     -10.218   8.656  66.485  1.00  0.00    -0.225 C  
BRANCH   9  10
HETATM   10  C   UNL     1     -10.228  10.028  65.808  1.00  0.00    -0.200 C  
BRANCH  10  11
HETATM   11  S   UNL     1      -8.547  10.668  65.516  1.00  0.00    -0.176 SA 
HETATM   12  P   UNL     1      -8.312  10.204  63.520  1.00  0.00    -0.180 P  
HETATM   13  O   UNL     1      -6.813  10.542  63.069  1.00  0.00    -0.117 OA 
HETATM   14  O   UNL     1      -8.704   8.794  63.211  1.00  0.00    -0.125 OA 
HETATM   15  O   UNL     1      -9.121  11.253  62.625  1.00  0.00    -0.336 OA 
ENDBRANCH  10  11
ENDBRANCH   9  10
ENDBRANCH   7   9
ENDBRANCH   6   7
ENDBRANCH   5   6
ENDBRANCH   2   5
TORSDOF 6
ENDMDL
MODEL      242
REMARK 921   NORMALIZED FREE ENERGY PREDICTED BY IDOCK:   -2.38 KCAL/MOL
REMARK 922        TOTAL FREE ENERGY PREDICTED BY IDOCK:   -3.30 KCAL/MOL
REMARK 923 INTER-LIGAND FREE ENERGY PREDICTED BY IDOCK:   -2.69 KCAL/MOL
REMARK 924 INTRA-LIGAND FREE ENERGY PREDICTED BY IDOCK:   -0.61 KCAL/MOL
REMARK 927      BINDING AFFINITY PREDICTED BY RF-SCORE:    0.00 PKD
ROOT
HETATM    1  N   UNL     1      -9.800  10.623  67.357  1.00  0.00    -0.167 NA 
HETATM    2  C   UNL     1      -8.385  10.720  67.694  1.00  0.00    -0.119 C  
HETATM    3  H2  UNL     1     -10.324  10.108  68.064  1.00  0.00     0.000 HD 
HETATM    4  H1  UNL     1     -10.194  11.550  67.195  1.00  0.00     0.000 HD 
ENDROOT
BRANCH   2   5
HETATM    5  C   UNL     1      -7.796   9.332  67.936  1.00  0.00    -0.092 C  
BRANCH   5   6
HETATM    6  C   UNL     1      -8.855   8.253  67.716  1.00  0.00    -0.137 C  
BRANCH   6   7
HETATM    7  N   UNL     1      -9.330   7.752  69.004  1.00  0.00    -0.150 NA 
HETATM    8  H   UNL     1      -9.635   8.511  69.613  1.00  0.00     0.000 HD 
BRANCH   7   9
HETATM    9  C   UNL     1     -10.382   6.746  68.823  1.00  0.00    -0.196 C  
BRANCH   9  10
HETATM   10  C   UNL     1     -10.853   6.188  70.167  1.00  0.00    -0.329 C  
BRANCH  10  11
HETATM   11  S   UNL     1     -12.391   6.978  70.745  1.00  0.00    -0.160 SA 
HETATM   12  P   UNL     1     -11.622   8.636  71.702  1.00  0.00    -0.365 P  
HETATM   13  O   UNL     1     -12.807   9.420  72.440  1.00  0.00    -0.376 OA 
HETATM   14  O   UNL     1     -10.496   8.292  72.623  1.00  0.00    -0.320 OA 
HETATM   15  O   UNL     1     -11.189   9.729  70.619  1.00  0.00    -0.280 OA 
ENDBRANCH  10  11
ENDBRANCH   9  10
ENDBRANCH   7   9
ENDBRANCH   6   7
ENDBRANCH   5   6
ENDBRANCH   2   5
TORSDOF 6
ENDMDL
MODEL      243
REMARK 921   NORMALIZED FREE ENERGY PREDICTED BY IDOCK:   -2.38 KCAL/MOL
REMARK 922        TOTAL FREE ENERGY PREDICTED BY IDOCK:   -3.30 KCAL/MOL
REMARK 923 INTER-LIGAND FREE ENERGY PREDICTED BY IDOCK:   -2.61 KCAL/MOL
REMARK 924 INTRA-LIGAND FREE ENERGY PREDICTED BY IDOCK:   -0.68 KCAL/MOL
REMARK 927      BINDING AFFINITY PREDICTED BY RF-SCORE:    0.00 PKD
ROOT
HETATM    1  N   UNL     1      -9.367  10.643  67.100  1.00  0.00    -0.154 NA 
HETATM    2  C   UNL     1      -8.102  11.175  67.591  1.00  0.00    -0.117 C  
HETATM    3  H2  UNL     1      -9.914  10.213  67.847  1.00  0.00     0.000 HD 
HETATM    4  H1  UNL     1      -9.895  11.367  66.612  1.00  0.00     0.000 HD 
ENDROOT
BRANCH   2   5
HETATM    5  C   UNL     1      -7.311  10.091  68.320  1.00  0.00    -0.078 C  
BRANCH   5   6
HETATM    6  C   UNL     1      -7.813   8.702  67.924  1.00  0.00    -0.103 C  
BRANCH   6   7
HETATM    7  N   UNL     1      -8.513   8.086  69.050  1.00  0.00    -0.129 NA 
HETATM    8  H   UNL     1      -8.454   8.663  69.889  1.00  0.00     0.000 HD 
BRANCH   7   9
HETATM    9  C   UNL     1      -9.904   7.779  68.701  1.00  0.00    -0.169 C  
BRANCH   9  10
HETATM   10  C   UNL     1     -10.848   8.083  69.865  1.00  0.00    -0.217 C  
BRANCH  10  11
HETATM   11  S   UNL     1     -10.462   9.670  70.673  1.00  0.00    -0.300 SA 
HETATM   12  P   UNL     1     -11.959  10.859  69.897  1.00  0.00    -0.366 P  
HETATM   13  O   UNL     1     -11.725  12.375  70.356  1.00  0.00    -0.234 OA 
HETATM   14  O   UNL     1     -12.088  10.719  68.414  1.00  0.00    -0.501 OA 
HETATM   15  O   UNL     1     -13.336  10.545  70.645  1.00  0.00    -0.245 OA 
ENDBRANCH  10  11
ENDBRANCH   9  10
ENDBRANCH   7   9
ENDBRANCH   6   7
ENDBRANCH   5   6
ENDBRANCH   2   5
TORSDOF 6
ENDMDL
MODEL      244
REMARK 921   NORMALIZED FREE ENERGY PREDICTED BY IDOCK:   -2.38 KCAL/MOL
REMARK 922        TOTAL FREE ENERGY PREDICTED BY IDOCK:   -3.30 KCAL/MOL
REMARK 923 INTER-LIGAND FREE ENERGY PREDICTED BY IDOCK:   -2.54 KCAL/MOL
REMARK 924 INTRA-LIGAND FREE ENERGY PREDICTED BY IDOCK:   -0.76 KCAL/MOL
REMARK 927      BINDING AFFINITY PREDICTED BY RF-SCORE:    0.00 PKD
ROOT
HETATM    1  N   UNL     1      -9.962  14.458  65.328  1.00  0.00    -0.529 NA 
HETATM    2  C   UNL     1     -10.606  15.555  66.039  1.00  0.00    -0.325 C  
HETATM    3  H2  UNL     1      -9.938  13.605  65.888  1.00  0.00     0.000 HD 
HETATM    4  H1  UNL     1     -10.409  14.305  64.424  1.00  0.00     0.000 HD 
ENDROOT
BRANCH   2   5
HETATM    5  C   UNL     1      -9.936  15.784  67.392  1.00  0.00    -0.237 C  
BRANCH   5   6
HETATM    6  C   UNL     1      -8.599  15.045  67.461  1.00  0.00    -0.180 C  
BRANCH   6   7
HETATM    7  N   UNL     1      -8.280  14.725  68.851  1.00  0.00    -0.165 NA 
HETATM    8  H   UNL     1      -9.118  14.501  69.387  1.00  0.00     0.000 HD 
BRANCH   7   9
HETATM    9  C   UNL     1      -7.284  13.651  68.930  1.00  0.00    -0.083 C  
BRANCH   9  10
HETATM   10  C   UNL     1      -7.035  13.023  67.558  1.00  0.00    -0.151 C  
BRANCH  10  11
HETATM   11  S   UNL     1      -7.291  11.219  67.565  1.00  0.00    -0.112 SA 
HETATM   12  P   UNL     1      -9.215  11.111  66.830  1.00  0.00    -0.181 P  
HETATM   13  O   UNL     1      -9.724   9.594  66.894  1.00  0.00    -0.167 OA 
HETATM   14  O   UNL     1     -10.143  12.060  67.517  1.00  0.00    -0.192 OA 
HETATM   15  O   UNL     1      -9.199  11.338  65.248  1.00  0.00    -0.218 OA 
ENDBRANCH  10  11
ENDBRANCH   9  10
ENDBRANCH   7   9
ENDBRANCH   6   7
ENDBRANCH   5   6
ENDBRANCH   2   5
TORSDOF 6
ENDMDL
MODEL      245
REMARK 921   NORMALIZED FREE ENERGY PREDICTED BY IDOCK:   -2.37 KCAL/MOL
REMARK 922        TOTAL FREE ENERGY PREDICTED BY IDOCK:   -3.29 KCAL/MOL
REMARK 923 INTER-LIGAND FREE ENERGY PREDICTED BY IDOCK:   -2.80 KCAL/MOL
REMARK 924 INTRA-LIGAND FREE ENERGY PREDICTED BY IDOCK:   -0.48 KCAL/MOL
REMARK 927      BINDING AFFINITY PREDICTED BY RF-SCORE:    0.00 PKD
ROOT
HETATM    1  N   UNL     1      -5.658  13.227  67.240  1.00  0.00    -0.340 NA 
HETATM    2  C   UNL     1      -5.846  12.213  68.271  1.00  0.00    -0.052 C  
HETATM    3  H2  UNL     1      -6.502  13.782  67.096  1.00  0.00     0.000 HD 
HETATM    4  H1  UNL     1      -4.852  13.813  67.456  1.00  0.00     0.000 HD 
ENDROOT
BRANCH   2   5
HETATM    5  C   UNL     1      -7.053  11.336  67.947  1.00  0.00    -0.078 C  
BRANCH   5   6
HETATM    6  C   UNL     1      -8.354  12.083  68.241  1.00  0.00    -0.163 C  
BRANCH   6   7
HETATM    7  N   UNL     1      -8.682  12.968  67.126  1.00  0.00    -0.203 NA 
HETATM    8  H   UNL     1      -8.924  12.442  66.286  1.00  0.00     0.000 HD 
BRANCH   7   9
HETATM    9  C   UNL     1      -9.740  13.914  67.496  1.00  0.00    -0.232 C  
BRANCH   9  10
HETATM   10  C   UNL     1      -9.184  15.076  68.320  1.00  0.00    -0.184 C  
BRANCH  10  11
HETATM   11  S   UNL     1      -7.985  16.078  67.382  1.00  0.00    -0.174 SA 
HETATM   12  P   UNL     1      -9.203  17.613  66.738  1.00  0.00    -0.284 P  
HETATM   13  O   UNL     1      -8.383  18.559  65.740  1.00  0.00    -0.471 OA 
HETATM   14  O   UNL     1     -10.481  17.115  66.141  1.00  0.00    -0.332 OA 
HETATM   15  O   UNL     1      -9.468  18.630  67.942  1.00  0.00    -0.290 OA 
ENDBRANCH  10  11
ENDBRANCH   9  10
ENDBRANCH   7   9
ENDBRANCH   6   7
ENDBRANCH   5   6
ENDBRANCH   2   5
TORSDOF 6
ENDMDL
MODEL      246
REMARK 921   NORMALIZED FREE ENERGY PREDICTED BY IDOCK:   -2.37 KCAL/MOL
REMARK 922        TOTAL FREE ENERGY PREDICTED BY IDOCK:   -3.28 KCAL/MOL
REMARK 923 INTER-LIGAND FREE ENERGY PREDICTED BY IDOCK:   -2.88 KCAL/MOL
REMARK 924 INTRA-LIGAND FREE ENERGY PREDICTED BY IDOCK:   -0.40 KCAL/MOL
REMARK 927      BINDING AFFINITY PREDICTED BY RF-SCORE:    0.00 PKD
ROOT
HETATM    1  N   UNL     1     -12.429   6.078  72.515  1.00  0.00    -0.513 NA 
HETATM    2  C   UNL     1     -10.972   6.072  72.478  1.00  0.00    -0.260 C  
HETATM    3  H2  UNL     1     -12.811   6.985  72.245  1.00  0.00     0.000 HD 
HETATM    4  H1  UNL     1     -12.805   5.323  71.941  1.00  0.00     0.000 HD 
ENDROOT
BRANCH   2   5
HETATM    5  C   UNL     1     -10.409   7.202  73.337  1.00  0.00    -0.391 C  
BRANCH   5   6
HETATM    6  C   UNL     1      -9.970   8.375  72.460  1.00  0.00    -0.285 C  
BRANCH   6   7
HETATM    7  N   UNL     1     -11.101   8.855  71.669  1.00  0.00    -0.324 NA 
HETATM    8  H   UNL     1     -11.856   9.198  72.262  1.00  0.00     0.000 HD 
BRANCH   7   9
HETATM    9  C   UNL     1     -10.673   9.867  70.697  1.00  0.00    -0.303 C  
BRANCH   9  10
HETATM   10  C   UNL     1     -10.299   9.229  69.358  1.00  0.00    -0.215 C  
BRANCH  10  11
HETATM   11  S   UNL     1      -8.554   9.516  68.918  1.00  0.00    -0.133 SA 
HETATM   12  P   UNL     1      -8.196   7.876  67.720  1.00  0.00    -0.130 P  
HETATM   13  O   UNL     1      -6.643   7.831  67.330  1.00  0.00    -0.059 OA 
HETATM   14  O   UNL     1      -8.672   6.601  68.339  1.00  0.00    -0.123 OA 
HETATM   15  O   UNL     1      -8.844   8.111  66.277  1.00  0.00    -0.146 OA 
ENDBRANCH  10  11
ENDBRANCH   9  10
ENDBRANCH   7   9
ENDBRANCH   6   7
ENDBRANCH   5   6
ENDBRANCH   2   5
TORSDOF 6
ENDMDL
MODEL      247
REMARK 921   NORMALIZED FREE ENERGY PREDICTED BY IDOCK:   -2.36 KCAL/MOL
REMARK 922        TOTAL FREE ENERGY PREDICTED BY IDOCK:   -3.27 KCAL/MOL
REMARK 923 INTER-LIGAND FREE ENERGY PREDICTED BY IDOCK:   -3.17 KCAL/MOL
REMARK 924 INTRA-LIGAND FREE ENERGY PREDICTED BY IDOCK:   -0.11 KCAL/MOL
REMARK 927      BINDING AFFINITY PREDICTED BY RF-SCORE:    0.00 PKD
ROOT
HETATM    1  N   UNL     1     -12.415   8.029  72.633  1.00  0.00    -0.593 NA 
HETATM    2  C   UNL     1     -10.983   8.261  72.494  1.00  0.00    -0.354 C  
HETATM    3  H2  UNL     1     -12.830   7.687  71.765  1.00  0.00     0.000 HD 
HETATM    4  H1  UNL     1     -12.602   7.403  73.416  1.00  0.00     0.000 HD 
ENDROOT
BRANCH   2   5
HETATM    5  C   UNL     1     -10.702   9.200  71.322  1.00  0.00    -0.401 C  
BRANCH   5   6
HETATM    6  C   UNL     1     -10.983   8.498  69.993  1.00  0.00    -0.196 C  
BRANCH   6   7
HETATM    7  N   UNL     1     -11.210   9.490  68.945  1.00  0.00    -0.457 NA 
HETATM    8  H   UNL     1     -11.069  10.440  69.289  1.00  0.00     0.000 HD 
BRANCH   7   9
HETATM    9  C   UNL     1     -10.380   9.214  67.768  1.00  0.00    -0.245 C  
BRANCH   9  10
HETATM   10  C   UNL     1     -10.341   7.717  67.454  1.00  0.00    -0.284 C  
BRANCH  10  11
HETATM   11  S   UNL     1      -8.667   7.017  67.624  1.00  0.00    -0.120 SA 
HETATM   12  P   UNL     1      -8.808   5.398  66.354  1.00  0.00    -0.130 P  
HETATM   13  O   UNL     1      -7.472   4.521  66.461  1.00  0.00    -0.080 OA 
HETATM   14  O   UNL     1     -10.046   4.594  66.589  1.00  0.00    -0.218 OA 
HETATM   15  O   UNL     1      -8.702   5.893  64.838  1.00  0.00    -0.090 OA 
ENDBRANCH  10  11
ENDBRANCH   9  10
ENDBRANCH   7   9
ENDBRANCH   6   7
ENDBRANCH   5   6
ENDBRANCH   2   5
TORSDOF 6
ENDMDL
MODEL      248
REMARK 921   NORMALIZED FREE ENERGY PREDICTED BY IDOCK:   -2.36 KCAL/MOL
REMARK 922        TOTAL FREE ENERGY PREDICTED BY IDOCK:   -3.27 KCAL/MOL
REMARK 923 INTER-LIGAND FREE ENERGY PREDICTED BY IDOCK:   -2.95 KCAL/MOL
REMARK 924 INTRA-LIGAND FREE ENERGY PREDICTED BY IDOCK:   -0.32 KCAL/MOL
REMARK 927      BINDING AFFINITY PREDICTED BY RF-SCORE:    0.00 PKD
ROOT
HETATM    1  N   UNL     1      -6.984  12.703  69.518  1.00  0.00    -0.334 NA 
HETATM    2  C   UNL     1      -7.563  11.561  68.822  1.00  0.00    -0.129 C  
HETATM    3  H2  UNL     1      -7.692  13.241  70.020  1.00  0.00     0.000 HD 
HETATM    4  H1  UNL     1      -6.230  12.402  70.135  1.00  0.00     0.000 HD 
ENDROOT
BRANCH   2   5
HETATM    5  C   UNL     1      -8.692  12.012  67.898  1.00  0.00    -0.170 C  
BRANCH   5   6
HETATM    6  C   UNL     1      -8.936  13.515  68.042  1.00  0.00    -0.189 C  
BRANCH   6   7
HETATM    7  N   UNL     1      -8.342  14.225  66.911  1.00  0.00    -0.400 NA 
HETATM    8  H   UNL     1      -8.188  13.604  66.117  1.00  0.00     0.000 HD 
BRANCH   7   9
HETATM    9  C   UNL     1      -9.151  15.390  66.537  1.00  0.00    -0.300 C  
BRANCH   9  10
HETATM   10  C   UNL     1      -8.270  16.606  66.242  1.00  0.00    -0.330 C  
BRANCH  10  11
HETATM   11  S   UNL     1      -8.192  17.762  67.649  1.00  0.00    -0.234 SA 
HETATM   12  P   UNL     1      -6.653  18.991  67.038  1.00  0.00    -0.195 P  
HETATM   13  O   UNL     1      -6.293  20.016  68.215  1.00  0.00    -0.249 OA 
HETATM   14  O   UNL     1      -5.464  18.223  66.559  1.00  0.00    -0.135 OA 
HETATM   15  O   UNL     1      -7.187  20.010  65.928  1.00  0.00    -0.286 OA 
ENDBRANCH  10  11
ENDBRANCH   9  10
ENDBRANCH   7   9
ENDBRANCH   6   7
ENDBRANCH   5   6
ENDBRANCH   2   5
TORSDOF 6
ENDMDL
MODEL      249
REMARK 921   NORMALIZED FREE ENERGY PREDICTED BY IDOCK:   -2.36 KCAL/MOL
REMARK 922        TOTAL FREE ENERGY PREDICTED BY IDOCK:   -3.26 KCAL/MOL
REMARK 923 INTER-LIGAND FREE ENERGY PREDICTED BY IDOCK:   -2.87 KCAL/MOL
REMARK 924 INTRA-LIGAND FREE ENERGY PREDICTED BY IDOCK:   -0.39 KCAL/MOL
REMARK 927      BINDING AFFINITY PREDICTED BY RF-SCORE:    0.00 PKD
ROOT
HETATM    1  N   UNL     1      -8.179  11.825  66.037  1.00  0.00    -0.370 NA 
HETATM    2  C   UNL     1      -9.588  12.179  66.161  1.00  0.00    -0.240 C  
HETATM    3  H2  UNL     1      -7.903  11.701  65.063  1.00  0.00     0.000 HD 
HETATM    4  H1  UNL     1      -7.594  12.513  66.512  1.00  0.00     0.000 HD 
ENDROOT
BRANCH   2   5
HETATM    5  C   UNL     1     -10.464  11.149  65.450  1.00  0.00    -0.321 C  
BRANCH   5   6
HETATM    6  C   UNL     1      -9.623   9.961  64.981  1.00  0.00    -0.297 C  
BRANCH   6   7
HETATM    7  N   UNL     1      -9.286   9.111  66.120  1.00  0.00    -0.187 NA 
HETATM    8  H   UNL     1      -8.697   9.602  66.794  1.00  0.00     0.000 HD 
BRANCH   7   9
HETATM    9  C   UNL     1     -10.494   8.571  66.752  1.00  0.00    -0.238 C  
BRANCH   9  10
HETATM   10  C   UNL     1     -10.531   8.893  68.247  1.00  0.00    -0.195 C  
BRANCH  10  11
HETATM   11  S   UNL     1     -10.416   7.395  69.280  1.00  0.00    -0.215 SA 
HETATM   12  P   UNL     1      -9.658   8.200  71.021  1.00  0.00    -0.171 P  
HETATM   13  O   UNL     1      -9.320   7.019  72.049  1.00  0.00    -0.141 OA 
HETATM   14  O   UNL     1      -8.490   9.100  70.773  1.00  0.00    -0.184 OA 
HETATM   15  O   UNL     1     -10.823   8.947  71.820  1.00  0.00    -0.317 OA 
ENDBRANCH  10  11
ENDBRANCH   9  10
ENDBRANCH   7   9
ENDBRANCH   6   7
ENDBRANCH   5   6
ENDBRANCH   2   5
TORSDOF 6
ENDMDL
MODEL      250
REMARK 921   NORMALIZED FREE ENERGY PREDICTED BY IDOCK:   -2.35 KCAL/MOL
REMARK 922        TOTAL FREE ENERGY PREDICTED BY IDOCK:   -3.26 KCAL/MOL
REMARK 923 INTER-LIGAND FREE ENERGY PREDICTED BY IDOCK:   -3.08 KCAL/MOL
REMARK 924 INTRA-LIGAND FREE ENERGY PREDICTED BY IDOCK:   -0.18 KCAL/MOL
REMARK 927      BINDING AFFINITY PREDICTED BY RF-SCORE:    0.00 PKD
ROOT
HETATM    1  N   UNL     1      -9.377  10.396  69.712  1.00  0.00    -0.411 NA 
HETATM    2  C   UNL     1      -7.979  10.510  69.317  1.00  0.00    -0.154 C  
HETATM    3  H2  UNL     1      -9.933   9.913  69.005  1.00  0.00     0.000 HD 
HETATM    4  H1  UNL     1      -9.457   9.950  70.625  1.00  0.00     0.000 HD 
ENDROOT
BRANCH   2   5
HETATM    5  C   UNL     1      -7.860  11.178  67.949  1.00  0.00    -0.111 C  
BRANCH   5   6
HETATM    6  C   UNL     1      -6.708  12.183  67.940  1.00  0.00    -0.085 C  
BRANCH   6   7
HETATM    7  N   UNL     1      -7.029  13.300  67.054  1.00  0.00    -0.401 NA 
HETATM    8  H   UNL     1      -7.678  13.021  66.318  1.00  0.00     0.000 HD 
BRANCH   7   9
HETATM    9  C   UNL     1      -7.534  14.447  67.815  1.00  0.00    -0.170 C  
BRANCH   9  10
HETATM   10  C   UNL     1      -9.031  14.655  67.578  1.00  0.00    -0.190 C  
BRANCH  10  11
HETATM   11  S   UNL     1      -9.362  15.739  66.151  1.00  0.00    -0.354 SA 
HETATM   12  P   UNL     1      -9.028  17.589  67.001  1.00  0.00    -0.254 P  
HETATM   13  O   UNL     1      -9.417  18.734  65.952  1.00  0.00    -0.470 OA 
HETATM   14  O   UNL     1      -9.725  17.748  68.314  1.00  0.00    -0.290 OA 
HETATM   15  O   UNL     1      -7.455  17.845  67.131  1.00  0.00    -0.189 OA 
ENDBRANCH  10  11
ENDBRANCH   9  10
ENDBRANCH   7   9
ENDBRANCH   6   7
ENDBRANCH   5   6
ENDBRANCH   2   5
TORSDOF 6
ENDMDL
MODEL      251
REMARK 921   NORMALIZED FREE ENERGY PREDICTED BY IDOCK:   -2.35 KCAL/MOL
REMARK 922        TOTAL FREE ENERGY PREDICTED BY IDOCK:   -3.26 KCAL/MOL
REMARK 923 INTER-LIGAND FREE ENERGY PREDICTED BY IDOCK:   -3.08 KCAL/MOL
REMARK 924 INTRA-LIGAND FREE ENERGY PREDICTED BY IDOCK:   -0.18 KCAL/MOL
REMARK 927      BINDING AFFINITY PREDICTED BY RF-SCORE:    0.00 PKD
ROOT
HETATM    1  N   UNL     1     -11.894  15.571  63.838  1.00  0.00    -0.946 NA 
HETATM    2  C   UNL     1     -12.565  14.290  64.022  1.00  0.00     0.038 C  
HETATM    3  H2  UNL     1     -10.984  15.462  63.390  1.00  0.00     0.000 HD 
HETATM    4  H1  UNL     1     -12.494  16.219  63.328  1.00  0.00     0.000 HD 
ENDROOT
BRANCH   2   5
HETATM    5  C   UNL     1     -11.667  13.319  64.787  1.00  0.00    -0.390 C  
BRANCH   5   6
HETATM    6  C   UNL     1     -10.731  14.081  65.726  1.00  0.00    -0.293 C  
BRANCH   6   7
HETATM    7  N   UNL     1     -10.511  13.304  66.945  1.00  0.00    -0.260 NA 
HETATM    8  H   UNL     1     -11.384  13.126  67.440  1.00  0.00     0.000 HD 
BRANCH   7   9
HETATM    9  C   UNL     1      -9.790  12.060  66.654  1.00  0.00    -0.204 C  
BRANCH   9  10
HETATM   10  C   UNL     1      -9.044  11.549  67.887  1.00  0.00    -0.167 C  
BRANCH  10  11
HETATM   11  S   UNL     1      -8.120  10.014  67.550  1.00  0.00    -0.110 SA 
HETATM   12  P   UNL     1      -9.594   8.610  67.885  1.00  0.00    -0.159 P  
HETATM   13  O   UNL     1      -8.959   7.143  67.797  1.00  0.00    -0.123 OA 
HETATM   14  O   UNL     1     -10.327   8.846  69.166  1.00  0.00    -0.212 OA 
HETATM   15  O   UNL     1     -10.587   8.565  66.634  1.00  0.00    -0.255 OA 
ENDBRANCH  10  11
ENDBRANCH   9  10
ENDBRANCH   7   9
ENDBRANCH   6   7
ENDBRANCH   5   6
ENDBRANCH   2   5
TORSDOF 6
ENDMDL
MODEL      252
REMARK 921   NORMALIZED FREE ENERGY PREDICTED BY IDOCK:   -2.35 KCAL/MOL
REMARK 922        TOTAL FREE ENERGY PREDICTED BY IDOCK:   -3.26 KCAL/MOL
REMARK 923 INTER-LIGAND FREE ENERGY PREDICTED BY IDOCK:   -3.08 KCAL/MOL
REMARK 924 INTRA-LIGAND FREE ENERGY PREDICTED BY IDOCK:   -0.18 KCAL/MOL
REMARK 927      BINDING AFFINITY PREDICTED BY RF-SCORE:    0.00 PKD
ROOT
HETATM    1  N   UNL     1      -9.578   3.422  69.692  1.00  0.00    -0.146 NA 
HETATM    2  C   UNL     1      -9.431   4.790  70.173  1.00  0.00    -0.175 C  
HETATM    3  H2  UNL     1      -9.611   3.381  68.672  1.00  0.00     0.000 HD 
HETATM    4  H1  UNL     1      -8.841   2.828  70.071  1.00  0.00     0.000 HD 
ENDROOT
BRANCH   2   5
HETATM    5  C   UNL     1     -10.534   5.681  69.605  1.00  0.00    -0.374 C  
BRANCH   5   6
HETATM    6  C   UNL     1     -10.355   7.124  70.075  1.00  0.00    -0.208 C  
BRANCH   6   7
HETATM    7  N   UNL     1     -10.757   8.046  69.014  1.00  0.00    -0.392 NA 
HETATM    8  H   UNL     1     -10.295   8.950  69.107  1.00  0.00     0.000 HD 
BRANCH   7   9
HETATM    9  C   UNL     1     -10.531   7.457  67.690  1.00  0.00    -0.241 C  
BRANCH   9  10
HETATM   10  C   UNL     1      -9.940   8.481  66.720  1.00  0.00    -0.281 C  
BRANCH  10  11
HETATM   11  S   UNL     1     -10.411  10.189  67.146  1.00  0.00    -0.239 SA 
HETATM   12  P   UNL     1      -9.749  11.189  65.468  1.00  0.00    -0.252 P  
HETATM   13  O   UNL     1      -9.920  12.766  65.687  1.00  0.00    -0.269 OA 
HETATM   14  O   UNL     1      -8.354  10.808  65.089  1.00  0.00    -0.152 OA 
HETATM   15  O   UNL     1     -10.775  10.957  64.264  1.00  0.00    -0.353 OA 
ENDBRANCH  10  11
ENDBRANCH   9  10
ENDBRANCH   7   9
ENDBRANCH   6   7
ENDBRANCH   5   6
ENDBRANCH   2   5
TORSDOF 6
ENDMDL
MODEL      253
REMARK 921   NORMALIZED FREE ENERGY PREDICTED BY IDOCK:   -2.32 KCAL/MOL
REMARK 922        TOTAL FREE ENERGY PREDICTED BY IDOCK:   -3.22 KCAL/MOL
REMARK 923 INTER-LIGAND FREE ENERGY PREDICTED BY IDOCK:   -2.81 KCAL/MOL
REMARK 924 INTRA-LIGAND FREE ENERGY PREDICTED BY IDOCK:   -0.41 KCAL/MOL
REMARK 927      BINDING AFFINITY PREDICTED BY RF-SCORE:    0.00 PKD
ROOT
HETATM    1  N   UNL     1     -12.667   6.438  72.275  1.00  0.00    -0.540 NA 
HETATM    2  C   UNL     1     -11.253   6.338  72.617  1.00  0.00    -0.267 C  
HETATM    3  H2  UNL     1     -12.932   5.764  71.557  1.00  0.00     0.000 HD 
HETATM    4  H1  UNL     1     -13.244   6.348  73.111  1.00  0.00     0.000 HD 
ENDROOT
BRANCH   2   5
HETATM    5  C   UNL     1     -10.388   6.473  71.365  1.00  0.00    -0.234 C  
BRANCH   5   6
HETATM    6  C   UNL     1     -11.087   5.844  70.159  1.00  0.00    -0.325 C  
BRANCH   6   7
HETATM    7  N   UNL     1     -11.537   6.890  69.244  1.00  0.00    -0.581 NA 
HETATM    8  H   UNL     1     -12.551   6.997  69.265  1.00  0.00     0.000 HD 
BRANCH   7   9
HETATM    9  C   UNL     1     -10.854   8.159  69.517  1.00  0.00    -0.121 C  
BRANCH   9  10
HETATM   10  C   UNL     1     -10.090   8.655  68.289  1.00  0.00    -0.192 C  
BRANCH  10  11
HETATM   11  S   UNL     1      -9.450  10.347  68.508  1.00  0.00    -0.166 SA 
HETATM   12  P   UNL     1      -7.616   9.945  69.362  1.00  0.00    -0.146 P  
HETATM   13  O   UNL     1      -6.919  11.320  69.796  1.00  0.00    -0.106 OA 
HETATM   14  O   UNL     1      -7.712   8.966  70.488  1.00  0.00    -0.078 OA 
HETATM   15  O   UNL     1      -6.595   9.453  68.235  1.00  0.00    -0.057 OA 
ENDBRANCH  10  11
ENDBRANCH   9  10
ENDBRANCH   7   9
ENDBRANCH   6   7
ENDBRANCH   5   6
ENDBRANCH   2   5
TORSDOF 6
ENDMDL
MODEL      254
REMARK 921   NORMALIZED FREE ENERGY PREDICTED BY IDOCK:   -2.30 KCAL/MOL
REMARK 922        TOTAL FREE ENERGY PREDICTED BY IDOCK:   -3.19 KCAL/MOL
REMARK 923 INTER-LIGAND FREE ENERGY PREDICTED BY IDOCK:   -2.71 KCAL/MOL
REMARK 924 INTRA-LIGAND FREE ENERGY PREDICTED BY IDOCK:   -0.49 KCAL/MOL
REMARK 927      BINDING AFFINITY PREDICTED BY RF-SCORE:    0.00 PKD
ROOT
HETATM    1  N   UNL     1     -12.414  10.582  69.075  1.00  0.00    -0.672 NA 
HETATM    2  C   UNL     1     -12.535  10.528  70.526  1.00  0.00    -0.347 C  
HETATM    3  H2  UNL     1     -12.558   9.667  68.647  1.00  0.00     0.000 HD 
HETATM    4  H1  UNL     1     -13.044  11.285  68.688  1.00  0.00     0.000 HD 
ENDROOT
BRANCH   2   5
HETATM    5  C   UNL     1     -11.590   9.477  71.105  1.00  0.00    -0.439 C  
BRANCH   5   6
HETATM    6  C   UNL     1     -11.785   8.134  70.400  1.00  0.00     0.011 C  
BRANCH   6   7
HETATM    7  N   UNL     1     -10.735   7.939  69.403  1.00  0.00    -0.345 NA 
HETATM    8  H   UNL     1      -9.820   7.821  69.839  1.00  0.00     0.000 HD 
BRANCH   7   9
HETATM    9  C   UNL     1     -11.056   6.820  68.510  1.00  0.00    -0.142 C  
BRANCH   9  10
HETATM   10  C   UNL     1      -9.803   6.290  67.811  1.00  0.00    -0.121 C  
BRANCH  10  11
HETATM   11  S   UNL     1      -9.391   4.590  68.323  1.00  0.00    -0.150 SA 
HETATM   12  P   UNL     1      -8.914   4.903  70.306  1.00  0.00    -0.117 P  
HETATM   13  O   UNL     1      -8.357   3.542  70.939  1.00  0.00    -0.064 OA 
HETATM   14  O   UNL     1      -7.975   6.052  70.492  1.00  0.00    -0.106 OA 
HETATM   15  O   UNL     1     -10.252   5.087  71.159  1.00  0.00    -0.213 OA 
ENDBRANCH  10  11
ENDBRANCH   9  10
ENDBRANCH   7   9
ENDBRANCH   6   7
ENDBRANCH   5   6
ENDBRANCH   2   5
TORSDOF 6
ENDMDL
MODEL      255
REMARK 921   NORMALIZED FREE ENERGY PREDICTED BY IDOCK:   -2.29 KCAL/MOL
REMARK 922        TOTAL FREE ENERGY PREDICTED BY IDOCK:   -3.18 KCAL/MOL
REMARK 923 INTER-LIGAND FREE ENERGY PREDICTED BY IDOCK:   -3.04 KCAL/MOL
REMARK 924 INTRA-LIGAND FREE ENERGY PREDICTED BY IDOCK:   -0.14 KCAL/MOL
REMARK 927      BINDING AFFINITY PREDICTED BY RF-SCORE:    0.00 PKD
ROOT
HETATM    1  N   UNL     1     -11.893   9.985  70.949  1.00  0.00    -0.339 NA 
HETATM    2  C   UNL     1     -10.994   9.240  70.076  1.00  0.00    -0.229 C  
HETATM    3  H2  UNL     1     -12.719  10.317  70.450  1.00  0.00     0.000 HD 
HETATM    4  H1  UNL     1     -12.142   9.428  71.766  1.00  0.00     0.000 HD 
ENDROOT
BRANCH   2   5
HETATM    5  C   UNL     1     -10.621  10.075  68.852  1.00  0.00    -0.239 C  
BRANCH   5   6
HETATM    6  C   UNL     1      -9.226  10.678  69.019  1.00  0.00    -0.167 C  
BRANCH   6   7
HETATM    7  N   UNL     1      -9.302  12.135  68.936  1.00  0.00    -0.393 NA 
HETATM    8  H   UNL     1      -9.312  12.564  69.862  1.00  0.00     0.000 HD 
BRANCH   7   9
HETATM    9  C   UNL     1      -8.222  12.673  68.103  1.00  0.00    -0.170 C  
BRANCH   9  10
HETATM   10  C   UNL     1      -8.468  14.141  67.753  1.00  0.00    -0.178 C  
BRANCH  10  11
HETATM   11  S   UNL     1      -9.190  14.345  66.092  1.00  0.00    -0.016 SA 
HETATM   12  P   UNL     1     -10.254  16.092  66.359  1.00  0.00    -0.332 P  
HETATM   13  O   UNL     1     -11.118  16.394  65.045  1.00  0.00    -0.405 OA 
HETATM   14  O   UNL     1     -11.085  16.070  67.602  1.00  0.00    -0.317 OA 
HETATM   15  O   UNL     1      -9.256  17.339  66.335  1.00  0.00    -0.255 OA 
ENDBRANCH  10  11
ENDBRANCH   9  10
ENDBRANCH   7   9
ENDBRANCH   6   7
ENDBRANCH   5   6
ENDBRANCH   2   5
TORSDOF 6
ENDMDL
MODEL      256
REMARK 921   NORMALIZED FREE ENERGY PREDICTED BY IDOCK:   -2.29 KCAL/MOL
REMARK 922        TOTAL FREE ENERGY PREDICTED BY IDOCK:   -3.17 KCAL/MOL
REMARK 923 INTER-LIGAND FREE ENERGY PREDICTED BY IDOCK:   -3.49 KCAL/MOL
REMARK 924 INTRA-LIGAND FREE ENERGY PREDICTED BY IDOCK:    0.31 KCAL/MOL
REMARK 927      BINDING AFFINITY PREDICTED BY RF-SCORE:    0.00 PKD
ROOT
HETATM    1  N   UNL     1      -9.894  16.149  66.855  1.00  0.00    -0.235 NA 
HETATM    2  C   UNL     1     -10.341  16.949  65.722  1.00  0.00    -0.283 C  
HETATM    3  H2  UNL     1      -9.327  15.354  66.559  1.00  0.00     0.000 HD 
HETATM    4  H1  UNL     1      -9.404  16.732  67.534  1.00  0.00     0.000 HD 
ENDROOT
BRANCH   2   5
HETATM    5  C   UNL     1     -11.075  16.076  64.705  1.00  0.00    -0.378 C  
BRANCH   5   6
HETATM    6  C   UNL     1     -11.263  14.660  65.251  1.00  0.00    -0.358 C  
BRANCH   6   7
HETATM    7  N   UNL     1     -10.044  13.882  65.044  1.00  0.00    -0.579 NA 
HETATM    8  H   UNL     1      -9.218  14.479  65.012  1.00  0.00     0.000 HD 
BRANCH   7   9
HETATM    9  C   UNL     1      -9.912  12.830  66.058  1.00  0.00    -0.271 C  
BRANCH   9  10
HETATM   10  C   UNL     1     -11.118  11.889  66.043  1.00  0.00    -0.322 C  
BRANCH  10  11
HETATM   11  S   UNL     1     -11.784  11.591  67.713  1.00  0.00    -0.161 SA 
HETATM   12  P   UNL     1     -11.098  13.271  68.694  1.00  0.00    -0.290 P  
HETATM   13  O   UNL     1     -11.438  13.150  70.254  1.00  0.00    -0.074 OA 
HETATM   14  O   UNL     1      -9.648  13.529  68.438  1.00  0.00    -0.217 OA 
HETATM   15  O   UNL     1     -12.003  14.529  68.303  1.00  0.00    -0.320 OA 
ENDBRANCH  10  11
ENDBRANCH   9  10
ENDBRANCH   7   9
ENDBRANCH   6   7
ENDBRANCH   5   6
ENDBRANCH   2   5
TORSDOF 6
ENDMDL
MODEL      257
REMARK 921   NORMALIZED FREE ENERGY PREDICTED BY IDOCK:   -2.28 KCAL/MOL
REMARK 922        TOTAL FREE ENERGY PREDICTED BY IDOCK:   -3.16 KCAL/MOL
REMARK 923 INTER-LIGAND FREE ENERGY PREDICTED BY IDOCK:   -3.01 KCAL/MOL
REMARK 924 INTRA-LIGAND FREE ENERGY PREDICTED BY IDOCK:   -0.14 KCAL/MOL
REMARK 927      BINDING AFFINITY PREDICTED BY RF-SCORE:    0.00 PKD
ROOT
HETATM    1  N   UNL     1      -8.448   6.549  72.175  1.00  0.00    -0.114 NA 
HETATM    2  C   UNL     1      -8.461   7.329  70.944  1.00  0.00    -0.128 C  
HETATM    3  H2  UNL     1      -9.250   6.764  72.769  1.00  0.00     0.000 HD 
HETATM    4  H1  UNL     1      -8.387   5.552  71.968  1.00  0.00     0.000 HD 
ENDROOT
BRANCH   2   5
HETATM    5  C   UNL     1      -8.552   8.821  71.255  1.00  0.00    -0.258 C  
BRANCH   5   6
HETATM    6  C   UNL     1      -9.916   9.374  70.840  1.00  0.00    -0.283 C  
BRANCH   6   7
HETATM    7  N   UNL     1      -9.746  10.392  69.806  1.00  0.00    -0.416 NA 
HETATM    8  H   UNL     1      -9.085  10.093  69.090  1.00  0.00     0.000 HD 
BRANCH   7   9
HETATM    9  C   UNL     1     -11.038  10.773  69.225  1.00  0.00    -0.256 C  
BRANCH   9  10
HETATM   10  C   UNL     1     -11.066  12.258  68.859  1.00  0.00    -0.242 C  
BRANCH  10  11
HETATM   11  S   UNL     1     -11.626  12.538  67.147  1.00  0.00    -0.366 SA 
HETATM   12  P   UNL     1     -10.090  11.643  66.100  1.00  0.00    -0.244 P  
HETATM   13  O   UNL     1     -10.291  11.906  64.533  1.00  0.00    -0.264 OA 
HETATM   14  O   UNL     1      -8.742  12.069  66.588  1.00  0.00    -0.194 OA 
HETATM   15  O   UNL     1     -10.262  10.055  66.146  1.00  0.00    -0.247 OA 
ENDBRANCH  10  11
ENDBRANCH   9  10
ENDBRANCH   7   9
ENDBRANCH   6   7
ENDBRANCH   5   6
ENDBRANCH   2   5
TORSDOF 6
ENDMDL
MODEL      258
REMARK 921   NORMALIZED FREE ENERGY PREDICTED BY IDOCK:   -2.27 KCAL/MOL
REMARK 922        TOTAL FREE ENERGY PREDICTED BY IDOCK:   -3.16 KCAL/MOL
REMARK 923 INTER-LIGAND FREE ENERGY PREDICTED BY IDOCK:   -2.86 KCAL/MOL
REMARK 924 INTRA-LIGAND FREE ENERGY PREDICTED BY IDOCK:   -0.29 KCAL/MOL
REMARK 927      BINDING AFFINITY PREDICTED BY RF-SCORE:    0.00 PKD
ROOT
HETATM    1  N   UNL     1      -6.701  15.214  70.016  1.00  0.00    -0.163 NA 
HETATM    2  C   UNL     1      -6.351  14.082  69.167  1.00  0.00    -0.108 C  
HETATM    3  H2  UNL     1      -7.630  15.109  70.424  1.00  0.00     0.000 HD 
HETATM    4  H1  UNL     1      -5.988  15.359  70.731  1.00  0.00     0.000 HD 
ENDROOT
BRANCH   2   5
HETATM    5  C   UNL     1      -7.419  13.864  68.097  1.00  0.00    -0.126 C  
BRANCH   5   6
HETATM    6  C   UNL     1      -8.096  12.506  68.282  1.00  0.00    -0.165 C  
BRANCH   6   7
HETATM    7  N   UNL     1      -9.525  12.692  68.523  1.00  0.00    -0.377 NA 
HETATM    8  H   UNL     1      -9.820  12.250  69.393  1.00  0.00     0.000 HD 
BRANCH   7   9
HETATM    9  C   UNL     1      -9.885  14.113  68.490  1.00  0.00    -0.230 C  
BRANCH   9  10
HETATM   10  C   UNL     1     -10.710  14.449  67.246  1.00  0.00    -0.285 C  
BRANCH  10  11
HETATM   11  S   UNL     1     -11.780  13.065  66.732  1.00  0.00    -0.388 SA 
HETATM   12  P   UNL     1     -10.840  12.494  64.987  1.00  0.00    -0.318 P  
HETATM   13  O   UNL     1     -11.712  11.366  64.258  1.00  0.00    -0.159 OA 
HETATM   14  O   UNL     1     -10.537  13.655  64.095  1.00  0.00    -0.320 OA 
HETATM   15  O   UNL     1      -9.524  11.656  65.335  1.00  0.00    -0.224 OA 
ENDBRANCH  10  11
ENDBRANCH   9  10
ENDBRANCH   7   9
ENDBRANCH   6   7
ENDBRANCH   5   6
ENDBRANCH   2   5
TORSDOF 6
ENDMDL
MODEL      259
REMARK 921   NORMALIZED FREE ENERGY PREDICTED BY IDOCK:   -2.27 KCAL/MOL
REMARK 922        TOTAL FREE ENERGY PREDICTED BY IDOCK:   -3.15 KCAL/MOL
REMARK 923 INTER-LIGAND FREE ENERGY PREDICTED BY IDOCK:   -2.93 KCAL/MOL
REMARK 924 INTRA-LIGAND FREE ENERGY PREDICTED BY IDOCK:   -0.21 KCAL/MOL
REMARK 927      BINDING AFFINITY PREDICTED BY RF-SCORE:    0.00 PKD
ROOT
HETATM    1  N   UNL     1     -11.441  12.613  63.094  1.00  0.00    -0.788 NA 
HETATM    2  C   UNL     1     -12.483  12.556  64.112  1.00  0.00    -0.430 C  
HETATM    3  H2  UNL     1     -10.532  12.846  63.495  1.00  0.00     0.000 HD 
HETATM    4  H1  UNL     1     -11.410  11.743  62.564  1.00  0.00     0.000 HD 
ENDROOT
BRANCH   2   5
HETATM    5  C   UNL     1     -12.530  13.860  64.906  1.00  0.00    -0.420 C  
BRANCH   5   6
HETATM    6  C   UNL     1     -11.972  13.651  66.314  1.00  0.00    -0.423 C  
BRANCH   6   7
HETATM    7  N   UNL     1     -10.635  14.233  66.409  1.00  0.00    -0.283 NA 
HETATM    8  H   UNL     1     -10.632  15.077  66.981  1.00  0.00     0.000 HD 
BRANCH   7   9
HETATM    9  C   UNL     1      -9.664  13.247  66.896  1.00  0.00    -0.248 C  
BRANCH   9  10
HETATM   10  C   UNL     1      -9.388  13.429  68.389  1.00  0.00    -0.165 C  
BRANCH  10  11
HETATM   11  S   UNL     1      -7.761  14.189  68.704  1.00  0.00    -0.124 SA 
HETATM   12  P   UNL     1      -6.621  12.503  69.040  1.00  0.00    -0.079 P  
HETATM   13  O   UNL     1      -5.151  12.939  69.502  1.00  0.00    -0.074 OA 
HETATM   14  O   UNL     1      -7.269  11.557  70.000  1.00  0.00     0.162 OA 
HETATM   15  O   UNL     1      -6.283  11.795  67.647  1.00  0.00    -0.061 OA 
ENDBRANCH  10  11
ENDBRANCH   9  10
ENDBRANCH   7   9
ENDBRANCH   6   7
ENDBRANCH   5   6
ENDBRANCH   2   5
TORSDOF 6
ENDMDL
MODEL      260
REMARK 921   NORMALIZED FREE ENERGY PREDICTED BY IDOCK:   -2.26 KCAL/MOL
REMARK 922        TOTAL FREE ENERGY PREDICTED BY IDOCK:   -3.14 KCAL/MOL
REMARK 923 INTER-LIGAND FREE ENERGY PREDICTED BY IDOCK:   -2.97 KCAL/MOL
REMARK 924 INTRA-LIGAND FREE ENERGY PREDICTED BY IDOCK:   -0.18 KCAL/MOL
REMARK 927      BINDING AFFINITY PREDICTED BY RF-SCORE:    0.00 PKD
ROOT
HETATM    1  N   UNL     1      -8.825   7.276  67.021  1.00  0.00    -0.125 NA 
HETATM    2  C   UNL     1      -8.832   8.189  68.158  1.00  0.00    -0.132 C  
HETATM    3  H2  UNL     1      -9.255   7.693  66.196  1.00  0.00     0.000 HD 
HETATM    4  H1  UNL     1      -7.877   6.949  66.830  1.00  0.00     0.000 HD 
ENDROOT
BRANCH   2   5
HETATM    5  C   UNL     1     -10.250   8.677  68.444  1.00  0.00    -0.232 C  
BRANCH   5   6
HETATM    6  C   UNL     1     -10.566   8.563  69.936  1.00  0.00    -0.228 C  
BRANCH   6   7
HETATM    7  N   UNL     1     -11.899   9.099  70.204  1.00  0.00    -0.460 NA 
HETATM    8  H   UNL     1     -12.403   8.530  70.883  1.00  0.00     0.000 HD 
BRANCH   7   9
HETATM    9  C   UNL     1     -11.828  10.503  70.621  1.00  0.00    -0.360 C  
BRANCH   9  10
HETATM   10  C   UNL     1     -12.347  11.435  69.524  1.00  0.00    -0.145 C  
BRANCH  10  11
HETATM   11  S   UNL     1     -11.365  12.966  69.396  1.00  0.00    -0.154 SA 
HETATM   12  P   UNL     1     -11.021  13.020  67.363  1.00  0.00    -0.278 P  
HETATM   13  O   UNL     1     -10.022  14.225  67.024  1.00  0.00    -0.250 OA 
HETATM   14  O   UNL     1     -10.543  11.707  66.829  1.00  0.00    -0.225 OA 
HETATM   15  O   UNL     1     -12.337  13.522  66.608  1.00  0.00    -0.376 OA 
ENDBRANCH  10  11
ENDBRANCH   9  10
ENDBRANCH   7   9
ENDBRANCH   6   7
ENDBRANCH   5   6
ENDBRANCH   2   5
TORSDOF 6
ENDMDL
MODEL      261
REMARK 921   NORMALIZED FREE ENERGY PREDICTED BY IDOCK:   -2.26 KCAL/MOL
REMARK 922        TOTAL FREE ENERGY PREDICTED BY IDOCK:   -3.14 KCAL/MOL
REMARK 923 INTER-LIGAND FREE ENERGY PREDICTED BY IDOCK:   -2.92 KCAL/MOL
REMARK 924 INTRA-LIGAND FREE ENERGY PREDICTED BY IDOCK:   -0.22 KCAL/MOL
REMARK 927      BINDING AFFINITY PREDICTED BY RF-SCORE:    0.00 PKD
ROOT
HETATM    1  N   UNL     1      -9.991   5.797  73.052  1.00  0.00    -0.171 NA 
HETATM    2  C   UNL     1     -10.596   7.013  73.580  1.00  0.00    -0.368 C  
HETATM    3  H2  UNL     1      -9.530   5.960  72.156  1.00  0.00     0.000 HD 
HETATM    4  H1  UNL     1      -9.356   5.386  73.736  1.00  0.00     0.000 HD 
ENDROOT
BRANCH   2   5
HETATM    5  C   UNL     1     -11.547   7.628  72.555  1.00  0.00    -0.382 C  
BRANCH   5   6
HETATM    6  C   UNL     1     -10.765   8.404  71.494  1.00  0.00    -0.247 C  
BRANCH   6   7
HETATM    7  N   UNL     1     -11.429   8.279  70.198  1.00  0.00    -0.465 NA 
HETATM    8  H   UNL     1     -11.651   9.192  69.801  1.00  0.00     0.000 HD 
BRANCH   7   9
HETATM    9  C   UNL     1     -10.632   7.467  69.273  1.00  0.00    -0.213 C  
BRANCH   9  10
HETATM   10  C   UNL     1     -11.132   6.022  69.231  1.00  0.00    -0.354 C  
BRANCH  10  11
HETATM   11  S   UNL     1      -9.855   4.832  69.758  1.00  0.00    -0.226 SA 
HETATM   12  P   UNL     1      -8.894   4.496  67.963  1.00  0.00    -0.118 P  
HETATM   13  O   UNL     1      -7.805   3.338  68.153  1.00  0.00    -0.063 OA 
HETATM   14  O   UNL     1      -9.849   4.214  66.848  1.00  0.00    -0.216 OA 
HETATM   15  O   UNL     1      -7.938   5.732  67.626  1.00  0.00    -0.101 OA 
ENDBRANCH  10  11
ENDBRANCH   9  10
ENDBRANCH   7   9
ENDBRANCH   6   7
ENDBRANCH   5   6
ENDBRANCH   2   5
TORSDOF 6
ENDMDL
MODEL      262
REMARK 921   NORMALIZED FREE ENERGY PREDICTED BY IDOCK:   -2.26 KCAL/MOL
REMARK 922        TOTAL FREE ENERGY PREDICTED BY IDOCK:   -3.13 KCAL/MOL
REMARK 923 INTER-LIGAND FREE ENERGY PREDICTED BY IDOCK:   -2.59 KCAL/MOL
REMARK 924 INTRA-LIGAND FREE ENERGY PREDICTED BY IDOCK:   -0.55 KCAL/MOL
REMARK 927      BINDING AFFINITY PREDICTED BY RF-SCORE:    0.00 PKD
ROOT
HETATM    1  N   UNL     1     -11.394   4.490  73.403  1.00  0.00    -0.318 NA 
HETATM    2  C   UNL     1     -10.099   3.821  73.403  1.00  0.00    -0.135 C  
HETATM    3  H2  UNL     1     -12.075   3.999  72.823  1.00  0.00     0.000 HD 
HETATM    4  H1  UNL     1     -11.731   4.617  74.357  1.00  0.00     0.000 HD 
ENDROOT
BRANCH   2   5
HETATM    5  C   UNL     1      -9.593   3.630  71.974  1.00  0.00    -0.212 C  
BRANCH   5   6
HETATM    6  C   UNL     1      -9.033   4.942  71.424  1.00  0.00    -0.134 C  
BRANCH   6   7
HETATM    7  N   UNL     1     -10.114   5.910  71.251  1.00  0.00    -0.190 NA 
HETATM    8  H   UNL     1      -9.774   6.869  71.322  1.00  0.00     0.000 HD 
BRANCH   7   9
HETATM    9  C   UNL     1     -10.830   5.682  69.991  1.00  0.00    -0.296 C  
BRANCH   9  10
HETATM   10  C   UNL     1     -10.820   6.933  69.112  1.00  0.00    -0.228 C  
BRANCH  10  11
HETATM   11  S   UNL     1      -9.152   7.651  68.949  1.00  0.00    -0.139 SA 
HETATM   12  P   UNL     1      -9.319   9.274  70.211  1.00  0.00    -0.269 P  
HETATM   13  O   UNL     1      -7.992  10.166  70.107  1.00  0.00    -0.160 OA 
HETATM   14  O   UNL     1     -10.564  10.064  69.965  1.00  0.00    -0.257 OA 
HETATM   15  O   UNL     1      -9.216   8.787  71.730  1.00  0.00    -0.248 OA 
ENDBRANCH  10  11
ENDBRANCH   9  10
ENDBRANCH   7   9
ENDBRANCH   6   7
ENDBRANCH   5   6
ENDBRANCH   2   5
TORSDOF 6
ENDMDL
MODEL      263
REMARK 921   NORMALIZED FREE ENERGY PREDICTED BY IDOCK:   -2.26 KCAL/MOL
REMARK 922        TOTAL FREE ENERGY PREDICTED BY IDOCK:   -3.13 KCAL/MOL
REMARK 923 INTER-LIGAND FREE ENERGY PREDICTED BY IDOCK:   -3.03 KCAL/MOL
REMARK 924 INTRA-LIGAND FREE ENERGY PREDICTED BY IDOCK:   -0.10 KCAL/MOL
REMARK 927      BINDING AFFINITY PREDICTED BY RF-SCORE:    0.00 PKD
ROOT
HETATM    1  N   UNL     1     -11.554   8.521  72.157  1.00  0.00    -0.357 NA 
HETATM    2  C   UNL     1     -10.349   8.418  71.344  1.00  0.00    -0.222 C  
HETATM    3  H2  UNL     1     -12.140   7.690  72.076  1.00  0.00     0.000 HD 
HETATM    4  H1  UNL     1     -11.315   8.722  73.128  1.00  0.00     0.000 HD 
ENDROOT
BRANCH   2   5
HETATM    5  C   UNL     1     -10.707   8.118  69.890  1.00  0.00    -0.241 C  
BRANCH   5   6
HETATM    6  C   UNL     1     -11.220   6.684  69.748  1.00  0.00    -0.356 C  
BRANCH   6   7
HETATM    7  N   UNL     1     -11.527   6.402  68.348  1.00  0.00    -0.501 NA 
HETATM    8  H   UNL     1     -12.058   7.160  67.919  1.00  0.00     0.000 HD 
BRANCH   7   9
HETATM    9  C   UNL     1     -10.307   6.102  67.591  1.00  0.00    -0.201 C  
BRANCH   9  10
HETATM   10  C   UNL     1     -10.620   5.294  66.330  1.00  0.00    -0.276 C  
BRANCH  10  11
HETATM   11  S   UNL     1      -9.435   3.934  66.069  1.00  0.00    -0.175 SA 
HETATM   12  P   UNL     1      -9.754   3.540  64.069  1.00  0.00    -0.191 P  
HETATM   13  O   UNL     1      -8.914   2.246  63.642  1.00  0.00    -0.089 OA 
HETATM   14  O   UNL     1     -11.206   3.421  63.735  1.00  0.00    -0.280 OA 
HETATM   15  O   UNL     1      -9.031   4.654  63.180  1.00  0.00    -0.140 OA 
ENDBRANCH  10  11
ENDBRANCH   9  10
ENDBRANCH   7   9
ENDBRANCH   6   7
ENDBRANCH   5   6
ENDBRANCH   2   5
TORSDOF 6
ENDMDL
MODEL      264
REMARK 921   NORMALIZED FREE ENERGY PREDICTED BY IDOCK:   -2.25 KCAL/MOL
REMARK 922        TOTAL FREE ENERGY PREDICTED BY IDOCK:   -3.12 KCAL/MOL
REMARK 923 INTER-LIGAND FREE ENERGY PREDICTED BY IDOCK:   -2.91 KCAL/MOL
REMARK 924 INTRA-LIGAND FREE ENERGY PREDICTED BY IDOCK:   -0.22 KCAL/MOL
REMARK 927      BINDING AFFINITY PREDICTED BY RF-SCORE:    0.00 PKD
ROOT
HETATM    1  N   UNL     1      -9.601   9.479  70.814  1.00  0.00    -0.279 NA 
HETATM    2  C   UNL     1      -8.226   9.198  70.422  1.00  0.00    -0.171 C  
HETATM    3  H2  UNL     1     -10.272   9.076  70.159  1.00  0.00     0.000 HD 
HETATM    4  H1  UNL     1      -9.772   9.168  71.770  1.00  0.00     0.000 HD 
ENDROOT
BRANCH   2   5
HETATM    5  C   UNL     1      -7.970   9.665  68.990  1.00  0.00    -0.088 C  
BRANCH   5   6
HETATM    6  C   UNL     1      -7.171  10.968  68.984  1.00  0.00    -0.111 C  
BRANCH   6   7
HETATM    7  N   UNL     1      -7.470  11.729  67.773  1.00  0.00    -0.109 NA 
HETATM    8  H   UNL     1      -6.725  11.642  67.082  1.00  0.00     0.000 HD 
BRANCH   7   9
HETATM    9  C   UNL     1      -8.771  11.344  67.216  1.00  0.00    -0.148 C  
BRANCH   9  10
HETATM   10  C   UNL     1      -9.087  12.133  65.945  1.00  0.00     0.002 C  
BRANCH  10  11
HETATM   11  S   UNL     1     -10.735  11.736  65.275  1.00  0.00    -0.292 SA 
HETATM   12  P   UNL     1     -11.729  13.503  65.657  1.00  0.00    -0.381 P  
HETATM   13  O   UNL     1     -13.277  13.332  65.285  1.00  0.00    -0.625 OA 
HETATM   14  O   UNL     1     -11.522  13.984  67.057  1.00  0.00    -0.318 OA 
HETATM   15  O   UNL     1     -11.299  14.605  64.582  1.00  0.00    -0.387 OA 
ENDBRANCH  10  11
ENDBRANCH   9  10
ENDBRANCH   7   9
ENDBRANCH   6   7
ENDBRANCH   5   6
ENDBRANCH   2   5
TORSDOF 6
ENDMDL
MODEL      265
REMARK 921   NORMALIZED FREE ENERGY PREDICTED BY IDOCK:   -2.24 KCAL/MOL
REMARK 922        TOTAL FREE ENERGY PREDICTED BY IDOCK:   -3.11 KCAL/MOL
REMARK 923 INTER-LIGAND FREE ENERGY PREDICTED BY IDOCK:   -2.27 KCAL/MOL
REMARK 924 INTRA-LIGAND FREE ENERGY PREDICTED BY IDOCK:   -0.84 KCAL/MOL
REMARK 927      BINDING AFFINITY PREDICTED BY RF-SCORE:    0.00 PKD
ROOT
HETATM    1  N   UNL     1      -8.324   4.074  72.162  1.00  0.00    -0.098 NA 
HETATM    2  C   UNL     1      -8.504   4.074  73.608  1.00  0.00    -0.092 C  
HETATM    3  H2  UNL     1      -8.968   4.716  71.699  1.00  0.00     0.000 HD 
HETATM    4  H1  UNL     1      -7.353   4.272  71.921  1.00  0.00     0.000 HD 
ENDROOT
BRANCH   2   5
HETATM    5  C   UNL     1      -9.958   3.776  73.968  1.00  0.00    -0.175 C  
BRANCH   5   6
HETATM    6  C   UNL     1     -10.736   5.075  74.179  1.00  0.00    -0.242 C  
BRANCH   6   7
HETATM    7  N   UNL     1      -9.959   6.206  73.678  1.00  0.00    -0.185 NA 
HETATM    8  H   UNL     1      -9.302   5.919  72.952  1.00  0.00     0.000 HD 
BRANCH   7   9
HETATM    9  C   UNL     1     -10.837   7.286  73.216  1.00  0.00    -0.358 C  
BRANCH   9  10
HETATM   10  C   UNL     1     -11.719   6.827  72.054  1.00  0.00    -0.306 C  
BRANCH  10  11
HETATM   11  S   UNL     1     -11.386   7.755  70.522  1.00  0.00    -0.198 SA 
HETATM   12  P   UNL     1      -9.699   6.775  69.850  1.00  0.00    -0.156 P  
HETATM   13  O   UNL     1      -9.120   7.535  68.565  1.00  0.00    -0.135 OA 
HETATM   14  O   UNL     1      -8.676   6.598  70.925  1.00  0.00    -0.137 OA 
HETATM   15  O   UNL     1     -10.115   5.379  69.192  1.00  0.00    -0.184 OA 
ENDBRANCH  10  11
ENDBRANCH   9  10
ENDBRANCH   7   9
ENDBRANCH   6   7
ENDBRANCH   5   6
ENDBRANCH   2   5
TORSDOF 6
ENDMDL
MODEL      266
REMARK 921   NORMALIZED FREE ENERGY PREDICTED BY IDOCK:   -2.24 KCAL/MOL
REMARK 922        TOTAL FREE ENERGY PREDICTED BY IDOCK:   -3.10 KCAL/MOL
REMARK 923 INTER-LIGAND FREE ENERGY PREDICTED BY IDOCK:   -2.94 KCAL/MOL
REMARK 924 INTRA-LIGAND FREE ENERGY PREDICTED BY IDOCK:   -0.16 KCAL/MOL
REMARK 927      BINDING AFFINITY PREDICTED BY RF-SCORE:    0.00 PKD
ROOT
HETATM    1  N   UNL     1      -8.166  12.305  68.806  1.00  0.00    -0.343 NA 
HETATM    2  C   UNL     1      -7.839  13.494  68.027  1.00  0.00    -0.147 C  
HETATM    3  H2  UNL     1      -8.665  11.612  68.247  1.00  0.00     0.000 HD 
HETATM    4  H1  UNL     1      -7.327  11.915  69.233  1.00  0.00     0.000 HD 
ENDROOT
BRANCH   2   5
HETATM    5  C   UNL     1      -9.096  14.079  67.387  1.00  0.00    -0.209 C  
BRANCH   5   6
HETATM    6  C   UNL     1     -10.096  14.508  68.462  1.00  0.00    -0.242 C  
BRANCH   6   7
HETATM    7  N   UNL     1     -10.640  15.825  68.136  1.00  0.00    -0.266 NA 
HETATM    8  H   UNL     1     -11.463  16.041  68.698  1.00  0.00     0.000 HD 
BRANCH   7   9
HETATM    9  C   UNL     1      -9.613  16.865  68.258  1.00  0.00    -0.258 C  
BRANCH   9  10
HETATM   10  C   UNL     1      -9.377  17.572  66.922  1.00  0.00    -0.269 C  
BRANCH  10  11
HETATM   11  S   UNL     1      -7.606  17.710  66.515  1.00  0.00    -0.289 SA 
HETATM   12  P   UNL     1      -7.014  19.124  67.895  1.00  0.00    -0.237 P  
HETATM   13  O   UNL     1      -5.489  19.529  67.619  1.00  0.00    -0.180 OA 
HETATM   14  O   UNL     1      -7.928  20.307  67.929  1.00  0.00    -0.266 OA 
HETATM   15  O   UNL     1      -6.871  18.444  69.334  1.00  0.00    -0.237 OA 
ENDBRANCH  10  11
ENDBRANCH   9  10
ENDBRANCH   7   9
ENDBRANCH   6   7
ENDBRANCH   5   6
ENDBRANCH   2   5
TORSDOF 6
ENDMDL
MODEL      267
REMARK 921   NORMALIZED FREE ENERGY PREDICTED BY IDOCK:   -2.23 KCAL/MOL
REMARK 922        TOTAL FREE ENERGY PREDICTED BY IDOCK:   -3.10 KCAL/MOL
REMARK 923 INTER-LIGAND FREE ENERGY PREDICTED BY IDOCK:   -2.96 KCAL/MOL
REMARK 924 INTRA-LIGAND FREE ENERGY PREDICTED BY IDOCK:   -0.13 KCAL/MOL
REMARK 927      BINDING AFFINITY PREDICTED BY RF-SCORE:    0.00 PKD
ROOT
HETATM    1  N   UNL     1      -8.336  10.981  66.041  1.00  0.00    -0.211 NA 
HETATM    2  C   UNL     1      -9.174  12.089  66.484  1.00  0.00    -0.216 C  
HETATM    3  H2  UNL     1      -8.782  10.078  66.206  1.00  0.00     0.000 HD 
HETATM    4  H1  UNL     1      -8.073  11.101  65.063  1.00  0.00     0.000 HD 
ENDROOT
BRANCH   2   5
HETATM    5  C   UNL     1      -9.569  11.910  67.949  1.00  0.00    -0.193 C  
BRANCH   5   6
HETATM    6  C   UNL     1     -10.218  10.543  68.167  1.00  0.00    -0.162 C  
BRANCH   6   7
HETATM    7  N   UNL     1     -11.557  10.712  68.727  1.00  0.00    -0.438 NA 
HETATM    8  H   UNL     1     -12.263  10.241  68.162  1.00  0.00     0.000 HD 
BRANCH   7   9
HETATM    9  C   UNL     1     -11.602  10.274  70.126  1.00  0.00    -0.299 C  
BRANCH   9  10
HETATM   10  C   UNL     1     -11.266   8.787  70.253  1.00  0.00    -0.195 C  
BRANCH  10  11
HETATM   11  S   UNL     1     -11.820   8.086  71.842  1.00  0.00    -0.328 SA 
HETATM   12  P   UNL     1     -10.683   6.366  71.908  1.00  0.00    -0.243 P  
HETATM   13  O   UNL     1     -11.123   5.486  73.172  1.00  0.00    -0.272 OA 
HETATM   14  O   UNL     1     -10.734   5.598  70.626  1.00  0.00    -0.270 OA 
HETATM   15  O   UNL     1      -9.183   6.728  72.323  1.00  0.00    -0.134 OA 
ENDBRANCH  10  11
ENDBRANCH   9  10
ENDBRANCH   7   9
ENDBRANCH   6   7
ENDBRANCH   5   6
ENDBRANCH   2   5
TORSDOF 6
ENDMDL
MODEL      268
REMARK 921   NORMALIZED FREE ENERGY PREDICTED BY IDOCK:   -2.22 KCAL/MOL
REMARK 922        TOTAL FREE ENERGY PREDICTED BY IDOCK:   -3.08 KCAL/MOL
REMARK 923 INTER-LIGAND FREE ENERGY PREDICTED BY IDOCK:   -2.61 KCAL/MOL
REMARK 924 INTRA-LIGAND FREE ENERGY PREDICTED BY IDOCK:   -0.47 KCAL/MOL
REMARK 927      BINDING AFFINITY PREDICTED BY RF-SCORE:    0.00 PKD
ROOT
HETATM    1  N   UNL     1      -8.447   7.271  64.383  1.00  0.00    -0.359 NA 
HETATM    2  C   UNL     1      -8.026   6.317  65.402  1.00  0.00    -0.118 C  
HETATM    3  H2  UNL     1      -7.655   7.780  63.990  1.00  0.00     0.000 HD 
HETATM    4  H1  UNL     1      -8.993   6.803  63.660  1.00  0.00     0.000 HD 
ENDROOT
BRANCH   2   5
HETATM    5  C   UNL     1      -7.207   7.017  66.486  1.00  0.00    -0.082 C  
BRANCH   5   6
HETATM    6  C   UNL     1      -6.781   8.410  66.021  1.00  0.00    -0.061 C  
BRANCH   6   7
HETATM    7  N   UNL     1      -7.419   9.428  66.853  1.00  0.00    -0.090 NA 
HETATM    8  H   UNL     1      -6.732   9.972  67.374  1.00  0.00     0.000 HD 
BRANCH   7   9
HETATM    9  C   UNL     1      -8.296  10.289  66.053  1.00  0.00    -0.142 C  
BRANCH   9  10
HETATM   10  C   UNL     1      -9.767   9.911  66.239  1.00  0.00    -0.222 C  
BRANCH  10  11
HETATM   11  S   UNL     1     -10.080   9.124  67.853  1.00  0.00    -0.211 SA 
HETATM   12  P   UNL     1     -10.717  10.753  68.946  1.00  0.00    -0.258 P  
HETATM   13  O   UNL     1     -10.907  10.325  70.477  1.00  0.00    -0.301 OA 
HETATM   14  O   UNL     1      -9.816  11.936  68.786  1.00  0.00    -0.169 OA 
HETATM   15  O   UNL     1     -12.228  11.103  68.559  1.00  0.00    -0.600 OA 
ENDBRANCH  10  11
ENDBRANCH   9  10
ENDBRANCH   7   9
ENDBRANCH   6   7
ENDBRANCH   5   6
ENDBRANCH   2   5
TORSDOF 6
ENDMDL
MODEL      269
REMARK 921   NORMALIZED FREE ENERGY PREDICTED BY IDOCK:   -2.22 KCAL/MOL
REMARK 922        TOTAL FREE ENERGY PREDICTED BY IDOCK:   -3.08 KCAL/MOL
REMARK 923 INTER-LIGAND FREE ENERGY PREDICTED BY IDOCK:   -2.85 KCAL/MOL
REMARK 924 INTRA-LIGAND FREE ENERGY PREDICTED BY IDOCK:   -0.23 KCAL/MOL
REMARK 927      BINDING AFFINITY PREDICTED BY RF-SCORE:    0.00 PKD
ROOT
HETATM    1  N   UNL     1     -10.230   5.613  73.064  1.00  0.00    -0.181 NA 
HETATM    2  C   UNL     1     -10.459   6.911  73.687  1.00  0.00    -0.369 C  
HETATM    3  H2  UNL     1      -9.575   5.677  72.284  1.00  0.00     0.000 HD 
HETATM    4  H1  UNL     1      -9.926   4.931  73.758  1.00  0.00     0.000 HD 
ENDROOT
BRANCH   2   5
HETATM    5  C   UNL     1     -10.913   7.932  72.647  1.00  0.00    -0.440 C  
BRANCH   5   6
HETATM    6  C   UNL     1      -9.708   8.630  72.017  1.00  0.00    -0.321 C  
BRANCH   6   7
HETATM    7  N   UNL     1      -9.949   8.850  70.592  1.00  0.00    -0.200 NA 
HETATM    8  H   UNL     1      -9.465   9.680  70.252  1.00  0.00     0.000 HD 
BRANCH   7   9
HETATM    9  C   UNL     1      -9.599   7.661  69.809  1.00  0.00    -0.163 C  
BRANCH   9  10
HETATM   10  C   UNL     1      -9.444   7.999  68.325  1.00  0.00    -0.141 C  
BRANCH  10  11
HETATM   11  S   UNL     1     -10.698   7.171  67.292  1.00  0.00    -0.318 SA 
HETATM   12  P   UNL     1      -9.743   5.384  66.906  1.00  0.00    -0.189 P  
HETATM   13  O   UNL     1     -10.610   4.533  65.862  1.00  0.00    -0.277 OA 
HETATM   14  O   UNL     1      -8.329   5.576  66.460  1.00  0.00    -0.109 OA 
HETATM   15  O   UNL     1      -9.836   4.436  68.190  1.00  0.00    -0.139 OA 
ENDBRANCH  10  11
ENDBRANCH   9  10
ENDBRANCH   7   9
ENDBRANCH   6   7
ENDBRANCH   5   6
ENDBRANCH   2   5
TORSDOF 6
ENDMDL
MODEL      270
REMARK 921   NORMALIZED FREE ENERGY PREDICTED BY IDOCK:   -2.22 KCAL/MOL
REMARK 922        TOTAL FREE ENERGY PREDICTED BY IDOCK:   -3.08 KCAL/MOL
REMARK 923 INTER-LIGAND FREE ENERGY PREDICTED BY IDOCK:   -2.58 KCAL/MOL
REMARK 924 INTRA-LIGAND FREE ENERGY PREDICTED BY IDOCK:   -0.50 KCAL/MOL
REMARK 927      BINDING AFFINITY PREDICTED BY RF-SCORE:    0.00 PKD
ROOT
HETATM    1  N   UNL     1      -6.931   5.201  67.927  1.00  0.00    -0.060 NA 
HETATM    2  C   UNL     1      -8.048   4.664  67.159  1.00  0.00    -0.102 C  
HETATM    3  H2  UNL     1      -6.850   4.756  68.841  1.00  0.00     0.000 HD 
HETATM    4  H1  UNL     1      -6.064   5.132  67.394  1.00  0.00     0.000 HD 
ENDROOT
BRANCH   2   5
HETATM    5  C   UNL     1      -9.346   4.768  67.957  1.00  0.00    -0.168 C  
BRANCH   5   6
HETATM    6  C   UNL     1      -9.068   4.629  69.455  1.00  0.00    -0.108 C  
BRANCH   6   7
HETATM    7  N   UNL     1     -10.245   5.039  70.218  1.00  0.00    -0.266 NA 
HETATM    8  H   UNL     1      -9.992   5.369  71.149  1.00  0.00     0.000 HD 
BRANCH   7   9
HETATM    9  C   UNL     1     -11.027   6.039  69.484  1.00  0.00    -0.397 C  
BRANCH   9  10
HETATM   10  C   UNL     1     -11.533   7.142  70.415  1.00  0.00    -0.278 C  
BRANCH  10  11
HETATM   11  S   UNL     1     -10.257   8.397  70.759  1.00  0.00    -0.199 SA 
HETATM   12  P   UNL     1      -9.641   7.800  72.635  1.00  0.00    -0.257 P  
HETATM   13  O   UNL     1      -8.606   8.873  73.220  1.00  0.00    -0.250 OA 
HETATM   14  O   UNL     1     -10.788   7.542  73.558  1.00  0.00    -0.369 OA 
HETATM   15  O   UNL     1      -8.686   6.525  72.506  1.00  0.00    -0.126 OA 
ENDBRANCH  10  11
ENDBRANCH   9  10
ENDBRANCH   7   9
ENDBRANCH   6   7
ENDBRANCH   5   6
ENDBRANCH   2   5
TORSDOF 6
ENDMDL
MODEL      271
REMARK 921   NORMALIZED FREE ENERGY PREDICTED BY IDOCK:   -2.22 KCAL/MOL
REMARK 922        TOTAL FREE ENERGY PREDICTED BY IDOCK:   -3.08 KCAL/MOL
REMARK 923 INTER-LIGAND FREE ENERGY PREDICTED BY IDOCK:   -2.71 KCAL/MOL
REMARK 924 INTRA-LIGAND FREE ENERGY PREDICTED BY IDOCK:   -0.37 KCAL/MOL
REMARK 927      BINDING AFFINITY PREDICTED BY RF-SCORE:    0.00 PKD
ROOT
HETATM    1  N   UNL     1      -6.821   6.453  63.822  1.00  0.00    -0.040 NA 
HETATM    2  C   UNL     1      -8.044   5.699  63.578  1.00  0.00    -0.112 C  
HETATM    3  H2  UNL     1      -6.035   5.840  64.041  1.00  0.00     0.000 HD 
HETATM    4  H1  UNL     1      -6.615   7.066  63.033  1.00  0.00     0.000 HD 
ENDROOT
BRANCH   2   5
HETATM    5  C   UNL     1      -8.353   4.780  64.759  1.00  0.00    -0.132 C  
BRANCH   5   6
HETATM    6  C   UNL     1      -8.628   5.601  66.019  1.00  0.00    -0.137 C  
BRANCH   6   7
HETATM    7  N   UNL     1      -9.375   6.808  65.672  1.00  0.00    -0.366 NA 
HETATM    8  H   UNL     1     -10.351   6.600  65.464  1.00  0.00     0.000 HD 
BRANCH   7   9
HETATM    9  C   UNL     1      -9.250   7.825  66.722  1.00  0.00    -0.163 C  
BRANCH   9  10
HETATM   10  C   UNL     1     -10.070   9.072  66.388  1.00  0.00    -0.281 C  
BRANCH  10  11
HETATM   11  S   UNL     1      -9.235  10.608  66.905  1.00  0.00    -0.156 SA 
HETATM   12  P   UNL     1     -10.675  11.418  68.140  1.00  0.00    -0.238 P  
HETATM   13  O   UNL     1     -10.217  12.881  68.601  1.00  0.00    -0.229 OA 
HETATM   14  O   UNL     1     -12.033  11.410  67.515  1.00  0.00    -0.626 OA 
HETATM   15  O   UNL     1     -10.665  10.661  69.547  1.00  0.00    -0.231 OA 
ENDBRANCH  10  11
ENDBRANCH   9  10
ENDBRANCH   7   9
ENDBRANCH   6   7
ENDBRANCH   5   6
ENDBRANCH   2   5
TORSDOF 6
ENDMDL
MODEL      272
REMARK 921   NORMALIZED FREE ENERGY PREDICTED BY IDOCK:   -2.21 KCAL/MOL
REMARK 922        TOTAL FREE ENERGY PREDICTED BY IDOCK:   -3.06 KCAL/MOL
REMARK 923 INTER-LIGAND FREE ENERGY PREDICTED BY IDOCK:   -2.90 KCAL/MOL
REMARK 924 INTRA-LIGAND FREE ENERGY PREDICTED BY IDOCK:   -0.16 KCAL/MOL
REMARK 927      BINDING AFFINITY PREDICTED BY RF-SCORE:    0.00 PKD
ROOT
HETATM    1  N   UNL     1     -11.730  16.222  63.839  1.00  0.00    -1.518 NA 
HETATM    2  C   UNL     1     -12.065  14.933  64.432  1.00  0.00    -0.401 C  
HETATM    3  H2  UNL     1     -10.830  16.195  63.358  1.00  0.00     0.000 HD 
HETATM    4  H1  UNL     1     -12.479  16.539  63.224  1.00  0.00     0.000 HD 
ENDROOT
BRANCH   2   5
HETATM    5  C   UNL     1     -10.943  14.459  65.354  1.00  0.00    -0.343 C  
BRANCH   5   6
HETATM    6  C   UNL     1     -10.198  15.653  65.951  1.00  0.00    -0.351 C  
BRANCH   6   7
HETATM    7  N   UNL     1      -9.680  15.305  67.272  1.00  0.00    -0.212 NA 
HETATM    8  H   UNL     1     -10.378  14.818  67.833  1.00  0.00     0.000 HD 
BRANCH   7   9
HETATM    9  C   UNL     1      -8.437  14.533  67.165  1.00  0.00    -0.212 C  
BRANCH   9  10
HETATM   10  C   UNL     1      -7.512  14.800  68.353  1.00  0.00    -0.114 C  
BRANCH  10  11
HETATM   11  S   UNL     1      -5.919  13.929  68.199  1.00  0.00    -0.137 SA 
HETATM   12  P   UNL     1      -6.448  12.056  68.882  1.00  0.00    -0.097 P  
HETATM   13  O   UNL     1      -5.140  11.139  68.986  1.00  0.00    -0.042 OA 
HETATM   14  O   UNL     1      -7.216  12.112  70.164  1.00  0.00     0.603 OA 
HETATM   15  O   UNL     1      -7.252  11.276  67.743  1.00  0.00    -0.083 OA 
ENDBRANCH  10  11
ENDBRANCH   9  10
ENDBRANCH   7   9
ENDBRANCH   6   7
ENDBRANCH   5   6
ENDBRANCH   2   5
TORSDOF 6
ENDMDL
MODEL      273
REMARK 921   NORMALIZED FREE ENERGY PREDICTED BY IDOCK:   -2.20 KCAL/MOL
REMARK 922        TOTAL FREE ENERGY PREDICTED BY IDOCK:   -3.06 KCAL/MOL
REMARK 923 INTER-LIGAND FREE ENERGY PREDICTED BY IDOCK:   -2.86 KCAL/MOL
REMARK 924 INTRA-LIGAND FREE ENERGY PREDICTED BY IDOCK:   -0.19 KCAL/MOL
REMARK 927      BINDING AFFINITY PREDICTED BY RF-SCORE:    0.00 PKD
ROOT
HETATM    1  N   UNL     1      -9.371   4.971  68.666  1.00  0.00    -0.123 NA 
HETATM    2  C   UNL     1      -9.844   4.424  69.932  1.00  0.00    -0.220 C  
HETATM    3  H2  UNL     1      -8.410   5.307  68.733  1.00  0.00     0.000 HD 
HETATM    4  H1  UNL     1      -9.482   4.288  67.917  1.00  0.00     0.000 HD 
ENDROOT
BRANCH   2   5
HETATM    5  C   UNL     1      -9.678   5.448  71.053  1.00  0.00    -0.235 C  
BRANCH   5   6
HETATM    6  C   UNL     1      -8.707   6.552  70.633  1.00  0.00    -0.144 C  
BRANCH   6   7
HETATM    7  N   UNL     1      -9.326   7.861  70.833  1.00  0.00    -0.152 NA 
HETATM    8  H   UNL     1      -8.861   8.387  71.573  1.00  0.00     0.000 HD 
BRANCH   7   9
HETATM    9  C   UNL     1      -9.375   8.618  69.578  1.00  0.00    -0.153 C  
BRANCH   9  10
HETATM   10  C   UNL     1      -9.814  10.063  69.819  1.00  0.00    -0.235 C  
BRANCH  10  11
HETATM   11  S   UNL     1      -9.191  11.198  68.536  1.00  0.00    -0.176 SA 
HETATM   12  P   UNL     1     -10.934  12.176  68.023  1.00  0.00    -0.268 P  
HETATM   13  O   UNL     1     -10.656  13.137  66.773  1.00  0.00    -0.261 OA 
HETATM   14  O   UNL     1     -12.069  11.232  67.784  1.00  0.00    -0.631 OA 
HETATM   15  O   UNL     1     -11.291  13.260  69.142  1.00  0.00    -0.266 OA 
ENDBRANCH  10  11
ENDBRANCH   9  10
ENDBRANCH   7   9
ENDBRANCH   6   7
ENDBRANCH   5   6
ENDBRANCH   2   5
TORSDOF 6
ENDMDL
MODEL      274
REMARK 921   NORMALIZED FREE ENERGY PREDICTED BY IDOCK:   -2.20 KCAL/MOL
REMARK 922        TOTAL FREE ENERGY PREDICTED BY IDOCK:   -3.05 KCAL/MOL
REMARK 923 INTER-LIGAND FREE ENERGY PREDICTED BY IDOCK:   -2.85 KCAL/MOL
REMARK 924 INTRA-LIGAND FREE ENERGY PREDICTED BY IDOCK:   -0.20 KCAL/MOL
REMARK 927      BINDING AFFINITY PREDICTED BY RF-SCORE:    0.00 PKD
ROOT
HETATM    1  N   UNL     1     -12.299   6.779  72.258  1.00  0.00    -0.529 NA 
HETATM    2  C   UNL     1     -11.732   6.635  70.923  1.00  0.00    -0.375 C  
HETATM    3  H2  UNL     1     -12.408   7.759  72.520  1.00  0.00     0.000 HD 
HETATM    4  H1  UNL     1     -13.179   6.268  72.330  1.00  0.00     0.000 HD 
ENDROOT
BRANCH   2   5
HETATM    5  C   UNL     1     -10.414   7.400  70.815  1.00  0.00    -0.221 C  
BRANCH   5   6
HETATM    6  C   UNL     1      -9.853   7.306  69.396  1.00  0.00    -0.163 C  
BRANCH   6   7
HETATM    7  N   UNL     1     -10.869   7.722  68.432  1.00  0.00    -0.422 NA 
HETATM    8  H   UNL     1     -11.054   8.724  68.490  1.00  0.00     0.000 HD 
BRANCH   7   9
HETATM    9  C   UNL     1     -10.500   7.319  67.070  1.00  0.00    -0.328 C  
BRANCH   9  10
HETATM   10  C   UNL     1      -9.690   6.021  67.076  1.00  0.00    -0.138 C  
BRANCH  10  11
HETATM   11  S   UNL     1     -10.446   4.729  66.036  1.00  0.00    -0.211 SA 
HETATM   12  P   UNL     1      -8.861   3.421  65.855  1.00  0.00    -0.146 P  
HETATM   13  O   UNL     1      -9.251   2.253  64.830  1.00  0.00    -0.135 OA 
HETATM   14  O   UNL     1      -7.589   4.112  65.484  1.00  0.00    -0.083 OA 
HETATM   15  O   UNL     1      -8.706   2.575  67.202  1.00  0.00    -0.105 OA 
ENDBRANCH  10  11
ENDBRANCH   9  10
ENDBRANCH   7   9
ENDBRANCH   6   7
ENDBRANCH   5   6
ENDBRANCH   2   5
TORSDOF 6
ENDMDL
MODEL      275
REMARK 921   NORMALIZED FREE ENERGY PREDICTED BY IDOCK:   -2.20 KCAL/MOL
REMARK 922        TOTAL FREE ENERGY PREDICTED BY IDOCK:   -3.05 KCAL/MOL
REMARK 923 INTER-LIGAND FREE ENERGY PREDICTED BY IDOCK:   -2.93 KCAL/MOL
REMARK 924 INTRA-LIGAND FREE ENERGY PREDICTED BY IDOCK:   -0.12 KCAL/MOL
REMARK 927      BINDING AFFINITY PREDICTED BY RF-SCORE:    0.00 PKD
ROOT
HETATM    1  N   UNL     1     -10.041  14.186  68.419  1.00  0.00    -0.233 NA 
HETATM    2  C   UNL     1     -11.433  14.083  68.000  1.00  0.00    -0.311 C  
HETATM    3  H2  UNL     1      -9.400  13.893  67.681  1.00  0.00     0.000 HD 
HETATM    4  H1  UNL     1      -9.834  15.130  68.747  1.00  0.00     0.000 HD 
ENDROOT
BRANCH   2   5
HETATM    5  C   UNL     1     -11.742  12.670  67.509  1.00  0.00    -0.429 C  
BRANCH   5   6
HETATM    6  C   UNL     1     -10.736  11.671  68.081  1.00  0.00    -0.213 C  
BRANCH   6   7
HETATM    7  N   UNL     1     -11.430  10.459  68.513  1.00  0.00    -0.488 NA 
HETATM    8  H   UNL     1     -11.589   9.820  67.734  1.00  0.00     0.000 HD 
BRANCH   7   9
HETATM    9  C   UNL     1     -10.713   9.805  69.612  1.00  0.00    -0.242 C  
BRANCH   9  10
HETATM   10  C   UNL     1      -9.678   8.809  69.085  1.00  0.00    -0.175 C  
BRANCH  10  11
HETATM   11  S   UNL     1      -9.646   7.266  70.055  1.00  0.00    -0.167 SA 
HETATM   12  P   UNL     1      -9.687   5.870  68.537  1.00  0.00    -0.141 P  
HETATM   13  O   UNL     1      -9.824   4.404  69.166  1.00  0.00    -0.182 OA 
HETATM   14  O   UNL     1     -10.743   6.163  67.520  1.00  0.00    -0.244 OA 
HETATM   15  O   UNL     1      -8.238   5.758  67.870  1.00  0.00    -0.101 OA 
ENDBRANCH  10  11
ENDBRANCH   9  10
ENDBRANCH   7   9
ENDBRANCH   6   7
ENDBRANCH   5   6
ENDBRANCH   2   5
TORSDOF 6
ENDMDL
MODEL      276
REMARK 921   NORMALIZED FREE ENERGY PREDICTED BY IDOCK:   -2.19 KCAL/MOL
REMARK 922        TOTAL FREE ENERGY PREDICTED BY IDOCK:   -3.04 KCAL/MOL
REMARK 923 INTER-LIGAND FREE ENERGY PREDICTED BY IDOCK:   -2.16 KCAL/MOL
REMARK 924 INTRA-LIGAND FREE ENERGY PREDICTED BY IDOCK:   -0.88 KCAL/MOL
REMARK 927      BINDING AFFINITY PREDICTED BY RF-SCORE:    0.00 PKD
ROOT
HETATM    1  N   UNL     1     -10.217   7.065  66.432  1.00  0.00    -0.464 NA 
HETATM    2  C   UNL     1     -11.024   6.393  67.443  1.00  0.00    -0.376 C  
HETATM    3  H2  UNL     1      -9.307   6.618  66.314  1.00  0.00     0.000 HD 
HETATM    4  H1  UNL     1     -10.726   7.127  65.551  1.00  0.00     0.000 HD 
ENDROOT
BRANCH   2   5
HETATM    5  C   UNL     1     -10.261   6.300  68.764  1.00  0.00    -0.213 C  
BRANCH   5   6
HETATM    6  C   UNL     1      -9.783   4.869  69.009  1.00  0.00    -0.175 C  
BRANCH   6   7
HETATM    7  N   UNL     1      -8.948   4.426  67.894  1.00  0.00    -0.113 NA 
HETATM    8  H   UNL     1      -7.956   4.540  68.100  1.00  0.00     0.000 HD 
BRANCH   7   9
HETATM    9  C   UNL     1      -9.267   3.046  67.512  1.00  0.00    -0.193 C  
BRANCH   9  10
HETATM   10  C   UNL     1      -8.292   2.524  66.455  1.00  0.00    -0.092 C  
BRANCH  10  11
HETATM   11  S   UNL     1      -9.033   2.484  64.790  1.00  0.00    -0.128 SA 
HETATM   12  P   UNL     1      -8.273   4.232  64.001  1.00  0.00    -0.105 P  
HETATM   13  O   UNL     1      -8.926   4.495  62.563  1.00  0.00    -0.117 OA 
HETATM   14  O   UNL     1      -8.433   5.394  64.928  1.00  0.00    -0.145 OA 
HETATM   15  O   UNL     1      -6.745   4.014  63.583  1.00  0.00    -0.040 OA 
ENDBRANCH  10  11
ENDBRANCH   9  10
ENDBRANCH   7   9
ENDBRANCH   6   7
ENDBRANCH   5   6
ENDBRANCH   2   5
TORSDOF 6
ENDMDL
MODEL      277
REMARK 921   NORMALIZED FREE ENERGY PREDICTED BY IDOCK:   -2.18 KCAL/MOL
REMARK 922        TOTAL FREE ENERGY PREDICTED BY IDOCK:   -3.03 KCAL/MOL
REMARK 923 INTER-LIGAND FREE ENERGY PREDICTED BY IDOCK:   -2.72 KCAL/MOL
REMARK 924 INTRA-LIGAND FREE ENERGY PREDICTED BY IDOCK:   -0.32 KCAL/MOL
REMARK 927      BINDING AFFINITY PREDICTED BY RF-SCORE:    0.00 PKD
ROOT
HETATM    1  N   UNL     1      -6.682  17.697  67.305  1.00  0.00    -0.157 NA 
HETATM    2  C   UNL     1      -7.519  17.172  68.376  1.00  0.00    -0.227 C  
HETATM    3  H2  UNL     1      -6.051  16.987  66.934  1.00  0.00     0.000 HD 
HETATM    4  H1  UNL     1      -7.257  18.114  66.572  1.00  0.00     0.000 HD 
ENDROOT
BRANCH   2   5
HETATM    5  C   UNL     1      -6.659  16.549  69.473  1.00  0.00    -0.217 C  
BRANCH   5   6
HETATM    6  C   UNL     1      -6.291  15.109  69.115  1.00  0.00    -0.109 C  
BRANCH   6   7
HETATM    7  N   UNL     1      -7.329  14.198  69.591  1.00  0.00    -0.354 NA 
HETATM    8  H   UNL     1      -8.241  14.652  69.624  1.00  0.00     0.000 HD 
BRANCH   7   9
HETATM    9  C   UNL     1      -7.364  12.972  68.786  1.00  0.00    -0.064 C  
BRANCH   9  10
HETATM   10  C   UNL     1      -7.741  13.271  67.334  1.00  0.00    -0.140 C  
BRANCH  10  11
HETATM   11  S   UNL     1      -9.446  13.897  67.177  1.00  0.00    -0.255 SA 
HETATM   12  P   UNL     1     -10.505  12.131  67.308  1.00  0.00    -0.226 P  
HETATM   13  O   UNL     1     -12.056  12.420  67.034  1.00  0.00    -0.549 OA 
HETATM   14  O   UNL     1      -9.952  11.065  66.418  1.00  0.00    -0.208 OA 
HETATM   15  O   UNL     1     -10.570  11.655  68.833  1.00  0.00    -0.211 OA 
ENDBRANCH  10  11
ENDBRANCH   9  10
ENDBRANCH   7   9
ENDBRANCH   6   7
ENDBRANCH   5   6
ENDBRANCH   2   5
TORSDOF 6
ENDMDL
MODEL      278
REMARK 921   NORMALIZED FREE ENERGY PREDICTED BY IDOCK:   -2.18 KCAL/MOL
REMARK 922        TOTAL FREE ENERGY PREDICTED BY IDOCK:   -3.03 KCAL/MOL
REMARK 923 INTER-LIGAND FREE ENERGY PREDICTED BY IDOCK:   -3.34 KCAL/MOL
REMARK 924 INTRA-LIGAND FREE ENERGY PREDICTED BY IDOCK:    0.31 KCAL/MOL
REMARK 927      BINDING AFFINITY PREDICTED BY RF-SCORE:    0.00 PKD
ROOT
HETATM    1  N   UNL     1      -7.959  14.551  69.537  1.00  0.00    -0.390 NA 
HETATM    2  C   UNL     1      -9.268  15.009  69.088  1.00  0.00    -0.183 C  
HETATM    3  H2  UNL     1      -7.293  15.321  69.614  1.00  0.00     0.000 HD 
HETATM    4  H1  UNL     1      -8.041  14.032  70.411  1.00  0.00     0.000 HD 
ENDROOT
BRANCH   2   5
HETATM    5  C   UNL     1      -9.145  15.785  67.779  1.00  0.00    -0.188 C  
BRANCH   5   6
HETATM    6  C   UNL     1     -10.527  16.060  67.185  1.00  0.00    -0.308 C  
BRANCH   6   7
HETATM    7  N   UNL     1     -11.171  14.800  66.821  1.00  0.00    -0.339 NA 
HETATM    8  H   UNL     1     -12.117  14.949  66.471  1.00  0.00     0.000 HD 
BRANCH   7   9
HETATM    9  C   UNL     1     -10.352  14.047  65.865  1.00  0.00    -0.318 C  
BRANCH   9  10
HETATM   10  C   UNL     1     -11.212  13.110  65.015  1.00  0.00    -0.298 C  
BRANCH  10  11
HETATM   11  S   UNL     1     -10.477  11.450  64.856  1.00  0.00    -0.313 SA 
HETATM   12  P   UNL     1     -10.082  11.025  66.836  1.00  0.00    -0.226 P  
HETATM   13  O   UNL     1      -9.273   9.646  66.932  1.00  0.00    -0.139 OA 
HETATM   14  O   UNL     1      -9.389  12.150  67.534  1.00  0.00    -0.173 OA 
HETATM   15  O   UNL     1     -11.436  10.611  67.578  1.00  0.00    -0.460 OA 
ENDBRANCH  10  11
ENDBRANCH   9  10
ENDBRANCH   7   9
ENDBRANCH   6   7
ENDBRANCH   5   6
ENDBRANCH   2   5
TORSDOF 6
ENDMDL
MODEL      279
REMARK 921   NORMALIZED FREE ENERGY PREDICTED BY IDOCK:   -2.18 KCAL/MOL
REMARK 922        TOTAL FREE ENERGY PREDICTED BY IDOCK:   -3.02 KCAL/MOL
REMARK 923 INTER-LIGAND FREE ENERGY PREDICTED BY IDOCK:   -2.90 KCAL/MOL
REMARK 924 INTRA-LIGAND FREE ENERGY PREDICTED BY IDOCK:   -0.12 KCAL/MOL
REMARK 927      BINDING AFFINITY PREDICTED BY RF-SCORE:    0.00 PKD
ROOT
HETATM    1  N   UNL     1     -11.633   8.139  73.093  1.00  0.00    -0.430 NA 
HETATM    2  C   UNL     1     -12.253   7.796  71.819  1.00  0.00    -0.306 C  
HETATM    3  H2  UNL     1     -11.006   8.940  73.007  1.00  0.00     0.000 HD 
HETATM    4  H1  UNL     1     -12.345   8.290  73.808  1.00  0.00     0.000 HD 
ENDROOT
BRANCH   2   5
HETATM    5  C   UNL     1     -11.188   7.570  70.748  1.00  0.00    -0.287 C  
BRANCH   5   6
HETATM    6  C   UNL     1     -11.619   6.461  69.788  1.00  0.00    -0.327 C  
BRANCH   6   7
HETATM    7  N   UNL     1     -11.164   6.771  68.434  1.00  0.00    -0.543 NA 
HETATM    8  H   UNL     1     -11.478   7.694  68.134  1.00  0.00     0.000 HD 
BRANCH   7   9
HETATM    9  C   UNL     1      -9.708   6.633  68.322  1.00  0.00    -0.132 C  
BRANCH   9  10
HETATM   10  C   UNL     1      -9.213   7.065  66.941  1.00  0.00    -0.150 C  
BRANCH  10  11
HETATM   11  S   UNL     1      -7.751   8.148  67.036  1.00  0.00    -0.097 SA 
HETATM   12  P   UNL     1      -8.344   9.687  65.798  1.00  0.00    -0.138 P  
HETATM   13  O   UNL     1      -7.127  10.709  65.600  1.00  0.00    -0.136 OA 
HETATM   14  O   UNL     1      -8.900   9.195  64.500  1.00  0.00    -0.189 OA 
HETATM   15  O   UNL     1      -9.382  10.627  66.568  1.00  0.00    -0.162 OA 
ENDBRANCH  10  11
ENDBRANCH   9  10
ENDBRANCH   7   9
ENDBRANCH   6   7
ENDBRANCH   5   6
ENDBRANCH   2   5
TORSDOF 6
ENDMDL
MODEL      280
REMARK 921   NORMALIZED FREE ENERGY PREDICTED BY IDOCK:   -2.18 KCAL/MOL
REMARK 922        TOTAL FREE ENERGY PREDICTED BY IDOCK:   -3.02 KCAL/MOL
REMARK 923 INTER-LIGAND FREE ENERGY PREDICTED BY IDOCK:   -2.77 KCAL/MOL
REMARK 924 INTRA-LIGAND FREE ENERGY PREDICTED BY IDOCK:   -0.25 KCAL/MOL
REMARK 927      BINDING AFFINITY PREDICTED BY RF-SCORE:    0.00 PKD
ROOT
HETATM    1  N   UNL     1     -12.725   6.953  72.328  1.00  0.00    -0.533 NA 
HETATM    2  C   UNL     1     -11.470   6.213  72.374  1.00  0.00    -0.303 C  
HETATM    3  H2  UNL     1     -13.404   6.510  71.708  1.00  0.00     0.000 HD 
HETATM    4  H1  UNL     1     -13.099   7.083  73.268  1.00  0.00     0.000 HD 
ENDROOT
BRANCH   2   5
HETATM    5  C   UNL     1     -10.910   6.019  70.967  1.00  0.00    -0.345 C  
BRANCH   5   6
HETATM    6  C   UNL     1      -9.851   7.078  70.659  1.00  0.00    -0.182 C  
BRANCH   6   7
HETATM    7  N   UNL     1     -10.476   8.232  70.017  1.00  0.00    -0.226 NA 
HETATM    8  H   UNL     1     -10.991   8.802  70.687  1.00  0.00     0.000 HD 
BRANCH   7   9
HETATM    9  C   UNL     1      -9.485   9.026  69.281  1.00  0.00    -0.157 C  
BRANCH   9  10
HETATM   10  C   UNL     1      -9.517   8.706  67.786  1.00  0.00    -0.142 C  
BRANCH  10  11
HETATM   11  S   UNL     1     -10.845   9.601  66.915  1.00  0.00     0.082 SA 
HETATM   12  P   UNL     1      -9.728  10.804  65.666  1.00  0.00    -0.273 P  
HETATM   13  O   UNL     1     -10.700  11.816  64.894  1.00  0.00    -0.275 OA 
HETATM   14  O   UNL     1      -8.621  11.505  66.387  1.00  0.00    -0.178 OA 
HETATM   15  O   UNL     1      -9.181   9.942  64.436  1.00  0.00    -0.238 OA 
ENDBRANCH  10  11
ENDBRANCH   9  10
ENDBRANCH   7   9
ENDBRANCH   6   7
ENDBRANCH   5   6
ENDBRANCH   2   5
TORSDOF 6
ENDMDL
MODEL      281
REMARK 921   NORMALIZED FREE ENERGY PREDICTED BY IDOCK:   -2.17 KCAL/MOL
REMARK 922        TOTAL FREE ENERGY PREDICTED BY IDOCK:   -3.01 KCAL/MOL
REMARK 923 INTER-LIGAND FREE ENERGY PREDICTED BY IDOCK:   -2.77 KCAL/MOL
REMARK 924 INTRA-LIGAND FREE ENERGY PREDICTED BY IDOCK:   -0.24 KCAL/MOL
REMARK 927      BINDING AFFINITY PREDICTED BY RF-SCORE:    0.00 PKD
ROOT
HETATM    1  N   UNL     1      -8.011   7.273  65.739  1.00  0.00    -0.115 NA 
HETATM    2  C   UNL     1      -8.473   8.548  65.203  1.00  0.00    -0.175 C  
HETATM    3  H2  UNL     1      -8.782   6.619  65.880  1.00  0.00     0.000 HD 
HETATM    4  H1  UNL     1      -7.283   6.877  65.145  1.00  0.00     0.000 HD 
ENDROOT
BRANCH   2   5
HETATM    5  C   UNL     1      -9.564   9.140  66.094  1.00  0.00    -0.333 C  
BRANCH   5   6
HETATM    6  C   UNL     1      -9.011   9.450  67.485  1.00  0.00    -0.121 C  
BRANCH   6   7
HETATM    7  N   UNL     1      -9.409  10.797  67.889  1.00  0.00    -0.148 NA 
HETATM    8  H   UNL     1      -9.418  10.897  68.904  1.00  0.00     0.000 HD 
BRANCH   7   9
HETATM    9  C   UNL     1      -8.560  11.810  67.253  1.00  0.00    -0.162 C  
BRANCH   9  10
HETATM   10  C   UNL     1      -9.371  13.043  66.854  1.00  0.00    -0.241 C  
BRANCH  10  11
HETATM   11  S   UNL     1      -9.477  14.267  68.202  1.00  0.00    -0.209 SA 
HETATM   12  P   UNL     1     -11.497  14.193  68.615  1.00  0.00    -0.345 P  
HETATM   13  O   UNL     1     -11.862  15.324  69.688  1.00  0.00    -0.301 OA 
HETATM   14  O   UNL     1     -12.336  14.277  67.380  1.00  0.00    -0.311 OA 
HETATM   15  O   UNL     1     -11.824  12.879  69.465  1.00  0.00    -0.308 OA 
ENDBRANCH  10  11
ENDBRANCH   9  10
ENDBRANCH   7   9
ENDBRANCH   6   7
ENDBRANCH   5   6
ENDBRANCH   2   5
TORSDOF 6
ENDMDL
MODEL      282
REMARK 921   NORMALIZED FREE ENERGY PREDICTED BY IDOCK:   -2.17 KCAL/MOL
REMARK 922        TOTAL FREE ENERGY PREDICTED BY IDOCK:   -3.01 KCAL/MOL
REMARK 923 INTER-LIGAND FREE ENERGY PREDICTED BY IDOCK:   -2.85 KCAL/MOL
REMARK 924 INTRA-LIGAND FREE ENERGY PREDICTED BY IDOCK:   -0.16 KCAL/MOL
REMARK 927      BINDING AFFINITY PREDICTED BY RF-SCORE:    0.00 PKD
ROOT
HETATM    1  N   UNL     1     -11.896   8.515  72.516  1.00  0.00    -0.368 NA 
HETATM    2  C   UNL     1     -10.589   8.627  71.879  1.00  0.00    -0.340 C  
HETATM    3  H2  UNL     1     -12.304   7.589  72.385  1.00  0.00     0.000 HD 
HETATM    4  H1  UNL     1     -11.836   8.767  73.503  1.00  0.00     0.000 HD 
ENDROOT
BRANCH   2   5
HETATM    5  C   UNL     1     -10.679   8.250  70.401  1.00  0.00    -0.239 C  
BRANCH   5   6
HETATM    6  C   UNL     1     -11.389   6.907  70.232  1.00  0.00    -0.324 C  
BRANCH   6   7
HETATM    7  N   UNL     1     -11.575   6.619  68.811  1.00  0.00    -0.546 NA 
HETATM    8  H   UNL     1     -11.927   7.431  68.306  1.00  0.00     0.000 HD 
BRANCH   7   9
HETATM    9  C   UNL     1     -10.339   6.103  68.212  1.00  0.00    -0.198 C  
BRANCH   9  10
HETATM   10  C   UNL     1     -10.549   5.724  66.746  1.00  0.00    -0.306 C  
BRANCH  10  11
HETATM   11  S   UNL     1      -9.537   4.291  66.249  1.00  0.00    -0.211 SA 
HETATM   12  P   UNL     1      -7.879   5.252  65.485  1.00  0.00    -0.100 P  
HETATM   13  O   UNL     1      -6.894   4.173  64.830  1.00  0.00    -0.047 OA 
HETATM   14  O   UNL     1      -8.242   6.351  64.538  1.00  0.00    -0.114 OA 
HETATM   15  O   UNL     1      -6.964   5.782  66.684  1.00  0.00    -0.061 OA 
ENDBRANCH  10  11
ENDBRANCH   9  10
ENDBRANCH   7   9
ENDBRANCH   6   7
ENDBRANCH   5   6
ENDBRANCH   2   5
TORSDOF 6
ENDMDL
MODEL      283
REMARK 921   NORMALIZED FREE ENERGY PREDICTED BY IDOCK:   -2.16 KCAL/MOL
REMARK 922        TOTAL FREE ENERGY PREDICTED BY IDOCK:   -3.00 KCAL/MOL
REMARK 923 INTER-LIGAND FREE ENERGY PREDICTED BY IDOCK:   -2.61 KCAL/MOL
REMARK 924 INTRA-LIGAND FREE ENERGY PREDICTED BY IDOCK:   -0.39 KCAL/MOL
REMARK 927      BINDING AFFINITY PREDICTED BY RF-SCORE:    0.00 PKD
ROOT
HETATM    1  N   UNL     1     -12.110   5.538  72.906  1.00  0.00    -0.510 NA 
HETATM    2  C   UNL     1     -10.777   5.040  73.222  1.00  0.00    -0.258 C  
HETATM    3  H2  UNL     1     -12.643   4.869  72.349  1.00  0.00     0.000 HD 
HETATM    4  H1  UNL     1     -12.605   5.801  73.758  1.00  0.00     0.000 HD 
ENDROOT
BRANCH   2   5
HETATM    5  C   UNL     1     -10.035   4.646  71.946  1.00  0.00    -0.254 C  
BRANCH   5   6
HETATM    6  C   UNL     1     -10.002   5.816  70.962  1.00  0.00    -0.190 C  
BRANCH   6   7
HETATM    7  N   UNL     1     -10.971   5.592  69.891  1.00  0.00    -0.246 NA 
HETATM    8  H   UNL     1     -11.919   5.824  70.187  1.00  0.00     0.000 HD 
BRANCH   7   9
HETATM    9  C   UNL     1     -10.591   6.318  68.675  1.00  0.00    -0.264 C  
BRANCH   9  10
HETATM   10  C   UNL     1      -9.424   7.271  68.940  1.00  0.00    -0.143 C  
BRANCH  10  11
HETATM   11  S   UNL     1      -8.347   7.467  67.482  1.00  0.00    -0.117 SA 
HETATM   12  P   UNL     1      -9.170   9.158  66.634  1.00  0.00    -0.192 P  
HETATM   13  O   UNL     1      -8.468   9.440  65.222  1.00  0.00    -0.133 OA 
HETATM   14  O   UNL     1     -10.659   9.078  66.531  1.00  0.00    -0.178 OA 
HETATM   15  O   UNL     1      -8.700  10.451  67.448  1.00  0.00    -0.125 OA 
ENDBRANCH  10  11
ENDBRANCH   9  10
ENDBRANCH   7   9
ENDBRANCH   6   7
ENDBRANCH   5   6
ENDBRANCH   2   5
TORSDOF 6
ENDMDL
MODEL      284
REMARK 921   NORMALIZED FREE ENERGY PREDICTED BY IDOCK:   -2.15 KCAL/MOL
REMARK 922        TOTAL FREE ENERGY PREDICTED BY IDOCK:   -2.99 KCAL/MOL
REMARK 923 INTER-LIGAND FREE ENERGY PREDICTED BY IDOCK:   -2.51 KCAL/MOL
REMARK 924 INTRA-LIGAND FREE ENERGY PREDICTED BY IDOCK:   -0.49 KCAL/MOL
REMARK 927      BINDING AFFINITY PREDICTED BY RF-SCORE:    0.00 PKD
ROOT
HETATM    1  N   UNL     1      -9.607   2.201  67.753  1.00  0.00    -0.395 NA 
HETATM    2  C   UNL     1      -8.832   3.425  67.590  1.00  0.00    -0.129 C  
HETATM    3  H2  UNL     1     -10.592   2.342  67.524  1.00  0.00     0.000 HD 
HETATM    4  H1  UNL     1      -9.197   1.443  67.208  1.00  0.00     0.000 HD 
ENDROOT
BRANCH   2   5
HETATM    5  C   UNL     1      -9.447   4.561  68.406  1.00  0.00    -0.209 C  
BRANCH   5   6
HETATM    6  C   UNL     1      -9.780   4.087  69.821  1.00  0.00    -0.184 C  
BRANCH   6   7
HETATM    7  N   UNL     1      -9.057   4.897  70.799  1.00  0.00    -0.132 NA 
HETATM    8  H   UNL     1      -8.580   5.683  70.358  1.00  0.00     0.000 HD 
BRANCH   7   9
HETATM    9  C   UNL     1      -9.947   5.341  71.877  1.00  0.00    -0.187 C  
BRANCH   9  10
HETATM   10  C   UNL     1     -10.643   6.654  71.517  1.00  0.00    -0.222 C  
BRANCH  10  11
HETATM   11  S   UNL     1      -9.725   8.110  72.117  1.00  0.00    -0.273 SA 
HETATM   12  P   UNL     1      -8.704   8.640  70.404  1.00  0.00    -0.186 P  
HETATM   13  O   UNL     1      -7.688   9.831  70.739  1.00  0.00    -0.308 OA 
HETATM   14  O   UNL     1      -8.031   7.473  69.757  1.00  0.00    -0.118 OA 
HETATM   15  O   UNL     1      -9.695   9.386  69.397  1.00  0.00    -0.164 OA 
ENDBRANCH  10  11
ENDBRANCH   9  10
ENDBRANCH   7   9
ENDBRANCH   6   7
ENDBRANCH   5   6
ENDBRANCH   2   5
TORSDOF 6
ENDMDL
MODEL      285
REMARK 921   NORMALIZED FREE ENERGY PREDICTED BY IDOCK:   -2.14 KCAL/MOL
REMARK 922        TOTAL FREE ENERGY PREDICTED BY IDOCK:   -2.97 KCAL/MOL
REMARK 923 INTER-LIGAND FREE ENERGY PREDICTED BY IDOCK:   -2.64 KCAL/MOL
REMARK 924 INTRA-LIGAND FREE ENERGY PREDICTED BY IDOCK:   -0.33 KCAL/MOL
REMARK 927      BINDING AFFINITY PREDICTED BY RF-SCORE:    0.00 PKD
ROOT
HETATM    1  N   UNL     1     -12.778   6.777  71.943  1.00  0.00    -0.499 NA 
HETATM    2  C   UNL     1     -11.430   6.261  72.146  1.00  0.00    -0.307 C  
HETATM    3  H2  UNL     1     -13.445   6.030  71.747  1.00  0.00     0.000 HD 
HETATM    4  H1  UNL     1     -13.068   7.345  72.739  1.00  0.00     0.000 HD 
ENDROOT
BRANCH   2   5
HETATM    5  C   UNL     1     -10.995   5.412  70.953  1.00  0.00    -0.119 C  
BRANCH   5   6
HETATM    6  C   UNL     1     -11.211   6.173  69.645  1.00  0.00    -0.418 C  
BRANCH   6   7
HETATM    7  N   UNL     1      -9.940   6.715  69.170  1.00  0.00    -0.154 NA 
HETATM    8  H   UNL     1      -9.734   6.411  68.219  1.00  0.00     0.000 HD 
BRANCH   7   9
HETATM    9  C   UNL     1      -9.912   8.176  69.290  1.00  0.00    -0.188 C  
BRANCH   9  10
HETATM   10  C   UNL     1      -9.127   8.618  70.525  1.00  0.00    -0.165 C  
BRANCH  10  11
HETATM   11  S   UNL     1      -7.763   7.476  70.923  1.00  0.00    -0.091 SA 
HETATM   12  P   UNL     1      -6.638   8.661  72.182  1.00  0.00     0.014 P  
HETATM   13  O   UNL     1      -5.274   7.905  72.546  1.00  0.00    -0.036 OA 
HETATM   14  O   UNL     1      -6.408  10.029  71.624  1.00  0.00    -0.303 OA 
HETATM   15  O   UNL     1      -7.325   8.717  73.624  1.00  0.00    -0.373 OA 
ENDBRANCH  10  11
ENDBRANCH   9  10
ENDBRANCH   7   9
ENDBRANCH   6   7
ENDBRANCH   5   6
ENDBRANCH   2   5
TORSDOF 6
ENDMDL
MODEL      286
REMARK 921   NORMALIZED FREE ENERGY PREDICTED BY IDOCK:   -2.13 KCAL/MOL
REMARK 922        TOTAL FREE ENERGY PREDICTED BY IDOCK:   -2.96 KCAL/MOL
REMARK 923 INTER-LIGAND FREE ENERGY PREDICTED BY IDOCK:   -2.72 KCAL/MOL
REMARK 924 INTRA-LIGAND FREE ENERGY PREDICTED BY IDOCK:   -0.24 KCAL/MOL
REMARK 927      BINDING AFFINITY PREDICTED BY RF-SCORE:    0.00 PKD
ROOT
HETATM    1  N   UNL     1     -11.691   8.563  72.078  1.00  0.00    -0.336 NA 
HETATM    2  C   UNL     1     -10.436   8.504  71.339  1.00  0.00    -0.237 C  
HETATM    3  H2  UNL     1     -12.236   7.707  71.971  1.00  0.00     0.000 HD 
HETATM    4  H1  UNL     1     -11.520   8.783  73.059  1.00  0.00     0.000 HD 
ENDROOT
BRANCH   2   5
HETATM    5  C   UNL     1     -10.694   8.175  69.870  1.00  0.00    -0.241 C  
BRANCH   5   6
HETATM    6  C   UNL     1     -10.912   6.673  69.686  1.00  0.00    -0.313 C  
BRANCH   6   7
HETATM    7  N   UNL     1     -11.658   6.426  68.454  1.00  0.00    -0.442 NA 
HETATM    8  H   UNL     1     -12.476   7.030  68.382  1.00  0.00     0.000 HD 
BRANCH   7   9
HETATM    9  C   UNL     1     -10.789   6.551  67.278  1.00  0.00    -0.390 C  
BRANCH   9  10
HETATM   10  C   UNL     1     -10.579   5.198  66.597  1.00  0.00    -0.232 C  
BRANCH  10  11
HETATM   11  S   UNL     1      -8.814   4.809  66.361  1.00  0.00    -0.114 SA 
HETATM   12  P   UNL     1      -8.594   3.250  67.694  1.00  0.00    -0.124 P  
HETATM   13  O   UNL     1      -7.049   2.835  67.776  1.00  0.00    -0.048 OA 
HETATM   14  O   UNL     1      -9.179   3.558  69.035  1.00  0.00    -0.135 OA 
HETATM   15  O   UNL     1      -9.213   1.916  67.069  1.00  0.00    -0.110 OA 
ENDBRANCH  10  11
ENDBRANCH   9  10
ENDBRANCH   7   9
ENDBRANCH   6   7
ENDBRANCH   5   6
ENDBRANCH   2   5
TORSDOF 6
ENDMDL
MODEL      287
REMARK 921   NORMALIZED FREE ENERGY PREDICTED BY IDOCK:   -2.11 KCAL/MOL
REMARK 922        TOTAL FREE ENERGY PREDICTED BY IDOCK:   -2.94 KCAL/MOL
REMARK 923 INTER-LIGAND FREE ENERGY PREDICTED BY IDOCK:   -2.89 KCAL/MOL
REMARK 924 INTRA-LIGAND FREE ENERGY PREDICTED BY IDOCK:   -0.05 KCAL/MOL
REMARK 927      BINDING AFFINITY PREDICTED BY RF-SCORE:    0.00 PKD
ROOT
HETATM    1  N   UNL     1     -11.396   6.814  67.122  1.00  0.00    -0.755 NA 
HETATM    2  C   UNL     1     -10.621   7.323  68.247  1.00  0.00    -0.172 C  
HETATM    3  H2  UNL     1     -10.799   6.556  66.336  1.00  0.00     0.000 HD 
HETATM    4  H1  UNL     1     -11.990   6.040  67.418  1.00  0.00     0.000 HD 
ENDROOT
BRANCH   2   5
HETATM    5  C   UNL     1      -9.732   8.483  67.805  1.00  0.00    -0.199 C  
BRANCH   5   6
HETATM    6  C   UNL     1      -9.867   8.720  66.300  1.00  0.00    -0.272 C  
BRANCH   6   7
HETATM    7  N   UNL     1     -10.342  10.079  66.052  1.00  0.00    -0.199 NA 
HETATM    8  H   UNL     1     -10.945  10.410  66.805  1.00  0.00     0.000 HD 
BRANCH   7   9
HETATM    9  C   UNL     1      -9.222  10.995  65.814  1.00  0.00    -0.205 C  
BRANCH   9  10
HETATM   10  C   UNL     1      -9.512  12.386  66.380  1.00  0.00    -0.240 C  
BRANCH  10  11
HETATM   11  S   UNL     1      -8.908  12.578  68.089  1.00  0.00    -0.180 SA 
HETATM   12  P   UNL     1      -6.888  12.819  67.747  1.00  0.00    -0.164 P  
HETATM   13  O   UNL     1      -6.112  12.852  69.147  1.00  0.00    -0.080 OA 
HETATM   14  O   UNL     1      -6.341  11.791  66.809  1.00  0.00    -0.144 OA 
HETATM   15  O   UNL     1      -6.603  14.304  67.230  1.00  0.00    -0.278 OA 
ENDBRANCH  10  11
ENDBRANCH   9  10
ENDBRANCH   7   9
ENDBRANCH   6   7
ENDBRANCH   5   6
ENDBRANCH   2   5
TORSDOF 6
ENDMDL
MODEL      288
REMARK 921   NORMALIZED FREE ENERGY PREDICTED BY IDOCK:   -2.10 KCAL/MOL
REMARK 922        TOTAL FREE ENERGY PREDICTED BY IDOCK:   -2.92 KCAL/MOL
REMARK 923 INTER-LIGAND FREE ENERGY PREDICTED BY IDOCK:   -2.50 KCAL/MOL
REMARK 924 INTRA-LIGAND FREE ENERGY PREDICTED BY IDOCK:   -0.42 KCAL/MOL
REMARK 927      BINDING AFFINITY PREDICTED BY RF-SCORE:    0.00 PKD
ROOT
HETATM    1  N   UNL     1      -9.696   3.185  67.264  1.00  0.00    -0.350 NA 
HETATM    2  C   UNL     1      -8.363   3.706  67.537  1.00  0.00    -0.094 C  
HETATM    3  H2  UNL     1     -10.355   3.930  67.032  1.00  0.00     0.000 HD 
HETATM    4  H1  UNL     1      -9.660   2.471  66.536  1.00  0.00     0.000 HD 
ENDROOT
BRANCH   2   5
HETATM    5  C   UNL     1      -8.417   4.775  68.627  1.00  0.00    -0.090 C  
BRANCH   5   6
HETATM    6  C   UNL     1      -9.623   4.551  69.539  1.00  0.00    -0.195 C  
BRANCH   6   7
HETATM    7  N   UNL     1      -9.576   5.483  70.663  1.00  0.00    -0.164 NA 
HETATM    8  H   UNL     1      -8.995   5.127  71.422  1.00  0.00     0.000 HD 
BRANCH   7   9
HETATM    9  C   UNL     1      -9.140   6.814  70.227  1.00  0.00    -0.153 C  
BRANCH   9  10
HETATM   10  C   UNL     1      -9.413   7.868  71.301  1.00  0.00    -0.157 C  
BRANCH  10  11
HETATM   11  S   UNL     1     -10.702   9.053  70.795  1.00  0.00    -0.264 SA 
HETATM   12  P   UNL     1     -12.370   8.168  71.627  1.00  0.00    -0.331 P  
HETATM   13  O   UNL     1     -13.679   8.970  71.171  1.00  0.00    -0.255 OA 
HETATM   14  O   UNL     1     -12.453   6.707  71.322  1.00  0.00    -0.340 OA 
HETATM   15  O   UNL     1     -12.399   8.448  73.200  1.00  0.00    -0.105 OA 
ENDBRANCH  10  11
ENDBRANCH   9  10
ENDBRANCH   7   9
ENDBRANCH   6   7
ENDBRANCH   5   6
ENDBRANCH   2   5
TORSDOF 6
ENDMDL
MODEL      289
REMARK 921   NORMALIZED FREE ENERGY PREDICTED BY IDOCK:   -2.10 KCAL/MOL
REMARK 922        TOTAL FREE ENERGY PREDICTED BY IDOCK:   -2.92 KCAL/MOL
REMARK 923 INTER-LIGAND FREE ENERGY PREDICTED BY IDOCK:   -2.32 KCAL/MOL
REMARK 924 INTRA-LIGAND FREE ENERGY PREDICTED BY IDOCK:   -0.59 KCAL/MOL
REMARK 927      BINDING AFFINITY PREDICTED BY RF-SCORE:    0.00 PKD
ROOT
HETATM    1  N   UNL     1      -9.369   5.010  68.510  1.00  0.00    -0.120 NA 
HETATM    2  C   UNL     1      -9.287   3.557  68.423  1.00  0.00    -0.168 C  
HETATM    3  H2  UNL     1      -8.668   5.392  69.146  1.00  0.00     0.000 HD 
HETATM    4  H1  UNL     1      -9.306   5.428  67.581  1.00  0.00     0.000 HD 
ENDROOT
BRANCH   2   5
HETATM    5  C   UNL     1      -9.381   2.930  69.813  1.00  0.00    -0.207 C  
BRANCH   5   6
HETATM    6  C   UNL     1      -8.253   3.441  70.709  1.00  0.00    -0.057 C  
BRANCH   6   7
HETATM    7  N   UNL     1      -8.552   3.135  72.106  1.00  0.00    -0.074 NA 
HETATM    8  H   UNL     1      -7.711   3.151  72.683  1.00  0.00     0.000 HD 
BRANCH   7   9
HETATM    9  C   UNL     1      -9.585   4.033  72.633  1.00  0.00    -0.136 C  
BRANCH   9  10
HETATM   10  C   UNL     1      -9.187   5.500  72.461  1.00  0.00    -0.142 C  
BRANCH  10  11
HETATM   11  S   UNL     1     -10.562   6.638  72.831  1.00  0.00    -0.262 SA 
HETATM   12  P   UNL     1     -10.923   7.410  70.952  1.00  0.00    -0.265 P  
HETATM   13  O   UNL     1     -12.016   8.576  71.058  1.00  0.00    -0.284 OA 
HETATM   14  O   UNL     1      -9.671   7.853  70.266  1.00  0.00    -0.181 OA 
HETATM   15  O   UNL     1     -11.731   6.342  70.078  1.00  0.00    -0.429 OA 
ENDBRANCH  10  11
ENDBRANCH   9  10
ENDBRANCH   7   9
ENDBRANCH   6   7
ENDBRANCH   5   6
ENDBRANCH   2   5
TORSDOF 6
ENDMDL
MODEL      290
REMARK 921   NORMALIZED FREE ENERGY PREDICTED BY IDOCK:   -2.10 KCAL/MOL
REMARK 922        TOTAL FREE ENERGY PREDICTED BY IDOCK:   -2.92 KCAL/MOL
REMARK 923 INTER-LIGAND FREE ENERGY PREDICTED BY IDOCK:   -2.68 KCAL/MOL
REMARK 924 INTRA-LIGAND FREE ENERGY PREDICTED BY IDOCK:   -0.24 KCAL/MOL
REMARK 927      BINDING AFFINITY PREDICTED BY RF-SCORE:    0.00 PKD
ROOT
HETATM    1  N   UNL     1      -8.682   8.609  65.625  1.00  0.00    -0.173 NA 
HETATM    2  C   UNL     1      -9.653   7.856  66.410  1.00  0.00    -0.181 C  
HETATM    3  H2  UNL     1      -8.118   9.226  66.210  1.00  0.00     0.000 HD 
HETATM    4  H1  UNL     1      -8.103   7.978  65.072  1.00  0.00     0.000 HD 
ENDROOT
BRANCH   2   5
HETATM    5  C   UNL     1     -10.521   8.801  67.239  1.00  0.00    -0.353 C  
BRANCH   5   6
HETATM    6  C   UNL     1      -9.760   9.284  68.474  1.00  0.00    -0.150 C  
BRANCH   6   7
HETATM    7  N   UNL     1      -9.535   8.167  69.387  1.00  0.00    -0.162 NA 
HETATM    8  H   UNL     1      -9.192   7.342  68.895  1.00  0.00     0.000 HD 
BRANCH   7   9
HETATM    9  C   UNL     1      -8.639   8.553  70.482  1.00  0.00    -0.147 C  
BRANCH   9  10
HETATM   10  C   UNL     1      -9.421   8.836  71.766  1.00  0.00    -0.293 C  
BRANCH  10  11
HETATM   11  S   UNL     1     -11.055   8.029  71.773  1.00  0.00    -0.276 SA 
HETATM   12  P   UNL     1     -10.594   6.257  72.723  1.00  0.00    -0.254 P  
HETATM   13  O   UNL     1     -11.874   5.295  72.704  1.00  0.00    -0.208 OA 
HETATM   14  O   UNL     1      -9.374   5.605  72.154  1.00  0.00    -0.146 OA 
HETATM   15  O   UNL     1     -10.451   6.510  74.294  1.00  0.00    -0.333 OA 
ENDBRANCH  10  11
ENDBRANCH   9  10
ENDBRANCH   7   9
ENDBRANCH   6   7
ENDBRANCH   5   6
ENDBRANCH   2   5
TORSDOF 6
ENDMDL
MODEL      291
REMARK 921   NORMALIZED FREE ENERGY PREDICTED BY IDOCK:   -2.09 KCAL/MOL
REMARK 922        TOTAL FREE ENERGY PREDICTED BY IDOCK:   -2.90 KCAL/MOL
REMARK 923 INTER-LIGAND FREE ENERGY PREDICTED BY IDOCK:   -2.53 KCAL/MOL
REMARK 924 INTRA-LIGAND FREE ENERGY PREDICTED BY IDOCK:   -0.37 KCAL/MOL
REMARK 927      BINDING AFFINITY PREDICTED BY RF-SCORE:    0.00 PKD
ROOT
HETATM    1  N   UNL     1     -10.712  14.374  68.308  1.00  0.00    -0.237 NA 
HETATM    2  C   UNL     1     -11.892  13.716  67.761  1.00  0.00    -0.368 C  
HETATM    3  H2  UNL     1      -9.864  13.831  68.141  1.00  0.00     0.000 HD 
HETATM    4  H1  UNL     1     -10.630  15.324  67.945  1.00  0.00     0.000 HD 
ENDROOT
BRANCH   2   5
HETATM    5  C   UNL     1     -12.014  12.294  68.305  1.00  0.00    -0.259 C  
BRANCH   5   6
HETATM    6  C   UNL     1     -10.725  11.511  68.054  1.00  0.00    -0.202 C  
BRANCH   6   7
HETATM    7  N   UNL     1      -9.806  11.696  69.175  1.00  0.00    -0.410 NA 
HETATM    8  H   UNL     1     -10.305  11.790  70.059  1.00  0.00     0.000 HD 
BRANCH   7   9
HETATM    9  C   UNL     1      -8.815  10.616  69.227  1.00  0.00    -0.077 C  
BRANCH   9  10
HETATM   10  C   UNL     1      -9.424   9.281  68.796  1.00  0.00    -0.150 C  
BRANCH  10  11
HETATM   11  S   UNL     1      -8.159   8.080  68.268  1.00  0.00    -0.127 SA 
HETATM   12  P   UNL     1      -9.029   7.354  66.545  1.00  0.00    -0.163 P  
HETATM   13  O   UNL     1      -8.148   6.144  65.974  1.00  0.00    -0.108 OA 
HETATM   14  O   UNL     1     -10.463   6.980  66.743  1.00  0.00    -0.262 OA 
HETATM   15  O   UNL     1      -8.851   8.416  65.364  1.00  0.00    -0.170 OA 
ENDBRANCH  10  11
ENDBRANCH   9  10
ENDBRANCH   7   9
ENDBRANCH   6   7
ENDBRANCH   5   6
ENDBRANCH   2   5
TORSDOF 6
ENDMDL
MODEL      292
REMARK 921   NORMALIZED FREE ENERGY PREDICTED BY IDOCK:   -2.07 KCAL/MOL
REMARK 922        TOTAL FREE ENERGY PREDICTED BY IDOCK:   -2.88 KCAL/MOL
REMARK 923 INTER-LIGAND FREE ENERGY PREDICTED BY IDOCK:   -2.44 KCAL/MOL
REMARK 924 INTRA-LIGAND FREE ENERGY PREDICTED BY IDOCK:   -0.44 KCAL/MOL
REMARK 927      BINDING AFFINITY PREDICTED BY RF-SCORE:    0.00 PKD
ROOT
HETATM    1  N   UNL     1      -9.585   2.359  66.729  1.00  0.00    -0.374 NA 
HETATM    2  C   UNL     1      -8.255   2.927  66.544  1.00  0.00    -0.088 C  
HETATM    3  H2  UNL     1     -10.318   3.010  66.446  1.00  0.00     0.000 HD 
HETATM    4  H1  UNL     1      -9.664   1.466  66.244  1.00  0.00     0.000 HD 
ENDROOT
BRANCH   2   5
HETATM    5  C   UNL     1      -8.137   4.265  67.272  1.00  0.00    -0.100 C  
BRANCH   5   6
HETATM    6  C   UNL     1      -9.208   4.382  68.357  1.00  0.00    -0.137 C  
BRANCH   6   7
HETATM    7  N   UNL     1      -8.887   5.491  69.253  1.00  0.00    -0.106 NA 
HETATM    8  H   UNL     1      -8.221   5.211  69.974  1.00  0.00     0.000 HD 
BRANCH   7   9
HETATM    9  C   UNL     1      -8.410   6.656  68.501  1.00  0.00    -0.122 C  
BRANCH   9  10
HETATM   10  C   UNL     1      -7.850   7.730  69.436  1.00  0.00    -0.115 C  
BRANCH  10  11
HETATM   11  S   UNL     1      -9.024   9.099  69.699  1.00  0.00    -0.166 SA 
HETATM   12  P   UNL     1      -9.948   8.470  71.433  1.00  0.00    -0.287 P  
HETATM   13  O   UNL     1     -11.156   9.463  71.782  1.00  0.00    -0.370 OA 
HETATM   14  O   UNL     1     -10.379   7.040  71.364  1.00  0.00    -0.198 OA 
HETATM   15  O   UNL     1      -8.989   8.740  72.682  1.00  0.00    -0.380 OA 
ENDBRANCH  10  11
ENDBRANCH   9  10
ENDBRANCH   7   9
ENDBRANCH   6   7
ENDBRANCH   5   6
ENDBRANCH   2   5
TORSDOF 6
ENDMDL
MODEL      293
REMARK 921   NORMALIZED FREE ENERGY PREDICTED BY IDOCK:   -2.07 KCAL/MOL
REMARK 922        TOTAL FREE ENERGY PREDICTED BY IDOCK:   -2.88 KCAL/MOL
REMARK 923 INTER-LIGAND FREE ENERGY PREDICTED BY IDOCK:   -2.54 KCAL/MOL
REMARK 924 INTRA-LIGAND FREE ENERGY PREDICTED BY IDOCK:   -0.34 KCAL/MOL
REMARK 927      BINDING AFFINITY PREDICTED BY RF-SCORE:    0.00 PKD
ROOT
HETATM    1  N   UNL     1      -6.660  13.056  69.839  1.00  0.00    -0.355 NA 
HETATM    2  C   UNL     1      -6.368  12.901  68.419  1.00  0.00    -0.080 C  
HETATM    3  H2  UNL     1      -7.652  12.925  70.038  1.00  0.00     0.000 HD 
HETATM    4  H1  UNL     1      -6.076  12.431  70.395  1.00  0.00     0.000 HD 
ENDROOT
BRANCH   2   5
HETATM    5  C   UNL     1      -7.242  13.837  67.586  1.00  0.00    -0.183 C  
BRANCH   5   6
HETATM    6  C   UNL     1      -8.258  14.554  68.475  1.00  0.00    -0.154 C  
BRANCH   6   7
HETATM    7  N   UNL     1      -9.568  14.560  67.826  1.00  0.00    -0.212 NA 
HETATM    8  H   UNL     1      -9.527  14.149  66.894  1.00  0.00     0.000 HD 
BRANCH   7   9
HETATM    9  C   UNL     1     -10.574  13.900  68.665  1.00  0.00    -0.257 C  
BRANCH   9  10
HETATM   10  C   UNL     1     -10.644  12.401  68.372  1.00  0.00    -0.236 C  
BRANCH  10  11
HETATM   11  S   UNL     1     -10.669  12.045  66.584  1.00  0.00    -0.257 SA 
HETATM   12  P   UNL     1      -9.576  10.296  66.536  1.00  0.00    -0.199 P  
HETATM   13  O   UNL     1      -9.328   9.867  65.013  1.00  0.00    -0.225 OA 
HETATM   14  O   UNL     1      -8.308  10.393  67.321  1.00  0.00    -0.121 OA 
HETATM   15  O   UNL     1     -10.487   9.079  67.029  1.00  0.00    -0.265 OA 
ENDBRANCH  10  11
ENDBRANCH   9  10
ENDBRANCH   7   9
ENDBRANCH   6   7
ENDBRANCH   5   6
ENDBRANCH   2   5
TORSDOF 6
ENDMDL
MODEL      294
REMARK 921   NORMALIZED FREE ENERGY PREDICTED BY IDOCK:   -2.07 KCAL/MOL
REMARK 922        TOTAL FREE ENERGY PREDICTED BY IDOCK:   -2.87 KCAL/MOL
REMARK 923 INTER-LIGAND FREE ENERGY PREDICTED BY IDOCK:   -2.55 KCAL/MOL
REMARK 924 INTRA-LIGAND FREE ENERGY PREDICTED BY IDOCK:   -0.32 KCAL/MOL
REMARK 927      BINDING AFFINITY PREDICTED BY RF-SCORE:    0.00 PKD
ROOT
HETATM    1  N   UNL     1      -8.466   7.364  64.530  1.00  0.00    -0.368 NA 
HETATM    2  C   UNL     1      -8.459   6.496  65.701  1.00  0.00    -0.144 C  
HETATM    3  H2  UNL     1      -7.537   7.731  64.325  1.00  0.00     0.000 HD 
HETATM    4  H1  UNL     1      -8.868   6.880  63.728  1.00  0.00     0.000 HD 
ENDROOT
BRANCH   2   5
HETATM    5  C   UNL     1      -7.857   7.221  66.903  1.00  0.00    -0.111 C  
BRANCH   5   6
HETATM    6  C   UNL     1      -8.327   8.675  66.943  1.00  0.00    -0.108 C  
BRANCH   6   7
HETATM    7  N   UNL     1      -9.044   8.932  68.190  1.00  0.00    -0.140 NA 
HETATM    8  H   UNL     1      -8.877   9.878  68.532  1.00  0.00     0.000 HD 
BRANCH   7   9
HETATM    9  C   UNL     1     -10.477   8.656  68.041  1.00  0.00    -0.197 C  
BRANCH   9  10
HETATM   10  C   UNL     1     -10.905   7.462  68.896  1.00  0.00    -0.060 C  
BRANCH  10  11
HETATM   11  S   UNL     1      -9.819   7.221  70.340  1.00  0.00    -0.183 SA 
HETATM   12  P   UNL     1     -11.000   8.015  71.833  1.00  0.00    -0.307 P  
HETATM   13  O   UNL     1     -10.171   8.054  73.203  1.00  0.00    -0.322 OA 
HETATM   14  O   UNL     1     -11.567   9.348  71.465  1.00  0.00    -0.346 OA 
HETATM   15  O   UNL     1     -12.146   6.971  72.225  1.00  0.00    -0.262 OA 
ENDBRANCH  10  11
ENDBRANCH   9  10
ENDBRANCH   7   9
ENDBRANCH   6   7
ENDBRANCH   5   6
ENDBRANCH   2   5
TORSDOF 6
ENDMDL
MODEL      295
REMARK 921   NORMALIZED FREE ENERGY PREDICTED BY IDOCK:   -2.05 KCAL/MOL
REMARK 922        TOTAL FREE ENERGY PREDICTED BY IDOCK:   -2.85 KCAL/MOL
REMARK 923 INTER-LIGAND FREE ENERGY PREDICTED BY IDOCK:   -2.59 KCAL/MOL
REMARK 924 INTRA-LIGAND FREE ENERGY PREDICTED BY IDOCK:   -0.26 KCAL/MOL
REMARK 927      BINDING AFFINITY PREDICTED BY RF-SCORE:    0.00 PKD
ROOT
HETATM    1  N   UNL     1      -8.181   2.359  74.238  1.00  0.00    -0.058 NA 
HETATM    2  C   UNL     1      -7.811   3.746  73.985  1.00  0.00    -0.079 C  
HETATM    3  H2  UNL     1      -8.944   2.053  73.634  1.00  0.00     0.000 HD 
HETATM    4  H1  UNL     1      -7.366   1.751  74.157  1.00  0.00     0.000 HD 
ENDROOT
BRANCH   2   5
HETATM    5  C   UNL     1      -9.032   4.657  74.107  1.00  0.00    -0.108 C  
BRANCH   5   6
HETATM    6  C   UNL     1     -10.250   4.014  73.444  1.00  0.00    -0.150 C  
BRANCH   6   7
HETATM    7  N   UNL     1     -10.945   5.000  72.619  1.00  0.00    -0.230 NA 
HETATM    8  H   UNL     1     -11.273   5.790  73.174  1.00  0.00     0.000 HD 
BRANCH   7   9
HETATM    9  C   UNL     1     -10.104   5.437  71.500  1.00  0.00    -0.195 C  
BRANCH   9  10
HETATM   10  C   UNL     1     -10.953   5.884  70.309  1.00  0.00    -0.320 C  
BRANCH  10  11
HETATM   11  S   UNL     1     -10.561   7.584  69.779  1.00  0.00    -0.239 SA 
HETATM   12  P   UNL     1     -11.466   8.663  71.286  1.00  0.00    -0.320 P  
HETATM   13  O   UNL     1     -11.384  10.225  70.944  1.00  0.00    -0.337 OA 
HETATM   14  O   UNL     1     -12.863   8.205  71.558  1.00  0.00    -0.313 OA 
HETATM   15  O   UNL     1     -10.559   8.613  72.602  1.00  0.00    -0.246 OA 
ENDBRANCH  10  11
ENDBRANCH   9  10
ENDBRANCH   7   9
ENDBRANCH   6   7
ENDBRANCH   5   6
ENDBRANCH   2   5
TORSDOF 6
ENDMDL
MODEL      296
REMARK 921   NORMALIZED FREE ENERGY PREDICTED BY IDOCK:   -2.04 KCAL/MOL
REMARK 922        TOTAL FREE ENERGY PREDICTED BY IDOCK:   -2.84 KCAL/MOL
REMARK 923 INTER-LIGAND FREE ENERGY PREDICTED BY IDOCK:   -2.68 KCAL/MOL
REMARK 924 INTRA-LIGAND FREE ENERGY PREDICTED BY IDOCK:   -0.16 KCAL/MOL
REMARK 927      BINDING AFFINITY PREDICTED BY RF-SCORE:    0.00 PKD
ROOT
HETATM    1  N   UNL     1     -10.422  18.605  68.277  1.00  0.00    -0.335 NA 
HETATM    2  C   UNL     1      -9.527  18.654  67.127  1.00  0.00    -0.295 C  
HETATM    3  H2  UNL     1     -10.197  17.828  68.900  1.00  0.00     0.000 HD 
HETATM    4  H1  UNL     1     -10.421  19.498  68.769  1.00  0.00     0.000 HD 
ENDROOT
BRANCH   2   5
HETATM    5  C   UNL     1      -9.527  17.316  66.389  1.00  0.00    -0.282 C  
BRANCH   5   6
HETATM    6  C   UNL     1      -8.313  16.480  66.793  1.00  0.00    -0.239 C  
BRANCH   6   7
HETATM    7  N   UNL     1      -8.732  15.385  67.665  1.00  0.00    -0.163 NA 
HETATM    8  H   UNL     1      -8.877  15.702  68.623  1.00  0.00     0.000 HD 
BRANCH   7   9
HETATM    9  C   UNL     1      -9.921  14.712  67.132  1.00  0.00    -0.240 C  
BRANCH   9  10
HETATM   10  C   UNL     1     -10.677  13.966  68.233  1.00  0.00    -0.251 C  
BRANCH  10  11
HETATM   11  S   UNL     1     -11.241  12.319  67.691  1.00  0.00    -0.312 SA 
HETATM   12  P   UNL     1      -9.493  11.242  67.887  1.00  0.00    -0.190 P  
HETATM   13  O   UNL     1      -9.710   9.765  67.307  1.00  0.00    -0.158 OA 
HETATM   14  O   UNL     1      -8.321  11.937  67.270  1.00  0.00    -0.154 OA 
HETATM   15  O   UNL     1      -9.238  10.907  69.429  1.00  0.00    -0.061 OA 
ENDBRANCH  10  11
ENDBRANCH   9  10
ENDBRANCH   7   9
ENDBRANCH   6   7
ENDBRANCH   5   6
ENDBRANCH   2   5
TORSDOF 6
ENDMDL
MODEL      297
REMARK 921   NORMALIZED FREE ENERGY PREDICTED BY IDOCK:   -2.04 KCAL/MOL
REMARK 922        TOTAL FREE ENERGY PREDICTED BY IDOCK:   -2.84 KCAL/MOL
REMARK 923 INTER-LIGAND FREE ENERGY PREDICTED BY IDOCK:   -2.68 KCAL/MOL
REMARK 924 INTRA-LIGAND FREE ENERGY PREDICTED BY IDOCK:   -0.15 KCAL/MOL
REMARK 927      BINDING AFFINITY PREDICTED BY RF-SCORE:    0.00 PKD
ROOT
HETATM    1  N   UNL     1      -6.357   5.142  65.731  1.00  0.00    -0.034 NA 
HETATM    2  C   UNL     1      -7.640   4.685  66.252  1.00  0.00    -0.090 C  
HETATM    3  H2  UNL     1      -5.803   5.613  66.447  1.00  0.00     0.000 HD 
HETATM    4  H1  UNL     1      -5.847   4.369  65.305  1.00  0.00     0.000 HD 
ENDROOT
BRANCH   2   5
HETATM    5  C   UNL     1      -8.404   5.844  66.890  1.00  0.00    -0.108 C  
BRANCH   5   6
HETATM    6  C   UNL     1      -8.990   6.758  65.814  1.00  0.00    -0.016 C  
BRANCH   6   7
HETATM    7  N   UNL     1      -9.814   7.792  66.436  1.00  0.00    -0.432 NA 
HETATM    8  H   UNL     1     -10.791   7.713  66.154  1.00  0.00     0.000 HD 
BRANCH   7   9
HETATM    9  C   UNL     1      -9.669   7.775  67.895  1.00  0.00    -0.153 C  
BRANCH   9  10
HETATM   10  C   UNL     1      -9.311   9.161  68.434  1.00  0.00    -0.135 C  
BRANCH  10  11
HETATM   11  S   UNL     1     -10.484   9.732  69.707  1.00  0.00    -0.269 SA 
HETATM   12  P   UNL     1     -11.070  11.535  68.894  1.00  0.00    -0.272 P  
HETATM   13  O   UNL     1     -12.006  12.309  69.937  1.00  0.00    -0.324 OA 
HETATM   14  O   UNL     1      -9.910  12.360  68.437  1.00  0.00    -0.217 OA 
HETATM   15  O   UNL     1     -12.115  11.277  67.712  1.00  0.00    -0.631 OA 
ENDBRANCH  10  11
ENDBRANCH   9  10
ENDBRANCH   7   9
ENDBRANCH   6   7
ENDBRANCH   5   6
ENDBRANCH   2   5
TORSDOF 6
ENDMDL
MODEL      298
REMARK 921   NORMALIZED FREE ENERGY PREDICTED BY IDOCK:   -2.02 KCAL/MOL
REMARK 922        TOTAL FREE ENERGY PREDICTED BY IDOCK:   -2.82 KCAL/MOL
REMARK 923 INTER-LIGAND FREE ENERGY PREDICTED BY IDOCK:   -2.60 KCAL/MOL
REMARK 924 INTRA-LIGAND FREE ENERGY PREDICTED BY IDOCK:   -0.22 KCAL/MOL
REMARK 927      BINDING AFFINITY PREDICTED BY RF-SCORE:    0.00 PKD
ROOT
HETATM    1  N   UNL     1     -12.931  10.077  71.858  1.00  0.00    -0.436 NA 
HETATM    2  C   UNL     1     -12.123  10.731  70.836  1.00  0.00    -0.370 C  
HETATM    3  H2  UNL     1     -12.409   9.940  72.724  1.00  0.00     0.000 HD 
HETATM    4  H1  UNL     1     -13.796  10.594  72.015  1.00  0.00     0.000 HD 
ENDROOT
BRANCH   2   5
HETATM    5  C   UNL     1     -10.828   9.956  70.600  1.00  0.00    -0.400 C  
BRANCH   5   6
HETATM    6  C   UNL     1     -10.706   8.799  71.591  1.00  0.00    -0.327 C  
BRANCH   6   7
HETATM    7  N   UNL     1      -9.326   8.686  72.056  1.00  0.00    -0.280 NA 
HETATM    8  H   UNL     1      -9.103   9.399  72.751  1.00  0.00     0.000 HD 
BRANCH   7   9
HETATM    9  C   UNL     1      -9.047   7.336  72.558  1.00  0.00    -0.134 C  
BRANCH   9  10
HETATM   10  C   UNL     1     -10.245   6.408  72.351  1.00  0.00    -0.186 C  
BRANCH  10  11
HETATM   11  S   UNL     1      -9.840   4.979  71.295  1.00  0.00    -0.190 SA 
HETATM   12  P   UNL     1      -9.946   3.451  72.676  1.00  0.00    -0.160 P  
HETATM   13  O   UNL     1      -9.464   2.084  71.994  1.00  0.00    -0.086 OA 
HETATM   14  O   UNL     1      -9.198   3.763  73.932  1.00  0.00    -0.090 OA 
HETATM   15  O   UNL     1     -11.477   3.097  72.970  1.00  0.00     0.061 OA 
ENDBRANCH  10  11
ENDBRANCH   9  10
ENDBRANCH   7   9
ENDBRANCH   6   7
ENDBRANCH   5   6
ENDBRANCH   2   5
TORSDOF 6
ENDMDL
MODEL      299
REMARK 921   NORMALIZED FREE ENERGY PREDICTED BY IDOCK:   -2.01 KCAL/MOL
REMARK 922        TOTAL FREE ENERGY PREDICTED BY IDOCK:   -2.80 KCAL/MOL
REMARK 923 INTER-LIGAND FREE ENERGY PREDICTED BY IDOCK:   -2.10 KCAL/MOL
REMARK 924 INTRA-LIGAND FREE ENERGY PREDICTED BY IDOCK:   -0.71 KCAL/MOL
REMARK 927      BINDING AFFINITY PREDICTED BY RF-SCORE:    0.00 PKD
ROOT
HETATM    1  N   UNL     1      -9.335  10.666  66.746  1.00  0.00    -0.156 NA 
HETATM    2  C   UNL     1      -8.002  11.252  66.814  1.00  0.00    -0.159 C  
HETATM    3  H2  UNL     1      -9.482   9.971  67.479  1.00  0.00     0.000 HD 
HETATM    4  H1  UNL     1     -10.049  11.395  66.767  1.00  0.00     0.000 HD 
ENDROOT
BRANCH   2   5
HETATM    5  C   UNL     1      -6.934  10.161  66.782  1.00  0.00    -0.091 C  
BRANCH   5   6
HETATM    6  C   UNL     1      -7.582   8.776  66.772  1.00  0.00    -0.090 C  
BRANCH   6   7
HETATM    7  N   UNL     1      -7.752   8.297  68.142  1.00  0.00    -0.105 NA 
HETATM    8  H   UNL     1      -8.312   8.942  68.699  1.00  0.00     0.000 HD 
BRANCH   7   9
HETATM    9  C   UNL     1      -8.309   6.941  68.162  1.00  0.00    -0.118 C  
BRANCH   9  10
HETATM   10  C   UNL     1      -8.567   6.467  69.593  1.00  0.00    -0.134 C  
BRANCH  10  11
HETATM   11  S   UNL     1     -10.259   6.849  70.154  1.00  0.00    -0.195 SA 
HETATM   12  P   UNL     1      -9.933   8.636  71.132  1.00  0.00    -0.276 P  
HETATM   13  O   UNL     1     -11.284   9.098  71.858  1.00  0.00    -0.364 OA 
HETATM   14  O   UNL     1      -8.769   8.572  72.067  1.00  0.00    -0.180 OA 
HETATM   15  O   UNL     1      -9.770   9.812  70.062  1.00  0.00    -0.229 OA 
ENDBRANCH  10  11
ENDBRANCH   9  10
ENDBRANCH   7   9
ENDBRANCH   6   7
ENDBRANCH   5   6
ENDBRANCH   2   5
TORSDOF 6
ENDMDL
MODEL      300
REMARK 921   NORMALIZED FREE ENERGY PREDICTED BY IDOCK:   -2.01 KCAL/MOL
REMARK 922        TOTAL FREE ENERGY PREDICTED BY IDOCK:   -2.80 KCAL/MOL
REMARK 923 INTER-LIGAND FREE ENERGY PREDICTED BY IDOCK:   -2.44 KCAL/MOL
REMARK 924 INTRA-LIGAND FREE ENERGY PREDICTED BY IDOCK:   -0.36 KCAL/MOL
REMARK 927      BINDING AFFINITY PREDICTED BY RF-SCORE:    0.00 PKD
ROOT
HETATM    1  N   UNL     1     -11.562   7.775  72.861  1.00  0.00    -0.603 NA 
HETATM    2  C   UNL     1     -12.219   6.631  72.241  1.00  0.00    -0.146 C  
HETATM    3  H2  UNL     1     -10.701   8.027  72.374  1.00  0.00     0.000 HD 
HETATM    4  H1  UNL     1     -12.204   8.564  72.928  1.00  0.00     0.000 HD 
ENDROOT
BRANCH   2   5
HETATM    5  C   UNL     1     -11.257   5.449  72.142  1.00  0.00    -0.197 C  
BRANCH   5   6
HETATM    6  C   UNL     1     -10.399   5.559  70.881  1.00  0.00    -0.242 C  
BRANCH   6   7
HETATM    7  N   UNL     1     -11.034   6.466  69.927  1.00  0.00    -0.312 NA 
HETATM    8  H   UNL     1     -11.580   7.187  70.399  1.00  0.00     0.000 HD 
BRANCH   7   9
HETATM    9  C   UNL     1     -10.044   7.049  69.015  1.00  0.00    -0.180 C  
BRANCH   9  10
HETATM   10  C   UNL     1      -9.495   6.000  68.047  1.00  0.00    -0.113 C  
BRANCH  10  11
HETATM   11  S   UNL     1      -9.216   6.677  66.378  1.00  0.00    -0.126 SA 
HETATM   12  P   UNL     1      -8.599   4.979  65.383  1.00  0.00    -0.149 P  
HETATM   13  O   UNL     1      -8.138   5.369  63.900  1.00  0.00    -0.109 OA 
HETATM   14  O   UNL     1      -7.548   4.227  66.135  1.00  0.00    -0.087 OA 
HETATM   15  O   UNL     1      -9.864   4.059  65.054  1.00  0.00    -0.181 OA 
ENDBRANCH  10  11
ENDBRANCH   9  10
ENDBRANCH   7   9
ENDBRANCH   6   7
ENDBRANCH   5   6
ENDBRANCH   2   5
TORSDOF 6
ENDMDL
MODEL      301
REMARK 921   NORMALIZED FREE ENERGY PREDICTED BY IDOCK:   -2.01 KCAL/MOL
REMARK 922        TOTAL FREE ENERGY PREDICTED BY IDOCK:   -2.80 KCAL/MOL
REMARK 923 INTER-LIGAND FREE ENERGY PREDICTED BY IDOCK:   -2.19 KCAL/MOL
REMARK 924 INTRA-LIGAND FREE ENERGY PREDICTED BY IDOCK:   -0.61 KCAL/MOL
REMARK 927      BINDING AFFINITY PREDICTED BY RF-SCORE:    0.00 PKD
ROOT
HETATM    1  N   UNL     1     -11.842   7.910  70.518  1.00  0.00    -0.477 NA 
HETATM    2  C   UNL     1     -11.557   7.175  71.744  1.00  0.00    -0.280 C  
HETATM    3  H2  UNL     1     -11.009   8.019  69.938  1.00  0.00     0.000 HD 
HETATM    4  H1  UNL     1     -12.606   7.470  70.005  1.00  0.00     0.000 HD 
ENDROOT
BRANCH   2   5
HETATM    5  C   UNL     1     -10.414   7.836  72.512  1.00  0.00    -0.343 C  
BRANCH   5   6
HETATM    6  C   UNL     1      -9.440   6.781  73.037  1.00  0.00    -0.140 C  
BRANCH   6   7
HETATM    7  N   UNL     1      -8.566   6.330  71.956  1.00  0.00    -0.131 NA 
HETATM    8  H   UNL     1      -7.673   6.823  71.964  1.00  0.00     0.000 HD 
BRANCH   7   9
HETATM    9  C   UNL     1      -8.380   4.875  72.000  1.00  0.00    -0.123 C  
BRANCH   9  10
HETATM   10  C   UNL     1      -9.432   4.155  71.155  1.00  0.00    -0.163 C  
BRANCH  10  11
HETATM   11  S   UNL     1      -8.807   3.717  69.499  1.00  0.00    -0.104 SA 
HETATM   12  P   UNL     1      -8.611   5.594  68.665  1.00  0.00    -0.102 P  
HETATM   13  O   UNL     1      -8.214   5.450  67.121  1.00  0.00    -0.105 OA 
HETATM   14  O   UNL     1      -9.827   6.440  68.871  1.00  0.00    -0.134 OA 
HETATM   15  O   UNL     1      -7.295   6.300  69.233  1.00  0.00    -0.086 OA 
ENDBRANCH  10  11
ENDBRANCH   9  10
ENDBRANCH   7   9
ENDBRANCH   6   7
ENDBRANCH   5   6
ENDBRANCH   2   5
TORSDOF 6
ENDMDL
MODEL      302
REMARK 921   NORMALIZED FREE ENERGY PREDICTED BY IDOCK:   -1.96 KCAL/MOL
REMARK 922        TOTAL FREE ENERGY PREDICTED BY IDOCK:   -2.73 KCAL/MOL
REMARK 923 INTER-LIGAND FREE ENERGY PREDICTED BY IDOCK:   -2.46 KCAL/MOL
REMARK 924 INTRA-LIGAND FREE ENERGY PREDICTED BY IDOCK:   -0.27 KCAL/MOL
REMARK 927      BINDING AFFINITY PREDICTED BY RF-SCORE:    0.00 PKD
ROOT
HETATM    1  N   UNL     1     -12.057   6.548  72.557  1.00  0.00    -0.521 NA 
HETATM    2  C   UNL     1     -11.619   6.489  71.168  1.00  0.00    -0.335 C  
HETATM    3  H2  UNL     1     -11.884   7.464  72.971  1.00  0.00     0.000 HD 
HETATM    4  H1  UNL     1     -13.037   6.276  72.636  1.00  0.00     0.000 HD 
ENDROOT
BRANCH   2   5
HETATM    5  C   UNL     1     -10.152   6.896  71.051  1.00  0.00    -0.206 C  
BRANCH   5   6
HETATM    6  C   UNL     1      -9.834   7.357  69.628  1.00  0.00    -0.175 C  
BRANCH   6   7
HETATM    7  N   UNL     1     -10.321   8.720  69.426  1.00  0.00    -0.211 NA 
HETATM    8  H   UNL     1      -9.771   9.397  69.954  1.00  0.00     0.000 HD 
BRANCH   7   9
HETATM    9  C   UNL     1     -10.370   9.057  68.000  1.00  0.00    -0.224 C  
BRANCH   9  10
HETATM   10  C   UNL     1      -8.968   9.300  67.439  1.00  0.00    -0.124 C  
BRANCH  10  11
HETATM   11  S   UNL     1      -8.854   8.899  65.664  1.00  0.00    -0.196 SA 
HETATM   12  P   UNL     1      -8.246   6.930  65.765  1.00  0.00    -0.136 P  
HETATM   13  O   UNL     1      -7.923   6.398  64.289  1.00  0.00    -0.115 OA 
HETATM   14  O   UNL     1      -7.106   6.732  66.712  1.00  0.00    -0.068 OA 
HETATM   15  O   UNL     1      -9.493   6.001  66.135  1.00  0.00    -0.154 OA 
ENDBRANCH  10  11
ENDBRANCH   9  10
ENDBRANCH   7   9
ENDBRANCH   6   7
ENDBRANCH   5   6
ENDBRANCH   2   5
TORSDOF 6
ENDMDL
MODEL      303
REMARK 921   NORMALIZED FREE ENERGY PREDICTED BY IDOCK:   -1.94 KCAL/MOL
REMARK 922        TOTAL FREE ENERGY PREDICTED BY IDOCK:   -2.70 KCAL/MOL
REMARK 923 INTER-LIGAND FREE ENERGY PREDICTED BY IDOCK:   -2.35 KCAL/MOL
REMARK 924 INTRA-LIGAND FREE ENERGY PREDICTED BY IDOCK:   -0.35 KCAL/MOL
REMARK 927      BINDING AFFINITY PREDICTED BY RF-SCORE:    0.00 PKD
ROOT
HETATM    1  N   UNL     1      -6.504   5.722  64.707  1.00  0.00    -0.040 NA 
HETATM    2  C   UNL     1      -7.386   5.551  65.855  1.00  0.00    -0.077 C  
HETATM    3  H2  UNL     1      -5.783   6.423  64.884  1.00  0.00     0.000 HD 
HETATM    4  H1  UNL     1      -6.101   4.827  64.428  1.00  0.00     0.000 HD 
ENDROOT
BRANCH   2   5
HETATM    5  C   UNL     1      -7.989   6.891  66.273  1.00  0.00    -0.108 C  
BRANCH   5   6
HETATM    6  C   UNL     1      -9.434   6.708  66.737  1.00  0.00    -0.160 C  
BRANCH   6   7
HETATM    7  N   UNL     1      -9.539   7.007  68.164  1.00  0.00    -0.130 NA 
HETATM    8  H   UNL     1      -8.913   6.422  68.717  1.00  0.00     0.000 HD 
BRANCH   7   9
HETATM    9  C   UNL     1      -9.313   8.433  68.421  1.00  0.00    -0.135 C  
BRANCH   9  10
HETATM   10  C   UNL     1     -10.598   9.125  68.880  1.00  0.00    -0.191 C  
BRANCH  10  11
HETATM   11  S   UNL     1     -10.572   9.522  70.659  1.00  0.00    -0.329 SA 
HETATM   12  P   UNL     1     -11.087   7.691  71.458  1.00  0.00    -0.247 P  
HETATM   13  O   UNL     1     -11.283   7.838  73.041  1.00  0.00    -0.405 OA 
HETATM   14  O   UNL     1     -12.277   7.087  70.784  1.00  0.00    -0.353 OA 
HETATM   15  O   UNL     1      -9.823   6.713  71.419  1.00  0.00    -0.179 OA 
ENDBRANCH  10  11
ENDBRANCH   9  10
ENDBRANCH   7   9
ENDBRANCH   6   7
ENDBRANCH   5   6
ENDBRANCH   2   5
TORSDOF 6
ENDMDL
MODEL      304
REMARK 921   NORMALIZED FREE ENERGY PREDICTED BY IDOCK:   -1.93 KCAL/MOL
REMARK 922        TOTAL FREE ENERGY PREDICTED BY IDOCK:   -2.69 KCAL/MOL
REMARK 923 INTER-LIGAND FREE ENERGY PREDICTED BY IDOCK:   -2.49 KCAL/MOL
REMARK 924 INTRA-LIGAND FREE ENERGY PREDICTED BY IDOCK:   -0.20 KCAL/MOL
REMARK 927      BINDING AFFINITY PREDICTED BY RF-SCORE:    0.00 PKD
ROOT
HETATM    1  N   UNL     1      -6.194   6.043  68.172  1.00  0.00    -0.027 NA 
HETATM    2  C   UNL     1      -6.078   7.341  68.825  1.00  0.00    -0.027 C  
HETATM    3  H2  UNL     1      -5.959   6.095  67.180  1.00  0.00     0.000 HD 
HETATM    4  H1  UNL     1      -5.631   5.346  68.659  1.00  0.00     0.000 HD 
ENDROOT
BRANCH   2   5
HETATM    5  C   UNL     1      -6.922   8.386  68.097  1.00  0.00    -0.081 C  
BRANCH   5   6
HETATM    6  C   UNL     1      -6.476   9.797  68.478  1.00  0.00    -0.051 C  
BRANCH   6   7
HETATM    7  N   UNL     1      -7.642  10.667  68.615  1.00  0.00    -0.095 NA 
HETATM    8  H   UNL     1      -7.388  11.652  68.537  1.00  0.00     0.000 HD 
BRANCH   7   9
HETATM    9  C   UNL     1      -8.688  10.301  67.653  1.00  0.00    -0.121 C  
BRANCH   9  10
HETATM   10  C   UNL     1      -8.711  11.264  66.465  1.00  0.00    -0.178 C  
BRANCH  10  11
HETATM   11  S   UNL     1      -9.482  12.862  66.884  1.00  0.00    -0.242 SA 
HETATM   12  P   UNL     1     -11.448  12.466  66.402  1.00  0.00    -0.374 P  
HETATM   13  O   UNL     1     -12.311  13.807  66.545  1.00  0.00    -0.428 OA 
HETATM   14  O   UNL     1     -11.590  11.830  65.056  1.00  0.00    -0.257 OA 
HETATM   15  O   UNL     1     -12.115  11.576  67.550  1.00  0.00    -0.614 OA 
ENDBRANCH  10  11
ENDBRANCH   9  10
ENDBRANCH   7   9
ENDBRANCH   6   7
ENDBRANCH   5   6
ENDBRANCH   2   5
TORSDOF 6
ENDMDL
MODEL      305
REMARK 921   NORMALIZED FREE ENERGY PREDICTED BY IDOCK:   -1.93 KCAL/MOL
REMARK 922        TOTAL FREE ENERGY PREDICTED BY IDOCK:   -2.69 KCAL/MOL
REMARK 923 INTER-LIGAND FREE ENERGY PREDICTED BY IDOCK:   -2.48 KCAL/MOL
REMARK 924 INTRA-LIGAND FREE ENERGY PREDICTED BY IDOCK:   -0.21 KCAL/MOL
REMARK 927      BINDING AFFINITY PREDICTED BY RF-SCORE:    0.00 PKD
ROOT
HETATM    1  N   UNL     1     -12.169   7.088  72.493  1.00  0.00    -0.499 NA 
HETATM    2  C   UNL     1     -12.096   6.856  71.056  1.00  0.00    -0.380 C  
HETATM    3  H2  UNL     1     -11.708   7.958  72.761  1.00  0.00     0.000 HD 
HETATM    4  H1  UNL     1     -13.137   7.059  72.812  1.00  0.00     0.000 HD 
ENDROOT
BRANCH   2   5
HETATM    5  C   UNL     1     -10.646   6.900  70.578  1.00  0.00    -0.247 C  
BRANCH   5   6
HETATM    6  C   UNL     1     -10.546   7.617  69.232  1.00  0.00    -0.201 C  
BRANCH   6   7
HETATM    7  N   UNL     1     -10.127   9.002  69.436  1.00  0.00    -0.192 NA 
HETATM    8  H   UNL     1      -9.132   9.066  69.654  1.00  0.00     0.000 HD 
BRANCH   7   9
HETATM    9  C   UNL     1     -10.482   9.836  68.283  1.00  0.00    -0.216 C  
BRANCH   9  10
HETATM   10  C   UNL     1      -9.730  11.168  68.309  1.00  0.00    -0.188 C  
BRANCH  10  11
HETATM   11  S   UNL     1      -8.963  11.561  66.703  1.00  0.00    -0.189 SA 
HETATM   12  P   UNL     1      -7.156  10.586  66.904  1.00  0.00    -0.114 P  
HETATM   13  O   UNL     1      -6.226  10.926  65.645  1.00  0.00    -0.111 OA 
HETATM   14  O   UNL     1      -6.490  10.880  68.209  1.00  0.00    -0.057 OA 
HETATM   15  O   UNL     1      -7.365   9.016  66.686  1.00  0.00    -0.084 OA 
ENDBRANCH  10  11
ENDBRANCH   9  10
ENDBRANCH   7   9
ENDBRANCH   6   7
ENDBRANCH   5   6
ENDBRANCH   2   5
TORSDOF 6
ENDMDL
MODEL      306
REMARK 921   NORMALIZED FREE ENERGY PREDICTED BY IDOCK:   -1.90 KCAL/MOL
REMARK 922        TOTAL FREE ENERGY PREDICTED BY IDOCK:   -2.65 KCAL/MOL
REMARK 923 INTER-LIGAND FREE ENERGY PREDICTED BY IDOCK:   -2.13 KCAL/MOL
REMARK 924 INTRA-LIGAND FREE ENERGY PREDICTED BY IDOCK:   -0.52 KCAL/MOL
REMARK 927      BINDING AFFINITY PREDICTED BY RF-SCORE:    0.00 PKD
ROOT
HETATM    1  N   UNL     1      -8.198   5.139  66.219  1.00  0.00    -0.108 NA 
HETATM    2  C   UNL     1      -9.618   4.992  65.925  1.00  0.00    -0.164 C  
HETATM    3  H2  UNL     1      -7.898   4.511  66.965  1.00  0.00     0.000 HD 
HETATM    4  H1  UNL     1      -7.642   5.016  65.373  1.00  0.00     0.000 HD 
ENDROOT
BRANCH   2   5
HETATM    5  C   UNL     1     -10.451   5.177  67.192  1.00  0.00    -0.224 C  
BRANCH   5   6
HETATM    6  C   UNL     1      -9.775   4.496  68.382  1.00  0.00    -0.122 C  
BRANCH   6   7
HETATM    7  N   UNL     1     -10.212   5.123  69.628  1.00  0.00    -0.262 NA 
HETATM    8  H   UNL     1      -9.424   5.486  70.162  1.00  0.00     0.000 HD 
BRANCH   7   9
HETATM    9  C   UNL     1     -11.216   6.162  69.371  1.00  0.00    -0.396 C  
BRANCH   9  10
HETATM   10  C   UNL     1     -10.923   7.428  70.176  1.00  0.00    -0.255 C  
BRANCH  10  11
HETATM   11  S   UNL     1      -9.237   7.433  70.870  1.00  0.00    -0.154 SA 
HETATM   12  P   UNL     1      -8.238   8.503  69.417  1.00  0.00    -0.117 P  
HETATM   13  O   UNL     1      -6.670   8.504  69.742  1.00  0.00    -0.038 OA 
HETATM   14  O   UNL     1      -8.541   8.014  68.037  1.00  0.00    -0.128 OA 
HETATM   15  O   UNL     1      -8.562  10.060  69.578  1.00  0.00    -0.162 OA 
ENDBRANCH  10  11
ENDBRANCH   9  10
ENDBRANCH   7   9
ENDBRANCH   6   7
ENDBRANCH   5   6
ENDBRANCH   2   5
TORSDOF 6
ENDMDL
MODEL      307
REMARK 921   NORMALIZED FREE ENERGY PREDICTED BY IDOCK:   -1.88 KCAL/MOL
REMARK 922        TOTAL FREE ENERGY PREDICTED BY IDOCK:   -2.62 KCAL/MOL
REMARK 923 INTER-LIGAND FREE ENERGY PREDICTED BY IDOCK:   -2.27 KCAL/MOL
REMARK 924 INTRA-LIGAND FREE ENERGY PREDICTED BY IDOCK:   -0.35 KCAL/MOL
REMARK 927      BINDING AFFINITY PREDICTED BY RF-SCORE:    0.00 PKD
ROOT
HETATM    1  N   UNL     1     -11.486  13.983  65.140  1.00  0.00    -0.317 NA 
HETATM    2  C   UNL     1     -11.169  14.879  66.245  1.00  0.00    -0.331 C  
HETATM    3  H2  UNL     1     -11.264  13.012  65.363  1.00  0.00     0.000 HD 
HETATM    4  H1  UNL     1     -12.460  14.094  64.857  1.00  0.00     0.000 HD 
ENDROOT
BRANCH   2   5
HETATM    5  C   UNL     1      -9.711  14.713  66.668  1.00  0.00    -0.283 C  
BRANCH   5   6
HETATM    6  C   UNL     1      -9.564  13.546  67.644  1.00  0.00    -0.222 C  
BRANCH   6   7
HETATM    7  N   UNL     1      -9.895  12.291  66.971  1.00  0.00    -0.203 NA 
HETATM    8  H   UNL     1     -10.404  12.454  66.103  1.00  0.00     0.000 HD 
BRANCH   7   9
HETATM    9  C   UNL     1      -8.695  11.479  66.751  1.00  0.00    -0.178 C  
BRANCH   9  10
HETATM   10  C   UNL     1      -8.891  10.499  65.593  1.00  0.00    -0.182 C  
BRANCH  10  11
HETATM   11  S   UNL     1      -8.500   8.782  66.064  1.00  0.00    -0.143 SA 
HETATM   12  P   UNL     1      -7.518   8.144  64.367  1.00  0.00    -0.117 P  
HETATM   13  O   UNL     1      -7.207   6.577  64.490  1.00  0.00    -0.057 OA 
HETATM   14  O   UNL     1      -8.259   8.487  63.114  1.00  0.00    -0.173 OA 
HETATM   15  O   UNL     1      -6.030   8.728  64.354  1.00  0.00    -0.064 OA 
ENDBRANCH  10  11
ENDBRANCH   9  10
ENDBRANCH   7   9
ENDBRANCH   6   7
ENDBRANCH   5   6
ENDBRANCH   2   5
TORSDOF 6
ENDMDL
MODEL      308
REMARK 921   NORMALIZED FREE ENERGY PREDICTED BY IDOCK:   -1.87 KCAL/MOL
REMARK 922        TOTAL FREE ENERGY PREDICTED BY IDOCK:   -2.60 KCAL/MOL
REMARK 923 INTER-LIGAND FREE ENERGY PREDICTED BY IDOCK:   -2.40 KCAL/MOL
REMARK 924 INTRA-LIGAND FREE ENERGY PREDICTED BY IDOCK:   -0.20 KCAL/MOL
REMARK 927      BINDING AFFINITY PREDICTED BY RF-SCORE:    0.00 PKD
ROOT
HETATM    1  N   UNL     1      -9.928   9.938  65.143  1.00  0.00    -0.362 NA 
HETATM    2  C   UNL     1      -9.581  11.190  64.482  1.00  0.00    -0.250 C  
HETATM    3  H2  UNL     1     -10.672   9.443  64.651  1.00  0.00     0.000 HD 
HETATM    4  H1  UNL     1      -9.100   9.355  65.263  1.00  0.00     0.000 HD 
ENDROOT
BRANCH   2   5
HETATM    5  C   UNL     1     -10.821  12.063  64.302  1.00  0.00    -0.389 C  
BRANCH   5   6
HETATM    6  C   UNL     1     -11.059  12.921  65.545  1.00  0.00    -0.278 C  
BRANCH   6   7
HETATM    7  N   UNL     1     -10.756  14.320  65.249  1.00  0.00    -0.342 NA 
HETATM    8  H   UNL     1     -11.540  14.931  65.479  1.00  0.00     0.000 HD 
BRANCH   7   9
HETATM    9  C   UNL     1      -9.523  14.745  65.921  1.00  0.00    -0.231 C  
BRANCH   9  10
HETATM   10  C   UNL     1      -9.248  13.900  67.165  1.00  0.00    -0.239 C  
BRANCH  10  11
HETATM   11  S   UNL     1      -7.579  14.186  67.841  1.00  0.00    -0.178 SA 
HETATM   12  P   UNL     1      -7.951  15.787  69.087  1.00  0.00    -0.223 P  
HETATM   13  O   UNL     1      -6.567  16.324  69.688  1.00  0.00    -0.201 OA 
HETATM   14  O   UNL     1      -8.744  16.861  68.416  1.00  0.00    -0.226 OA 
HETATM   15  O   UNL     1      -8.660  15.274  70.425  1.00  0.00     0.516 OA 
ENDBRANCH  10  11
ENDBRANCH   9  10
ENDBRANCH   7   9
ENDBRANCH   6   7
ENDBRANCH   5   6
ENDBRANCH   2   5
TORSDOF 6
ENDMDL
MODEL      309
REMARK 921   NORMALIZED FREE ENERGY PREDICTED BY IDOCK:   -1.86 KCAL/MOL
REMARK 922        TOTAL FREE ENERGY PREDICTED BY IDOCK:   -2.59 KCAL/MOL
REMARK 923 INTER-LIGAND FREE ENERGY PREDICTED BY IDOCK:   -2.16 KCAL/MOL
REMARK 924 INTRA-LIGAND FREE ENERGY PREDICTED BY IDOCK:   -0.44 KCAL/MOL
REMARK 927      BINDING AFFINITY PREDICTED BY RF-SCORE:    0.00 PKD
ROOT
HETATM    1  N   UNL     1      -6.533   6.695  63.905  1.00  0.00    -0.037 NA 
HETATM    2  C   UNL     1      -7.882   6.333  63.486  1.00  0.00    -0.113 C  
HETATM    3  H2  UNL     1      -5.942   5.873  64.031  1.00  0.00     0.000 HD 
HETATM    4  H1  UNL     1      -6.122   7.362  63.252  1.00  0.00     0.000 HD 
ENDROOT
BRANCH   2   5
HETATM    5  C   UNL     1      -8.498   5.335  64.465  1.00  0.00    -0.133 C  
BRANCH   5   6
HETATM    6  C   UNL     1      -8.497   5.904  65.884  1.00  0.00    -0.141 C  
BRANCH   6   7
HETATM    7  N   UNL     1      -9.122   7.225  65.890  1.00  0.00    -0.361 NA 
HETATM    8  H   UNL     1     -10.069   7.191  66.268  1.00  0.00     0.000 HD 
BRANCH   7   9
HETATM    9  C   UNL     1      -8.289   8.199  66.603  1.00  0.00    -0.111 C  
BRANCH   9  10
HETATM   10  C   UNL     1      -8.536   8.142  68.111  1.00  0.00    -0.126 C  
BRANCH  10  11
HETATM   11  S   UNL     1     -10.306   8.265  68.528  1.00  0.00    -0.172 SA 
HETATM   12  P   UNL     1     -10.473   6.735  69.903  1.00  0.00    -0.238 P  
HETATM   13  O   UNL     1     -12.012   6.548  70.304  1.00  0.00    -0.394 OA 
HETATM   14  O   UNL     1      -9.843   5.467  69.425  1.00  0.00    -0.153 OA 
HETATM   15  O   UNL     1      -9.869   7.205  71.306  1.00  0.00    -0.178 OA 
ENDBRANCH  10  11
ENDBRANCH   9  10
ENDBRANCH   7   9
ENDBRANCH   6   7
ENDBRANCH   5   6
ENDBRANCH   2   5
TORSDOF 6
ENDMDL
MODEL      310
REMARK 921   NORMALIZED FREE ENERGY PREDICTED BY IDOCK:   -1.86 KCAL/MOL
REMARK 922        TOTAL FREE ENERGY PREDICTED BY IDOCK:   -2.59 KCAL/MOL
REMARK 923 INTER-LIGAND FREE ENERGY PREDICTED BY IDOCK:   -2.17 KCAL/MOL
REMARK 924 INTRA-LIGAND FREE ENERGY PREDICTED BY IDOCK:   -0.42 KCAL/MOL
REMARK 927      BINDING AFFINITY PREDICTED BY RF-SCORE:    0.00 PKD
ROOT
HETATM    1  N   UNL     1      -5.861   3.668  72.605  1.00  0.00    -0.008 NA 
HETATM    2  C   UNL     1      -6.477   3.360  71.320  1.00  0.00    -0.019 C  
HETATM    3  H2  UNL     1      -5.997   2.916  73.281  1.00  0.00     0.000 HD 
HETATM    4  H1  UNL     1      -4.874   3.896  72.483  1.00  0.00     0.000 HD 
ENDROOT
BRANCH   2   5
HETATM    5  C   UNL     1      -7.955   3.020  71.501  1.00  0.00    -0.056 C  
BRANCH   5   6
HETATM    6  C   UNL     1      -8.831   4.002  70.723  1.00  0.00    -0.084 C  
BRANCH   6   7
HETATM    7  N   UNL     1      -9.918   4.481  71.574  1.00  0.00    -0.189 NA 
HETATM    8  H   UNL     1     -10.526   3.717  71.872  1.00  0.00     0.000 HD 
BRANCH   7   9
HETATM    9  C   UNL     1      -9.398   5.236  72.719  1.00  0.00    -0.139 C  
BRANCH   9  10
HETATM   10  C   UNL     1      -8.973   6.646  72.306  1.00  0.00    -0.133 C  
BRANCH  10  11
HETATM   11  S   UNL     1     -10.057   7.931  73.011  1.00  0.00    -0.290 SA 
HETATM   12  P   UNL     1     -11.610   7.895  71.654  1.00  0.00    -0.304 P  
HETATM   13  O   UNL     1     -12.636   9.078  71.990  1.00  0.00    -0.345 OA 
HETATM   14  O   UNL     1     -11.132   7.931  70.238  1.00  0.00    -0.257 OA 
HETATM   15  O   UNL     1     -12.539   6.625  71.934  1.00  0.00    -0.350 OA 
ENDBRANCH  10  11
ENDBRANCH   9  10
ENDBRANCH   7   9
ENDBRANCH   6   7
ENDBRANCH   5   6
ENDBRANCH   2   5
TORSDOF 6
ENDMDL
MODEL      311
REMARK 921   NORMALIZED FREE ENERGY PREDICTED BY IDOCK:   -1.86 KCAL/MOL
REMARK 922        TOTAL FREE ENERGY PREDICTED BY IDOCK:   -2.59 KCAL/MOL
REMARK 923 INTER-LIGAND FREE ENERGY PREDICTED BY IDOCK:   -2.60 KCAL/MOL
REMARK 924 INTRA-LIGAND FREE ENERGY PREDICTED BY IDOCK:    0.01 KCAL/MOL
REMARK 927      BINDING AFFINITY PREDICTED BY RF-SCORE:    0.00 PKD
ROOT
HETATM    1  N   UNL     1     -13.467   7.841  71.196  1.00  0.00    -0.574 NA 
HETATM    2  C   UNL     1     -12.011   7.792  71.249  1.00  0.00    -0.302 C  
HETATM    3  H2  UNL     1     -13.868   8.166  72.077  1.00  0.00     0.000 HD 
HETATM    4  H1  UNL     1     -13.778   8.407  70.407  1.00  0.00     0.000 HD 
ENDROOT
BRANCH   2   5
HETATM    5  C   UNL     1     -11.545   6.945  72.431  1.00  0.00    -0.278 C  
BRANCH   5   6
HETATM    6  C   UNL     1     -10.068   6.580  72.282  1.00  0.00    -0.175 C  
BRANCH   6   7
HETATM    7  N   UNL     1      -9.921   5.128  72.202  1.00  0.00    -0.181 NA 
HETATM    8  H   UNL     1     -10.806   4.651  72.372  1.00  0.00     0.000 HD 
BRANCH   7   9
HETATM    9  C   UNL     1      -9.328   4.728  70.921  1.00  0.00    -0.148 C  
BRANCH   9  10
HETATM   10  C   UNL     1      -9.685   5.717  69.810  1.00  0.00    -0.167 C  
BRANCH  10  11
HETATM   11  S   UNL     1      -8.258   6.109  68.747  1.00  0.00    -0.108 SA 
HETATM   12  P   UNL     1      -9.206   6.393  66.938  1.00  0.00    -0.144 P  
HETATM   13  O   UNL     1      -8.110   6.602  65.790  1.00  0.00    -0.109 OA 
HETATM   14  O   UNL     1     -10.171   5.296  66.620  1.00  0.00    -0.199 OA 
HETATM   15  O   UNL     1      -9.913   7.827  66.920  1.00  0.00    -0.213 OA 
ENDBRANCH  10  11
ENDBRANCH   9  10
ENDBRANCH   7   9
ENDBRANCH   6   7
ENDBRANCH   5   6
ENDBRANCH   2   5
TORSDOF 6
ENDMDL
MODEL      312
REMARK 921   NORMALIZED FREE ENERGY PREDICTED BY IDOCK:   -1.86 KCAL/MOL
REMARK 922        TOTAL FREE ENERGY PREDICTED BY IDOCK:   -2.59 KCAL/MOL
REMARK 923 INTER-LIGAND FREE ENERGY PREDICTED BY IDOCK:   -2.31 KCAL/MOL
REMARK 924 INTRA-LIGAND FREE ENERGY PREDICTED BY IDOCK:   -0.28 KCAL/MOL
REMARK 927      BINDING AFFINITY PREDICTED BY RF-SCORE:    0.00 PKD
ROOT
HETATM    1  N   UNL     1     -11.098   7.406  73.644  1.00  0.00    -0.549 NA 
HETATM    2  C   UNL     1     -10.333   6.203  73.952  1.00  0.00    -0.294 C  
HETATM    3  H2  UNL     1     -11.700   7.275  72.831  1.00  0.00     0.000 HD 
HETATM    4  H1  UNL     1     -11.625   7.714  74.461  1.00  0.00     0.000 HD 
ENDROOT
BRANCH   2   5
HETATM    5  C   UNL     1      -9.543   5.742  72.728  1.00  0.00    -0.159 C  
BRANCH   5   6
HETATM    6  C   UNL     1      -8.685   6.883  72.182  1.00  0.00    -0.127 C  
BRANCH   6   7
HETATM    7  N   UNL     1      -9.093   7.202  70.816  1.00  0.00    -0.153 NA 
HETATM    8  H   UNL     1      -9.804   6.556  70.476  1.00  0.00     0.000 HD 
BRANCH   7   9
HETATM    9  C   UNL     1      -9.535   8.597  70.711  1.00  0.00    -0.190 C  
BRANCH   9  10
HETATM   10  C   UNL     1      -8.693   9.371  69.695  1.00  0.00    -0.167 C  
BRANCH  10  11
HETATM   11  S   UNL     1      -9.526   9.527  68.081  1.00  0.00    -0.133 SA 
HETATM   12  P   UNL     1      -9.811  11.569  68.003  1.00  0.00    -0.199 P  
HETATM   13  O   UNL     1     -10.685  11.934  66.713  1.00  0.00    -0.227 OA 
HETATM   14  O   UNL     1     -10.395  12.112  69.268  1.00  0.00     0.032 OA 
HETATM   15  O   UNL     1      -8.435  12.290  67.627  1.00  0.00    -0.147 OA 
ENDBRANCH  10  11
ENDBRANCH   9  10
ENDBRANCH   7   9
ENDBRANCH   6   7
ENDBRANCH   5   6
ENDBRANCH   2   5
TORSDOF 6
ENDMDL
MODEL      313
REMARK 921   NORMALIZED FREE ENERGY PREDICTED BY IDOCK:   -1.85 KCAL/MOL
REMARK 922        TOTAL FREE ENERGY PREDICTED BY IDOCK:   -2.58 KCAL/MOL
REMARK 923 INTER-LIGAND FREE ENERGY PREDICTED BY IDOCK:   -2.38 KCAL/MOL
REMARK 924 INTRA-LIGAND FREE ENERGY PREDICTED BY IDOCK:   -0.20 KCAL/MOL
REMARK 927      BINDING AFFINITY PREDICTED BY RF-SCORE:    0.00 PKD
ROOT
HETATM    1  N   UNL     1     -13.116   8.066  71.105  1.00  0.00    -0.526 NA 
HETATM    2  C   UNL     1     -11.781   8.623  70.919  1.00  0.00    -0.252 C  
HETATM    3  H2  UNL     1     -13.553   8.408  71.961  1.00  0.00     0.000 HD 
HETATM    4  H1  UNL     1     -13.696   8.246  70.285  1.00  0.00     0.000 HD 
ENDROOT
BRANCH   2   5
HETATM    5  C   UNL     1     -10.912   8.354  72.145  1.00  0.00    -0.411 C  
BRANCH   5   6
HETATM    6  C   UNL     1      -9.448   8.681  71.849  1.00  0.00    -0.299 C  
BRANCH   6   7
HETATM    7  N   UNL     1      -8.653   7.455  71.859  1.00  0.00    -0.110 NA 
HETATM    8  H   UNL     1      -9.154   6.686  72.305  1.00  0.00     0.000 HD 
BRANCH   7   9
HETATM    9  C   UNL     1      -8.212   7.100  70.506  1.00  0.00    -0.125 C  
BRANCH   9  10
HETATM   10  C   UNL     1      -7.833   5.621  70.415  1.00  0.00    -0.102 C  
BRANCH  10  11
HETATM   11  S   UNL     1      -8.617   4.624  71.724  1.00  0.00    -0.123 SA 
HETATM   12  P   UNL     1      -9.059   2.906  70.671  1.00  0.00    -0.147 P  
HETATM   13  O   UNL     1      -9.912   1.919  71.599  1.00  0.00    -0.150 OA 
HETATM   14  O   UNL     1      -9.729   3.193  69.366  1.00  0.00    -0.093 OA 
HETATM   15  O   UNL     1      -7.732   2.037  70.477  1.00  0.00    -0.039 OA 
ENDBRANCH  10  11
ENDBRANCH   9  10
ENDBRANCH   7   9
ENDBRANCH   6   7
ENDBRANCH   5   6
ENDBRANCH   2   5
TORSDOF 6
ENDMDL
MODEL      314
REMARK 921   NORMALIZED FREE ENERGY PREDICTED BY IDOCK:   -1.85 KCAL/MOL
REMARK 922        TOTAL FREE ENERGY PREDICTED BY IDOCK:   -2.58 KCAL/MOL
REMARK 923 INTER-LIGAND FREE ENERGY PREDICTED BY IDOCK:   -2.63 KCAL/MOL
REMARK 924 INTRA-LIGAND FREE ENERGY PREDICTED BY IDOCK:    0.06 KCAL/MOL
REMARK 927      BINDING AFFINITY PREDICTED BY RF-SCORE:    0.00 PKD
ROOT
HETATM    1  N   UNL     1     -10.908  12.543  67.375  1.00  0.00    -0.234 NA 
HETATM    2  C   UNL     1     -11.235  12.346  68.782  1.00  0.00    -0.273 C  
HETATM    3  H2  UNL     1     -11.713  12.377  66.771  1.00  0.00     0.000 HD 
HETATM    4  H1  UNL     1     -10.508  13.470  67.227  1.00  0.00     0.000 HD 
ENDROOT
BRANCH   2   5
HETATM    5  C   UNL     1     -11.833  10.958  69.003  1.00  0.00    -0.370 C  
BRANCH   5   6
HETATM    6  C   UNL     1     -11.578  10.485  70.435  1.00  0.00    -0.342 C  
BRANCH   6   7
HETATM    7  N   UNL     1     -12.193   9.176  70.643  1.00  0.00    -0.486 NA 
HETATM    8  H   UNL     1     -12.417   8.721  69.758  1.00  0.00     0.000 HD 
BRANCH   7   9
HETATM    9  C   UNL     1     -11.350   8.326  71.490  1.00  0.00    -0.268 C  
BRANCH   9  10
HETATM   10  C   UNL     1     -10.480   7.392  70.648  1.00  0.00    -0.215 C  
BRANCH  10  11
HETATM   11  S   UNL     1      -9.132   8.279  69.799  1.00  0.00    -0.147 SA 
HETATM   12  P   UNL     1      -7.557   6.995  70.157  1.00  0.00    -0.097 P  
HETATM   13  O   UNL     1      -6.200   7.658  69.624  1.00  0.00    -0.030 OA 
HETATM   14  O   UNL     1      -7.472   6.581  71.590  1.00  0.00    -0.086 OA 
HETATM   15  O   UNL     1      -7.659   5.734  69.180  1.00  0.00    -0.085 OA 
ENDBRANCH  10  11
ENDBRANCH   9  10
ENDBRANCH   7   9
ENDBRANCH   6   7
ENDBRANCH   5   6
ENDBRANCH   2   5
TORSDOF 6
ENDMDL
MODEL      315
REMARK 921   NORMALIZED FREE ENERGY PREDICTED BY IDOCK:   -1.83 KCAL/MOL
REMARK 922        TOTAL FREE ENERGY PREDICTED BY IDOCK:   -2.55 KCAL/MOL
REMARK 923 INTER-LIGAND FREE ENERGY PREDICTED BY IDOCK:   -2.40 KCAL/MOL
REMARK 924 INTRA-LIGAND FREE ENERGY PREDICTED BY IDOCK:   -0.15 KCAL/MOL
REMARK 927      BINDING AFFINITY PREDICTED BY RF-SCORE:    0.00 PKD
ROOT
HETATM    1  N   UNL     1      -6.318   6.863  66.989  1.00  0.00    -0.043 NA 
HETATM    2  C   UNL     1      -6.990   7.653  68.013  1.00  0.00    -0.079 C  
HETATM    3  H2  UNL     1      -5.953   7.448  66.237  1.00  0.00     0.000 HD 
HETATM    4  H1  UNL     1      -5.590   6.282  67.404  1.00  0.00     0.000 HD 
ENDROOT
BRANCH   2   5
HETATM    5  C   UNL     1      -8.081   8.522  67.390  1.00  0.00    -0.106 C  
BRANCH   5   6
HETATM    6  C   UNL     1      -7.594   9.136  66.077  1.00  0.00    -0.095 C  
BRANCH   6   7
HETATM    7  N   UNL     1      -7.952  10.552  66.029  1.00  0.00    -0.145 NA 
HETATM    8  H   UNL     1      -8.015  10.891  65.069  1.00  0.00     0.000 HD 
BRANCH   7   9
HETATM    9  C   UNL     1      -9.187  10.810  66.776  1.00  0.00    -0.157 C  
BRANCH   9  10
HETATM   10  C   UNL     1      -9.902  12.057  66.254  1.00  0.00    -0.231 C  
BRANCH  10  11
HETATM   11  S   UNL     1      -9.220  13.592  66.960  1.00  0.00    -0.255 SA 
HETATM   12  P   UNL     1     -10.904  14.784  66.960  1.00  0.00    -0.328 P  
HETATM   13  O   UNL     1     -10.503  16.269  67.405  1.00  0.00    -0.295 OA 
HETATM   14  O   UNL     1     -11.628  14.750  65.653  1.00  0.00    -0.341 OA 
HETATM   15  O   UNL     1     -11.855  14.370  68.176  1.00  0.00    -0.327 OA 
ENDBRANCH  10  11
ENDBRANCH   9  10
ENDBRANCH   7   9
ENDBRANCH   6   7
ENDBRANCH   5   6
ENDBRANCH   2   5
TORSDOF 6
ENDMDL
MODEL      316
REMARK 921   NORMALIZED FREE ENERGY PREDICTED BY IDOCK:   -1.80 KCAL/MOL
REMARK 922        TOTAL FREE ENERGY PREDICTED BY IDOCK:   -2.51 KCAL/MOL
REMARK 923 INTER-LIGAND FREE ENERGY PREDICTED BY IDOCK:   -2.38 KCAL/MOL
REMARK 924 INTRA-LIGAND FREE ENERGY PREDICTED BY IDOCK:   -0.13 KCAL/MOL
REMARK 927      BINDING AFFINITY PREDICTED BY RF-SCORE:    0.00 PKD
ROOT
HETATM    1  N   UNL     1     -13.996   7.902  71.316  1.00  0.00    -0.606 NA 
HETATM    2  C   UNL     1     -12.549   7.964  71.482  1.00  0.00    -0.321 C  
HETATM    3  H2  UNL     1     -14.469   7.680  72.193  1.00  0.00     0.000 HD 
HETATM    4  H1  UNL     1     -14.347   8.766  70.904  1.00  0.00     0.000 HD 
ENDROOT
BRANCH   2   5
HETATM    5  C   UNL     1     -12.023   6.670  72.100  1.00  0.00    -0.320 C  
BRANCH   5   6
HETATM    6  C   UNL     1     -10.680   6.285  71.478  1.00  0.00    -0.245 C  
BRANCH   6   7
HETATM    7  N   UNL     1     -10.782   4.969  70.850  1.00  0.00    -0.070 NA 
HETATM    8  H   UNL     1     -11.753   4.712  70.672  1.00  0.00     0.000 HD 
BRANCH   7   9
HETATM    9  C   UNL     1      -9.972   4.904  69.629  1.00  0.00    -0.231 C  
BRANCH   9  10
HETATM   10  C   UNL     1      -9.074   3.666  69.624  1.00  0.00    -0.129 C  
BRANCH  10  11
HETATM   11  S   UNL     1      -9.238   2.698  68.088  1.00  0.00    -0.207 SA 
HETATM   12  P   UNL     1      -7.546   3.310  67.079  1.00  0.00    -0.076 P  
HETATM   13  O   UNL     1      -7.558   2.693  65.601  1.00  0.00    -0.074 OA 
HETATM   14  O   UNL     1      -7.385   4.796  67.082  1.00  0.00    -0.075 OA 
HETATM   15  O   UNL     1      -6.263   2.573  67.684  1.00  0.00    -0.027 OA 
ENDBRANCH  10  11
ENDBRANCH   9  10
ENDBRANCH   7   9
ENDBRANCH   6   7
ENDBRANCH   5   6
ENDBRANCH   2   5
TORSDOF 6
ENDMDL
MODEL      317
REMARK 921   NORMALIZED FREE ENERGY PREDICTED BY IDOCK:   -1.79 KCAL/MOL
REMARK 922        TOTAL FREE ENERGY PREDICTED BY IDOCK:   -2.50 KCAL/MOL
REMARK 923 INTER-LIGAND FREE ENERGY PREDICTED BY IDOCK:   -1.93 KCAL/MOL
REMARK 924 INTRA-LIGAND FREE ENERGY PREDICTED BY IDOCK:   -0.57 KCAL/MOL
REMARK 927      BINDING AFFINITY PREDICTED BY RF-SCORE:    0.00 PKD
ROOT
HETATM    1  N   UNL     1      -6.433   6.633  64.063  1.00  0.00    -0.037 NA 
HETATM    2  C   UNL     1      -7.807   6.146  64.073  1.00  0.00    -0.117 C  
HETATM    3  H2  UNL     1      -5.802   5.979  63.599  1.00  0.00     0.000 HD 
HETATM    4  H1  UNL     1      -6.386   7.564  63.649  1.00  0.00     0.000 HD 
ENDROOT
BRANCH   2   5
HETATM    5  C   UNL     1      -7.877   4.752  64.694  1.00  0.00    -0.088 C  
BRANCH   5   6
HETATM    6  C   UNL     1      -9.215   4.548  65.405  1.00  0.00    -0.154 C  
BRANCH   6   7
HETATM    7  N   UNL     1      -9.864   5.839  65.621  1.00  0.00    -0.359 NA 
HETATM    8  H   UNL     1     -10.650   5.976  64.985  1.00  0.00     0.000 HD 
BRANCH   7   9
HETATM    9  C   UNL     1     -10.269   5.998  67.022  1.00  0.00    -0.205 C  
BRANCH   9  10
HETATM   10  C   UNL     1     -10.768   7.417  67.299  1.00  0.00    -0.308 C  
BRANCH  10  11
HETATM   11  S   UNL     1      -9.745   8.683  66.478  1.00  0.00    -0.268 SA 
HETATM   12  P   UNL     1      -8.035   8.585  67.628  1.00  0.00    -0.107 P  
HETATM   13  O   UNL     1      -7.026   9.745  67.179  1.00  0.00    -0.083 OA 
HETATM   14  O   UNL     1      -8.330   8.613  69.093  1.00  0.00    -0.116 OA 
HETATM   15  O   UNL     1      -7.185   7.295  67.218  1.00  0.00    -0.087 OA 
ENDBRANCH  10  11
ENDBRANCH   9  10
ENDBRANCH   7   9
ENDBRANCH   6   7
ENDBRANCH   5   6
ENDBRANCH   2   5
TORSDOF 6
ENDMDL
MODEL      318
REMARK 921   NORMALIZED FREE ENERGY PREDICTED BY IDOCK:   -1.79 KCAL/MOL
REMARK 922        TOTAL FREE ENERGY PREDICTED BY IDOCK:   -2.49 KCAL/MOL
REMARK 923 INTER-LIGAND FREE ENERGY PREDICTED BY IDOCK:   -2.25 KCAL/MOL
REMARK 924 INTRA-LIGAND FREE ENERGY PREDICTED BY IDOCK:   -0.25 KCAL/MOL
REMARK 927      BINDING AFFINITY PREDICTED BY RF-SCORE:    0.00 PKD
ROOT
HETATM    1  N   UNL     1      -9.666   2.798  72.164  1.00  0.00    -0.142 NA 
HETATM    2  C   UNL     1      -8.652   3.806  71.882  1.00  0.00    -0.091 C  
HETATM    3  H2  UNL     1     -10.524   2.964  71.636  1.00  0.00     0.000 HD 
HETATM    4  H1  UNL     1      -9.296   1.861  72.000  1.00  0.00     0.000 HD 
ENDROOT
BRANCH   2   5
HETATM    5  C   UNL     1      -9.206   5.208  72.128  1.00  0.00    -0.154 C  
BRANCH   5   6
HETATM    6  C   UNL     1     -10.566   5.374  71.450  1.00  0.00    -0.212 C  
BRANCH   6   7
HETATM    7  N   UNL     1     -10.465   6.349  70.366  1.00  0.00    -0.208 NA 
HETATM    8  H   UNL     1     -11.378   6.725  70.112  1.00  0.00     0.000 HD 
BRANCH   7   9
HETATM    9  C   UNL     1      -9.515   7.415  70.704  1.00  0.00    -0.164 C  
BRANCH   9  10
HETATM   10  C   UNL     1      -8.996   8.115  69.447  1.00  0.00    -0.147 C  
BRANCH  10  11
HETATM   11  S   UNL     1      -8.888   9.923  69.655  1.00  0.00    -0.202 SA 
HETATM   12  P   UNL     1     -10.808  10.473  69.137  1.00  0.00    -0.271 P  
HETATM   13  O   UNL     1     -10.909  12.071  69.096  1.00  0.00    -0.203 OA 
HETATM   14  O   UNL     1     -11.262   9.834  67.864  1.00  0.00    -0.184 OA 
HETATM   15  O   UNL     1     -11.803  10.157  70.347  1.00  0.00    -0.267 OA 
ENDBRANCH  10  11
ENDBRANCH   9  10
ENDBRANCH   7   9
ENDBRANCH   6   7
ENDBRANCH   5   6
ENDBRANCH   2   5
TORSDOF 6
ENDMDL
MODEL      319
REMARK 921   NORMALIZED FREE ENERGY PREDICTED BY IDOCK:   -1.76 KCAL/MOL
REMARK 922        TOTAL FREE ENERGY PREDICTED BY IDOCK:   -2.46 KCAL/MOL
REMARK 923 INTER-LIGAND FREE ENERGY PREDICTED BY IDOCK:   -2.33 KCAL/MOL
REMARK 924 INTRA-LIGAND FREE ENERGY PREDICTED BY IDOCK:   -0.13 KCAL/MOL
REMARK 927      BINDING AFFINITY PREDICTED BY RF-SCORE:    0.00 PKD
ROOT
HETATM    1  N   UNL     1     -11.489   6.802  68.643  1.00  0.00    -0.553 NA 
HETATM    2  C   UNL     1     -10.995   6.281  69.912  1.00  0.00    -0.370 C  
HETATM    3  H2  UNL     1     -10.734   6.938  67.969  1.00  0.00     0.000 HD 
HETATM    4  H1  UNL     1     -12.225   6.202  68.272  1.00  0.00     0.000 HD 
ENDROOT
BRANCH   2   5
HETATM    5  C   UNL     1      -9.892   7.180  70.468  1.00  0.00    -0.181 C  
BRANCH   5   6
HETATM    6  C   UNL     1      -8.523   6.525  70.286  1.00  0.00    -0.135 C  
BRANCH   6   7
HETATM    7  N   UNL     1      -8.177   6.483  68.867  1.00  0.00    -0.118 NA 
HETATM    8  H   UNL     1      -8.738   5.796  68.364  1.00  0.00     0.000 HD 
BRANCH   7   9
HETATM    9  C   UNL     1      -8.280   7.814  68.260  1.00  0.00    -0.124 C  
BRANCH   9  10
HETATM   10  C   UNL     1      -7.145   8.727  68.726  1.00  0.00    -0.063 C  
BRANCH  10  11
HETATM   11  S   UNL     1      -7.749  10.358  69.271  1.00  0.00    -0.150 SA 
HETATM   12  P   UNL     1      -8.866  10.912  67.628  1.00  0.00    -0.136 P  
HETATM   13  O   UNL     1      -9.382  12.416  67.818  1.00  0.00    -0.183 OA 
HETATM   14  O   UNL     1      -8.129  10.713  66.343  1.00  0.00    -0.136 OA 
HETATM   15  O   UNL     1     -10.261  10.131  67.638  1.00  0.00    -0.180 OA 
ENDBRANCH  10  11
ENDBRANCH   9  10
ENDBRANCH   7   9
ENDBRANCH   6   7
ENDBRANCH   5   6
ENDBRANCH   2   5
TORSDOF 6
ENDMDL
MODEL      320
REMARK 921   NORMALIZED FREE ENERGY PREDICTED BY IDOCK:   -1.75 KCAL/MOL
REMARK 922        TOTAL FREE ENERGY PREDICTED BY IDOCK:   -2.44 KCAL/MOL
REMARK 923 INTER-LIGAND FREE ENERGY PREDICTED BY IDOCK:   -2.04 KCAL/MOL
REMARK 924 INTRA-LIGAND FREE ENERGY PREDICTED BY IDOCK:   -0.40 KCAL/MOL
REMARK 927      BINDING AFFINITY PREDICTED BY RF-SCORE:    0.00 PKD
ROOT
HETATM    1  N   UNL     1     -11.409  13.958  65.108  1.00  0.00    -0.308 NA 
HETATM    2  C   UNL     1     -11.691  15.272  65.671  1.00  0.00     0.056 C  
HETATM    3  H2  UNL     1     -10.945  13.348  65.781  1.00  0.00     0.000 HD 
HETATM    4  H1  UNL     1     -12.262  13.536  64.739  1.00  0.00     0.000 HD 
ENDROOT
BRANCH   2   5
HETATM    5  C   UNL     1     -10.415  15.904  66.223  1.00  0.00    -0.324 C  
BRANCH   5   6
HETATM    6  C   UNL     1     -10.339  15.725  67.739  1.00  0.00    -0.275 C  
BRANCH   6   7
HETATM    7  N   UNL     1      -9.990  14.342  68.059  1.00  0.00    -0.220 NA 
HETATM    8  H   UNL     1     -10.132  13.724  67.260  1.00  0.00     0.000 HD 
BRANCH   7   9
HETATM    9  C   UNL     1      -8.621  14.251  68.577  1.00  0.00    -0.175 C  
BRANCH   9  10
HETATM   10  C   UNL     1      -8.156  12.796  68.666  1.00  0.00    -0.007 C  
BRANCH  10  11
HETATM   11  S   UNL     1      -8.609  11.834  67.186  1.00  0.00    -0.173 SA 
HETATM   12  P   UNL     1      -9.285  10.094  68.065  1.00  0.00    -0.140 P  
HETATM   13  O   UNL     1      -9.600   9.012  66.927  1.00  0.00    -0.160 OA 
HETATM   14  O   UNL     1      -8.345   9.577  69.107  1.00  0.00    -0.113 OA 
HETATM   15  O   UNL     1     -10.753  10.323  68.652  1.00  0.00    -0.200 OA 
ENDBRANCH  10  11
ENDBRANCH   9  10
ENDBRANCH   7   9
ENDBRANCH   6   7
ENDBRANCH   5   6
ENDBRANCH   2   5
TORSDOF 6
ENDMDL
MODEL      321
REMARK 921   NORMALIZED FREE ENERGY PREDICTED BY IDOCK:   -1.74 KCAL/MOL
REMARK 922        TOTAL FREE ENERGY PREDICTED BY IDOCK:   -2.44 KCAL/MOL
REMARK 923 INTER-LIGAND FREE ENERGY PREDICTED BY IDOCK:   -2.27 KCAL/MOL
REMARK 924 INTRA-LIGAND FREE ENERGY PREDICTED BY IDOCK:   -0.17 KCAL/MOL
REMARK 927      BINDING AFFINITY PREDICTED BY RF-SCORE:    0.00 PKD
ROOT
HETATM    1  N   UNL     1      -6.276   4.975  65.517  1.00  0.00    -0.033 NA 
HETATM    2  C   UNL     1      -7.453   4.119  65.588  1.00  0.00    -0.081 C  
HETATM    3  H2  UNL     1      -5.968   5.275  66.443  1.00  0.00     0.000 HD 
HETATM    4  H1  UNL     1      -5.528   4.513  65.000  1.00  0.00     0.000 HD 
ENDROOT
BRANCH   2   5
HETATM    5  C   UNL     1      -8.574   4.811  66.361  1.00  0.00    -0.113 C  
BRANCH   5   6
HETATM    6  C   UNL     1      -8.396   6.329  66.321  1.00  0.00    -0.122 C  
BRANCH   6   7
HETATM    7  N   UNL     1      -9.391   6.969  67.178  1.00  0.00    -0.138 NA 
HETATM    8  H   UNL     1     -10.039   7.543  66.639  1.00  0.00     0.000 HD 
BRANCH   7   9
HETATM    9  C   UNL     1     -10.100   5.977  67.995  1.00  0.00    -0.159 C  
BRANCH   9  10
HETATM   10  C   UNL     1      -9.930   6.263  69.488  1.00  0.00    -0.164 C  
BRANCH  10  11
HETATM   11  S   UNL     1     -11.529   6.478  70.337  1.00  0.00    -0.401 SA 
HETATM   12  P   UNL     1     -11.271   8.356  71.150  1.00  0.00    -0.284 P  
HETATM   13  O   UNL     1     -12.517   8.702  72.094  1.00  0.00    -0.344 OA 
HETATM   14  O   UNL     1      -9.959   8.499  71.852  1.00  0.00    -0.237 OA 
HETATM   15  O   UNL     1     -11.459   9.464  70.014  1.00  0.00    -0.194 OA 
ENDBRANCH  10  11
ENDBRANCH   9  10
ENDBRANCH   7   9
ENDBRANCH   6   7
ENDBRANCH   5   6
ENDBRANCH   2   5
TORSDOF 6
ENDMDL
MODEL      322
REMARK 921   NORMALIZED FREE ENERGY PREDICTED BY IDOCK:   -1.73 KCAL/MOL
REMARK 922        TOTAL FREE ENERGY PREDICTED BY IDOCK:   -2.43 KCAL/MOL
REMARK 923 INTER-LIGAND FREE ENERGY PREDICTED BY IDOCK:   -1.94 KCAL/MOL
REMARK 924 INTRA-LIGAND FREE ENERGY PREDICTED BY IDOCK:   -0.48 KCAL/MOL
REMARK 927      BINDING AFFINITY PREDICTED BY RF-SCORE:    0.00 PKD
ROOT
HETATM    1  N   UNL     1      -9.285  11.480  67.593  1.00  0.00    -0.168 NA 
HETATM    2  C   UNL     1      -8.392  12.436  68.237  1.00  0.00    -0.169 C  
HETATM    3  H2  UNL     1      -9.614  10.769  68.246  1.00  0.00     0.000 HD 
HETATM    4  H1  UNL     1     -10.058  11.964  67.137  1.00  0.00     0.000 HD 
ENDROOT
BRANCH   2   5
HETATM    5  C   UNL     1      -7.233  11.711  68.919  1.00  0.00    -0.113 C  
BRANCH   5   6
HETATM    6  C   UNL     1      -7.299  10.209  68.639  1.00  0.00    -0.082 C  
BRANCH   6   7
HETATM    7  N   UNL     1      -7.994   9.531  69.731  1.00  0.00    -0.115 NA 
HETATM    8  H   UNL     1      -8.659   8.841  69.382  1.00  0.00     0.000 HD 
BRANCH   7   9
HETATM    9  C   UNL     1      -7.040   8.934  70.672  1.00  0.00    -0.071 C  
BRANCH   9  10
HETATM   10  C   UNL     1      -7.703   7.849  71.522  1.00  0.00    -0.086 C  
BRANCH  10  11
HETATM   11  S   UNL     1      -8.292   6.447  70.517  1.00  0.00    -0.131 SA 
HETATM   12  P   UNL     1     -10.265   6.986  70.245  1.00  0.00    -0.198 P  
HETATM   13  O   UNL     1     -11.042   5.799  69.502  1.00  0.00    -0.366 OA 
HETATM   14  O   UNL     1     -10.926   7.399  71.520  1.00  0.00    -0.229 OA 
HETATM   15  O   UNL     1     -10.361   8.128  69.131  1.00  0.00    -0.215 OA 
ENDBRANCH  10  11
ENDBRANCH   9  10
ENDBRANCH   7   9
ENDBRANCH   6   7
ENDBRANCH   5   6
ENDBRANCH   2   5
TORSDOF 6
ENDMDL
MODEL      323
REMARK 921   NORMALIZED FREE ENERGY PREDICTED BY IDOCK:   -1.70 KCAL/MOL
REMARK 922        TOTAL FREE ENERGY PREDICTED BY IDOCK:   -2.38 KCAL/MOL
REMARK 923 INTER-LIGAND FREE ENERGY PREDICTED BY IDOCK:   -2.67 KCAL/MOL
REMARK 924 INTRA-LIGAND FREE ENERGY PREDICTED BY IDOCK:    0.29 KCAL/MOL
REMARK 927      BINDING AFFINITY PREDICTED BY RF-SCORE:    0.00 PKD
ROOT
HETATM    1  N   UNL     1     -12.087  10.752  68.250  1.00  0.00    -0.807 NA 
HETATM    2  C   UNL     1     -11.907  11.967  67.464  1.00  0.00    -0.179 C  
HETATM    3  H2  UNL     1     -11.318  10.608  68.905  1.00  0.00     0.000 HD 
HETATM    4  H1  UNL     1     -12.991  10.762  68.722  1.00  0.00     0.000 HD 
ENDROOT
BRANCH   2   5
HETATM    5  C   UNL     1     -10.554  11.952  66.756  1.00  0.00    -0.264 C  
BRANCH   5   6
HETATM    6  C   UNL     1      -9.904  10.572  66.868  1.00  0.00    -0.193 C  
BRANCH   6   7
HETATM    7  N   UNL     1      -8.468  10.716  67.094  1.00  0.00    -0.127 NA 
HETATM    8  H   UNL     1      -8.218  11.678  67.325  1.00  0.00     0.000 HD 
BRANCH   7   9
HETATM    9  C   UNL     1      -7.998   9.775  68.117  1.00  0.00    -0.100 C  
BRANCH   9  10
HETATM   10  C   UNL     1      -8.192   8.326  67.669  1.00  0.00    -0.127 C  
BRANCH  10  11
HETATM   11  S   UNL     1      -8.358   7.182  69.079  1.00  0.00    -0.126 SA 
HETATM   12  P   UNL     1      -9.507   8.327  70.354  1.00  0.00    -0.172 P  
HETATM   13  O   UNL     1      -9.655   7.570  71.758  1.00  0.00    -0.151 OA 
HETATM   14  O   UNL     1      -8.981   9.718  70.502  1.00  0.00    -0.187 OA 
HETATM   15  O   UNL     1     -11.028   8.316  69.864  1.00  0.00    -0.239 OA 
ENDBRANCH  10  11
ENDBRANCH   9  10
ENDBRANCH   7   9
ENDBRANCH   6   7
ENDBRANCH   5   6
ENDBRANCH   2   5
TORSDOF 6
ENDMDL
MODEL      324
REMARK 921   NORMALIZED FREE ENERGY PREDICTED BY IDOCK:   -1.70 KCAL/MOL
REMARK 922        TOTAL FREE ENERGY PREDICTED BY IDOCK:   -2.38 KCAL/MOL
REMARK 923 INTER-LIGAND FREE ENERGY PREDICTED BY IDOCK:   -2.29 KCAL/MOL
REMARK 924 INTRA-LIGAND FREE ENERGY PREDICTED BY IDOCK:   -0.09 KCAL/MOL
REMARK 927      BINDING AFFINITY PREDICTED BY RF-SCORE:    0.00 PKD
ROOT
HETATM    1  N   UNL     1      -5.648   7.174  66.542  1.00  0.00    -0.023 NA 
HETATM    2  C   UNL     1      -6.436   7.259  67.765  1.00  0.00    -0.052 C  
HETATM    3  H2  UNL     1      -6.033   7.761  65.801  1.00  0.00     0.000 HD 
HETATM    4  H1  UNL     1      -4.670   7.393  66.729  1.00  0.00     0.000 HD 
ENDROOT
BRANCH   2   5
HETATM    5  C   UNL     1      -7.901   6.930  67.484  1.00  0.00    -0.112 C  
BRANCH   5   6
HETATM    6  C   UNL     1      -8.485   7.910  66.467  1.00  0.00    -0.134 C  
BRANCH   6   7
HETATM    7  N   UNL     1      -9.897   7.608  66.241  1.00  0.00    -0.450 NA 
HETATM    8  H   UNL     1     -10.135   6.667  66.552  1.00  0.00     0.000 HD 
BRANCH   7   9
HETATM    9  C   UNL     1     -10.759   8.618  66.865  1.00  0.00    -0.082 C  
BRANCH   9  10
HETATM   10  C   UNL     1      -9.934   9.759  67.462  1.00  0.00    -0.184 C  
BRANCH  10  11
HETATM   11  S   UNL     1     -10.929  11.261  67.740  1.00  0.00    -0.273 SA 
HETATM   12  P   UNL     1      -9.878  12.622  66.602  1.00  0.00    -0.252 P  
HETATM   13  O   UNL     1     -10.492  14.085  66.820  1.00  0.00    -0.274 OA 
HETATM   14  O   UNL     1      -8.407  12.570  66.863  1.00  0.00    -0.170 OA 
HETATM   15  O   UNL     1     -10.213  12.402  65.054  1.00  0.00    -0.282 OA 
ENDBRANCH  10  11
ENDBRANCH   9  10
ENDBRANCH   7   9
ENDBRANCH   6   7
ENDBRANCH   5   6
ENDBRANCH   2   5
TORSDOF 6
ENDMDL
MODEL      325
REMARK 921   NORMALIZED FREE ENERGY PREDICTED BY IDOCK:   -1.69 KCAL/MOL
REMARK 922        TOTAL FREE ENERGY PREDICTED BY IDOCK:   -2.36 KCAL/MOL
REMARK 923 INTER-LIGAND FREE ENERGY PREDICTED BY IDOCK:   -1.97 KCAL/MOL
REMARK 924 INTRA-LIGAND FREE ENERGY PREDICTED BY IDOCK:   -0.39 KCAL/MOL
REMARK 927      BINDING AFFINITY PREDICTED BY RF-SCORE:    0.00 PKD
ROOT
HETATM    1  N   UNL     1      -6.224  11.534  67.188  1.00  0.00    -0.106 NA 
HETATM    2  C   UNL     1      -7.537  11.497  66.556  1.00  0.00    -0.036 C  
HETATM    3  H2  UNL     1      -5.474  11.608  66.500  1.00  0.00     0.000 HD 
HETATM    4  H1  UNL     1      -6.180  12.283  67.879  1.00  0.00     0.000 HD 
ENDROOT
BRANCH   2   5
HETATM    5  C   UNL     1      -7.604  10.375  65.522  1.00  0.00    -0.144 C  
BRANCH   5   6
HETATM    6  C   UNL     1      -6.835   9.147  66.012  1.00  0.00    -0.084 C  
BRANCH   6   7
HETATM    7  N   UNL     1      -7.465   8.616  67.219  1.00  0.00    -0.088 NA 
HETATM    8  H   UNL     1      -7.530   9.323  67.951  1.00  0.00     0.000 HD 
BRANCH   7   9
HETATM    9  C   UNL     1      -8.774   8.029  66.916  1.00  0.00    -0.130 C  
BRANCH   9  10
HETATM   10  C   UNL     1      -8.796   6.531  67.224  1.00  0.00    -0.112 C  
BRANCH  10  11
HETATM   11  S   UNL     1     -10.418   5.976  67.844  1.00  0.00    -0.258 SA 
HETATM   12  P   UNL     1     -10.444   6.891  69.693  1.00  0.00    -0.240 P  
HETATM   13  O   UNL     1     -11.737   6.410  70.505  1.00  0.00    -0.386 OA 
HETATM   14  O   UNL     1      -9.174   6.680  70.453  1.00  0.00    -0.155 OA 
HETATM   15  O   UNL     1     -10.779   8.444  69.519  1.00  0.00    -0.227 OA 
ENDBRANCH  10  11
ENDBRANCH   9  10
ENDBRANCH   7   9
ENDBRANCH   6   7
ENDBRANCH   5   6
ENDBRANCH   2   5
TORSDOF 6
ENDMDL
MODEL      326
REMARK 921   NORMALIZED FREE ENERGY PREDICTED BY IDOCK:   -1.68 KCAL/MOL
REMARK 922        TOTAL FREE ENERGY PREDICTED BY IDOCK:   -2.36 KCAL/MOL
REMARK 923 INTER-LIGAND FREE ENERGY PREDICTED BY IDOCK:   -2.55 KCAL/MOL
REMARK 924 INTRA-LIGAND FREE ENERGY PREDICTED BY IDOCK:    0.19 KCAL/MOL
REMARK 927      BINDING AFFINITY PREDICTED BY RF-SCORE:    0.00 PKD
ROOT
HETATM    1  N   UNL     1     -10.338  10.563  67.402  1.00  0.00    -0.210 NA 
HETATM    2  C   UNL     1      -9.307   9.849  68.145  1.00  0.00    -0.131 C  
HETATM    3  H2  UNL     1     -10.978  11.059  68.023  1.00  0.00     0.000 HD 
HETATM    4  H1  UNL     1      -9.917  11.188  66.714  1.00  0.00     0.000 HD 
ENDROOT
BRANCH   2   5
HETATM    5  C   UNL     1      -9.939   8.913  69.174  1.00  0.00    -0.192 C  
BRANCH   5   6
HETATM    6  C   UNL     1      -9.279   9.096  70.541  1.00  0.00    -0.241 C  
BRANCH   6   7
HETATM    7  N   UNL     1     -10.304   9.278  71.567  1.00  0.00    -0.336 NA 
HETATM    8  H   UNL     1     -10.473  10.265  71.758  1.00  0.00     0.000 HD 
BRANCH   7   9
HETATM    9  C   UNL     1     -11.541   8.578  71.206  1.00  0.00    -0.283 C  
BRANCH   9  10
HETATM   10  C   UNL     1     -11.482   7.103  71.605  1.00  0.00    -0.266 C  
BRANCH  10  11
HETATM   11  S   UNL     1     -10.153   6.764  72.806  1.00  0.00    -0.187 SA 
HETATM   12  P   UNL     1     -10.415   4.738  73.093  1.00  0.00    -0.244 P  
HETATM   13  O   UNL     1      -9.434   4.234  74.254  1.00  0.00    -0.105 OA 
HETATM   14  O   UNL     1     -11.844   4.378  73.348  1.00  0.00    -0.188 OA 
HETATM   15  O   UNL     1      -9.816   3.937  71.847  1.00  0.00    -0.163 OA 
ENDBRANCH  10  11
ENDBRANCH   9  10
ENDBRANCH   7   9
ENDBRANCH   6   7
ENDBRANCH   5   6
ENDBRANCH   2   5
TORSDOF 6
ENDMDL
MODEL      327
REMARK 921   NORMALIZED FREE ENERGY PREDICTED BY IDOCK:   -1.68 KCAL/MOL
REMARK 922        TOTAL FREE ENERGY PREDICTED BY IDOCK:   -2.35 KCAL/MOL
REMARK 923 INTER-LIGAND FREE ENERGY PREDICTED BY IDOCK:   -1.81 KCAL/MOL
REMARK 924 INTRA-LIGAND FREE ENERGY PREDICTED BY IDOCK:   -0.55 KCAL/MOL
REMARK 927      BINDING AFFINITY PREDICTED BY RF-SCORE:    0.00 PKD
ROOT
HETATM    1  N   UNL     1      -9.772  10.703  67.434  1.00  0.00    -0.165 NA 
HETATM    2  C   UNL     1      -8.541  11.084  68.115  1.00  0.00    -0.140 C  
HETATM    3  H2  UNL     1     -10.400  10.184  68.047  1.00  0.00     0.000 HD 
HETATM    4  H1  UNL     1     -10.227  11.523  67.032  1.00  0.00     0.000 HD 
ENDROOT
BRANCH   2   5
HETATM    5  C   UNL     1      -7.859   9.857  68.716  1.00  0.00    -0.091 C  
BRANCH   5   6
HETATM    6  C   UNL     1      -8.581   8.578  68.289  1.00  0.00    -0.139 C  
BRANCH   6   7
HETATM    7  N   UNL     1      -9.621   8.247  69.260  1.00  0.00    -0.163 NA 
HETATM    8  H   UNL     1     -10.268   9.023  69.397  1.00  0.00     0.000 HD 
BRANCH   7   9
HETATM    9  C   UNL     1     -10.324   7.017  68.880  1.00  0.00    -0.190 C  
BRANCH   9  10
HETATM   10  C   UNL     1     -10.512   6.930  67.364  1.00  0.00    -0.269 C  
BRANCH  10  11
HETATM   11  S   UNL     1     -10.190   5.255  66.722  1.00  0.00    -0.268 SA 
HETATM   12  P   UNL     1      -8.223   5.453  66.131  1.00  0.00    -0.117 P  
HETATM   13  O   UNL     1      -7.759   4.119  65.375  1.00  0.00    -0.084 OA 
HETATM   14  O   UNL     1      -7.992   6.686  65.319  1.00  0.00    -0.109 OA 
HETATM   15  O   UNL     1      -7.269   5.399  67.412  1.00  0.00    -0.072 OA 
ENDBRANCH  10  11
ENDBRANCH   9  10
ENDBRANCH   7   9
ENDBRANCH   6   7
ENDBRANCH   5   6
ENDBRANCH   2   5
TORSDOF 6
ENDMDL
MODEL      328
REMARK 921   NORMALIZED FREE ENERGY PREDICTED BY IDOCK:   -1.66 KCAL/MOL
REMARK 922        TOTAL FREE ENERGY PREDICTED BY IDOCK:   -2.32 KCAL/MOL
REMARK 923 INTER-LIGAND FREE ENERGY PREDICTED BY IDOCK:   -1.90 KCAL/MOL
REMARK 924 INTRA-LIGAND FREE ENERGY PREDICTED BY IDOCK:   -0.42 KCAL/MOL
REMARK 927      BINDING AFFINITY PREDICTED BY RF-SCORE:    0.00 PKD
ROOT
HETATM    1  N   UNL     1      -6.279   6.356  65.350  1.00  0.00    -0.033 NA 
HETATM    2  C   UNL     1      -7.565   5.678  65.241  1.00  0.00    -0.084 C  
HETATM    3  H2  UNL     1      -5.498   5.709  65.235  1.00  0.00     0.000 HD 
HETATM    4  H1  UNL     1      -6.227   7.134  64.693  1.00  0.00     0.000 HD 
ENDROOT
BRANCH   2   5
HETATM    5  C   UNL     1      -7.642   4.513  66.226  1.00  0.00    -0.090 C  
BRANCH   5   6
HETATM    6  C   UNL     1      -8.097   5.003  67.601  1.00  0.00    -0.098 C  
BRANCH   6   7
HETATM    7  N   UNL     1      -8.280   6.452  67.577  1.00  0.00    -0.117 NA 
HETATM    8  H   UNL     1      -9.222   6.707  67.280  1.00  0.00     0.000 HD 
BRANCH   7   9
HETATM    9  C   UNL     1      -7.943   7.048  68.874  1.00  0.00    -0.120 C  
BRANCH   9  10
HETATM   10  C   UNL     1      -8.278   8.540  68.904  1.00  0.00    -0.117 C  
BRANCH  10  11
HETATM   11  S   UNL     1      -9.331   9.041  67.503  1.00  0.00    -0.137 SA 
HETATM   12  P   UNL     1     -10.356  10.618  68.351  1.00  0.00    -0.203 P  
HETATM   13  O   UNL     1     -11.478  11.132  67.330  1.00  0.00    -0.466 OA 
HETATM   14  O   UNL     1     -10.912  10.280  69.697  1.00  0.00    -0.234 OA 
HETATM   15  O   UNL     1      -9.411  11.906  68.405  1.00  0.00    -0.199 OA 
ENDBRANCH  10  11
ENDBRANCH   9  10
ENDBRANCH   7   9
ENDBRANCH   6   7
ENDBRANCH   5   6
ENDBRANCH   2   5
TORSDOF 6
ENDMDL
MODEL      329
REMARK 921   NORMALIZED FREE ENERGY PREDICTED BY IDOCK:   -1.63 KCAL/MOL
REMARK 922        TOTAL FREE ENERGY PREDICTED BY IDOCK:   -2.28 KCAL/MOL
REMARK 923 INTER-LIGAND FREE ENERGY PREDICTED BY IDOCK:   -2.58 KCAL/MOL
REMARK 924 INTRA-LIGAND FREE ENERGY PREDICTED BY IDOCK:    0.30 KCAL/MOL
REMARK 927      BINDING AFFINITY PREDICTED BY RF-SCORE:    0.00 PKD
ROOT
HETATM    1  N   UNL     1     -13.368   7.960  71.238  1.00  0.00    -0.540 NA 
HETATM    2  C   UNL     1     -12.056   8.596  71.200  1.00  0.00    -0.260 C  
HETATM    3  H2  UNL     1     -13.807   8.050  72.155  1.00  0.00     0.000 HD 
HETATM    4  H1  UNL     1     -13.964   8.324  70.495  1.00  0.00     0.000 HD 
ENDROOT
BRANCH   2   5
HETATM    5  C   UNL     1     -11.163   8.050  72.313  1.00  0.00    -0.402 C  
BRANCH   5   6
HETATM    6  C   UNL     1      -9.720   8.516  72.119  1.00  0.00    -0.317 C  
BRANCH   6   7
HETATM    7  N   UNL     1      -8.872   7.376  71.776  1.00  0.00    -0.116 NA 
HETATM    8  H   UNL     1      -9.108   6.552  72.331  1.00  0.00     0.000 HD 
BRANCH   7   9
HETATM    9  C   UNL     1      -8.926   7.093  70.338  1.00  0.00    -0.155 C  
BRANCH   9  10
HETATM   10  C   UNL     1      -9.301   8.342  69.540  1.00  0.00    -0.158 C  
BRANCH  10  11
HETATM   11  S   UNL     1      -8.385   8.460  67.968  1.00  0.00    -0.128 SA 
HETATM   12  P   UNL     1      -9.734   9.527  66.829  1.00  0.00    -0.231 P  
HETATM   13  O   UNL     1      -9.199   9.621  65.322  1.00  0.00    -0.204 OA 
HETATM   14  O   UNL     1     -11.119   8.972  66.915  1.00  0.00     0.092 OA 
HETATM   15  O   UNL     1      -9.686  11.070  67.244  1.00  0.00    -0.164 OA 
ENDBRANCH  10  11
ENDBRANCH   9  10
ENDBRANCH   7   9
ENDBRANCH   6   7
ENDBRANCH   5   6
ENDBRANCH   2   5
TORSDOF 6
ENDMDL
MODEL      330
REMARK 921   NORMALIZED FREE ENERGY PREDICTED BY IDOCK:   -1.62 KCAL/MOL
REMARK 922        TOTAL FREE ENERGY PREDICTED BY IDOCK:   -2.26 KCAL/MOL
REMARK 923 INTER-LIGAND FREE ENERGY PREDICTED BY IDOCK:   -2.05 KCAL/MOL
REMARK 924 INTRA-LIGAND FREE ENERGY PREDICTED BY IDOCK:   -0.21 KCAL/MOL
REMARK 927      BINDING AFFINITY PREDICTED BY RF-SCORE:    0.00 PKD
ROOT
HETATM    1  N   UNL     1     -11.470  16.849  64.597  1.00  0.00    -0.720 NA 
HETATM    2  C   UNL     1     -10.611  15.673  64.661  1.00  0.00    -0.012 C  
HETATM    3  H2  UNL     1     -10.944  17.711  64.746  1.00  0.00     0.000 HD 
HETATM    4  H1  UNL     1     -11.988  16.868  63.719  1.00  0.00     0.000 HD 
ENDROOT
BRANCH   2   5
HETATM    5  C   UNL     1      -9.836  15.646  65.977  1.00  0.00    -0.362 C  
BRANCH   5   6
HETATM    6  C   UNL     1     -10.191  16.860  66.835  1.00  0.00    -0.296 C  
BRANCH   6   7
HETATM    7  N   UNL     1      -9.733  16.651  68.207  1.00  0.00    -0.237 NA 
HETATM    8  H   UNL     1     -10.045  17.399  68.825  1.00  0.00     0.000 HD 
BRANCH   7   9
HETATM    9  C   UNL     1     -10.142  15.333  68.703  1.00  0.00    -0.222 C  
BRANCH   9  10
HETATM   10  C   UNL     1     -10.382  15.358  70.214  1.00  0.00    -0.183 C  
BRANCH  10  11
HETATM   11  S   UNL     1     -12.134  15.633  70.632  1.00  0.00    -0.410 SA 
HETATM   12  P   UNL     1     -12.747  13.693  70.972  1.00  0.00    -0.250 P  
HETATM   13  O   UNL     1     -14.330  13.670  71.211  1.00  0.00     0.278 OA 
HETATM   14  O   UNL     1     -12.314  12.759  69.888  1.00  0.00    -0.195 OA 
HETATM   15  O   UNL     1     -12.236  13.212  72.408  1.00  0.00     0.556 OA 
ENDBRANCH  10  11
ENDBRANCH   9  10
ENDBRANCH   7   9
ENDBRANCH   6   7
ENDBRANCH   5   6
ENDBRANCH   2   5
TORSDOF 6
ENDMDL
MODEL      331
REMARK 921   NORMALIZED FREE ENERGY PREDICTED BY IDOCK:   -1.60 KCAL/MOL
REMARK 922        TOTAL FREE ENERGY PREDICTED BY IDOCK:   -2.24 KCAL/MOL
REMARK 923 INTER-LIGAND FREE ENERGY PREDICTED BY IDOCK:   -2.28 KCAL/MOL
REMARK 924 INTRA-LIGAND FREE ENERGY PREDICTED BY IDOCK:    0.04 KCAL/MOL
REMARK 927      BINDING AFFINITY PREDICTED BY RF-SCORE:    0.00 PKD
ROOT
HETATM    1  N   UNL     1      -7.054   3.702  72.686  1.00  0.00    -0.043 NA 
HETATM    2  C   UNL     1      -7.150   3.331  71.280  1.00  0.00    -0.033 C  
HETATM    3  H2  UNL     1      -7.794   3.274  73.243  1.00  0.00     0.000 HD 
HETATM    4  H1  UNL     1      -6.128   3.481  73.053  1.00  0.00     0.000 HD 
ENDROOT
BRANCH   2   5
HETATM    5  C   UNL     1      -8.537   3.663  70.731  1.00  0.00    -0.111 C  
BRANCH   5   6
HETATM    6  C   UNL     1      -8.461   3.986  69.239  1.00  0.00    -0.076 C  
BRANCH   6   7
HETATM    7  N   UNL     1      -9.764   4.443  68.763  1.00  0.00    -0.154 NA 
HETATM    8  H   UNL     1     -10.445   3.684  68.744  1.00  0.00     0.000 HD 
BRANCH   7   9
HETATM    9  C   UNL     1     -10.245   5.582  69.553  1.00  0.00    -0.261 C  
BRANCH   9  10
HETATM   10  C   UNL     1      -9.387   6.825  69.314  1.00  0.00    -0.144 C  
BRANCH  10  11
HETATM   11  S   UNL     1     -10.369   8.360  69.350  1.00  0.00    -0.214 SA 
HETATM   12  P   UNL     1     -10.639   8.584  71.383  1.00  0.00    -0.295 P  
HETATM   13  O   UNL     1     -11.630   9.812  71.656  1.00  0.00    -0.375 OA 
HETATM   14  O   UNL     1     -11.092   7.321  72.042  1.00  0.00    -0.233 OA 
HETATM   15  O   UNL     1      -9.298   9.149  72.045  1.00  0.00    -0.337 OA 
ENDBRANCH  10  11
ENDBRANCH   9  10
ENDBRANCH   7   9
ENDBRANCH   6   7
ENDBRANCH   5   6
ENDBRANCH   2   5
TORSDOF 6
ENDMDL
MODEL      332
REMARK 921   NORMALIZED FREE ENERGY PREDICTED BY IDOCK:   -1.58 KCAL/MOL
REMARK 922        TOTAL FREE ENERGY PREDICTED BY IDOCK:   -2.21 KCAL/MOL
REMARK 923 INTER-LIGAND FREE ENERGY PREDICTED BY IDOCK:   -2.02 KCAL/MOL
REMARK 924 INTRA-LIGAND FREE ENERGY PREDICTED BY IDOCK:   -0.20 KCAL/MOL
REMARK 927      BINDING AFFINITY PREDICTED BY RF-SCORE:    0.00 PKD
ROOT
HETATM    1  N   UNL     1      -8.537  10.356  66.992  1.00  0.00    -0.130 NA 
HETATM    2  C   UNL     1      -7.733  11.215  67.853  1.00  0.00    -0.105 C  
HETATM    3  H2  UNL     1      -9.234   9.833  67.523  1.00  0.00     0.000 HD 
HETATM    4  H1  UNL     1      -8.962  10.899  66.240  1.00  0.00     0.000 HD 
ENDROOT
BRANCH   2   5
HETATM    5  C   UNL     1      -7.096  10.402  68.978  1.00  0.00    -0.076 C  
BRANCH   5   6
HETATM    6  C   UNL     1      -7.091   8.914  68.629  1.00  0.00    -0.071 C  
BRANCH   6   7
HETATM    7  N   UNL     1      -7.064   8.116  69.853  1.00  0.00    -0.058 NA 
HETATM    8  H   UNL     1      -7.006   8.705  70.684  1.00  0.00     0.000 HD 
BRANCH   7   9
HETATM    9  C   UNL     1      -8.213   7.206  69.914  1.00  0.00    -0.133 C  
BRANCH   9  10
HETATM   10  C   UNL     1      -8.722   7.051  71.348  1.00  0.00    -0.125 C  
BRANCH  10  11
HETATM   11  S   UNL     1      -9.362   8.616  72.028  1.00  0.00    -0.257 SA 
HETATM   12  P   UNL     1     -11.333   8.506  71.431  1.00  0.00    -0.314 P  
HETATM   13  O   UNL     1     -12.075   9.878  71.791  1.00  0.00    -0.389 OA 
HETATM   14  O   UNL     1     -11.473   8.136  69.989  1.00  0.00    -0.098 OA 
HETATM   15  O   UNL     1     -12.127   7.496  72.382  1.00  0.00    -0.261 OA 
ENDBRANCH  10  11
ENDBRANCH   9  10
ENDBRANCH   7   9
ENDBRANCH   6   7
ENDBRANCH   5   6
ENDBRANCH   2   5
TORSDOF 6
ENDMDL
MODEL      333
REMARK 921   NORMALIZED FREE ENERGY PREDICTED BY IDOCK:   -1.57 KCAL/MOL
REMARK 922        TOTAL FREE ENERGY PREDICTED BY IDOCK:   -2.20 KCAL/MOL
REMARK 923 INTER-LIGAND FREE ENERGY PREDICTED BY IDOCK:   -1.77 KCAL/MOL
REMARK 924 INTRA-LIGAND FREE ENERGY PREDICTED BY IDOCK:   -0.43 KCAL/MOL
REMARK 927      BINDING AFFINITY PREDICTED BY RF-SCORE:    0.00 PKD
ROOT
HETATM    1  N   UNL     1      -8.734  10.420  67.049  1.00  0.00    -0.130 NA 
HETATM    2  C   UNL     1      -8.176  11.063  68.233  1.00  0.00    -0.130 C  
HETATM    3  H2  UNL     1      -9.453   9.738  67.292  1.00  0.00     0.000 HD 
HETATM    4  H1  UNL     1      -9.082  11.119  66.393  1.00  0.00     0.000 HD 
ENDROOT
BRANCH   2   5
HETATM    5  C   UNL     1      -7.655  10.016  69.216  1.00  0.00    -0.109 C  
BRANCH   5   6
HETATM    6  C   UNL     1      -7.696   8.623  68.588  1.00  0.00    -0.099 C  
BRANCH   6   7
HETATM    7  N   UNL     1      -7.786   7.608  69.636  1.00  0.00    -0.106 NA 
HETATM    8  H   UNL     1      -7.544   7.990  70.550  1.00  0.00     0.000 HD 
BRANCH   7   9
HETATM    9  C   UNL     1      -9.111   6.978  69.647  1.00  0.00    -0.144 C  
BRANCH   9  10
HETATM   10  C   UNL     1      -9.435   6.390  71.021  1.00  0.00    -0.171 C  
BRANCH  10  11
HETATM   11  S   UNL     1      -9.763   7.681  72.266  1.00  0.00    -0.187 SA 
HETATM   12  P   UNL     1      -7.930   7.766  73.208  1.00  0.00    -0.170 P  
HETATM   13  O   UNL     1      -8.026   8.747  74.470  1.00  0.00    -0.349 OA 
HETATM   14  O   UNL     1      -7.409   6.412  73.568  1.00  0.00    -0.086 OA 
HETATM   15  O   UNL     1      -6.895   8.576  72.298  1.00  0.00    -0.093 OA 
ENDBRANCH  10  11
ENDBRANCH   9  10
ENDBRANCH   7   9
ENDBRANCH   6   7
ENDBRANCH   5   6
ENDBRANCH   2   5
TORSDOF 6
ENDMDL
MODEL      334
REMARK 921   NORMALIZED FREE ENERGY PREDICTED BY IDOCK:   -1.56 KCAL/MOL
REMARK 922        TOTAL FREE ENERGY PREDICTED BY IDOCK:   -2.19 KCAL/MOL
REMARK 923 INTER-LIGAND FREE ENERGY PREDICTED BY IDOCK:   -2.36 KCAL/MOL
REMARK 924 INTRA-LIGAND FREE ENERGY PREDICTED BY IDOCK:    0.16 KCAL/MOL
REMARK 927      BINDING AFFINITY PREDICTED BY RF-SCORE:    0.00 PKD
ROOT
HETATM    1  N   UNL     1      -7.904   7.651  68.024  1.00  0.00    -0.119 NA 
HETATM    2  C   UNL     1      -8.001   9.098  67.875  1.00  0.00    -0.101 C  
HETATM    3  H2  UNL     1      -7.293   7.238  67.318  1.00  0.00     0.000 HD 
HETATM    4  H1  UNL     1      -7.610   7.407  68.969  1.00  0.00     0.000 HD 
ENDROOT
BRANCH   2   5
HETATM    5  C   UNL     1      -8.441   9.464  66.459  1.00  0.00    -0.137 C  
BRANCH   5   6
HETATM    6  C   UNL     1      -9.933   9.796  66.430  1.00  0.00    -0.247 C  
BRANCH   6   7
HETATM    7  N   UNL     1     -10.483   9.731  67.783  1.00  0.00    -0.229 NA 
HETATM    8  H   UNL     1      -9.846   9.261  68.425  1.00  0.00     0.000 HD 
BRANCH   7   9
HETATM    9  C   UNL     1     -10.852  11.065  68.267  1.00  0.00    -0.215 C  
BRANCH   9  10
HETATM   10  C   UNL     1     -11.515  11.893  67.165  1.00  0.00    -0.319 C  
BRANCH  10  11
HETATM   11  S   UNL     1     -10.349  13.042  66.365  1.00  0.00    -0.287 SA 
HETATM   12  P   UNL     1      -9.432  13.858  68.023  1.00  0.00    -0.217 P  
HETATM   13  O   UNL     1      -8.452  15.037  67.562  1.00  0.00    -0.154 OA 
HETATM   14  O   UNL     1     -10.415  14.298  69.060  1.00  0.00    -0.239 OA 
HETATM   15  O   UNL     1      -8.370  12.821  68.615  1.00  0.00    -0.091 OA 
ENDBRANCH  10  11
ENDBRANCH   9  10
ENDBRANCH   7   9
ENDBRANCH   6   7
ENDBRANCH   5   6
ENDBRANCH   2   5
TORSDOF 6
ENDMDL
MODEL      335
REMARK 921   NORMALIZED FREE ENERGY PREDICTED BY IDOCK:   -1.53 KCAL/MOL
REMARK 922        TOTAL FREE ENERGY PREDICTED BY IDOCK:   -2.15 KCAL/MOL
REMARK 923 INTER-LIGAND FREE ENERGY PREDICTED BY IDOCK:   -1.79 KCAL/MOL
REMARK 924 INTRA-LIGAND FREE ENERGY PREDICTED BY IDOCK:   -0.36 KCAL/MOL
REMARK 927      BINDING AFFINITY PREDICTED BY RF-SCORE:    0.00 PKD
ROOT
HETATM    1  N   UNL     1      -8.453  11.486  68.807  1.00  0.00    -0.318 NA 
HETATM    2  C   UNL     1      -9.690  10.732  68.972  1.00  0.00    -0.187 C  
HETATM    3  H2  UNL     1      -7.919  11.166  67.998  1.00  0.00     0.000 HD 
HETATM    4  H1  UNL     1      -8.646  12.486  68.762  1.00  0.00     0.000 HD 
ENDROOT
BRANCH   2   5
HETATM    5  C   UNL     1      -9.400   9.234  69.040  1.00  0.00    -0.151 C  
BRANCH   5   6
HETATM    6  C   UNL     1      -8.212   8.958  69.961  1.00  0.00    -0.122 C  
BRANCH   6   7
HETATM    7  N   UNL     1      -7.307   7.999  69.331  1.00  0.00    -0.078 NA 
HETATM    8  H   UNL     1      -6.864   7.391  70.021  1.00  0.00     0.000 HD 
BRANCH   7   9
HETATM    9  C   UNL     1      -7.998   7.225  68.294  1.00  0.00    -0.124 C  
BRANCH   9  10
HETATM   10  C   UNL     1      -8.045   5.738  68.648  1.00  0.00    -0.101 C  
BRANCH  10  11
HETATM   11  S   UNL     1      -7.505   5.417  70.360  1.00  0.00    -0.077 SA 
HETATM   12  P   UNL     1      -9.332   5.238  71.301  1.00  0.00    -0.156 P  
HETATM   13  O   UNL     1      -9.105   5.104  72.880  1.00  0.00    -0.123 OA 
HETATM   14  O   UNL     1     -10.268   6.348  70.945  1.00  0.00    -0.185 OA 
HETATM   15  O   UNL     1      -9.963   3.805  70.981  1.00  0.00    -0.167 OA 
ENDBRANCH  10  11
ENDBRANCH   9  10
ENDBRANCH   7   9
ENDBRANCH   6   7
ENDBRANCH   5   6
ENDBRANCH   2   5
TORSDOF 6
ENDMDL
MODEL      336
REMARK 921   NORMALIZED FREE ENERGY PREDICTED BY IDOCK:   -1.51 KCAL/MOL
REMARK 922        TOTAL FREE ENERGY PREDICTED BY IDOCK:   -2.12 KCAL/MOL
REMARK 923 INTER-LIGAND FREE ENERGY PREDICTED BY IDOCK:   -1.79 KCAL/MOL
REMARK 924 INTRA-LIGAND FREE ENERGY PREDICTED BY IDOCK:   -0.33 KCAL/MOL
REMARK 927      BINDING AFFINITY PREDICTED BY RF-SCORE:    0.00 PKD
ROOT
HETATM    1  N   UNL     1     -11.444  13.987  65.169  1.00  0.00    -0.317 NA 
HETATM    2  C   UNL     1     -11.473  15.133  66.070  1.00  0.00    -0.157 C  
HETATM    3  H2  UNL     1     -10.993  13.178  65.598  1.00  0.00     0.000 HD 
HETATM    4  H1  UNL     1     -12.384  13.766  64.840  1.00  0.00     0.000 HD 
ENDROOT
BRANCH   2   5
HETATM    5  C   UNL     1     -10.066  15.464  66.562  1.00  0.00    -0.282 C  
BRANCH   5   6
HETATM    6  C   UNL     1      -9.766  14.725  67.867  1.00  0.00    -0.211 C  
BRANCH   6   7
HETATM    7  N   UNL     1      -9.440  13.329  67.584  1.00  0.00    -0.203 NA 
HETATM    8  H   UNL     1      -9.718  13.062  66.640  1.00  0.00     0.000 HD 
BRANCH   7   9
HETATM    9  C   UNL     1      -8.018  13.061  67.824  1.00  0.00    -0.164 C  
BRANCH   9  10
HETATM   10  C   UNL     1      -7.571  11.771  67.134  1.00  0.00    -0.155 C  
BRANCH  10  11
HETATM   11  S   UNL     1      -8.085  10.282  68.050  1.00  0.00    -0.106 SA 
HETATM   12  P   UNL     1      -6.336   9.190  68.001  1.00  0.00    -0.055 P  
HETATM   13  O   UNL     1      -6.597   7.739  68.626  1.00  0.00    -0.053 OA 
HETATM   14  O   UNL     1      -5.739   9.129  66.631  1.00  0.00    -0.048 OA 
HETATM   15  O   UNL     1      -5.304   9.779  69.070  1.00  0.00    -0.036 OA 
ENDBRANCH  10  11
ENDBRANCH   9  10
ENDBRANCH   7   9
ENDBRANCH   6   7
ENDBRANCH   5   6
ENDBRANCH   2   5
TORSDOF 6
ENDMDL
MODEL      337
REMARK 921   NORMALIZED FREE ENERGY PREDICTED BY IDOCK:   -1.38 KCAL/MOL
REMARK 922        TOTAL FREE ENERGY PREDICTED BY IDOCK:   -1.95 KCAL/MOL
REMARK 923 INTER-LIGAND FREE ENERGY PREDICTED BY IDOCK:   -2.04 KCAL/MOL
REMARK 924 INTRA-LIGAND FREE ENERGY PREDICTED BY IDOCK:    0.09 KCAL/MOL
REMARK 927      BINDING AFFINITY PREDICTED BY RF-SCORE:    0.00 PKD
ROOT
HETATM    1  N   UNL     1     -12.291   9.735  71.664  1.00  0.00    -0.388 NA 
HETATM    2  C   UNL     1     -11.710  10.513  70.577  1.00  0.00    -0.350 C  
HETATM    3  H2  UNL     1     -11.630   9.599  72.430  1.00  0.00     0.000 HD 
HETATM    4  H1  UNL     1     -13.160  10.161  71.985  1.00  0.00     0.000 HD 
ENDROOT
BRANCH   2   5
HETATM    5  C   UNL     1     -10.408   9.874  70.096  1.00  0.00    -0.336 C  
BRANCH   5   6
HETATM    6  C   UNL     1     -10.003   8.724  71.019  1.00  0.00    -0.234 C  
BRANCH   6   7
HETATM    7  N   UNL     1      -8.557   8.744  71.231  1.00  0.00    -0.188 NA 
HETATM    8  H   UNL     1      -8.285   9.465  71.899  1.00  0.00     0.000 HD 
BRANCH   7   9
HETATM    9  C   UNL     1      -8.065   7.422  71.633  1.00  0.00    -0.099 C  
BRANCH   9  10
HETATM   10  C   UNL     1      -9.207   6.410  71.732  1.00  0.00    -0.143 C  
BRANCH  10  11
HETATM   11  S   UNL     1      -9.143   5.163  70.404  1.00  0.00    -0.138 SA 
HETATM   12  P   UNL     1      -7.499   4.068  70.999  1.00  0.00    -0.041 P  
HETATM   13  O   UNL     1      -7.149   2.983  69.874  1.00  0.00    -0.040 OA 
HETATM   14  O   UNL     1      -6.332   4.934  71.348  1.00  0.00    -0.024 OA 
HETATM   15  O   UNL     1      -7.904   3.103  72.207  1.00  0.00    -0.056 OA 
ENDBRANCH  10  11
ENDBRANCH   9  10
ENDBRANCH   7   9
ENDBRANCH   6   7
ENDBRANCH   5   6
ENDBRANCH   2   5
TORSDOF 6
ENDMDL
MODEL      338
REMARK 921   NORMALIZED FREE ENERGY PREDICTED BY IDOCK:   -1.25 KCAL/MOL
REMARK 922        TOTAL FREE ENERGY PREDICTED BY IDOCK:   -1.78 KCAL/MOL
REMARK 923 INTER-LIGAND FREE ENERGY PREDICTED BY IDOCK:   -1.63 KCAL/MOL
REMARK 924 INTRA-LIGAND FREE ENERGY PREDICTED BY IDOCK:   -0.14 KCAL/MOL
REMARK 927      BINDING AFFINITY PREDICTED BY RF-SCORE:    0.00 PKD
ROOT
HETATM    1  N   UNL     1      -6.984   3.449  71.942  1.00  0.00    -0.029 NA 
HETATM    2  C   UNL     1      -6.448   3.100  70.632  1.00  0.00    -0.031 C  
HETATM    3  H2  UNL     1      -7.875   2.985  72.123  1.00  0.00     0.000 HD 
HETATM    4  H1  UNL     1      -6.300   3.253  72.672  1.00  0.00     0.000 HD 
ENDROOT
BRANCH   2   5
HETATM    5  C   UNL     1      -7.473   3.394  69.538  1.00  0.00    -0.048 C  
BRANCH   5   6
HETATM    6  C   UNL     1      -6.941   2.957  68.173  1.00  0.00    -0.049 C  
BRANCH   6   7
HETATM    7  N   UNL     1      -8.016   2.998  67.184  1.00  0.00    -0.078 NA 
HETATM    8  H   UNL     1      -8.802   2.409  67.458  1.00  0.00     0.000 HD 
BRANCH   7   9
HETATM    9  C   UNL     1      -8.440   4.378  66.924  1.00  0.00    -0.104 C  
BRANCH   9  10
HETATM   10  C   UNL     1      -9.913   4.584  67.284  1.00  0.00    -0.139 C  
BRANCH  10  11
HETATM   11  S   UNL     1     -10.418   6.330  67.159  1.00  0.00    -0.305 SA 
HETATM   12  P   UNL     1     -10.263   6.908  69.133  1.00  0.00    -0.204 P  
HETATM   13  O   UNL     1     -10.819   8.400  69.295  1.00  0.00    -0.175 OA 
HETATM   14  O   UNL     1     -10.923   5.942  70.064  1.00  0.00    -0.337 OA 
HETATM   15  O   UNL     1      -8.726   7.135  69.507  1.00  0.00    -0.133 OA 
ENDBRANCH  10  11
ENDBRANCH   9  10
ENDBRANCH   7   9
ENDBRANCH   6   7
ENDBRANCH   5   6
ENDBRANCH   2   5
TORSDOF 6
ENDMDL
MODEL      339
REMARK 921   NORMALIZED FREE ENERGY PREDICTED BY IDOCK:   -1.14 KCAL/MOL
REMARK 922        TOTAL FREE ENERGY PREDICTED BY IDOCK:   -1.62 KCAL/MOL
REMARK 923 INTER-LIGAND FREE ENERGY PREDICTED BY IDOCK:   -2.15 KCAL/MOL
REMARK 924 INTRA-LIGAND FREE ENERGY PREDICTED BY IDOCK:    0.52 KCAL/MOL
REMARK 927      BINDING AFFINITY PREDICTED BY RF-SCORE:    0.00 PKD
ROOT
HETATM    1  N   UNL     1     -11.649  13.463  64.376  1.00  0.00    -0.368 NA 
HETATM    2  C   UNL     1     -12.857  13.397  65.189  1.00  0.00    -0.316 C  
HETATM    3  H2  UNL     1     -11.293  12.534  64.148  1.00  0.00     0.000 HD 
HETATM    4  H1  UNL     1     -11.811  14.022  63.538  1.00  0.00     0.000 HD 
ENDROOT
BRANCH   2   5
HETATM    5  C   UNL     1     -12.615  12.559  66.443  1.00  0.00     0.756 C  
BRANCH   5   6
HETATM    6  C   UNL     1     -11.195  11.991  66.443  1.00  0.00    -0.337 C  
BRANCH   6   7
HETATM    7  N   UNL     1     -11.024  11.081  67.573  1.00  0.00    -0.262 NA 
HETATM    8  H   UNL     1     -10.371  10.329  67.355  1.00  0.00     0.000 HD 
BRANCH   7   9
HETATM    9  C   UNL     1     -10.624  11.811  68.781  1.00  0.00    -0.206 C  
BRANCH   9  10
HETATM   10  C   UNL     1     -10.669  13.323  68.557  1.00  0.00    -0.262 C  
BRANCH  10  11
HETATM   11  S   UNL     1      -9.040  14.005  68.104  1.00  0.00    -0.195 SA 
HETATM   12  P   UNL     1      -9.535  15.983  67.795  1.00  0.00    -0.217 P  
HETATM   13  O   UNL     1      -8.261  16.767  67.224  1.00  0.00    -0.168 OA 
HETATM   14  O   UNL     1     -10.745  16.141  66.930  1.00  0.00    -0.314 OA 
HETATM   15  O   UNL     1      -9.714  16.719  69.202  1.00  0.00    -0.257 OA 
ENDBRANCH  10  11
ENDBRANCH   9  10
ENDBRANCH   7   9
ENDBRANCH   6   7
ENDBRANCH   5   6
ENDBRANCH   2   5
TORSDOF 6
ENDMDL
MODEL      340
REMARK 921   NORMALIZED FREE ENERGY PREDICTED BY IDOCK:   -1.04 KCAL/MOL
REMARK 922        TOTAL FREE ENERGY PREDICTED BY IDOCK:   -1.48 KCAL/MOL
REMARK 923 INTER-LIGAND FREE ENERGY PREDICTED BY IDOCK:   -1.31 KCAL/MOL
REMARK 924 INTRA-LIGAND FREE ENERGY PREDICTED BY IDOCK:   -0.17 KCAL/MOL
REMARK 927      BINDING AFFINITY PREDICTED BY RF-SCORE:    0.00 PKD
ROOT
HETATM    1  N   UNL     1      -8.458  11.486  68.809  1.00  0.00    -0.318 NA 
HETATM    2  C   UNL     1      -9.707  10.751  68.965  1.00  0.00    -0.187 C  
HETATM    3  H2  UNL     1      -7.925  11.161  68.002  1.00  0.00     0.000 HD 
HETATM    4  H1  UNL     1      -8.635  12.489  68.766  1.00  0.00     0.000 HD 
ENDROOT
BRANCH   2   5
HETATM    5  C   UNL     1      -9.441   9.248  69.029  1.00  0.00    -0.155 C  
BRANCH   5   6
HETATM    6  C   UNL     1      -8.264   8.951  69.957  1.00  0.00    -0.122 C  
BRANCH   6   7
HETATM    7  N   UNL     1      -7.371   7.978  69.331  1.00  0.00    -0.078 NA 
HETATM    8  H   UNL     1      -6.947   7.358  70.022  1.00  0.00     0.000 HD 
BRANCH   7   9
HETATM    9  C   UNL     1      -8.065   7.224  68.282  1.00  0.00    -0.124 C  
BRANCH   9  10
HETATM   10  C   UNL     1      -8.143   5.736  68.625  1.00  0.00    -0.101 C  
BRANCH  10  11
HETATM   11  S   UNL     1      -7.626   5.394  70.339  1.00  0.00    -0.077 SA 
HETATM   12  P   UNL     1      -7.373   3.348  70.252  1.00  0.00    -0.040 P  
HETATM   13  O   UNL     1      -7.062   2.788  71.719  1.00  0.00    -0.033 OA 
HETATM   14  O   UNL     1      -8.530   2.657  69.604  1.00  0.00    -0.050 OA 
HETATM   15  O   UNL     1      -5.994   3.008  69.520  1.00  0.00    -0.022 OA 
ENDBRANCH  10  11
ENDBRANCH   9  10
ENDBRANCH   7   9
ENDBRANCH   6   7
ENDBRANCH   5   6
ENDBRANCH   2   5
TORSDOF 6
ENDMDL
MODEL      341
REMARK 921   NORMALIZED FREE ENERGY PREDICTED BY IDOCK:   -0.91 KCAL/MOL
REMARK 922        TOTAL FREE ENERGY PREDICTED BY IDOCK:   -1.31 KCAL/MOL
REMARK 923 INTER-LIGAND FREE ENERGY PREDICTED BY IDOCK:   -2.51 KCAL/MOL
REMARK 924 INTRA-LIGAND FREE ENERGY PREDICTED BY IDOCK:    1.19 KCAL/MOL
REMARK 927      BINDING AFFINITY PREDICTED BY RF-SCORE:    0.00 PKD
ROOT
HETATM    1  N   UNL     1      -9.499  16.013  66.964  1.00  0.00    -0.215 NA 
HETATM    2  C   UNL     1     -10.321  16.286  65.792  1.00  0.00    -0.374 C  
HETATM    3  H2  UNL     1      -9.072  15.087  66.922  1.00  0.00     0.000 HD 
HETATM    4  H1  UNL     1      -8.801  16.746  67.091  1.00  0.00     0.000 HD 
ENDROOT
BRANCH   2   5
HETATM    5  C   UNL     1     -11.366  15.189  65.602  1.00  0.00    -0.255 C  
BRANCH   5   6
HETATM    6  C   UNL     1     -11.293  14.175  66.744  1.00  0.00    -0.343 C  
BRANCH   6   7
HETATM    7  N   UNL     1     -10.230  13.207  66.482  1.00  0.00    -0.271 NA 
HETATM    8  H   UNL     1      -9.492  13.607  65.903  1.00  0.00     0.000 HD 
BRANCH   7   9
HETATM    9  C   UNL     1      -9.698  12.656  67.733  1.00  0.00    -0.206 C  
BRANCH   9  10
HETATM   10  C   UNL     1     -10.580  11.524  68.261  1.00  0.00    -0.200 C  
BRANCH  10  11
HETATM   11  S   UNL     1     -10.469  10.023  67.233  1.00  0.00    -0.253 SA 
HETATM   12  P   UNL     1      -8.602  10.282  66.395  1.00  0.00    -0.139 P  
HETATM   13  O   UNL     1      -8.344   9.135  65.307  1.00  0.00    -0.129 OA 
HETATM   14  O   UNL     1      -8.411  11.657  65.839  1.00  0.00    -0.031 OA 
HETATM   15  O   UNL     1      -7.475   9.915  67.467  1.00  0.00    -0.090 OA 
ENDBRANCH  10  11
ENDBRANCH   9  10
ENDBRANCH   7   9
ENDBRANCH   6   7
ENDBRANCH   5   6
ENDBRANCH   2   5
TORSDOF 6
ENDMDL
MODEL      342
REMARK 921   NORMALIZED FREE ENERGY PREDICTED BY IDOCK:   -0.40 KCAL/MOL
REMARK 922        TOTAL FREE ENERGY PREDICTED BY IDOCK:   -0.63 KCAL/MOL
REMARK 923 INTER-LIGAND FREE ENERGY PREDICTED BY IDOCK:   -2.34 KCAL/MOL
REMARK 924 INTRA-LIGAND FREE ENERGY PREDICTED BY IDOCK:    1.71 KCAL/MOL
REMARK 927      BINDING AFFINITY PREDICTED BY RF-SCORE:    0.00 PKD
ROOT
HETATM    1  N   UNL     1     -11.596  15.974  66.010  1.00  0.00     0.463 NA 
HETATM    2  C   UNL     1     -11.300  16.334  67.391  1.00  0.00     0.113 C  
HETATM    3  H2  UNL     1     -10.749  15.757  65.484  1.00  0.00     0.000 HD 
HETATM    4  H1  UNL     1     -12.270  15.210  65.976  1.00  0.00     0.000 HD 
ENDROOT
BRANCH   2   5
HETATM    5  C   UNL     1     -10.291  17.480  67.442  1.00  0.00    -0.351 C  
BRANCH   5   6
HETATM    6  C   UNL     1     -10.479  18.305  68.715  1.00  0.00    -0.089 C  
BRANCH   6   7
HETATM    7  N   UNL     1     -10.742  19.700  68.369  1.00  0.00    -0.379 NA 
HETATM    8  H   UNL     1     -10.069  20.329  68.808  1.00  0.00     0.000 HD 
BRANCH   7   9
HETATM    9  C   UNL     1     -10.783  19.883  66.914  1.00  0.00    -0.347 C  
BRANCH   9  10
HETATM   10  C   UNL     1      -9.471  19.448  66.262  1.00  0.00    -0.368 C  
BRANCH  10  11
HETATM   11  S   UNL     1      -8.011  20.073  67.157  1.00  0.00    -0.328 SA 
HETATM   12  P   UNL     1      -6.588  19.974  65.667  1.00  0.00    -0.283 P  
HETATM   13  O   UNL     1      -5.153  20.337  66.278  1.00  0.00    -0.163 OA 
HETATM   14  O   UNL     1      -6.596  18.658  64.957  1.00  0.00    -0.505 OA 
HETATM   15  O   UNL     1      -6.783  21.195  64.655  1.00  0.00    -0.099 OA 
ENDBRANCH  10  11
ENDBRANCH   9  10
ENDBRANCH   7   9
ENDBRANCH   6   7
ENDBRANCH   5   6
ENDBRANCH   2   5
TORSDOF 6
ENDMDL
