MODEL        1
REMARK 921   NORMALIZED FREE ENERGY PREDICTED BY IDOCK:   -7.10 KCAL/MOL
REMARK 922        TOTAL FREE ENERGY PREDICTED BY IDOCK:   -7.89 KCAL/MOL
REMARK 923 INTER-LIGAND FREE ENERGY PREDICTED BY IDOCK:   -7.51 KCAL/MOL
REMARK 924 INTRA-LIGAND FREE ENERGY PREDICTED BY IDOCK:   -0.37 KCAL/MOL
REMARK 927      BINDING AFFINITY PREDICTED BY RF-SCORE:    0.00 PKD
ROOT
HETATM    1  N   UNL     1     -12.510  11.471  63.189  1.00  0.00    -0.911 NA 
HETATM    2  H2  UNL     1     -12.822  10.688  62.615  1.00  0.00     0.000 HD 
HETATM    3  C   UNL     1     -11.186  11.644  63.374  1.00  0.00    -0.310 C  
HETATM    4  H1  UNL     1     -13.216  12.085  63.597  1.00  0.00     0.000 HD 
HETATM    5  N   UNL     1     -10.299  10.873  62.863  1.00  0.00    -0.782 NA 
HETATM    6  N   UNL     1     -10.717  12.674  64.133  1.00  0.00    -0.378 N  
HETATM    7  H   UNL     1      -9.706  12.721  64.263  1.00  0.00     0.000 HD 
HETATM    8  H2  UNL     1     -10.610  10.089  62.287  1.00  0.00     0.000 HD 
HETATM    9  C   UNL     1     -11.466  13.663  64.745  1.00  0.00    -0.352 C  
HETATM   10  H1  UNL     1      -9.297  11.004  63.002  1.00  0.00     0.000 HD 
HETATM   11  O   UNL     1     -12.696  13.653  64.826  1.00  0.00    -0.642 OA 
ENDROOT
BRANCH   9  12
HETATM   12  C   UNL     1     -10.671  14.752  65.379  1.00  0.00    -0.371 A  
HETATM   13  N   UNL     1      -9.855  14.379  66.403  1.00  0.00    -0.283 NA 
HETATM   14  C   UNL     1      -9.223  15.414  67.001  1.00  0.00    -0.225 A  
HETATM   15 CL   UNL     1      -8.245  14.955  68.338  1.00  0.00    -0.144 Cl 
HETATM   16  C   UNL     1      -9.379  16.758  66.614  1.00  0.00    -0.254 A  
HETATM   17  N   UNL     1      -8.683  17.817  67.200  1.00  0.00    -0.240 NA 
HETATM   18  N   UNL     1     -10.179  17.093  65.579  1.00  0.00    -0.615 NA 
HETATM   19  C   UNL     1     -10.839  16.084  64.961  1.00  0.00    -0.404 A  
HETATM   20  H2  UNL     1      -7.689  17.598  67.135  1.00  0.00     0.000 HD 
HETATM   21  H1  UNL     1      -8.795  18.792  66.920  1.00  0.00     0.000 HD 
HETATM   22  N   UNL     1     -11.565  16.456  63.832  1.00  0.00    -1.602 NA 
HETATM   23  H1  UNL     1     -11.686  17.422  63.529  1.00  0.00     0.000 HD 
HETATM   24  H2  UNL     1     -12.497  16.052  63.927  1.00  0.00     0.000 HD 
ENDBRANCH   9  12
TORSDOF 1
ENDMDL
MODEL        2
REMARK 921   NORMALIZED FREE ENERGY PREDICTED BY IDOCK:   -6.98 KCAL/MOL
REMARK 922        TOTAL FREE ENERGY PREDICTED BY IDOCK:   -7.76 KCAL/MOL
REMARK 923 INTER-LIGAND FREE ENERGY PREDICTED BY IDOCK:   -7.50 KCAL/MOL
REMARK 924 INTRA-LIGAND FREE ENERGY PREDICTED BY IDOCK:   -0.26 KCAL/MOL
REMARK 927      BINDING AFFINITY PREDICTED BY RF-SCORE:    0.00 PKD
ROOT
HETATM    1  N   UNL     1     -13.005  11.750  63.528  1.00  0.00    -0.672 NA 
HETATM    2  H2  UNL     1     -13.316  10.988  62.926  1.00  0.00     0.000 HD 
HETATM    3  C   UNL     1     -11.680  11.953  63.676  1.00  0.00    -0.474 C  
HETATM    4  H1  UNL     1     -13.713  12.322  63.990  1.00  0.00     0.000 HD 
HETATM    5  N   UNL     1     -10.791  11.234  63.096  1.00  0.00    -0.817 NA 
HETATM    6  N   UNL     1     -11.213  12.957  64.469  1.00  0.00    -0.319 N  
HETATM    7  H   UNL     1     -10.200  13.027  64.567  1.00  0.00     0.000 HD 
HETATM    8  H2  UNL     1     -11.101  10.472  62.492  1.00  0.00     0.000 HD 
HETATM    9  C   UNL     1     -11.967  13.892  65.157  1.00  0.00    -0.385 C  
HETATM   10  H1  UNL     1      -9.789  11.388  63.207  1.00  0.00     0.000 HD 
HETATM   11  O   UNL     1     -13.192  13.842  65.279  1.00  0.00    -0.755 OA 
ENDROOT
BRANCH   9  12
HETATM   12  C   UNL     1     -11.181  14.971  65.817  1.00  0.00    -0.318 A  
HETATM   13  N   UNL     1     -10.747  14.707  67.081  1.00  0.00    -0.287 NA 
HETATM   14  C   UNL     1     -10.115  15.748  67.669  1.00  0.00    -0.247 A  
HETATM   15 CL   UNL     1      -9.626  15.442  69.288  1.00  0.00    -0.253 Cl 
HETATM   16  C   UNL     1      -9.912  16.995  67.049  1.00  0.00    -0.288 A  
HETATM   17  N   UNL     1      -9.212  18.048  67.640  1.00  0.00    -0.257 NA 
HETATM   18  N   UNL     1     -10.336  17.217  65.786  1.00  0.00    -0.581 NA 
HETATM   19  C   UNL     1     -10.983  16.201  65.166  1.00  0.00    -0.316 A  
HETATM   20  H2  UNL     1      -8.295  17.690  67.904  1.00  0.00     0.000 HD 
HETATM   21  H1  UNL     1      -9.065  18.952  67.190  1.00  0.00     0.000 HD 
HETATM   22  N   UNL     1     -11.305  16.431  63.831  1.00  0.00    -1.535 NA 
HETATM   23  H1  UNL     1     -11.161  17.323  63.359  1.00  0.00     0.000 HD 
HETATM   24  H2  UNL     1     -12.286  16.182  63.710  1.00  0.00     0.000 HD 
ENDBRANCH   9  12
TORSDOF 1
ENDMDL
MODEL        3
REMARK 921   NORMALIZED FREE ENERGY PREDICTED BY IDOCK:   -6.77 KCAL/MOL
REMARK 922        TOTAL FREE ENERGY PREDICTED BY IDOCK:   -7.54 KCAL/MOL
REMARK 923 INTER-LIGAND FREE ENERGY PREDICTED BY IDOCK:   -7.28 KCAL/MOL
REMARK 924 INTRA-LIGAND FREE ENERGY PREDICTED BY IDOCK:   -0.26 KCAL/MOL
REMARK 927      BINDING AFFINITY PREDICTED BY RF-SCORE:    0.00 PKD
ROOT
HETATM    1  N   UNL     1     -10.967   8.925  67.457  1.00  0.00    -0.449 NA 
HETATM    2  H2  UNL     1     -10.875   7.942  67.713  1.00  0.00     0.000 HD 
HETATM    3  C   UNL     1     -10.303   9.370  66.372  1.00  0.00    -0.167 C  
HETATM    4  H1  UNL     1     -11.557   9.523  68.036  1.00  0.00     0.000 HD 
HETATM    5  N   UNL     1      -9.561   8.618  65.645  1.00  0.00    -0.453 NA 
HETATM    6  N   UNL     1     -10.391  10.674  65.987  1.00  0.00    -0.245 N  
HETATM    7  H   UNL     1      -9.830  10.950  65.181  1.00  0.00     0.000 HD 
HETATM    8  H2  UNL     1      -9.469   7.634  65.901  1.00  0.00     0.000 HD 
HETATM    9  C   UNL     1     -11.161  11.663  66.573  1.00  0.00    -0.301 C  
HETATM   10  H1  UNL     1      -9.059   8.955  64.823  1.00  0.00     0.000 HD 
HETATM   11  O   UNL     1     -11.756  11.536  67.645  1.00  0.00    -0.538 OA 
ENDROOT
BRANCH   9  12
HETATM   12  C   UNL     1     -11.183  12.960  65.841  1.00  0.00    -0.293 A  
HETATM   13  N   UNL     1     -10.198  13.845  66.163  1.00  0.00    -0.293 NA 
HETATM   14  C   UNL     1     -10.313  15.038  65.537  1.00  0.00    -0.373 A  
HETATM   15 CL   UNL     1      -9.112  16.181  65.991  1.00  0.00    -0.376 Cl 
HETATM   16  C   UNL     1     -11.343  15.354  64.632  1.00  0.00    -0.355 A  
HETATM   17  N   UNL     1     -11.426  16.569  63.947  1.00  0.00    -1.599 NA 
HETATM   18  N   UNL     1     -12.292  14.446  64.318  1.00  0.00    -0.660 NA 
HETATM   19  C   UNL     1     -12.218  13.241  64.932  1.00  0.00    -0.420 A  
HETATM   20  H2  UNL     1     -10.543  16.698  63.455  1.00  0.00     0.000 HD 
HETATM   21  H1  UNL     1     -12.173  16.798  63.291  1.00  0.00     0.000 HD 
HETATM   22  N   UNL     1     -13.147  12.298  64.500  1.00  0.00    -0.754 NA 
HETATM   23  H1  UNL     1     -13.897  12.502  63.841  1.00  0.00     0.000 HD 
HETATM   24  H2  UNL     1     -13.579  11.897  65.333  1.00  0.00     0.000 HD 
ENDBRANCH   9  12
TORSDOF 1
ENDMDL
MODEL        4
REMARK 921   NORMALIZED FREE ENERGY PREDICTED BY IDOCK:   -6.76 KCAL/MOL
REMARK 922        TOTAL FREE ENERGY PREDICTED BY IDOCK:   -7.53 KCAL/MOL
REMARK 923 INTER-LIGAND FREE ENERGY PREDICTED BY IDOCK:   -7.15 KCAL/MOL
REMARK 924 INTRA-LIGAND FREE ENERGY PREDICTED BY IDOCK:   -0.38 KCAL/MOL
REMARK 927      BINDING AFFINITY PREDICTED BY RF-SCORE:    0.00 PKD
ROOT
HETATM    1  N   UNL     1     -11.736  10.297  69.466  1.00  0.00    -0.442 NA 
HETATM    2  H2  UNL     1     -11.751   9.689  70.285  1.00  0.00     0.000 HD 
HETATM    3  C   UNL     1     -11.887  11.624  69.649  1.00  0.00    -0.352 C  
HETATM    4  H1  UNL     1     -11.609   9.869  68.548  1.00  0.00     0.000 HD 
HETATM    5  N   UNL     1     -12.047  12.160  70.802  1.00  0.00    -0.460 NA 
HETATM    6  N   UNL     1     -11.875  12.479  68.589  1.00  0.00    -0.312 N  
HETATM    7  H   UNL     1     -12.035  13.465  68.797  1.00  0.00     0.000 HD 
HETATM    8  H2  UNL     1     -12.062  11.552  71.622  1.00  0.00     0.000 HD 
HETATM    9  C   UNL     1     -11.669  12.152  67.260  1.00  0.00    -0.299 C  
HETATM   10  H1  UNL     1     -12.160  13.164  70.941  1.00  0.00     0.000 HD 
HETATM   11  O   UNL     1     -11.631  10.999  66.826  1.00  0.00    -0.319 OA 
ENDROOT
BRANCH   9  12
HETATM   12  C   UNL     1     -11.551  13.315  66.337  1.00  0.00    -0.347 A  
HETATM   13  N   UNL     1     -10.713  14.313  66.736  1.00  0.00    -0.284 NA 
HETATM   14  C   UNL     1     -10.708  15.383  65.910  1.00  0.00    -0.336 A  
HETATM   15 CL   UNL     1      -9.704  16.672  66.445  1.00  0.00    -0.286 Cl 
HETATM   16  C   UNL     1     -11.486  15.476  64.740  1.00  0.00    -0.313 A  
HETATM   17  N   UNL     1     -11.436  16.561  63.862  1.00  0.00    -1.599 NA 
HETATM   18  N   UNL     1     -12.290  14.460  64.361  1.00  0.00    -0.638 NA 
HETATM   19  C   UNL     1     -12.331  13.373  65.169  1.00  0.00    -0.456 A  
HETATM   20  H2  UNL     1     -10.462  16.681  63.586  1.00  0.00     0.000 HD 
HETATM   21  H1  UNL     1     -11.999  16.628  63.014  1.00  0.00     0.000 HD 
HETATM   22  N   UNL     1     -13.085  12.305  64.688  1.00  0.00    -0.702 NA 
HETATM   23  H1  UNL     1     -13.650  12.347  63.840  1.00  0.00     0.000 HD 
HETATM   24  H2  UNL     1     -13.699  12.005  65.444  1.00  0.00     0.000 HD 
ENDBRANCH   9  12
TORSDOF 1
ENDMDL
MODEL        5
REMARK 921   NORMALIZED FREE ENERGY PREDICTED BY IDOCK:   -6.64 KCAL/MOL
REMARK 922        TOTAL FREE ENERGY PREDICTED BY IDOCK:   -7.40 KCAL/MOL
REMARK 923 INTER-LIGAND FREE ENERGY PREDICTED BY IDOCK:   -7.02 KCAL/MOL
REMARK 924 INTRA-LIGAND FREE ENERGY PREDICTED BY IDOCK:   -0.38 KCAL/MOL
REMARK 927      BINDING AFFINITY PREDICTED BY RF-SCORE:    0.00 PKD
ROOT
HETATM    1  N   UNL     1      -8.389  18.698  66.876  1.00  0.00    -0.256 NA 
HETATM    2  H2  UNL     1      -7.934  19.592  67.063  1.00  0.00     0.000 HD 
HETATM    3  C   UNL     1      -9.717  18.689  66.645  1.00  0.00    -0.341 C  
HETATM    4  H1  UNL     1      -7.815  17.854  66.874  1.00  0.00     0.000 HD 
HETATM    5  N   UNL     1     -10.437  19.749  66.647  1.00  0.00    -0.475 NA 
HETATM    6  N   UNL     1     -10.372  17.522  66.390  1.00  0.00    -0.349 N  
HETATM    7  H   UNL     1     -11.382  17.585  66.264  1.00  0.00     0.000 HD 
HETATM    8  H2  UNL     1      -9.983  20.644  66.834  1.00  0.00     0.000 HD 
HETATM    9  C   UNL     1      -9.812  16.261  66.284  1.00  0.00    -0.313 C  
HETATM   10  H1  UNL     1     -11.442  19.743  66.472  1.00  0.00     0.000 HD 
HETATM   11  O   UNL     1      -8.645  15.993  66.574  1.00  0.00    -0.250 OA 
ENDROOT
BRANCH   9  12
HETATM   12  C   UNL     1     -10.750  15.192  65.841  1.00  0.00    -0.334 A  
HETATM   13  N   UNL     1     -10.823  14.091  66.641  1.00  0.00    -0.295 NA 
HETATM   14  C   UNL     1     -11.619  13.114  66.151  1.00  0.00    -0.355 A  
HETATM   15 CL   UNL     1     -11.660  11.696  67.122  1.00  0.00    -0.341 Cl 
HETATM   16  C   UNL     1     -12.318  13.207  64.933  1.00  0.00    -0.441 A  
HETATM   17  N   UNL     1     -13.181  12.218  64.458  1.00  0.00    -0.712 NA 
HETATM   18  N   UNL     1     -12.242  14.322  64.174  1.00  0.00    -0.606 NA 
HETATM   19  C   UNL     1     -11.445  15.320  64.626  1.00  0.00    -0.354 A  
HETATM   20  H2  UNL     1     -13.871  12.043  65.189  1.00  0.00     0.000 HD 
HETATM   21  H1  UNL     1     -13.688  12.285  63.576  1.00  0.00     0.000 HD 
HETATM   22  N   UNL     1     -11.479  16.492  63.874  1.00  0.00    -1.599 NA 
HETATM   23  H1  UNL     1     -11.984  16.585  62.992  1.00  0.00     0.000 HD 
HETATM   24  H2  UNL     1     -10.513  16.765  63.697  1.00  0.00     0.000 HD 
ENDBRANCH   9  12
TORSDOF 1
ENDMDL
MODEL        6
REMARK 921   NORMALIZED FREE ENERGY PREDICTED BY IDOCK:   -6.60 KCAL/MOL
REMARK 922        TOTAL FREE ENERGY PREDICTED BY IDOCK:   -7.36 KCAL/MOL
REMARK 923 INTER-LIGAND FREE ENERGY PREDICTED BY IDOCK:   -6.99 KCAL/MOL
REMARK 924 INTRA-LIGAND FREE ENERGY PREDICTED BY IDOCK:   -0.38 KCAL/MOL
REMARK 927      BINDING AFFINITY PREDICTED BY RF-SCORE:    0.00 PKD
ROOT
HETATM    1  N   UNL     1     -12.510  14.305  63.334  1.00  0.00    -1.101 NA 
HETATM    2  H2  UNL     1     -13.030  13.637  62.766  1.00  0.00     0.000 HD 
HETATM    3  C   UNL     1     -12.269  14.000  64.625  1.00  0.00    -0.435 C  
HETATM    4  H1  UNL     1     -12.197  15.173  62.897  1.00  0.00     0.000 HD 
HETATM    5  N   UNL     1     -12.661  12.910  65.173  1.00  0.00    -0.722 NA 
HETATM    6  N   UNL     1     -11.579  14.858  65.427  1.00  0.00    -0.317 N  
HETATM    7  H   UNL     1     -11.469  14.580  66.403  1.00  0.00     0.000 HD 
HETATM    8  H2  UNL     1     -13.181  12.240  64.605  1.00  0.00     0.000 HD 
HETATM    9  C   UNL     1     -11.012  16.065  65.059  1.00  0.00    -0.380 C  
HETATM   10  H1  UNL     1     -12.478  12.678  66.150  1.00  0.00     0.000 HD 
HETATM   11  O   UNL     1     -11.199  16.618  63.974  1.00  0.00    -1.052 OA 
ENDROOT
BRANCH   9  12
HETATM   12  C   UNL     1     -10.180  16.715  66.110  1.00  0.00    -0.348 A  
HETATM   13  N   UNL     1     -10.509  18.000  66.423  1.00  0.00    -0.367 NA 
HETATM   14  C   UNL     1      -9.671  18.574  67.316  1.00  0.00    -0.300 A  
HETATM   15 CL   UNL     1     -10.041  20.217  67.663  1.00  0.00    -0.550 Cl 
HETATM   16  C   UNL     1      -8.560  17.922  67.883  1.00  0.00    -0.252 A  
HETATM   17  N   UNL     1      -7.730  18.501  68.845  1.00  0.00    -0.270 NA 
HETATM   18  N   UNL     1      -8.275  16.640  67.567  1.00  0.00    -0.163 NA 
HETATM   19  C   UNL     1      -9.085  16.033  66.667  1.00  0.00    -0.252 A  
HETATM   20  H2  UNL     1      -8.326  18.804  69.614  1.00  0.00     0.000 HD 
HETATM   21  H1  UNL     1      -6.925  18.028  69.256  1.00  0.00     0.000 HD 
HETATM   22  N   UNL     1      -8.824  14.681  66.453  1.00  0.00    -0.477 NA 
HETATM   23  H1  UNL     1      -8.030  14.186  66.857  1.00  0.00     0.000 HD 
HETATM   24  H2  UNL     1      -8.785  14.539  65.444  1.00  0.00     0.000 HD 
ENDBRANCH   9  12
TORSDOF 1
ENDMDL
MODEL        7
REMARK 921   NORMALIZED FREE ENERGY PREDICTED BY IDOCK:   -6.50 KCAL/MOL
REMARK 922        TOTAL FREE ENERGY PREDICTED BY IDOCK:   -7.26 KCAL/MOL
REMARK 923 INTER-LIGAND FREE ENERGY PREDICTED BY IDOCK:   -6.86 KCAL/MOL
REMARK 924 INTRA-LIGAND FREE ENERGY PREDICTED BY IDOCK:   -0.39 KCAL/MOL
REMARK 927      BINDING AFFINITY PREDICTED BY RF-SCORE:    0.00 PKD
ROOT
HETATM    1  N   UNL     1     -12.241   8.061  72.784  1.00  0.00    -0.614 NA 
HETATM    2  H2  UNL     1     -12.426   7.345  73.487  1.00  0.00     0.000 HD 
HETATM    3  C   UNL     1     -13.235   8.909  72.453  1.00  0.00    -0.430 C  
HETATM    4  H1  UNL     1     -11.311   8.099  72.365  1.00  0.00     0.000 HD 
HETATM    5  N   UNL     1     -14.403   8.861  72.980  1.00  0.00    -1.154 NA 
HETATM    6  N   UNL     1     -13.040   9.882  71.520  1.00  0.00    -0.389 N  
HETATM    7  H   UNL     1     -13.848  10.461  71.290  1.00  0.00     0.000 HD 
HETATM    8  H2  UNL     1     -14.589   8.145  73.684  1.00  0.00     0.000 HD 
HETATM    9  C   UNL     1     -11.863  10.167  70.851  1.00  0.00    -0.374 C  
HETATM   10  H1  UNL     1     -15.156   9.503  72.730  1.00  0.00     0.000 HD 
HETATM   11  O   UNL     1     -10.854   9.460  70.888  1.00  0.00    -0.267 OA 
ENDROOT
BRANCH   9  12
HETATM   12  C   UNL     1     -11.903  11.391  70.002  1.00  0.00    -0.359 A  
HETATM   13  N   UNL     1     -12.105  12.567  70.659  1.00  0.00    -0.313 NA 
HETATM   14  C   UNL     1     -12.221  13.636  69.837  1.00  0.00    -0.304 A  
HETATM   15 CL   UNL     1     -12.545  15.112  70.657  1.00  0.00    -0.416 Cl 
HETATM   16  C   UNL     1     -12.140  13.560  68.434  1.00  0.00    -0.258 A  
HETATM   17  N   UNL     1     -12.206  14.674  67.595  1.00  0.00    -0.587 NA 
HETATM   18  N   UNL     1     -11.916  12.381  67.816  1.00  0.00    -0.461 NA 
HETATM   19  C   UNL     1     -11.805  11.284  68.604  1.00  0.00    -0.300 A  
HETATM   20  H2  UNL     1     -11.487  15.328  67.904  1.00  0.00     0.000 HD 
HETATM   21  H1  UNL     1     -12.146  14.620  66.578  1.00  0.00     0.000 HD 
HETATM   22  N   UNL     1     -11.465  10.109  67.939  1.00  0.00    -0.636 NA 
HETATM   23  H1  UNL     1     -11.394  10.032  66.925  1.00  0.00     0.000 HD 
HETATM   24  H2  UNL     1     -12.116   9.388  68.250  1.00  0.00     0.000 HD 
ENDBRANCH   9  12
TORSDOF 1
ENDMDL
MODEL        8
REMARK 921   NORMALIZED FREE ENERGY PREDICTED BY IDOCK:   -6.48 KCAL/MOL
REMARK 922        TOTAL FREE ENERGY PREDICTED BY IDOCK:   -7.24 KCAL/MOL
REMARK 923 INTER-LIGAND FREE ENERGY PREDICTED BY IDOCK:   -6.86 KCAL/MOL
REMARK 924 INTRA-LIGAND FREE ENERGY PREDICTED BY IDOCK:   -0.38 KCAL/MOL
REMARK 927      BINDING AFFINITY PREDICTED BY RF-SCORE:    0.00 PKD
ROOT
HETATM    1  N   UNL     1     -12.234  15.757  63.722  1.00  0.00    -1.100 NA 
HETATM    2  H2  UNL     1     -12.302  16.490  63.016  1.00  0.00     0.000 HD 
HETATM    3  C   UNL     1     -11.400  15.944  64.764  1.00  0.00    -0.309 C  
HETATM    4  H1  UNL     1     -12.800  14.916  63.603  1.00  0.00     0.000 HD 
HETATM    5  N   UNL     1     -10.688  17.001  64.912  1.00  0.00    -0.709 NA 
HETATM    6  N   UNL     1     -11.271  14.996  65.733  1.00  0.00    -0.337 N  
HETATM    7  H   UNL     1     -10.592  15.187  66.470  1.00  0.00     0.000 HD 
HETATM    8  H2  UNL     1     -10.756  17.735  64.207  1.00  0.00     0.000 HD 
HETATM    9  C   UNL     1     -11.963  13.801  65.824  1.00  0.00    -0.399 C  
HETATM   10  H1  UNL     1     -10.057  17.143  65.701  1.00  0.00     0.000 HD 
HETATM   11  O   UNL     1     -12.686  13.348  64.934  1.00  0.00    -0.633 OA 
ENDROOT
BRANCH   9  12
HETATM   12  C   UNL     1     -11.731  13.034  67.079  1.00  0.00    -0.383 A  
HETATM   13  N   UNL     1     -11.320  11.744  66.924  1.00  0.00    -0.382 NA 
HETATM   14  C   UNL     1     -11.208  11.064  68.088  1.00  0.00    -0.302 A  
HETATM   15 CL   UNL     1     -10.756   9.418  67.892  1.00  0.00    -0.293 Cl 
HETATM   16  C   UNL     1     -11.483  11.620  69.351  1.00  0.00    -0.307 A  
HETATM   17  N   UNL     1     -11.314  10.930  70.553  1.00  0.00    -0.450 NA 
HETATM   18  N   UNL     1     -11.867  12.909  69.472  1.00  0.00    -0.323 NA 
HETATM   19  C   UNL     1     -12.001  13.621  68.327  1.00  0.00    -0.350 A  
HETATM   20  H2  UNL     1     -10.352  10.594  70.575  1.00  0.00     0.000 HD 
HETATM   21  H1  UNL     1     -11.513  11.333  71.469  1.00  0.00     0.000 HD 
HETATM   22  N   UNL     1     -12.291  14.972  68.501  1.00  0.00    -0.579 NA 
HETATM   23  H1  UNL     1     -12.487  15.398  69.406  1.00  0.00     0.000 HD 
HETATM   24  H2  UNL     1     -13.076  15.193  67.888  1.00  0.00     0.000 HD 
ENDBRANCH   9  12
TORSDOF 1
ENDMDL
MODEL        9
REMARK 921   NORMALIZED FREE ENERGY PREDICTED BY IDOCK:   -6.48 KCAL/MOL
REMARK 922        TOTAL FREE ENERGY PREDICTED BY IDOCK:   -7.23 KCAL/MOL
REMARK 923 INTER-LIGAND FREE ENERGY PREDICTED BY IDOCK:   -6.86 KCAL/MOL
REMARK 924 INTRA-LIGAND FREE ENERGY PREDICTED BY IDOCK:   -0.37 KCAL/MOL
REMARK 927      BINDING AFFINITY PREDICTED BY RF-SCORE:    0.00 PKD
ROOT
HETATM    1  N   UNL     1     -11.619  11.574  63.311  1.00  0.00    -0.863 NA 
HETATM    2  H2  UNL     1     -11.713  11.355  62.319  1.00  0.00     0.000 HD 
HETATM    3  C   UNL     1     -12.015  12.789  63.740  1.00  0.00    -0.510 C  
HETATM    4  H1  UNL     1     -11.230  10.862  63.930  1.00  0.00     0.000 HD 
HETATM    5  N   UNL     1     -12.504  13.684  62.962  1.00  0.00    -0.973 NA 
HETATM    6  N   UNL     1     -11.911  13.133  65.054  1.00  0.00    -0.360 N  
HETATM    7  H   UNL     1     -12.192  14.082  65.301  1.00  0.00     0.000 HD 
HETATM    8  H2  UNL     1     -12.598  13.465  61.969  1.00  0.00     0.000 HD 
HETATM    9  C   UNL     1     -11.466  12.330  66.089  1.00  0.00    -0.374 C  
HETATM   10  H1  UNL     1     -12.804  14.603  63.286  1.00  0.00     0.000 HD 
HETATM   11  O   UNL     1     -10.937  11.228  65.935  1.00  0.00    -0.247 OA 
ENDROOT
BRANCH   9  12
HETATM   12  C   UNL     1     -11.611  12.920  67.449  1.00  0.00    -0.360 A  
HETATM   13  N   UNL     1     -11.441  14.269  67.538  1.00  0.00    -0.326 NA 
HETATM   14  C   UNL     1     -11.495  14.743  68.803  1.00  0.00    -0.301 A  
HETATM   15 CL   UNL     1     -11.213  16.434  68.926  1.00  0.00    -0.327 Cl 
HETATM   16  C   UNL     1     -11.710  13.935  69.936  1.00  0.00    -0.291 A  
HETATM   17  N   UNL     1     -11.819  14.437  71.234  1.00  0.00    -0.469 NA 
HETATM   18  N   UNL     1     -11.897  12.604  69.811  1.00  0.00    -0.327 NA 
HETATM   19  C   UNL     1     -11.839  12.088  68.560  1.00  0.00    -0.311 A  
HETATM   20  H2  UNL     1     -12.555  15.143  71.224  1.00  0.00     0.000 HD 
HETATM   21  H1  UNL     1     -11.975  13.852  72.055  1.00  0.00     0.000 HD 
HETATM   22  N   UNL     1     -12.146  10.734  68.462  1.00  0.00    -0.826 NA 
HETATM   23  H1  UNL     1     -12.312  10.131  69.268  1.00  0.00     0.000 HD 
HETATM   24  H2  UNL     1     -11.411  10.297  67.907  1.00  0.00     0.000 HD 
ENDBRANCH   9  12
TORSDOF 1
ENDMDL
MODEL       10
REMARK 921   NORMALIZED FREE ENERGY PREDICTED BY IDOCK:   -6.45 KCAL/MOL
REMARK 922        TOTAL FREE ENERGY PREDICTED BY IDOCK:   -7.21 KCAL/MOL
REMARK 923 INTER-LIGAND FREE ENERGY PREDICTED BY IDOCK:   -6.84 KCAL/MOL
REMARK 924 INTRA-LIGAND FREE ENERGY PREDICTED BY IDOCK:   -0.37 KCAL/MOL
REMARK 927      BINDING AFFINITY PREDICTED BY RF-SCORE:    0.00 PKD
ROOT
HETATM    1  N   UNL     1     -11.512  16.101  64.078  1.00  0.00    -1.425 NA 
HETATM    2  H2  UNL     1     -11.534  16.538  63.157  1.00  0.00     0.000 HD 
HETATM    3  C   UNL     1     -11.998  14.850  64.206  1.00  0.00    -0.338 C  
HETATM    4  H1  UNL     1     -11.123  16.632  64.858  1.00  0.00     0.000 HD 
HETATM    5  N   UNL     1     -12.486  14.182  63.227  1.00  0.00    -1.098 NA 
HETATM    6  N   UNL     1     -11.993  14.220  65.414  1.00  0.00    -0.370 N  
HETATM    7  H   UNL     1     -12.413  13.291  65.446  1.00  0.00     0.000 HD 
HETATM    8  H2  UNL     1     -12.508  14.620  62.304  1.00  0.00     0.000 HD 
HETATM    9  C   UNL     1     -11.478  14.707  66.603  1.00  0.00    -0.357 C  
HETATM   10  H1  UNL     1     -12.854  13.235  63.323  1.00  0.00     0.000 HD 
HETATM   11  O   UNL     1     -11.094  15.866  66.770  1.00  0.00    -0.217 OA 
ENDROOT
BRANCH   9  12
HETATM   12  C   UNL     1     -11.468  13.733  67.730  1.00  0.00    -0.322 A  
HETATM   13  N   UNL     1     -11.085  12.463  67.420  1.00  0.00    -0.257 NA 
HETATM   14  C   UNL     1     -11.177  11.598  68.455  1.00  0.00    -0.256 A  
HETATM   15 CL   UNL     1     -10.760   9.980  68.051  1.00  0.00    -0.283 Cl 
HETATM   16  C   UNL     1     -11.622  11.958  69.741  1.00  0.00    -0.286 A  
HETATM   17  N   UNL     1     -11.663  11.073  70.820  1.00  0.00    -0.376 NA 
HETATM   18  N   UNL     1     -11.973  13.231  70.022  1.00  0.00    -0.339 NA 
HETATM   19  C   UNL     1     -11.905  14.126  69.007  1.00  0.00    -0.348 A  
HETATM   20  H2  UNL     1     -10.729  10.679  70.924  1.00  0.00     0.000 HD 
HETATM   21  H1  UNL     1     -11.985  11.333  71.753  1.00  0.00     0.000 HD 
HETATM   22  N   UNL     1     -12.169  15.446  69.363  1.00  0.00    -0.566 NA 
HETATM   23  H1  UNL     1     -12.486  15.731  70.290  1.00  0.00     0.000 HD 
HETATM   24  H2  UNL     1     -12.843  15.811  68.690  1.00  0.00     0.000 HD 
ENDBRANCH   9  12
TORSDOF 1
ENDMDL
MODEL       11
REMARK 921   NORMALIZED FREE ENERGY PREDICTED BY IDOCK:   -6.42 KCAL/MOL
REMARK 922        TOTAL FREE ENERGY PREDICTED BY IDOCK:   -7.17 KCAL/MOL
REMARK 923 INTER-LIGAND FREE ENERGY PREDICTED BY IDOCK:   -6.78 KCAL/MOL
REMARK 924 INTRA-LIGAND FREE ENERGY PREDICTED BY IDOCK:   -0.39 KCAL/MOL
REMARK 927      BINDING AFFINITY PREDICTED BY RF-SCORE:    0.00 PKD
ROOT
HETATM    1  N   UNL     1     -11.091  11.844  65.669  1.00  0.00    -0.313 NA 
HETATM    2  H2  UNL     1     -11.230  10.863  65.426  1.00  0.00     0.000 HD 
HETATM    3  C   UNL     1     -10.365  12.615  64.834  1.00  0.00    -0.308 C  
HETATM    4  H1  UNL     1     -11.507  12.193  66.533  1.00  0.00     0.000 HD 
HETATM    5  N   UNL     1      -9.842  12.176  63.749  1.00  0.00    -0.576 NA 
HETATM    6  N   UNL     1     -10.149  13.931  65.112  1.00  0.00    -0.543 N  
HETATM    7  H   UNL     1      -9.558  14.444  64.458  1.00  0.00     0.000 HD 
HETATM    8  H2  UNL     1      -9.982  11.195  63.505  1.00  0.00     0.000 HD 
HETATM    9  C   UNL     1     -10.646  14.646  66.188  1.00  0.00    -0.312 C  
HETATM   10  H1  UNL     1      -9.294  12.760  63.117  1.00  0.00     0.000 HD 
HETATM   11  O   UNL     1     -11.229  14.139  67.149  1.00  0.00    -0.298 OA 
ENDROOT
BRANCH   9  12
HETATM   12  C   UNL     1     -10.375  16.110  66.150  1.00  0.00    -0.339 A  
HETATM   13  N   UNL     1      -9.684  16.618  67.208  1.00  0.00    -0.241 NA 
HETATM   14  C   UNL     1      -9.540  17.962  67.170  1.00  0.00    -0.280 A  
HETATM   15 CL   UNL     1      -8.728  18.615  68.537  1.00  0.00    -0.357 Cl 
HETATM   16  C   UNL     1     -10.047  18.777  66.140  1.00  0.00    -0.384 A  
HETATM   17  N   UNL     1      -9.848  20.158  66.079  1.00  0.00    -0.606 NA 
HETATM   18  N   UNL     1     -10.709  18.239  65.093  1.00  0.00    -0.517 NA 
HETATM   19  C   UNL     1     -10.883  16.896  65.100  1.00  0.00    -0.094 A  
HETATM   20  H2  UNL     1      -8.843  20.321  66.124  1.00  0.00     0.000 HD 
HETATM   21  H1  UNL     1     -10.215  20.749  65.332  1.00  0.00     0.000 HD 
HETATM   22  N   UNL     1     -11.471  16.369  63.953  1.00  0.00    -1.618 NA 
HETATM   23  H1  UNL     1     -11.839  16.939  63.193  1.00  0.00     0.000 HD 
HETATM   24  H2  UNL     1     -12.223  15.751  64.257  1.00  0.00     0.000 HD 
ENDBRANCH   9  12
TORSDOF 1
ENDMDL
MODEL       12
REMARK 921   NORMALIZED FREE ENERGY PREDICTED BY IDOCK:   -6.32 KCAL/MOL
REMARK 922        TOTAL FREE ENERGY PREDICTED BY IDOCK:   -7.07 KCAL/MOL
REMARK 923 INTER-LIGAND FREE ENERGY PREDICTED BY IDOCK:   -6.89 KCAL/MOL
REMARK 924 INTRA-LIGAND FREE ENERGY PREDICTED BY IDOCK:   -0.18 KCAL/MOL
REMARK 927      BINDING AFFINITY PREDICTED BY RF-SCORE:    0.00 PKD
ROOT
HETATM    1  N   UNL     1     -11.189  15.895  64.103  1.00  0.00    -1.005 NA 
HETATM    2  H2  UNL     1     -11.068  16.279  63.165  1.00  0.00     0.000 HD 
HETATM    3  C   UNL     1     -11.952  14.795  64.253  1.00  0.00    -0.368 C  
HETATM    4  H1  UNL     1     -10.724  16.364  64.881  1.00  0.00     0.000 HD 
HETATM    5  N   UNL     1     -12.536  14.206  63.275  1.00  0.00    -1.098 NA 
HETATM    6  N   UNL     1     -12.145  14.243  65.484  1.00  0.00    -0.390 N  
HETATM    7  H   UNL     1     -12.767  13.436  65.529  1.00  0.00     0.000 HD 
HETATM    8  H2  UNL     1     -12.415  14.589  62.336  1.00  0.00     0.000 HD 
HETATM    9  C   UNL     1     -11.587  14.662  66.678  1.00  0.00    -0.350 C  
HETATM   10  H1  UNL     1     -13.113  13.372  63.389  1.00  0.00     0.000 HD 
HETATM   11  O   UNL     1     -10.957  15.711  66.821  1.00  0.00    -0.310 OA 
ENDROOT
BRANCH   9  12
HETATM   12  C   UNL     1     -11.850  13.770  67.842  1.00  0.00    -0.378 A  
HETATM   13  N   UNL     1     -12.101  14.392  69.028  1.00  0.00    -0.297 NA 
HETATM   14  C   UNL     1     -12.246  13.542  70.069  1.00  0.00    -0.312 A  
HETATM   15 CL   UNL     1     -12.494  14.325  71.579  1.00  0.00    -0.421 Cl 
HETATM   16  C   UNL     1     -12.154  12.142  69.959  1.00  0.00    -0.277 A  
HETATM   17  N   UNL     1     -12.358  11.266  71.027  1.00  0.00    -0.380 NA 
HETATM   18  N   UNL     1     -11.926  11.555  68.764  1.00  0.00    -0.446 NA 
HETATM   19  C   UNL     1     -11.764  12.374  67.697  1.00  0.00    -0.346 A  
HETATM   20  H2  UNL     1     -13.275  11.478  71.419  1.00  0.00     0.000 HD 
HETATM   21  H1  UNL     1     -12.292  10.251  70.947  1.00  0.00     0.000 HD 
HETATM   22  N   UNL     1     -11.643  11.730  66.468  1.00  0.00    -0.511 NA 
HETATM   23  H1  UNL     1     -11.580  10.717  66.363  1.00  0.00     0.000 HD 
HETATM   24  H2  UNL     1     -10.832  12.131  65.997  1.00  0.00     0.000 HD 
ENDBRANCH   9  12
TORSDOF 1
ENDMDL
MODEL       13
REMARK 921   NORMALIZED FREE ENERGY PREDICTED BY IDOCK:   -6.31 KCAL/MOL
REMARK 922        TOTAL FREE ENERGY PREDICTED BY IDOCK:   -7.05 KCAL/MOL
REMARK 923 INTER-LIGAND FREE ENERGY PREDICTED BY IDOCK:   -6.70 KCAL/MOL
REMARK 924 INTRA-LIGAND FREE ENERGY PREDICTED BY IDOCK:   -0.35 KCAL/MOL
REMARK 927      BINDING AFFINITY PREDICTED BY RF-SCORE:    0.00 PKD
ROOT
HETATM    1  N   UNL     1     -12.344  11.657  62.847  1.00  0.00    -0.861 NA 
HETATM    2  H2  UNL     1     -12.317  11.279  61.900  1.00  0.00     0.000 HD 
HETATM    3  C   UNL     1     -11.224  11.595  63.594  1.00  0.00    -0.411 C  
HETATM    4  H1  UNL     1     -13.218  12.064  63.182  1.00  0.00     0.000 HD 
HETATM    5  N   UNL     1     -10.126  11.084  63.173  1.00  0.00    -0.536 NA 
HETATM    6  N   UNL     1     -11.205  12.085  64.865  1.00  0.00    -0.320 N  
HETATM    7  H   UNL     1     -10.336  11.968  65.387  1.00  0.00     0.000 HD 
HETATM    8  H2  UNL     1     -10.098  10.706  62.225  1.00  0.00     0.000 HD 
HETATM    9  C   UNL     1     -12.241  12.725  65.524  1.00  0.00    -0.463 C  
HETATM   10  H1  UNL     1      -9.278  11.038  63.738  1.00  0.00     0.000 HD 
HETATM   11  O   UNL     1     -13.396  12.793  65.100  1.00  0.00    -0.577 OA 
ENDROOT
BRANCH   9  12
HETATM   12  C   UNL     1     -11.884  13.296  66.852  1.00  0.00    -0.392 A  
HETATM   13  N   UNL     1     -11.668  14.641  66.887  1.00  0.00    -0.372 NA 
HETATM   14  C   UNL     1     -11.261  15.096  68.093  1.00  0.00    -0.320 A  
HETATM   15 CL   UNL     1     -10.922  16.781  68.123  1.00  0.00    -0.349 Cl 
HETATM   16  C   UNL     1     -11.075  14.275  69.221  1.00  0.00    -0.265 A  
HETATM   17  N   UNL     1     -10.708  14.759  70.478  1.00  0.00    -0.495 NA 
HETATM   18  N   UNL     1     -11.320  12.948  69.159  1.00  0.00    -0.273 NA 
HETATM   19  C   UNL     1     -11.719  12.451  67.964  1.00  0.00    -0.356 A  
HETATM   20  H2  UNL     1     -11.386  15.476  70.736  1.00  0.00     0.000 HD 
HETATM   21  H1  UNL     1     -10.573  14.164  71.296  1.00  0.00     0.000 HD 
HETATM   22  N   UNL     1     -12.066  11.102  67.970  1.00  0.00    -0.711 NA 
HETATM   23  H1  UNL     1     -11.946  10.490  68.776  1.00  0.00     0.000 HD 
HETATM   24  H2  UNL     1     -11.583  10.664  67.185  1.00  0.00     0.000 HD 
ENDBRANCH   9  12
TORSDOF 1
ENDMDL
MODEL       14
REMARK 921   NORMALIZED FREE ENERGY PREDICTED BY IDOCK:   -6.30 KCAL/MOL
REMARK 922        TOTAL FREE ENERGY PREDICTED BY IDOCK:   -7.04 KCAL/MOL
REMARK 923 INTER-LIGAND FREE ENERGY PREDICTED BY IDOCK:   -6.65 KCAL/MOL
REMARK 924 INTRA-LIGAND FREE ENERGY PREDICTED BY IDOCK:   -0.39 KCAL/MOL
REMARK 927      BINDING AFFINITY PREDICTED BY RF-SCORE:    0.00 PKD
ROOT
HETATM    1  N   UNL     1     -12.156  15.964  63.754  1.00  0.00    -1.230 NA 
HETATM    2  H2  UNL     1     -12.373  16.942  63.560  1.00  0.00     0.000 HD 
HETATM    3  C   UNL     1     -11.135  15.687  64.588  1.00  0.00    -0.373 C  
HETATM    4  H1  UNL     1     -12.724  15.244  63.306  1.00  0.00     0.000 HD 
HETATM    5  N   UNL     1     -10.422  16.592  65.151  1.00  0.00    -0.667 NA 
HETATM    6  N   UNL     1     -10.803  14.398  64.881  1.00  0.00    -0.399 N  
HETATM    7  H   UNL     1      -9.995  14.262  65.487  1.00  0.00     0.000 HD 
HETATM    8  H2  UNL     1     -10.638  17.570  64.957  1.00  0.00     0.000 HD 
HETATM    9  C   UNL     1     -11.448  13.255  64.442  1.00  0.00    -0.379 C  
HETATM   10  H1  UNL     1      -9.649  16.382  65.783  1.00  0.00     0.000 HD 
HETATM   11  O   UNL     1     -12.327  13.241  63.578  1.00  0.00    -0.698 OA 
ENDROOT
BRANCH   9  12
HETATM   12  C   UNL     1     -10.962  11.986  65.052  1.00  0.00    -0.306 A  
HETATM   13  N   UNL     1     -11.017  11.915  66.411  1.00  0.00    -0.280 NA 
HETATM   14  C   UNL     1     -10.483  10.781  66.920  1.00  0.00    -0.252 A  
HETATM   15 CL   UNL     1     -10.489  10.718  68.638  1.00  0.00    -0.195 Cl 
HETATM   16  C   UNL     1      -9.922   9.757  66.135  1.00  0.00    -0.268 A  
HETATM   17  N   UNL     1      -9.422   8.565  66.662  1.00  0.00    -0.189 NA 
HETATM   18  N   UNL     1      -9.903   9.848  64.788  1.00  0.00    -0.259 NA 
HETATM   19  C   UNL     1     -10.419  10.974  64.240  1.00  0.00    -0.359 A  
HETATM   20  H2  UNL     1     -10.167   8.145  67.218  1.00  0.00     0.000 HD 
HETATM   21  H1  UNL     1      -9.015   7.822  66.093  1.00  0.00     0.000 HD 
HETATM   22  N   UNL     1     -10.481  10.981  62.849  1.00  0.00    -0.797 NA 
HETATM   23  H1  UNL     1     -10.087  10.248  62.260  1.00  0.00     0.000 HD 
HETATM   24  H2  UNL     1     -10.082  11.866  62.534  1.00  0.00     0.000 HD 
ENDBRANCH   9  12
TORSDOF 1
ENDMDL
MODEL       15
REMARK 921   NORMALIZED FREE ENERGY PREDICTED BY IDOCK:   -6.21 KCAL/MOL
REMARK 922        TOTAL FREE ENERGY PREDICTED BY IDOCK:   -6.95 KCAL/MOL
REMARK 923 INTER-LIGAND FREE ENERGY PREDICTED BY IDOCK:   -6.67 KCAL/MOL
REMARK 924 INTRA-LIGAND FREE ENERGY PREDICTED BY IDOCK:   -0.28 KCAL/MOL
REMARK 927      BINDING AFFINITY PREDICTED BY RF-SCORE:    0.00 PKD
ROOT
HETATM    1  N   UNL     1      -8.007  18.036  67.267  1.00  0.00    -0.210 NA 
HETATM    2  H2  UNL     1      -7.293  18.606  67.720  1.00  0.00     0.000 HD 
HETATM    3  C   UNL     1      -7.896  16.694  67.336  1.00  0.00    -0.165 C  
HETATM    4  H1  UNL     1      -8.771  18.510  66.784  1.00  0.00     0.000 HD 
HETATM    5  N   UNL     1      -6.936  16.099  67.943  1.00  0.00    -0.127 NA 
HETATM    6  N   UNL     1      -8.823  15.887  66.748  1.00  0.00    -0.236 N  
HETATM    7  H   UNL     1      -8.654  14.883  66.805  1.00  0.00     0.000 HD 
HETATM    8  H2  UNL     1      -6.221  16.669  68.396  1.00  0.00     0.000 HD 
HETATM    9  C   UNL     1      -9.969  16.285  66.083  1.00  0.00    -0.334 C  
HETATM   10  H1  UNL     1      -6.852  15.084  67.995  1.00  0.00     0.000 HD 
HETATM   11  O   UNL     1     -10.227  17.452  65.782  1.00  0.00    -0.555 OA 
ENDROOT
BRANCH   9  12
HETATM   12  C   UNL     1     -10.880  15.178  65.680  1.00  0.00    -0.360 A  
HETATM   13  N   UNL     1     -10.889  14.085  66.495  1.00  0.00    -0.298 NA 
HETATM   14  C   UNL     1     -11.664  13.074  66.040  1.00  0.00    -0.393 A  
HETATM   15 CL   UNL     1     -11.625  11.669  67.030  1.00  0.00    -0.333 Cl 
HETATM   16  C   UNL     1     -12.401  13.126  64.843  1.00  0.00    -0.441 A  
HETATM   17  N   UNL     1     -13.241  12.100  64.406  1.00  0.00    -0.681 NA 
HETATM   18  N   UNL     1     -12.387  14.233  64.069  1.00  0.00    -0.727 NA 
HETATM   19  C   UNL     1     -11.614  15.265  64.484  1.00  0.00    -0.312 A  
HETATM   20  H2  UNL     1     -13.902  11.911  65.158  1.00  0.00     0.000 HD 
HETATM   21  H1  UNL     1     -13.776  12.138  63.538  1.00  0.00     0.000 HD 
HETATM   22  N   UNL     1     -11.713  16.425  63.720  1.00  0.00    -1.498 NA 
HETATM   23  H1  UNL     1     -12.245  16.488  62.853  1.00  0.00     0.000 HD 
HETATM   24  H2  UNL     1     -10.762  16.730  63.511  1.00  0.00     0.000 HD 
ENDBRANCH   9  12
TORSDOF 1
ENDMDL
MODEL       16
REMARK 921   NORMALIZED FREE ENERGY PREDICTED BY IDOCK:   -6.17 KCAL/MOL
REMARK 922        TOTAL FREE ENERGY PREDICTED BY IDOCK:   -6.91 KCAL/MOL
REMARK 923 INTER-LIGAND FREE ENERGY PREDICTED BY IDOCK:   -6.53 KCAL/MOL
REMARK 924 INTRA-LIGAND FREE ENERGY PREDICTED BY IDOCK:   -0.37 KCAL/MOL
REMARK 927      BINDING AFFINITY PREDICTED BY RF-SCORE:    0.00 PKD
ROOT
HETATM    1  N   UNL     1     -11.725  14.631  71.455  1.00  0.00    -0.460 NA 
HETATM    2  H2  UNL     1     -11.868  14.938  72.418  1.00  0.00     0.000 HD 
HETATM    3  C   UNL     1     -12.703  14.861  70.556  1.00  0.00    -0.347 C  
HETATM    4  H1  UNL     1     -10.848  14.165  71.220  1.00  0.00     0.000 HD 
HETATM    5  N   UNL     1     -13.805  15.447  70.851  1.00  0.00    -0.844 NA 
HETATM    6  N   UNL     1     -12.563  14.472  69.258  1.00  0.00    -0.547 N  
HETATM    7  H   UNL     1     -13.358  14.642  68.643  1.00  0.00     0.000 HD 
HETATM    8  H2  UNL     1     -13.948  15.755  71.814  1.00  0.00     0.000 HD 
HETATM    9  C   UNL     1     -11.455  13.871  68.687  1.00  0.00    -0.298 C  
HETATM   10  H1  UNL     1     -14.544  15.622  70.171  1.00  0.00     0.000 HD 
HETATM   11  O   UNL     1     -10.488  13.447  69.323  1.00  0.00    -0.028 OA 
ENDROOT
BRANCH   9  12
HETATM   12  C   UNL     1     -11.524  13.701  67.209  1.00  0.00    -0.343 A  
HETATM   13  N   UNL     1     -11.399  14.839  66.470  1.00  0.00    -0.351 NA 
HETATM   14  C   UNL     1     -11.556  14.645  65.141  1.00  0.00    -0.371 A  
HETATM   15 CL   UNL     1     -11.466  16.088  64.211  1.00  0.00    -0.336 Cl 
HETATM   16  C   UNL     1     -11.823  13.393  64.555  1.00  0.00    -0.398 A  
HETATM   17  N   UNL     1     -11.931  13.190  63.178  1.00  0.00    -0.842 NA 
HETATM   18  N   UNL     1     -11.919  12.281  65.315  1.00  0.00    -0.410 NA 
HETATM   19  C   UNL     1     -11.778  12.435  66.653  1.00  0.00    -0.372 A  
HETATM   20  H2  UNL     1     -11.075  13.545  62.753  1.00  0.00     0.000 HD 
HETATM   21  H1  UNL     1     -12.123  12.283  62.754  1.00  0.00     0.000 HD 
HETATM   22  N   UNL     1     -11.774  11.252  67.388  1.00  0.00    -0.584 NA 
HETATM   23  H1  UNL     1     -11.958  10.334  66.985  1.00  0.00     0.000 HD 
HETATM   24  H2  UNL     1     -12.427  11.377  68.162  1.00  0.00     0.000 HD 
ENDBRANCH   9  12
TORSDOF 1
ENDMDL
MODEL       17
REMARK 921   NORMALIZED FREE ENERGY PREDICTED BY IDOCK:   -6.13 KCAL/MOL
REMARK 922        TOTAL FREE ENERGY PREDICTED BY IDOCK:   -6.86 KCAL/MOL
REMARK 923 INTER-LIGAND FREE ENERGY PREDICTED BY IDOCK:   -7.05 KCAL/MOL
REMARK 924 INTRA-LIGAND FREE ENERGY PREDICTED BY IDOCK:    0.19 KCAL/MOL
REMARK 927      BINDING AFFINITY PREDICTED BY RF-SCORE:    0.00 PKD
ROOT
HETATM    1  N   UNL     1     -12.387  13.894  63.556  1.00  0.00    -1.087 NA 
HETATM    2  H2  UNL     1     -12.530  13.999  62.551  1.00  0.00     0.000 HD 
HETATM    3  C   UNL     1     -11.956  14.961  64.258  1.00  0.00    -0.338 C  
HETATM    4  H1  UNL     1     -12.577  12.985  63.980  1.00  0.00     0.000 HD 
HETATM    5  N   UNL     1     -11.717  16.102  63.725  1.00  0.00    -1.406 NA 
HETATM    6  N   UNL     1     -11.748  14.874  65.601  1.00  0.00    -0.257 N  
HETATM    7  H   UNL     1     -11.384  15.708  66.061  1.00  0.00     0.000 HD 
HETATM    8  H2  UNL     1     -11.860  16.208  62.720  1.00  0.00     0.000 HD 
HETATM    9  C   UNL     1     -11.981  13.774  66.408  1.00  0.00    -0.438 C  
HETATM   10  H1  UNL     1     -11.391  16.910  64.256  1.00  0.00     0.000 HD 
HETATM   11  O   UNL     1     -12.256  12.649  65.986  1.00  0.00    -0.564 OA 
ENDROOT
BRANCH   9  12
HETATM   12  C   UNL     1     -11.814  14.018  67.868  1.00  0.00    -0.376 A  
HETATM   13  N   UNL     1     -12.150  12.985  68.690  1.00  0.00    -0.241 NA 
HETATM   14  C   UNL     1     -12.065  13.285  70.005  1.00  0.00    -0.315 A  
HETATM   15 CL   UNL     1     -12.553  12.006  71.045  1.00  0.00    -0.430 Cl 
HETATM   16  C   UNL     1     -11.665  14.541  70.500  1.00  0.00    -0.276 A  
HETATM   17  N   UNL     1     -11.527  14.829  71.859  1.00  0.00    -0.445 NA 
HETATM   18  N   UNL     1     -11.317  15.538  69.658  1.00  0.00    -0.289 NA 
HETATM   19  C   UNL     1     -11.399  15.279  68.331  1.00  0.00    -0.329 A  
HETATM   20  H2  UNL     1     -10.892  14.135  72.251  1.00  0.00     0.000 HD 
HETATM   21  H1  UNL     1     -11.238  15.739  72.218  1.00  0.00     0.000 HD 
HETATM   22  N   UNL     1     -10.928  16.292  67.500  1.00  0.00    -0.260 NA 
HETATM   23  H1  UNL     1     -10.628  17.207  67.836  1.00  0.00     0.000 HD 
HETATM   24  H2  UNL     1     -11.639  16.453  66.787  1.00  0.00     0.000 HD 
ENDBRANCH   9  12
TORSDOF 1
ENDMDL
MODEL       18
REMARK 921   NORMALIZED FREE ENERGY PREDICTED BY IDOCK:   -6.10 KCAL/MOL
REMARK 922        TOTAL FREE ENERGY PREDICTED BY IDOCK:   -6.83 KCAL/MOL
REMARK 923 INTER-LIGAND FREE ENERGY PREDICTED BY IDOCK:   -6.44 KCAL/MOL
REMARK 924 INTRA-LIGAND FREE ENERGY PREDICTED BY IDOCK:   -0.39 KCAL/MOL
REMARK 927      BINDING AFFINITY PREDICTED BY RF-SCORE:    0.00 PKD
ROOT
HETATM    1  N   UNL     1     -12.617  14.672  63.687  1.00  0.00    -0.980 NA 
HETATM    2  H2  UNL     1     -12.883  15.396  63.020  1.00  0.00     0.000 HD 
HETATM    3  C   UNL     1     -11.558  14.895  64.490  1.00  0.00    -0.352 C  
HETATM    4  H1  UNL     1     -13.167  13.812  63.713  1.00  0.00     0.000 HD 
HETATM    5  N   UNL     1     -10.868  15.975  64.458  1.00  0.00    -0.883 NA 
HETATM    6  N   UNL     1     -11.162  13.960  65.398  1.00  0.00    -0.300 N  
HETATM    7  H   UNL     1     -10.329  14.179  65.944  1.00  0.00     0.000 HD 
HETATM    8  H2  UNL     1     -11.133  16.701  63.791  1.00  0.00     0.000 HD 
HETATM    9  C   UNL     1     -11.769  12.744  65.658  1.00  0.00    -0.399 C  
HETATM   10  H1  UNL     1     -10.067  16.145  65.066  1.00  0.00     0.000 HD 
HETATM   11  O   UNL     1     -12.674  12.260  64.975  1.00  0.00    -0.581 OA 
ENDROOT
BRANCH   9  12
HETATM   12  C   UNL     1     -11.208  11.995  66.816  1.00  0.00    -0.322 A  
HETATM   13  N   UNL     1     -12.091  11.671  67.803  1.00  0.00    -0.579 NA 
HETATM   14  C   UNL     1     -11.518  11.071  68.870  1.00  0.00    -0.296 A  
HETATM   15 CL   UNL     1     -12.616  10.721  70.146  1.00  0.00    -0.359 Cl 
HETATM   16  C   UNL     1     -10.141  10.796  68.972  1.00  0.00    -0.211 A  
HETATM   17  N   UNL     1      -9.563  10.128  70.053  1.00  0.00    -0.403 NA 
HETATM   18  N   UNL     1      -9.296  11.111  67.966  1.00  0.00    -0.161 NA 
HETATM   19  C   UNL     1      -9.831  11.723  66.882  1.00  0.00    -0.203 A  
HETATM   20  H2  UNL     1     -10.056   9.241  70.158  1.00  0.00     0.000 HD 
HETATM   21  H1  UNL     1      -8.565   9.928  70.126  1.00  0.00     0.000 HD 
HETATM   22  N   UNL     1      -8.949  11.931  65.824  1.00  0.00    -0.412 NA 
HETATM   23  H1  UNL     1      -7.950  11.734  65.873  1.00  0.00     0.000 HD 
HETATM   24  H2  UNL     1      -9.049  12.904  65.535  1.00  0.00     0.000 HD 
ENDBRANCH   9  12
TORSDOF 1
ENDMDL
MODEL       19
REMARK 921   NORMALIZED FREE ENERGY PREDICTED BY IDOCK:   -6.09 KCAL/MOL
REMARK 922        TOTAL FREE ENERGY PREDICTED BY IDOCK:   -6.82 KCAL/MOL
REMARK 923 INTER-LIGAND FREE ENERGY PREDICTED BY IDOCK:   -6.45 KCAL/MOL
REMARK 924 INTRA-LIGAND FREE ENERGY PREDICTED BY IDOCK:   -0.37 KCAL/MOL
REMARK 927      BINDING AFFINITY PREDICTED BY RF-SCORE:    0.00 PKD
ROOT
HETATM    1  N   UNL     1     -10.377  13.649  64.225  1.00  0.00    -0.697 NA 
HETATM    2  H2  UNL     1     -10.206  13.769  63.226  1.00  0.00     0.000 HD 
HETATM    3  C   UNL     1     -11.532  14.118  64.738  1.00  0.00    -0.383 C  
HETATM    4  H1  UNL     1      -9.665  13.181  64.786  1.00  0.00     0.000 HD 
HETATM    5  N   UNL     1     -12.427  14.706  64.033  1.00  0.00    -0.984 NA 
HETATM    6  N   UNL     1     -11.810  13.984  66.065  1.00  0.00    -0.370 N  
HETATM    7  H   UNL     1     -12.683  14.398  66.392  1.00  0.00     0.000 HD 
HETATM    8  H2  UNL     1     -12.256  14.825  63.033  1.00  0.00     0.000 HD 
HETATM    9  C   UNL     1     -11.032  13.348  67.017  1.00  0.00    -0.287 C  
HETATM   10  H1  UNL     1     -13.301  15.059  64.421  1.00  0.00     0.000 HD 
HETATM   11  O   UNL     1      -9.882  12.950  66.821  1.00  0.00    -0.229 OA 
ENDROOT
BRANCH   9  12
HETATM   12  C   UNL     1     -11.663  13.218  68.360  1.00  0.00    -0.354 A  
HETATM   13  N   UNL     1     -11.906  14.384  69.021  1.00  0.00    -0.313 NA 
HETATM   14  C   UNL     1     -12.397  14.210  70.269  1.00  0.00    -0.356 A  
HETATM   15 CL   UNL     1     -12.641  15.676  71.133  1.00  0.00    -0.484 Cl 
HETATM   16  C   UNL     1     -12.643  12.951  70.848  1.00  0.00    -0.270 A  
HETATM   17  N   UNL     1     -13.200  12.778  72.116  1.00  0.00    -0.473 NA 
HETATM   18  N   UNL     1     -12.412  11.814  70.156  1.00  0.00    -0.160 NA 
HETATM   19  C   UNL     1     -11.909  11.946  68.905  1.00  0.00    -0.307 A  
HETATM   20  H2  UNL     1     -14.080  13.294  72.132  1.00  0.00     0.000 HD 
HETATM   21  H1  UNL     1     -13.379  11.865  72.535  1.00  0.00     0.000 HD 
HETATM   22  N   UNL     1     -11.789  10.759  68.187  1.00  0.00    -0.782 NA 
HETATM   23  H1  UNL     1     -11.968   9.837  68.583  1.00  0.00     0.000 HD 
HETATM   24  H2  UNL     1     -10.849  10.740  67.793  1.00  0.00     0.000 HD 
ENDBRANCH   9  12
TORSDOF 1
ENDMDL
MODEL       20
REMARK 921   NORMALIZED FREE ENERGY PREDICTED BY IDOCK:   -6.06 KCAL/MOL
REMARK 922        TOTAL FREE ENERGY PREDICTED BY IDOCK:   -6.79 KCAL/MOL
REMARK 923 INTER-LIGAND FREE ENERGY PREDICTED BY IDOCK:   -6.39 KCAL/MOL
REMARK 924 INTRA-LIGAND FREE ENERGY PREDICTED BY IDOCK:   -0.40 KCAL/MOL
REMARK 927      BINDING AFFINITY PREDICTED BY RF-SCORE:    0.00 PKD
ROOT
HETATM    1  N   UNL     1     -12.196   8.255  72.735  1.00  0.00    -0.580 NA 
HETATM    2  H2  UNL     1     -12.358   7.563  73.466  1.00  0.00     0.000 HD 
HETATM    3  C   UNL     1     -13.217   9.057  72.372  1.00  0.00    -0.447 C  
HETATM    4  H1  UNL     1     -11.267   8.307  72.314  1.00  0.00     0.000 HD 
HETATM    5  N   UNL     1     -14.383   8.991  72.900  1.00  0.00    -1.108 NA 
HETATM    6  N   UNL     1     -13.053   9.998  71.400  1.00  0.00    -0.394 N  
HETATM    7  H   UNL     1     -13.879  10.541  71.148  1.00  0.00     0.000 HD 
HETATM    8  H2  UNL     1     -14.546   8.299  73.632  1.00  0.00     0.000 HD 
HETATM    9  C   UNL     1     -11.886  10.295  70.720  1.00  0.00    -0.365 C  
HETATM   10  H1  UNL     1     -15.156   9.598  72.626  1.00  0.00     0.000 HD 
HETATM   11  O   UNL     1     -10.854   9.623  70.785  1.00  0.00    -0.282 OA 
ENDROOT
BRANCH   9  12
HETATM   12  C   UNL     1     -11.965  11.481  69.823  1.00  0.00    -0.346 A  
HETATM   13  N   UNL     1     -11.792  11.239  68.494  1.00  0.00    -0.516 NA 
HETATM   14  C   UNL     1     -11.785  12.357  67.733  1.00  0.00    -0.350 A  
HETATM   15 CL   UNL     1     -11.498  12.062  66.064  1.00  0.00    -0.410 Cl 
HETATM   16  C   UNL     1     -11.943  13.658  68.247  1.00  0.00    -0.350 A  
HETATM   17  N   UNL     1     -11.989  14.804  67.450  1.00  0.00    -0.487 NA 
HETATM   18  N   UNL     1     -12.135  13.862  69.568  1.00  0.00    -0.338 NA 
HETATM   19  C   UNL     1     -12.138  12.767  70.366  1.00  0.00    -0.302 A  
HETATM   20  H2  UNL     1     -12.725  14.662  66.759  1.00  0.00     0.000 HD 
HETATM   21  H1  UNL     1     -12.104  15.747  67.823  1.00  0.00     0.000 HD 
HETATM   22  N   UNL     1     -12.448  13.008  71.702  1.00  0.00    -0.120 NA 
HETATM   23  H1  UNL     1     -12.573  13.941  72.095  1.00  0.00     0.000 HD 
HETATM   24  H2  UNL     1     -11.740  12.538  72.265  1.00  0.00     0.000 HD 
ENDBRANCH   9  12
TORSDOF 1
ENDMDL
MODEL       21
REMARK 921   NORMALIZED FREE ENERGY PREDICTED BY IDOCK:   -6.06 KCAL/MOL
REMARK 922        TOTAL FREE ENERGY PREDICTED BY IDOCK:   -6.79 KCAL/MOL
REMARK 923 INTER-LIGAND FREE ENERGY PREDICTED BY IDOCK:   -6.46 KCAL/MOL
REMARK 924 INTRA-LIGAND FREE ENERGY PREDICTED BY IDOCK:   -0.32 KCAL/MOL
REMARK 927      BINDING AFFINITY PREDICTED BY RF-SCORE:    0.00 PKD
ROOT
HETATM    1  N   UNL     1     -11.295  13.959  64.117  1.00  0.00    -0.600 NA 
HETATM    2  H2  UNL     1     -11.337  13.841  63.105  1.00  0.00     0.000 HD 
HETATM    3  C   UNL     1     -11.421  15.201  64.625  1.00  0.00    -0.362 C  
HETATM    4  H1  UNL     1     -11.160  13.129  64.696  1.00  0.00     0.000 HD 
HETATM    5  N   UNL     1     -11.591  16.243  63.897  1.00  0.00    -1.573 NA 
HETATM    6  N   UNL     1     -11.372  15.413  65.970  1.00  0.00    -0.171 N  
HETATM    7  H   UNL     1     -11.434  16.383  66.281  1.00  0.00     0.000 HD 
HETATM    8  H2  UNL     1     -11.634  16.126  62.884  1.00  0.00     0.000 HD 
HETATM    9  C   UNL     1     -11.247  14.453  66.958  1.00  0.00    -0.328 C  
HETATM   10  H1  UNL     1     -11.687  17.183  64.281  1.00  0.00     0.000 HD 
HETATM   11  O   UNL     1     -10.993  13.266  66.745  1.00  0.00    -0.281 OA 
ENDROOT
BRANCH   9  12
HETATM   12  C   UNL     1     -11.382  14.963  68.351  1.00  0.00    -0.303 A  
HETATM   13  N   UNL     1     -12.178  14.231  69.181  1.00  0.00    -0.289 NA 
HETATM   14  C   UNL     1     -12.338  14.782  70.406  1.00  0.00    -0.344 A  
HETATM   15 CL   UNL     1     -13.395  13.898  71.434  1.00  0.00    -0.390 Cl 
HETATM   16  C   UNL     1     -11.745  15.994  70.806  1.00  0.00    -0.378 A  
HETATM   17  N   UNL     1     -11.871  16.530  72.089  1.00  0.00    -0.631 NA 
HETATM   18  N   UNL     1     -10.944  16.684  69.965  1.00  0.00    -0.263 NA 
HETATM   19  C   UNL     1     -10.767  16.170  68.725  1.00  0.00    -0.294 A  
HETATM   20  H2  UNL     1     -11.564  15.814  72.747  1.00  0.00     0.000 HD 
HETATM   21  H1  UNL     1     -11.441  17.409  72.379  1.00  0.00     0.000 HD 
HETATM   22  N   UNL     1      -9.849  16.850  67.928  1.00  0.00    -0.256 NA 
HETATM   23  H1  UNL     1      -9.403  17.726  68.199  1.00  0.00     0.000 HD 
HETATM   24  H2  UNL     1     -10.293  17.007  67.023  1.00  0.00     0.000 HD 
ENDBRANCH   9  12
TORSDOF 1
ENDMDL
MODEL       22
REMARK 921   NORMALIZED FREE ENERGY PREDICTED BY IDOCK:   -6.03 KCAL/MOL
REMARK 922        TOTAL FREE ENERGY PREDICTED BY IDOCK:   -6.76 KCAL/MOL
REMARK 923 INTER-LIGAND FREE ENERGY PREDICTED BY IDOCK:   -6.37 KCAL/MOL
REMARK 924 INTRA-LIGAND FREE ENERGY PREDICTED BY IDOCK:   -0.39 KCAL/MOL
REMARK 927      BINDING AFFINITY PREDICTED BY RF-SCORE:    0.00 PKD
ROOT
HETATM    1  N   UNL     1     -10.906  12.657  64.298  1.00  0.00    -0.351 NA 
HETATM    2  H2  UNL     1     -11.123  11.835  63.733  1.00  0.00     0.000 HD 
HETATM    3  C   UNL     1     -11.606  13.788  64.081  1.00  0.00    -0.331 C  
HETATM    4  H1  UNL     1     -10.169  12.581  64.999  1.00  0.00     0.000 HD 
HETATM    5  N   UNL     1     -12.532  13.883  63.199  1.00  0.00    -1.079 NA 
HETATM    6  N   UNL     1     -11.356  14.913  64.808  1.00  0.00    -0.489 N  
HETATM    7  H   UNL     1     -11.895  15.743  64.563  1.00  0.00     0.000 HD 
HETATM    8  H2  UNL     1     -12.750  13.061  62.634  1.00  0.00     0.000 HD 
HETATM    9  C   UNL     1     -10.447  15.048  65.843  1.00  0.00    -0.328 C  
HETATM   10  H1  UNL     1     -13.063  14.739  63.036  1.00  0.00     0.000 HD 
HETATM   11  O   UNL     1      -9.607  14.198  66.145  1.00  0.00    -0.291 OA 
ENDROOT
BRANCH   9  12
HETATM   12  C   UNL     1     -10.501  16.352  66.560  1.00  0.00    -0.282 A  
HETATM   13  N   UNL     1     -10.515  17.467  65.777  1.00  0.00    -0.551 NA 
HETATM   14  C   UNL     1     -10.475  18.624  66.475  1.00  0.00    -0.420 A  
HETATM   15 CL   UNL     1     -10.423  20.031  65.489  1.00  0.00    -0.446 Cl 
HETATM   16  C   UNL     1     -10.428  18.692  67.880  1.00  0.00    -0.385 A  
HETATM   17  N   UNL     1     -10.441  19.890  68.597  1.00  0.00    -0.520 NA 
HETATM   18  N   UNL     1     -10.438  17.568  68.629  1.00  0.00    -0.358 NA 
HETATM   19  C   UNL     1     -10.467  16.388  67.966  1.00  0.00    -0.303 A  
HETATM   20  H2  UNL     1     -11.265  20.411  68.298  1.00  0.00     0.000 HD 
HETATM   21  H1  UNL     1     -10.407  19.940  69.615  1.00  0.00     0.000 HD 
HETATM   22  N   UNL     1     -10.588  15.258  68.772  1.00  0.00    -0.233 NA 
HETATM   23  H1  UNL     1     -10.563  15.284  69.790  1.00  0.00     0.000 HD 
HETATM   24  H2  UNL     1      -9.874  14.595  68.470  1.00  0.00     0.000 HD 
ENDBRANCH   9  12
TORSDOF 1
ENDMDL
MODEL       23
REMARK 921   NORMALIZED FREE ENERGY PREDICTED BY IDOCK:   -6.01 KCAL/MOL
REMARK 922        TOTAL FREE ENERGY PREDICTED BY IDOCK:   -6.74 KCAL/MOL
REMARK 923 INTER-LIGAND FREE ENERGY PREDICTED BY IDOCK:   -6.36 KCAL/MOL
REMARK 924 INTRA-LIGAND FREE ENERGY PREDICTED BY IDOCK:   -0.38 KCAL/MOL
REMARK 927      BINDING AFFINITY PREDICTED BY RF-SCORE:    0.00 PKD
ROOT
HETATM    1  N   UNL     1     -10.981  10.664  70.685  1.00  0.00    -0.370 NA 
HETATM    2  H2  UNL     1     -10.979  10.147  71.565  1.00  0.00     0.000 HD 
HETATM    3  C   UNL     1     -12.106  10.664  69.943  1.00  0.00    -0.299 C  
HETATM    4  H1  UNL     1     -10.130  11.155  70.411  1.00  0.00     0.000 HD 
HETATM    5  N   UNL     1     -13.175  10.046  70.288  1.00  0.00    -0.509 NA 
HETATM    6  N   UNL     1     -12.161  11.338  68.760  1.00  0.00    -0.283 N  
HETATM    7  H   UNL     1     -13.030  11.261  68.232  1.00  0.00     0.000 HD 
HETATM    8  H2  UNL     1     -13.174   9.529  71.169  1.00  0.00     0.000 HD 
HETATM    9  C   UNL     1     -11.163  12.115  68.200  1.00  0.00    -0.267 C  
HETATM   10  H1  UNL     1     -14.027  10.046  69.727  1.00  0.00     0.000 HD 
HETATM   11  O   UNL     1     -10.006  12.171  68.623  1.00  0.00    -0.202 OA 
ENDROOT
BRANCH   9  12
HETATM   12  C   UNL     1     -11.561  12.862  66.974  1.00  0.00    -0.362 A  
HETATM   13  N   UNL     1     -11.956  12.104  65.914  1.00  0.00    -0.571 NA 
HETATM   14  C   UNL     1     -12.222  12.823  64.800  1.00  0.00    -0.459 A  
HETATM   15 CL   UNL     1     -12.656  11.865  63.440  1.00  0.00    -0.674 Cl 
HETATM   16  C   UNL     1     -12.110  14.224  64.724  1.00  0.00    -0.446 A  
HETATM   17  N   UNL     1     -12.438  14.965  63.587  1.00  0.00    -1.008 NA 
HETATM   18  N   UNL     1     -11.737  14.948  65.801  1.00  0.00    -0.245 NA 
HETATM   19  C   UNL     1     -11.451  14.263  66.934  1.00  0.00    -0.363 A  
HETATM   20  H2  UNL     1     -13.397  14.726  63.337  1.00  0.00     0.000 HD 
HETATM   21  H1  UNL     1     -12.358  15.981  63.532  1.00  0.00     0.000 HD 
HETATM   22  N   UNL     1     -11.178  15.051  68.049  1.00  0.00    -0.303 NA 
HETATM   23  H1  UNL     1     -11.098  16.067  68.019  1.00  0.00     0.000 HD 
HETATM   24  H2  UNL     1     -10.318  14.694  68.466  1.00  0.00     0.000 HD 
ENDBRANCH   9  12
TORSDOF 1
ENDMDL
MODEL       24
REMARK 921   NORMALIZED FREE ENERGY PREDICTED BY IDOCK:   -6.00 KCAL/MOL
REMARK 922        TOTAL FREE ENERGY PREDICTED BY IDOCK:   -6.72 KCAL/MOL
REMARK 923 INTER-LIGAND FREE ENERGY PREDICTED BY IDOCK:   -6.46 KCAL/MOL
REMARK 924 INTRA-LIGAND FREE ENERGY PREDICTED BY IDOCK:   -0.27 KCAL/MOL
REMARK 927      BINDING AFFINITY PREDICTED BY RF-SCORE:    0.00 PKD
ROOT
HETATM    1  N   UNL     1     -11.349  11.479  63.127  1.00  0.00    -0.848 NA 
HETATM    2  H2  UNL     1     -11.434  11.356  62.118  1.00  0.00     0.000 HD 
HETATM    3  C   UNL     1     -11.800  12.624  63.676  1.00  0.00    -0.530 C  
HETATM    4  H1  UNL     1     -10.924  10.727  63.672  1.00  0.00     0.000 HD 
HETATM    5  N   UNL     1     -12.333  13.568  62.991  1.00  0.00    -0.968 NA 
HETATM    6  N   UNL     1     -11.710  12.838  65.018  1.00  0.00    -0.335 N  
HETATM    7  H   UNL     1     -12.034  13.743  65.358  1.00  0.00     0.000 HD 
HETATM    8  H2  UNL     1     -12.419  13.446  61.981  1.00  0.00     0.000 HD 
HETATM    9  C   UNL     1     -11.224  11.957  65.968  1.00  0.00    -0.324 C  
HETATM   10  H1  UNL     1     -12.676  14.435  63.406  1.00  0.00     0.000 HD 
HETATM   11  O   UNL     1     -10.643  10.902  65.705  1.00  0.00    -0.232 OA 
ENDROOT
BRANCH   9  12
HETATM   12  C   UNL     1     -11.394  12.399  67.380  1.00  0.00    -0.321 A  
HETATM   13  N   UNL     1     -11.791  11.441  68.264  1.00  0.00    -0.567 NA 
HETATM   14  C   UNL     1     -12.016  11.910  69.512  1.00  0.00    -0.292 A  
HETATM   15 CL   UNL     1     -12.582  10.718  70.613  1.00  0.00    -0.436 Cl 
HETATM   16  C   UNL     1     -11.857  13.258  69.885  1.00  0.00    -0.310 A  
HETATM   17  N   UNL     1     -12.038  13.727  71.187  1.00  0.00    -0.454 NA 
HETATM   18  N   UNL     1     -11.440  14.180  68.990  1.00  0.00    -0.265 NA 
HETATM   19  C   UNL     1     -11.214  13.751  67.725  1.00  0.00    -0.288 A  
HETATM   20  H2  UNL     1     -11.433  13.173  71.794  1.00  0.00     0.000 HD 
HETATM   21  H1  UNL     1     -11.922  14.704  71.458  1.00  0.00     0.000 HD 
HETATM   22  N   UNL     1     -10.682  14.705  66.862  1.00  0.00    -0.289 NA 
HETATM   23  H1  UNL     1     -10.552  15.685  67.112  1.00  0.00     0.000 HD 
HETATM   24  H2  UNL     1     -11.239  14.684  66.008  1.00  0.00     0.000 HD 
ENDBRANCH   9  12
TORSDOF 1
ENDMDL
MODEL       25
REMARK 921   NORMALIZED FREE ENERGY PREDICTED BY IDOCK:   -5.95 KCAL/MOL
REMARK 922        TOTAL FREE ENERGY PREDICTED BY IDOCK:   -6.68 KCAL/MOL
REMARK 923 INTER-LIGAND FREE ENERGY PREDICTED BY IDOCK:   -6.31 KCAL/MOL
REMARK 924 INTRA-LIGAND FREE ENERGY PREDICTED BY IDOCK:   -0.37 KCAL/MOL
REMARK 927      BINDING AFFINITY PREDICTED BY RF-SCORE:    0.00 PKD
ROOT
HETATM    1  N   UNL     1     -12.027  10.665  68.014  1.00  0.00    -0.737 NA 
HETATM    2  H2  UNL     1     -12.140   9.722  68.386  1.00  0.00     0.000 HD 
HETATM    3  C   UNL     1     -11.253  11.535  68.695  1.00  0.00    -0.248 C  
HETATM    4  H1  UNL     1     -12.506  10.904  67.146  1.00  0.00     0.000 HD 
HETATM    5  N   UNL     1     -10.652  11.234  69.787  1.00  0.00    -0.441 NA 
HETATM    6  N   UNL     1     -11.069  12.806  68.242  1.00  0.00    -0.242 N  
HETATM    7  H   UNL     1     -10.504  13.421  68.827  1.00  0.00     0.000 HD 
HETATM    8  H2  UNL     1     -10.765  10.290  70.159  1.00  0.00     0.000 HD 
HETATM    9  C   UNL     1     -11.567  13.351  67.071  1.00  0.00    -0.356 C  
HETATM   10  H1  UNL     1     -10.066  11.892  70.301  1.00  0.00     0.000 HD 
HETATM   11  O   UNL     1     -12.397  12.800  66.346  1.00  0.00    -0.500 OA 
ENDROOT
BRANCH   9  12
HETATM   12  C   UNL     1     -11.071  14.720  66.754  1.00  0.00    -0.338 A  
HETATM   13  N   UNL     1     -10.852  15.539  67.821  1.00  0.00    -0.301 NA 
HETATM   14  C   UNL     1     -10.488  16.795  67.478  1.00  0.00    -0.319 A  
HETATM   15 CL   UNL     1     -10.277  17.850  68.818  1.00  0.00    -0.376 Cl 
HETATM   16  C   UNL     1     -10.341  17.234  66.149  1.00  0.00    -0.317 A  
HETATM   17  N   UNL     1      -9.913  18.517  65.801  1.00  0.00    -0.489 NA 
HETATM   18  N   UNL     1     -10.545  16.390  65.114  1.00  0.00    -0.663 NA 
HETATM   19  C   UNL     1     -10.921  15.125  65.417  1.00  0.00    -0.374 A  
HETATM   20  H2  UNL     1      -9.022  18.675  66.271  1.00  0.00     0.000 HD 
HETATM   21  H1  UNL     1      -9.806  18.835  64.838  1.00  0.00     0.000 HD 
HETATM   22  N   UNL     1     -11.013  14.258  64.330  1.00  0.00    -0.610 NA 
HETATM   23  H1  UNL     1     -10.905  14.553  63.360  1.00  0.00     0.000 HD 
HETATM   24  H2  UNL     1     -11.912  13.782  64.400  1.00  0.00     0.000 HD 
ENDBRANCH   9  12
TORSDOF 1
ENDMDL
MODEL       26
REMARK 921   NORMALIZED FREE ENERGY PREDICTED BY IDOCK:   -5.90 KCAL/MOL
REMARK 922        TOTAL FREE ENERGY PREDICTED BY IDOCK:   -6.62 KCAL/MOL
REMARK 923 INTER-LIGAND FREE ENERGY PREDICTED BY IDOCK:   -6.29 KCAL/MOL
REMARK 924 INTRA-LIGAND FREE ENERGY PREDICTED BY IDOCK:   -0.32 KCAL/MOL
REMARK 927      BINDING AFFINITY PREDICTED BY RF-SCORE:    0.00 PKD
ROOT
HETATM    1  N   UNL     1     -13.574   8.265  71.170  1.00  0.00    -0.551 NA 
HETATM    2  H2  UNL     1     -13.815   7.298  71.390  1.00  0.00     0.000 HD 
HETATM    3  C   UNL     1     -13.715   9.197  72.133  1.00  0.00    -0.471 C  
HETATM    4  H1  UNL     1     -13.239   8.479  70.230  1.00  0.00     0.000 HD 
HETATM    5  N   UNL     1     -14.136   8.928  73.314  1.00  0.00    -1.248 NA 
HETATM    6  N   UNL     1     -13.408  10.502  71.891  1.00  0.00    -0.407 N  
HETATM    7  H   UNL     1     -13.577  11.159  72.653  1.00  0.00     0.000 HD 
HETATM    8  H2  UNL     1     -14.376   7.961  73.535  1.00  0.00     0.000 HD 
HETATM    9  C   UNL     1     -12.891  11.030  70.722  1.00  0.00    -0.266 C  
HETATM   10  H1  UNL     1     -14.242   9.633  74.044  1.00  0.00     0.000 HD 
HETATM   11  O   UNL     1     -12.791  10.408  69.663  1.00  0.00    -0.078 OA 
ENDROOT
BRANCH   9  12
HETATM   12  C   UNL     1     -12.504  12.467  70.798  1.00  0.00    -0.267 A  
HETATM   13  N   UNL     1     -13.180  13.221  71.709  1.00  0.00    -0.414 NA 
HETATM   14  C   UNL     1     -12.855  14.533  71.679  1.00  0.00    -0.338 A  
HETATM   15 CL   UNL     1     -13.754  15.499  72.780  1.00  0.00    -0.630 Cl 
HETATM   16  C   UNL     1     -11.908  15.087  70.798  1.00  0.00    -0.320 A  
HETATM   17  N   UNL     1     -11.537  16.433  70.807  1.00  0.00    -0.556 NA 
HETATM   18  N   UNL     1     -11.239  14.308  69.921  1.00  0.00    -0.192 NA 
HETATM   19  C   UNL     1     -11.544  12.988  69.913  1.00  0.00    -0.179 A  
HETATM   20  H2  UNL     1     -11.233  16.656  71.755  1.00  0.00     0.000 HD 
HETATM   21  H1  UNL     1     -10.850  16.835  70.169  1.00  0.00     0.000 HD 
HETATM   22  N   UNL     1     -10.757  12.203  69.075  1.00  0.00    -0.375 NA 
HETATM   23  H1  UNL     1     -10.060  12.581  68.433  1.00  0.00     0.000 HD 
HETATM   24  H2  UNL     1     -11.389  11.623  68.524  1.00  0.00     0.000 HD 
ENDBRANCH   9  12
TORSDOF 1
ENDMDL
MODEL       27
REMARK 921   NORMALIZED FREE ENERGY PREDICTED BY IDOCK:   -5.86 KCAL/MOL
REMARK 922        TOTAL FREE ENERGY PREDICTED BY IDOCK:   -6.58 KCAL/MOL
REMARK 923 INTER-LIGAND FREE ENERGY PREDICTED BY IDOCK:   -6.23 KCAL/MOL
REMARK 924 INTRA-LIGAND FREE ENERGY PREDICTED BY IDOCK:   -0.35 KCAL/MOL
REMARK 927      BINDING AFFINITY PREDICTED BY RF-SCORE:    0.00 PKD
ROOT
HETATM    1  N   UNL     1     -11.806  10.397  69.900  1.00  0.00    -0.381 NA 
HETATM    2  H2  UNL     1     -11.820   9.558  70.480  1.00  0.00     0.000 HD 
HETATM    3  C   UNL     1     -11.361  10.293  68.631  1.00  0.00    -0.166 C  
HETATM    4  H1  UNL     1     -12.129  11.274  70.309  1.00  0.00     0.000 HD 
HETATM    5  N   UNL     1     -10.955   9.190  68.118  1.00  0.00    -0.484 NA 
HETATM    6  N   UNL     1     -11.321  11.383  67.815  1.00  0.00    -0.279 N  
HETATM    7  H   UNL     1     -10.935  11.239  66.882  1.00  0.00     0.000 HD 
HETATM    8  H2  UNL     1     -10.969   8.350  68.697  1.00  0.00     0.000 HD 
HETATM    9  C   UNL     1     -11.748  12.663  68.118  1.00  0.00    -0.347 C  
HETATM   10  H1  UNL     1     -10.618   9.112  67.158  1.00  0.00     0.000 HD 
HETATM   11  O   UNL     1     -12.078  13.037  69.245  1.00  0.00    -0.278 OA 
ENDROOT
BRANCH   9  12
HETATM   12  C   UNL     1     -11.730  13.619  66.976  1.00  0.00    -0.384 A  
HETATM   13  N   UNL     1     -12.092  13.110  65.764  1.00  0.00    -0.425 NA 
HETATM   14  C   UNL     1     -11.975  13.992  64.746  1.00  0.00    -0.417 A  
HETATM   15 CL   UNL     1     -12.365  13.335  63.207  1.00  0.00    -0.477 Cl 
HETATM   16  C   UNL     1     -11.527  15.317  64.903  1.00  0.00    -0.343 A  
HETATM   17  N   UNL     1     -11.460  16.240  63.857  1.00  0.00    -1.539 NA 
HETATM   18  N   UNL     1     -11.197  15.798  66.121  1.00  0.00    -0.069 NA 
HETATM   19  C   UNL     1     -11.291  14.941  67.166  1.00  0.00    -0.343 A  
HETATM   20  H2  UNL     1     -12.386  16.283  63.433  1.00  0.00     0.000 HD 
HETATM   21  H1  UNL     1     -11.136  17.200  63.970  1.00  0.00     0.000 HD 
HETATM   22  N   UNL     1     -11.049  15.503  68.417  1.00  0.00    -0.298 NA 
HETATM   23  H1  UNL     1     -10.731  16.462  68.555  1.00  0.00     0.000 HD 
HETATM   24  H2  UNL     1     -10.388  14.895  68.898  1.00  0.00     0.000 HD 
ENDBRANCH   9  12
TORSDOF 1
ENDMDL
MODEL       28
REMARK 921   NORMALIZED FREE ENERGY PREDICTED BY IDOCK:   -5.85 KCAL/MOL
REMARK 922        TOTAL FREE ENERGY PREDICTED BY IDOCK:   -6.57 KCAL/MOL
REMARK 923 INTER-LIGAND FREE ENERGY PREDICTED BY IDOCK:   -6.41 KCAL/MOL
REMARK 924 INTRA-LIGAND FREE ENERGY PREDICTED BY IDOCK:   -0.16 KCAL/MOL
REMARK 927      BINDING AFFINITY PREDICTED BY RF-SCORE:    0.00 PKD
ROOT
HETATM    1  N   UNL     1     -12.405  12.365  63.152  1.00  0.00    -0.739 NA 
HETATM    2  H2  UNL     1     -12.732  11.600  62.563  1.00  0.00     0.000 HD 
HETATM    3  C   UNL     1     -11.093  12.427  63.456  1.00  0.00    -0.458 C  
HETATM    4  H1  UNL     1     -13.088  13.047  63.484  1.00  0.00     0.000 HD 
HETATM    5  N   UNL     1     -10.235  11.571  63.039  1.00  0.00    -0.634 NA 
HETATM    6  N   UNL     1     -10.605  13.429  64.240  1.00  0.00    -0.521 N  
HETATM    7  H   UNL     1      -9.611  13.391  64.462  1.00  0.00     0.000 HD 
HETATM    8  H2  UNL     1     -10.561  10.805  62.449  1.00  0.00     0.000 HD 
HETATM    9  C   UNL     1     -11.317  14.492  64.767  1.00  0.00    -0.396 C  
HETATM   10  H1  UNL     1      -9.242  11.618  63.268  1.00  0.00     0.000 HD 
HETATM   11  O   UNL     1     -12.545  14.591  64.735  1.00  0.00    -0.567 OA 
ENDROOT
BRANCH   9  12
HETATM   12  C   UNL     1     -10.490  15.522  65.456  1.00  0.00    -0.386 A  
HETATM   13  N   UNL     1     -10.910  16.812  65.325  1.00  0.00    -0.509 NA 
HETATM   14  C   UNL     1     -10.079  17.715  65.893  1.00  0.00    -0.181 A  
HETATM   15 CL   UNL     1     -10.569  19.348  65.671  1.00  0.00    -0.493 Cl 
HETATM   16  C   UNL     1      -8.890  17.375  66.564  1.00  0.00    -0.263 A  
HETATM   17  N   UNL     1      -8.064  18.307  67.195  1.00  0.00    -0.222 NA 
HETATM   18  N   UNL     1      -8.514  16.084  66.696  1.00  0.00    -0.259 NA 
HETATM   19  C   UNL     1      -9.314  15.149  66.131  1.00  0.00    -0.311 A  
HETATM   20  H2  UNL     1      -8.643  18.826  67.854  1.00  0.00     0.000 HD 
HETATM   21  H1  UNL     1      -7.202  18.061  67.682  1.00  0.00     0.000 HD 
HETATM   22  N   UNL     1      -8.952  13.829  66.383  1.00  0.00    -0.471 NA 
HETATM   23  H1  UNL     1      -8.099  13.559  66.872  1.00  0.00     0.000 HD 
HETATM   24  H2  UNL     1      -8.952  13.340  65.488  1.00  0.00     0.000 HD 
ENDBRANCH   9  12
TORSDOF 1
ENDMDL
MODEL       29
REMARK 921   NORMALIZED FREE ENERGY PREDICTED BY IDOCK:   -5.83 KCAL/MOL
REMARK 922        TOTAL FREE ENERGY PREDICTED BY IDOCK:   -6.54 KCAL/MOL
REMARK 923 INTER-LIGAND FREE ENERGY PREDICTED BY IDOCK:   -6.15 KCAL/MOL
REMARK 924 INTRA-LIGAND FREE ENERGY PREDICTED BY IDOCK:   -0.39 KCAL/MOL
REMARK 927      BINDING AFFINITY PREDICTED BY RF-SCORE:    0.00 PKD
ROOT
HETATM    1  N   UNL     1     -12.408  16.179  71.929  1.00  0.00    -0.573 NA 
HETATM    2  H2  UNL     1     -12.845  16.446  72.811  1.00  0.00     0.000 HD 
HETATM    3  C   UNL     1     -13.136  15.476  71.039  1.00  0.00    -0.489 C  
HETATM    4  H1  UNL     1     -11.440  16.457  71.765  1.00  0.00     0.000 HD 
HETATM    5  N   UNL     1     -14.352  15.127  71.245  1.00  0.00    -0.692 NA 
HETATM    6  N   UNL     1     -12.599  15.094  69.846  1.00  0.00    -0.589 N  
HETATM    7  H   UNL     1     -13.193  14.530  69.239  1.00  0.00     0.000 HD 
HETATM    8  H2  UNL     1     -14.790  15.394  72.128  1.00  0.00     0.000 HD 
HETATM    9  C   UNL     1     -11.333  15.389  69.372  1.00  0.00    -0.307 C  
HETATM   10  H1  UNL     1     -14.903  14.595  70.571  1.00  0.00     0.000 HD 
HETATM   11  O   UNL     1     -10.443  15.910  70.047  1.00  0.00    -0.302 OA 
ENDROOT
BRANCH   9  12
HETATM   12  C   UNL     1     -11.075  14.973  67.966  1.00  0.00    -0.300 A  
HETATM   13  N   UNL     1     -11.443  13.702  67.641  1.00  0.00    -0.307 NA 
HETATM   14  C   UNL     1     -11.109  13.344  66.380  1.00  0.00    -0.299 A  
HETATM   15 CL   UNL     1     -11.511  11.719  65.988  1.00  0.00    -0.345 Cl 
HETATM   16  C   UNL     1     -10.446  14.191  65.473  1.00  0.00    -0.339 A  
HETATM   17  N   UNL     1     -10.151  13.834  64.155  1.00  0.00    -0.655 NA 
HETATM   18  N   UNL     1     -10.114  15.453  65.819  1.00  0.00    -0.334 NA 
HETATM   19  C   UNL     1     -10.423  15.847  67.078  1.00  0.00    -0.306 A  
HETATM   20  H2  UNL     1     -11.027  13.550  63.717  1.00  0.00     0.000 HD 
HETATM   21  H1  UNL     1      -9.670  14.448  63.497  1.00  0.00     0.000 HD 
HETATM   22  N   UNL     1     -10.165  17.186  67.360  1.00  0.00    -0.312 NA 
HETATM   23  H1  UNL     1      -9.692  17.820  66.716  1.00  0.00     0.000 HD 
HETATM   24  H2  UNL     1      -9.653  17.216  68.241  1.00  0.00     0.000 HD 
ENDBRANCH   9  12
TORSDOF 1
ENDMDL
MODEL       30
REMARK 921   NORMALIZED FREE ENERGY PREDICTED BY IDOCK:   -5.80 KCAL/MOL
REMARK 922        TOTAL FREE ENERGY PREDICTED BY IDOCK:   -6.51 KCAL/MOL
REMARK 923 INTER-LIGAND FREE ENERGY PREDICTED BY IDOCK:   -6.16 KCAL/MOL
REMARK 924 INTRA-LIGAND FREE ENERGY PREDICTED BY IDOCK:   -0.35 KCAL/MOL
REMARK 927      BINDING AFFINITY PREDICTED BY RF-SCORE:    0.00 PKD
ROOT
HETATM    1  N   UNL     1     -13.693  16.160  73.568  1.00  0.00    -0.843 NA 
HETATM    2  H2  UNL     1     -13.781  17.031  74.092  1.00  0.00     0.000 HD 
HETATM    3  C   UNL     1     -12.599  15.980  72.801  1.00  0.00    -0.472 C  
HETATM    4  H1  UNL     1     -14.438  15.467  73.650  1.00  0.00     0.000 HD 
HETATM    5  N   UNL     1     -11.663  16.850  72.697  1.00  0.00    -0.269 NA 
HETATM    6  N   UNL     1     -12.432  14.835  72.081  1.00  0.00    -0.327 N  
HETATM    7  H   UNL     1     -11.602  14.784  71.492  1.00  0.00     0.000 HD 
HETATM    8  H2  UNL     1     -11.750  17.722  73.222  1.00  0.00     0.000 HD 
HETATM    9  C   UNL     1     -13.271  13.735  72.065  1.00  0.00    -0.432 C  
HETATM   10  H1  UNL     1     -10.835  16.714  72.117  1.00  0.00     0.000 HD 
HETATM   11  O   UNL     1     -14.389  13.706  72.583  1.00  0.00    -0.703 OA 
ENDROOT
BRANCH   9  12
HETATM   12  C   UNL     1     -12.755  12.562  71.307  1.00  0.00    -0.252 A  
HETATM   13  N   UNL     1     -12.844  11.356  71.936  1.00  0.00    -0.357 NA 
HETATM   14  C   UNL     1     -12.283  10.339  71.245  1.00  0.00    -0.395 A  
HETATM   15 CL   UNL     1     -12.332   8.829  72.065  1.00  0.00    -0.414 Cl 
HETATM   16  C   UNL     1     -11.664  10.489  69.990  1.00  0.00    -0.312 A  
HETATM   17  N   UNL     1     -11.134   9.425  69.256  1.00  0.00    -0.427 NA 
HETATM   18  N   UNL     1     -11.612  11.694  69.383  1.00  0.00    -0.299 NA 
HETATM   19  C   UNL     1     -12.154  12.742  70.048  1.00  0.00    -0.285 A  
HETATM   20  H2  UNL     1     -11.877   8.736  69.145  1.00  0.00     0.000 HD 
HETATM   21  H1  UNL     1     -10.685   9.534  68.347  1.00  0.00     0.000 HD 
HETATM   22  N   UNL     1     -12.179  13.942  69.343  1.00  0.00    -0.372 NA 
HETATM   23  H1  UNL     1     -11.743  14.073  68.431  1.00  0.00     0.000 HD 
HETATM   24  H2  UNL     1     -11.805  14.663  69.961  1.00  0.00     0.000 HD 
ENDBRANCH   9  12
TORSDOF 1
ENDMDL
MODEL       31
REMARK 921   NORMALIZED FREE ENERGY PREDICTED BY IDOCK:   -5.78 KCAL/MOL
REMARK 922        TOTAL FREE ENERGY PREDICTED BY IDOCK:   -6.49 KCAL/MOL
REMARK 923 INTER-LIGAND FREE ENERGY PREDICTED BY IDOCK:   -6.13 KCAL/MOL
REMARK 924 INTRA-LIGAND FREE ENERGY PREDICTED BY IDOCK:   -0.36 KCAL/MOL
REMARK 927      BINDING AFFINITY PREDICTED BY RF-SCORE:    0.00 PKD
ROOT
HETATM    1  N   UNL     1     -12.140  15.389  69.332  1.00  0.00    -0.512 NA 
HETATM    2  H2  UNL     1     -12.408  15.808  70.223  1.00  0.00     0.000 HD 
HETATM    3  C   UNL     1     -11.958  14.054  69.279  1.00  0.00    -0.353 C  
HETATM    4  H1  UNL     1     -12.023  16.001  68.525  1.00  0.00     0.000 HD 
HETATM    5  N   UNL     1     -12.106  13.284  70.294  1.00  0.00    -0.404 NA 
HETATM    6  N   UNL     1     -11.600  13.445  68.115  1.00  0.00    -0.319 N  
HETATM    7  H   UNL     1     -11.441  12.438  68.157  1.00  0.00     0.000 HD 
HETATM    8  H2  UNL     1     -12.374  13.703  71.186  1.00  0.00     0.000 HD 
HETATM    9  C   UNL     1     -11.430  14.047  66.881  1.00  0.00    -0.356 C  
HETATM   10  H1  UNL     1     -11.969  12.274  70.254  1.00  0.00     0.000 HD 
HETATM   11  O   UNL     1     -11.419  15.266  66.698  1.00  0.00    -0.250 OA 
ENDROOT
BRANCH   9  12
HETATM   12  C   UNL     1     -11.192  13.107  65.750  1.00  0.00    -0.286 A  
HETATM   13  N   UNL     1     -10.499  11.973  66.050  1.00  0.00    -0.241 NA 
HETATM   14  C   UNL     1     -10.233  11.196  64.976  1.00  0.00    -0.296 A  
HETATM   15 CL   UNL     1      -9.300   9.799  65.340  1.00  0.00    -0.288 Cl 
HETATM   16  C   UNL     1     -10.629  11.511  63.662  1.00  0.00    -0.429 A  
HETATM   17  N   UNL     1     -10.399  10.679  62.565  1.00  0.00    -0.697 NA 
HETATM   18  N   UNL     1     -11.335  12.633  63.401  1.00  0.00    -0.466 NA 
HETATM   19  C   UNL     1     -11.612  13.443  64.451  1.00  0.00    -0.384 A  
HETATM   20  H2  UNL     1     -10.796   9.767  62.789  1.00  0.00     0.000 HD 
HETATM   21  H1  UNL     1     -10.686  10.907  61.613  1.00  0.00     0.000 HD 
HETATM   22  N   UNL     1     -12.433  14.529  64.159  1.00  0.00    -0.852 NA 
HETATM   23  H1  UNL     1     -12.738  14.773  63.217  1.00  0.00     0.000 HD 
HETATM   24  H2  UNL     1     -11.989  15.358  64.555  1.00  0.00     0.000 HD 
ENDBRANCH   9  12
TORSDOF 1
ENDMDL
MODEL       32
REMARK 921   NORMALIZED FREE ENERGY PREDICTED BY IDOCK:   -5.78 KCAL/MOL
REMARK 922        TOTAL FREE ENERGY PREDICTED BY IDOCK:   -6.49 KCAL/MOL
REMARK 923 INTER-LIGAND FREE ENERGY PREDICTED BY IDOCK:   -6.23 KCAL/MOL
REMARK 924 INTRA-LIGAND FREE ENERGY PREDICTED BY IDOCK:   -0.25 KCAL/MOL
REMARK 927      BINDING AFFINITY PREDICTED BY RF-SCORE:    0.00 PKD
ROOT
HETATM    1  N   UNL     1     -13.391  15.724  73.851  1.00  0.00    -0.746 NA 
HETATM    2  H2  UNL     1     -13.479  16.488  74.522  1.00  0.00     0.000 HD 
HETATM    3  C   UNL     1     -12.547  15.877  72.811  1.00  0.00    -0.470 C  
HETATM    4  H1  UNL     1     -13.946  14.881  74.002  1.00  0.00     0.000 HD 
HETATM    5  N   UNL     1     -11.849  16.936  72.623  1.00  0.00    -0.333 NA 
HETATM    6  N   UNL     1     -12.393  14.887  71.888  1.00  0.00    -0.329 N  
HETATM    7  H   UNL     1     -11.769  15.087  71.106  1.00  0.00     0.000 HD 
HETATM    8  H2  UNL     1     -11.936  17.700  73.293  1.00  0.00     0.000 HD 
HETATM    9  C   UNL     1     -12.992  13.640  71.898  1.00  0.00    -0.341 C  
HETATM   10  H1  UNL     1     -11.210  17.051  71.836  1.00  0.00     0.000 HD 
HETATM   11  O   UNL     1     -13.893  13.309  72.672  1.00  0.00    -0.712 OA 
ENDROOT
BRANCH   9  12
HETATM   12  C   UNL     1     -12.514  12.703  70.844  1.00  0.00    -0.278 A  
HETATM   13  N   UNL     1     -11.893  13.274  69.773  1.00  0.00    -0.324 NA 
HETATM   14  C   UNL     1     -11.557  12.392  68.805  1.00  0.00    -0.326 A  
HETATM   15 CL   UNL     1     -10.834  13.117  67.424  1.00  0.00    -0.262 Cl 
HETATM   16  C   UNL     1     -11.813  11.010  68.878  1.00  0.00    -0.308 A  
HETATM   17  N   UNL     1     -11.415  10.097  67.899  1.00  0.00    -0.636 NA 
HETATM   18  N   UNL     1     -12.411  10.473  69.963  1.00  0.00    -0.261 NA 
HETATM   19  C   UNL     1     -12.773  11.326  70.951  1.00  0.00    -0.318 A  
HETATM   20  H2  UNL     1     -10.410  10.211  67.771  1.00  0.00     0.000 HD 
HETATM   21  H1  UNL     1     -11.600   9.095  67.952  1.00  0.00     0.000 HD 
HETATM   22  N   UNL     1     -13.285  10.721  72.097  1.00  0.00    -0.591 NA 
HETATM   23  H1  UNL     1     -13.473   9.722  72.175  1.00  0.00     0.000 HD 
HETATM   24  H2  UNL     1     -14.149  11.209  72.334  1.00  0.00     0.000 HD 
ENDBRANCH   9  12
TORSDOF 1
ENDMDL
MODEL       33
REMARK 921   NORMALIZED FREE ENERGY PREDICTED BY IDOCK:   -5.76 KCAL/MOL
REMARK 922        TOTAL FREE ENERGY PREDICTED BY IDOCK:   -6.47 KCAL/MOL
REMARK 923 INTER-LIGAND FREE ENERGY PREDICTED BY IDOCK:   -6.12 KCAL/MOL
REMARK 924 INTRA-LIGAND FREE ENERGY PREDICTED BY IDOCK:   -0.35 KCAL/MOL
REMARK 927      BINDING AFFINITY PREDICTED BY RF-SCORE:    0.00 PKD
ROOT
HETATM    1  N   UNL     1     -12.359  13.875  70.080  1.00  0.00    -0.342 NA 
HETATM    2  H2  UNL     1     -12.506  14.422  70.929  1.00  0.00     0.000 HD 
HETATM    3  C   UNL     1     -12.086  14.530  68.934  1.00  0.00    -0.237 C  
HETATM    4  H1  UNL     1     -12.426  12.859  70.141  1.00  0.00     0.000 HD 
HETATM    5  N   UNL     1     -12.001  15.807  68.859  1.00  0.00    -0.548 NA 
HETATM    6  N   UNL     1     -11.882  13.848  67.773  1.00  0.00    -0.364 N  
HETATM    7  H   UNL     1     -11.720  14.410  66.937  1.00  0.00     0.000 HD 
HETATM    8  H2  UNL     1     -12.148  16.355  69.708  1.00  0.00     0.000 HD 
HETATM    9  C   UNL     1     -11.870  12.474  67.608  1.00  0.00    -0.317 C  
HETATM   10  H1  UNL     1     -11.794  16.303  67.992  1.00  0.00     0.000 HD 
HETATM   11  O   UNL     1     -12.213  11.668  68.474  1.00  0.00    -0.485 OA 
ENDROOT
BRANCH   9  12
HETATM   12  C   UNL     1     -11.462  12.007  66.253  1.00  0.00    -0.345 A  
HETATM   13  N   UNL     1     -10.544  11.002  66.219  1.00  0.00    -0.254 NA 
HETATM   14  C   UNL     1     -10.141  10.674  64.970  1.00  0.00    -0.321 A  
HETATM   15 CL   UNL     1      -8.932   9.453  64.925  1.00  0.00    -0.253 Cl 
HETATM   16  C   UNL     1     -10.617  11.299  63.802  1.00  0.00    -0.392 A  
HETATM   17  N   UNL     1     -10.239  10.921  62.513  1.00  0.00    -0.700 NA 
HETATM   18  N   UNL     1     -11.545  12.279  63.870  1.00  0.00    -0.404 NA 
HETATM   19  C   UNL     1     -11.966  12.643  65.105  1.00  0.00    -0.428 A  
HETATM   20  H2  UNL     1     -10.434   9.924  62.422  1.00  0.00     0.000 HD 
HETATM   21  H1  UNL     1     -10.584  11.374  61.666  1.00  0.00     0.000 HD 
HETATM   22  N   UNL     1     -13.000  13.576  65.127  1.00  0.00    -0.734 NA 
HETATM   23  H1  UNL     1     -13.365  14.037  64.294  1.00  0.00     0.000 HD 
HETATM   24  H2  UNL     1     -12.730  14.309  65.782  1.00  0.00     0.000 HD 
ENDBRANCH   9  12
TORSDOF 1
ENDMDL
MODEL       34
REMARK 921   NORMALIZED FREE ENERGY PREDICTED BY IDOCK:   -5.75 KCAL/MOL
REMARK 922        TOTAL FREE ENERGY PREDICTED BY IDOCK:   -6.46 KCAL/MOL
REMARK 923 INTER-LIGAND FREE ENERGY PREDICTED BY IDOCK:   -6.10 KCAL/MOL
REMARK 924 INTRA-LIGAND FREE ENERGY PREDICTED BY IDOCK:   -0.36 KCAL/MOL
REMARK 927      BINDING AFFINITY PREDICTED BY RF-SCORE:    0.00 PKD
ROOT
HETATM    1  N   UNL     1     -12.876  12.351  64.752  1.00  0.00    -0.761 NA 
HETATM    2  H2  UNL     1     -13.335  11.706  64.109  1.00  0.00     0.000 HD 
HETATM    3  C   UNL     1     -12.251  13.431  64.241  1.00  0.00    -0.392 C  
HETATM    4  H1  UNL     1     -12.911  12.146  65.751  1.00  0.00     0.000 HD 
HETATM    5  N   UNL     1     -12.206  13.688  62.986  1.00  0.00    -0.963 NA 
HETATM    6  N   UNL     1     -11.621  14.323  65.056  1.00  0.00    -0.350 N  
HETATM    7  H   UNL     1     -11.135  15.094  64.599  1.00  0.00     0.000 HD 
HETATM    8  H2  UNL     1     -12.667  13.044  62.342  1.00  0.00     0.000 HD 
HETATM    9  C   UNL     1     -11.571  14.293  66.439  1.00  0.00    -0.372 C  
HETATM   10  H1  UNL     1     -11.734  14.505  62.599  1.00  0.00     0.000 HD 
HETATM   11  O   UNL     1     -11.958  13.346  67.128  1.00  0.00    -0.375 OA 
ENDROOT
BRANCH   9  12
HETATM   12  C   UNL     1     -10.945  15.487  67.072  1.00  0.00    -0.283 A  
HETATM   13  N   UNL     1      -9.957  16.094  66.356  1.00  0.00    -0.281 NA 
HETATM   14  C   UNL     1      -9.362  17.117  67.010  1.00  0.00    -0.243 A  
HETATM   15 CL   UNL     1      -8.069  17.842  66.138  1.00  0.00    -0.250 Cl 
HETATM   16  C   UNL     1      -9.717  17.534  68.306  1.00  0.00    -0.311 A  
HETATM   17  N   UNL     1      -9.135  18.625  68.955  1.00  0.00    -0.248 NA 
HETATM   18  N   UNL     1     -10.716  16.924  68.980  1.00  0.00    -0.328 NA 
HETATM   19  C   UNL     1     -11.331  15.887  68.363  1.00  0.00    -0.361 A  
HETATM   20  H2  UNL     1      -9.240  19.432  68.340  1.00  0.00     0.000 HD 
HETATM   21  H1  UNL     1      -9.393  18.927  69.894  1.00  0.00     0.000 HD 
HETATM   22  N   UNL     1     -12.426  15.358  69.043  1.00  0.00    -0.580 NA 
HETATM   23  H1  UNL     1     -12.705  15.648  69.979  1.00  0.00     0.000 HD 
HETATM   24  H2  UNL     1     -12.306  14.345  69.065  1.00  0.00     0.000 HD 
ENDBRANCH   9  12
TORSDOF 1
ENDMDL
MODEL       35
REMARK 921   NORMALIZED FREE ENERGY PREDICTED BY IDOCK:   -5.73 KCAL/MOL
REMARK 922        TOTAL FREE ENERGY PREDICTED BY IDOCK:   -6.44 KCAL/MOL
REMARK 923 INTER-LIGAND FREE ENERGY PREDICTED BY IDOCK:   -6.26 KCAL/MOL
REMARK 924 INTRA-LIGAND FREE ENERGY PREDICTED BY IDOCK:   -0.18 KCAL/MOL
REMARK 927      BINDING AFFINITY PREDICTED BY RF-SCORE:    0.00 PKD
ROOT
HETATM    1  N   UNL     1     -10.670  18.964  65.420  1.00  0.00    -0.497 NA 
HETATM    2  H2  UNL     1     -10.628  19.971  65.581  1.00  0.00     0.000 HD 
HETATM    3  C   UNL     1     -10.159  18.142  66.359  1.00  0.00    -0.389 C  
HETATM    4  H1  UNL     1     -11.096  18.629  64.556  1.00  0.00     0.000 HD 
HETATM    5  N   UNL     1      -9.622  18.563  67.444  1.00  0.00    -0.289 NA 
HETATM    6  N   UNL     1     -10.189  16.790  66.193  1.00  0.00    -0.340 N  
HETATM    7  H   UNL     1      -9.749  16.232  66.924  1.00  0.00     0.000 HD 
HETATM    8  H2  UNL     1      -9.580  19.571  67.606  1.00  0.00     0.000 HD 
HETATM    9  C   UNL     1     -10.755  16.096  65.138  1.00  0.00    -0.371 C  
HETATM   10  H1  UNL     1      -9.236  17.942  68.155  1.00  0.00     0.000 HD 
HETATM   11  O   UNL     1     -11.171  16.621  64.104  1.00  0.00    -1.103 OA 
ENDROOT
BRANCH   9  12
HETATM   12  C   UNL     1     -10.779  14.615  65.302  1.00  0.00    -0.381 A  
HETATM   13  N   UNL     1     -10.060  14.117  66.347  1.00  0.00    -0.284 NA 
HETATM   14  C   UNL     1     -10.042  12.766  66.400  1.00  0.00    -0.259 A  
HETATM   15 CL   UNL     1      -9.081  12.132  67.676  1.00  0.00    -0.175 Cl 
HETATM   16  C   UNL     1     -10.700  11.934  65.474  1.00  0.00    -0.283 A  
HETATM   17  N   UNL     1     -10.723  10.541  65.565  1.00  0.00    -0.064 NA 
HETATM   18  N   UNL     1     -11.423  12.461  64.462  1.00  0.00    -0.323 NA 
HETATM   19  C   UNL     1     -11.457  13.812  64.368  1.00  0.00    -0.372 A  
HETATM   20  H2  UNL     1     -11.082  10.305  66.490  1.00  0.00     0.000 HD 
HETATM   21  H1  UNL     1     -11.200   9.939  64.894  1.00  0.00     0.000 HD 
HETATM   22  N   UNL     1     -12.300  14.316  63.381  1.00  0.00    -1.126 NA 
HETATM   23  H1  UNL     1     -12.792  13.733  62.704  1.00  0.00     0.000 HD 
HETATM   24  H2  UNL     1     -11.766  15.005  62.852  1.00  0.00     0.000 HD 
ENDBRANCH   9  12
TORSDOF 1
ENDMDL
MODEL       36
REMARK 921   NORMALIZED FREE ENERGY PREDICTED BY IDOCK:   -5.72 KCAL/MOL
REMARK 922        TOTAL FREE ENERGY PREDICTED BY IDOCK:   -6.43 KCAL/MOL
REMARK 923 INTER-LIGAND FREE ENERGY PREDICTED BY IDOCK:   -6.04 KCAL/MOL
REMARK 924 INTRA-LIGAND FREE ENERGY PREDICTED BY IDOCK:   -0.39 KCAL/MOL
REMARK 927      BINDING AFFINITY PREDICTED BY RF-SCORE:    0.00 PKD
ROOT
HETATM    1  N   UNL     1     -11.569  11.798  67.313  1.00  0.00    -0.531 NA 
HETATM    2  H2  UNL     1     -11.570  10.799  67.521  1.00  0.00     0.000 HD 
HETATM    3  C   UNL     1     -10.606  12.566  67.859  1.00  0.00    -0.218 C  
HETATM    4  H1  UNL     1     -12.299  12.166  66.702  1.00  0.00     0.000 HD 
HETATM    5  N   UNL     1      -9.689  12.104  68.627  1.00  0.00    -0.380 NA 
HETATM    6  N   UNL     1     -10.560  13.906  67.614  1.00  0.00    -0.244 N  
HETATM    7  H   UNL     1      -9.828  14.432  68.092  1.00  0.00     0.000 HD 
HETATM    8  H2  UNL     1      -9.689  11.104  68.835  1.00  0.00     0.000 HD 
HETATM    9  C   UNL     1     -11.401  14.627  66.785  1.00  0.00    -0.356 C  
HETATM   10  H1  UNL     1      -8.959  12.685  69.040  1.00  0.00     0.000 HD 
HETATM   11  O   UNL     1     -12.428  14.176  66.274  1.00  0.00    -0.466 OA 
ENDROOT
BRANCH   9  12
HETATM   12  C   UNL     1     -11.015  16.052  66.585  1.00  0.00    -0.092 A  
HETATM   13  N   UNL     1     -10.690  16.748  67.710  1.00  0.00    -0.338 NA 
HETATM   14  C   UNL     1     -10.433  18.056  67.486  1.00  0.00    -0.396 A  
HETATM   15 CL   UNL     1     -10.089  18.953  68.912  1.00  0.00    -0.429 Cl 
HETATM   16  C   UNL     1     -10.488  18.661  66.217  1.00  0.00    -0.424 A  
HETATM   17  N   UNL     1     -10.169  20.001  65.984  1.00  0.00    -0.485 NA 
HETATM   18  N   UNL     1     -10.792  17.938  65.117  1.00  0.00    -0.638 NA 
HETATM   19  C   UNL     1     -11.066  16.625  65.302  1.00  0.00    -0.033 A  
HETATM   20  H2  UNL     1      -9.230  20.156  66.351  1.00  0.00     0.000 HD 
HETATM   21  H1  UNL     1     -10.208  20.439  65.064  1.00  0.00     0.000 HD 
HETATM   22  N   UNL     1     -11.266  15.892  64.134  1.00  0.00    -1.005 NA 
HETATM   23  H1  UNL     1     -11.303  16.307  63.204  1.00  0.00     0.000 HD 
HETATM   24  H2  UNL     1     -12.124  15.356  64.258  1.00  0.00     0.000 HD 
ENDBRANCH   9  12
TORSDOF 1
ENDMDL
MODEL       37
REMARK 921   NORMALIZED FREE ENERGY PREDICTED BY IDOCK:   -5.70 KCAL/MOL
REMARK 922        TOTAL FREE ENERGY PREDICTED BY IDOCK:   -6.41 KCAL/MOL
REMARK 923 INTER-LIGAND FREE ENERGY PREDICTED BY IDOCK:   -6.02 KCAL/MOL
REMARK 924 INTRA-LIGAND FREE ENERGY PREDICTED BY IDOCK:   -0.39 KCAL/MOL
REMARK 927      BINDING AFFINITY PREDICTED BY RF-SCORE:    0.00 PKD
ROOT
HETATM    1  N   UNL     1     -12.203   8.050  72.854  1.00  0.00    -0.640 NA 
HETATM    2  H2  UNL     1     -12.095   7.162  73.344  1.00  0.00     0.000 HD 
HETATM    3  C   UNL     1     -11.171   8.507  72.117  1.00  0.00    -0.362 C  
HETATM    4  H1  UNL     1     -13.088   8.550  72.947  1.00  0.00     0.000 HD 
HETATM    5  N   UNL     1     -10.059   7.879  72.001  1.00  0.00    -0.190 NA 
HETATM    6  N   UNL     1     -11.264   9.687  71.444  1.00  0.00    -0.374 N  
HETATM    7  H   UNL     1     -10.431   9.991  70.939  1.00  0.00     0.000 HD 
HETATM    8  H2  UNL     1      -9.950   6.990  72.490  1.00  0.00     0.000 HD 
HETATM    9  C   UNL     1     -12.369  10.518  71.371  1.00  0.00    -0.372 C  
HETATM   10  H1  UNL     1      -9.278   8.224  71.442  1.00  0.00     0.000 HD 
HETATM   11  O   UNL     1     -13.385  10.382  72.054  1.00  0.00    -0.433 OA 
ENDROOT
BRANCH   9  12
HETATM   12  C   UNL     1     -12.233  11.664  70.431  1.00  0.00    -0.347 A  
HETATM   13  N   UNL     1     -12.381  12.905  70.974  1.00  0.00    -0.312 NA 
HETATM   14  C   UNL     1     -12.337  13.906  70.066  1.00  0.00    -0.316 A  
HETATM   15 CL   UNL     1     -12.592  15.468  70.738  1.00  0.00    -0.481 Cl 
HETATM   16  C   UNL     1     -12.152  13.707  68.685  1.00  0.00    -0.290 A  
HETATM   17  N   UNL     1     -12.053  14.747  67.760  1.00  0.00    -0.559 NA 
HETATM   18  N   UNL     1     -11.986  12.465  68.181  1.00  0.00    -0.380 NA 
HETATM   19  C   UNL     1     -12.035  11.433  69.058  1.00  0.00    -0.320 A  
HETATM   20  H2  UNL     1     -11.306  15.364  68.078  1.00  0.00     0.000 HD 
HETATM   21  H1  UNL     1     -11.919  14.603  66.759  1.00  0.00     0.000 HD 
HETATM   22  N   UNL     1     -11.749  10.182  68.517  1.00  0.00    -0.645 NA 
HETATM   23  H1  UNL     1     -11.606  10.015  67.522  1.00  0.00     0.000 HD 
HETATM   24  H2  UNL     1     -12.484   9.546  68.826  1.00  0.00     0.000 HD 
ENDBRANCH   9  12
TORSDOF 1
ENDMDL
MODEL       38
REMARK 921   NORMALIZED FREE ENERGY PREDICTED BY IDOCK:   -5.70 KCAL/MOL
REMARK 922        TOTAL FREE ENERGY PREDICTED BY IDOCK:   -6.41 KCAL/MOL
REMARK 923 INTER-LIGAND FREE ENERGY PREDICTED BY IDOCK:   -6.01 KCAL/MOL
REMARK 924 INTRA-LIGAND FREE ENERGY PREDICTED BY IDOCK:   -0.39 KCAL/MOL
REMARK 927      BINDING AFFINITY PREDICTED BY RF-SCORE:    0.00 PKD
ROOT
HETATM    1  N   UNL     1     -10.314  13.503  64.003  1.00  0.00    -0.691 NA 
HETATM    2  H2  UNL     1     -10.202  13.586  62.993  1.00  0.00     0.000 HD 
HETATM    3  C   UNL     1     -11.483  13.888  64.553  1.00  0.00    -0.381 C  
HETATM    4  H1  UNL     1      -9.535  13.134  64.548  1.00  0.00     0.000 HD 
HETATM    5  N   UNL     1     -12.463  14.352  63.868  1.00  0.00    -1.005 NA 
HETATM    6  N   UNL     1     -11.684  13.798  65.897  1.00  0.00    -0.338 N  
HETATM    7  H   UNL     1     -12.577  14.144  66.249  1.00  0.00     0.000 HD 
HETATM    8  H2  UNL     1     -12.351  14.434  62.856  1.00  0.00     0.000 HD 
HETATM    9  C   UNL     1     -10.806  13.287  66.836  1.00  0.00    -0.276 C  
HETATM   10  H1  UNL     1     -13.348  14.642  64.283  1.00  0.00     0.000 HD 
HETATM   11  O   UNL     1      -9.633  12.989  66.601  1.00  0.00    -0.247 OA 
ENDROOT
BRANCH   9  12
HETATM   12  C   UNL     1     -11.358  13.169  68.215  1.00  0.00    -0.297 A  
HETATM   13  N   UNL     1     -11.329  11.923  68.766  1.00  0.00    -0.248 NA 
HETATM   14  C   UNL     1     -11.920  11.851  69.980  1.00  0.00    -0.332 A  
HETATM   15 CL   UNL     1     -11.947  10.268  70.649  1.00  0.00    -0.402 Cl 
HETATM   16  C   UNL     1     -12.512  12.949  70.632  1.00  0.00    -0.252 A  
HETATM   17  N   UNL     1     -13.072  12.881  71.909  1.00  0.00    -0.395 NA 
HETATM   18  N   UNL     1     -12.503  14.176  70.068  1.00  0.00    -0.335 NA 
HETATM   19  C   UNL     1     -11.930  14.288  68.846  1.00  0.00    -0.320 A  
HETATM   20  H2  UNL     1     -12.356  12.510  72.533  1.00  0.00     0.000 HD 
HETATM   21  H1  UNL     1     -13.501  13.677  72.382  1.00  0.00     0.000 HD 
HETATM   22  N   UNL     1     -11.843  15.586  68.348  1.00  0.00    -0.491 NA 
HETATM   23  H1  UNL     1     -12.258  16.397  68.806  1.00  0.00     0.000 HD 
HETATM   24  H2  UNL     1     -12.198  15.566  67.392  1.00  0.00     0.000 HD 
ENDBRANCH   9  12
TORSDOF 1
ENDMDL
MODEL       39
REMARK 921   NORMALIZED FREE ENERGY PREDICTED BY IDOCK:   -5.70 KCAL/MOL
REMARK 922        TOTAL FREE ENERGY PREDICTED BY IDOCK:   -6.40 KCAL/MOL
REMARK 923 INTER-LIGAND FREE ENERGY PREDICTED BY IDOCK:   -6.07 KCAL/MOL
REMARK 924 INTRA-LIGAND FREE ENERGY PREDICTED BY IDOCK:   -0.33 KCAL/MOL
REMARK 927      BINDING AFFINITY PREDICTED BY RF-SCORE:    0.00 PKD
ROOT
HETATM    1  N   UNL     1     -10.561   9.987  70.427  1.00  0.00    -0.333 NA 
HETATM    2  H2  UNL     1     -10.148   9.386  71.142  1.00  0.00     0.000 HD 
HETATM    3  C   UNL     1      -9.739  10.615  69.564  1.00  0.00    -0.055 C  
HETATM    4  H1  UNL     1     -11.577  10.082  70.402  1.00  0.00     0.000 HD 
HETATM    5  N   UNL     1      -8.463  10.496  69.595  1.00  0.00    -0.375 NA 
HETATM    6  N   UNL     1     -10.239  11.428  68.591  1.00  0.00    -0.204 N  
HETATM    7  H   UNL     1      -9.557  11.903  67.999  1.00  0.00     0.000 HD 
HETATM    8  H2  UNL     1      -8.049   9.895  70.309  1.00  0.00     0.000 HD 
HETATM    9  C   UNL     1     -11.573  11.678  68.322  1.00  0.00    -0.310 C  
HETATM   10  H1  UNL     1      -7.841  10.971  68.941  1.00  0.00     0.000 HD 
HETATM   11  O   UNL     1     -12.506  11.321  69.045  1.00  0.00    -0.417 OA 
ENDROOT
BRANCH   9  12
HETATM   12  C   UNL     1     -11.827  12.485  67.097  1.00  0.00    -0.316 A  
HETATM   13  N   UNL     1     -11.785  11.808  65.915  1.00  0.00    -0.384 NA 
HETATM   14  C   UNL     1     -11.934  12.599  64.828  1.00  0.00    -0.402 A  
HETATM   15 CL   UNL     1     -11.814  11.759  63.334  1.00  0.00    -0.516 Cl 
HETATM   16  C   UNL     1     -12.119  13.993  64.891  1.00  0.00    -0.420 A  
HETATM   17  N   UNL     1     -12.327  14.796  63.768  1.00  0.00    -1.082 NA 
HETATM   18  N   UNL     1     -12.178  14.631  66.080  1.00  0.00    -0.228 NA 
HETATM   19  C   UNL     1     -12.022  13.874  67.193  1.00  0.00    -0.420 A  
HETATM   20  H2  UNL     1     -13.123  14.409  63.263  1.00  0.00     0.000 HD 
HETATM   21  H1  UNL     1     -12.461  15.807  63.814  1.00  0.00     0.000 HD 
HETATM   22  N   UNL     1     -12.199  14.550  68.398  1.00  0.00    -0.608 NA 
HETATM   23  H1  UNL     1     -12.341  15.557  68.467  1.00  0.00     0.000 HD 
HETATM   24  H2  UNL     1     -11.405  14.316  68.993  1.00  0.00     0.000 HD 
ENDBRANCH   9  12
TORSDOF 1
ENDMDL
MODEL       40
REMARK 921   NORMALIZED FREE ENERGY PREDICTED BY IDOCK:   -5.69 KCAL/MOL
REMARK 922        TOTAL FREE ENERGY PREDICTED BY IDOCK:   -6.40 KCAL/MOL
REMARK 923 INTER-LIGAND FREE ENERGY PREDICTED BY IDOCK:   -6.03 KCAL/MOL
REMARK 924 INTRA-LIGAND FREE ENERGY PREDICTED BY IDOCK:   -0.37 KCAL/MOL
REMARK 927      BINDING AFFINITY PREDICTED BY RF-SCORE:    0.00 PKD
ROOT
HETATM    1  N   UNL     1     -12.526  15.668  63.829  1.00  0.00    -0.830 NA 
HETATM    2  H2  UNL     1     -12.881  16.624  63.780  1.00  0.00     0.000 HD 
HETATM    3  C   UNL     1     -11.353  15.451  64.456  1.00  0.00    -0.313 C  
HETATM    4  H1  UNL     1     -13.077  14.924  63.400  1.00  0.00     0.000 HD 
HETATM    5  N   UNL     1     -10.660  16.386  64.995  1.00  0.00    -0.685 NA 
HETATM    6  N   UNL     1     -10.834  14.194  64.549  1.00  0.00    -0.587 N  
HETATM    7  H   UNL     1      -9.924  14.109  65.002  1.00  0.00     0.000 HD 
HETATM    8  H2  UNL     1     -11.015  17.342  64.947  1.00  0.00     0.000 HD 
HETATM    9  C   UNL     1     -11.412  13.022  64.095  1.00  0.00    -0.402 C  
HETATM   10  H1  UNL     1      -9.773  16.221  65.471  1.00  0.00     0.000 HD 
HETATM   11  O   UNL     1     -12.417  12.973  63.384  1.00  0.00    -0.710 OA 
ENDROOT
BRANCH   9  12
HETATM   12  C   UNL     1     -10.690  11.776  64.477  1.00  0.00    -0.315 A  
HETATM   13  N   UNL     1      -9.943  11.194  63.497  1.00  0.00    -0.341 NA 
HETATM   14  C   UNL     1      -9.379  10.021  63.867  1.00  0.00    -0.263 A  
HETATM   15 CL   UNL     1      -8.493   9.249  62.613  1.00  0.00    -0.195 Cl 
HETATM   16  C   UNL     1      -9.535   9.442  65.140  1.00  0.00    -0.185 A  
HETATM   17  N   UNL     1      -8.907   8.259  65.533  1.00  0.00    -0.317 NA 
HETATM   18  N   UNL     1     -10.264  10.057  66.096  1.00  0.00    -0.238 NA 
HETATM   19  C   UNL     1     -10.854  11.229  65.761  1.00  0.00    -0.194 A  
HETATM   20  H2  UNL     1      -7.906   8.382  65.378  1.00  0.00     0.000 HD 
HETATM   21  H1  UNL     1      -9.019   7.839  66.456  1.00  0.00     0.000 HD 
HETATM   22  N   UNL     1     -11.503  11.884  66.805  1.00  0.00    -0.450 NA 
HETATM   23  H1  UNL     1     -11.623  11.487  67.736  1.00  0.00     0.000 HD 
HETATM   24  H2  UNL     1     -12.431  12.143  66.468  1.00  0.00     0.000 HD 
ENDBRANCH   9  12
TORSDOF 1
ENDMDL
MODEL       41
REMARK 921   NORMALIZED FREE ENERGY PREDICTED BY IDOCK:   -5.69 KCAL/MOL
REMARK 922        TOTAL FREE ENERGY PREDICTED BY IDOCK:   -6.40 KCAL/MOL
REMARK 923 INTER-LIGAND FREE ENERGY PREDICTED BY IDOCK:   -6.02 KCAL/MOL
REMARK 924 INTRA-LIGAND FREE ENERGY PREDICTED BY IDOCK:   -0.38 KCAL/MOL
REMARK 927      BINDING AFFINITY PREDICTED BY RF-SCORE:    0.00 PKD
ROOT
HETATM    1  N   UNL     1     -13.177  13.543  72.323  1.00  0.00    -0.464 NA 
HETATM    2  H2  UNL     1     -13.535  13.437  73.272  1.00  0.00     0.000 HD 
HETATM    3  C   UNL     1     -13.546  14.630  71.615  1.00  0.00    -0.393 C  
HETATM    4  H1  UNL     1     -12.557  12.821  71.955  1.00  0.00     0.000 HD 
HETATM    5  N   UNL     1     -14.325  15.538  72.077  1.00  0.00    -0.526 NA 
HETATM    6  N   UNL     1     -13.097  14.819  70.343  1.00  0.00    -0.598 N  
HETATM    7  H   UNL     1     -13.448  15.642  69.853  1.00  0.00     0.000 HD 
HETATM    8  H2  UNL     1     -14.683  15.432  73.027  1.00  0.00     0.000 HD 
HETATM    9  C   UNL     1     -12.214  14.014  69.646  1.00  0.00    -0.332 C  
HETATM   10  H1  UNL     1     -14.604  16.360  71.542  1.00  0.00     0.000 HD 
HETATM   11  O   UNL     1     -11.834  12.905  70.029  1.00  0.00    -0.326 OA 
ENDROOT
BRANCH   9  12
HETATM   12  C   UNL     1     -11.777  14.553  68.328  1.00  0.00    -0.335 A  
HETATM   13  N   UNL     1     -11.370  15.854  68.319  1.00  0.00    -0.356 NA 
HETATM   14  C   UNL     1     -11.068  16.321  67.087  1.00  0.00    -0.014 A  
HETATM   15 CL   UNL     1     -10.619  17.980  67.062  1.00  0.00    -0.354 Cl 
HETATM   16  C   UNL     1     -11.157  15.552  65.911  1.00  0.00    -0.205 A  
HETATM   17  N   UNL     1     -10.792  16.024  64.649  1.00  0.00    -0.843 NA 
HETATM   18  N   UNL     1     -11.543  14.259  65.958  1.00  0.00    -0.351 NA 
HETATM   19  C   UNL     1     -11.865  13.756  67.173  1.00  0.00    -0.406 A  
HETATM   20  H2  UNL     1      -9.832  16.359  64.718  1.00  0.00     0.000 HD 
HETATM   21  H1  UNL     1     -10.856  15.466  63.797  1.00  0.00     0.000 HD 
HETATM   22  N   UNL     1     -12.151  12.393  67.194  1.00  0.00    -0.512 NA 
HETATM   23  H1  UNL     1     -12.214  11.815  66.357  1.00  0.00     0.000 HD 
HETATM   24  H2  UNL     1     -13.025  12.276  67.706  1.00  0.00     0.000 HD 
ENDBRANCH   9  12
TORSDOF 1
ENDMDL
MODEL       42
REMARK 921   NORMALIZED FREE ENERGY PREDICTED BY IDOCK:   -5.67 KCAL/MOL
REMARK 922        TOTAL FREE ENERGY PREDICTED BY IDOCK:   -6.38 KCAL/MOL
REMARK 923 INTER-LIGAND FREE ENERGY PREDICTED BY IDOCK:   -5.99 KCAL/MOL
REMARK 924 INTRA-LIGAND FREE ENERGY PREDICTED BY IDOCK:   -0.39 KCAL/MOL
REMARK 927      BINDING AFFINITY PREDICTED BY RF-SCORE:    0.00 PKD
ROOT
HETATM    1  N   UNL     1     -10.838  11.159  63.050  1.00  0.00    -0.822 NA 
HETATM    2  H2  UNL     1     -10.532  10.810  62.142  1.00  0.00     0.000 HD 
HETATM    3  C   UNL     1     -10.246  10.670  64.158  1.00  0.00    -0.295 C  
HETATM    4  H1  UNL     1     -11.578  11.861  63.075  1.00  0.00     0.000 HD 
HETATM    5  N   UNL     1      -9.316   9.788  64.126  1.00  0.00    -0.396 NA 
HETATM    6  N   UNL     1     -10.618  11.102  65.396  1.00  0.00    -0.252 N  
HETATM    7  H   UNL     1     -10.156  10.660  66.190  1.00  0.00     0.000 HD 
HETATM    8  H2  UNL     1      -9.009   9.439  63.218  1.00  0.00     0.000 HD 
HETATM    9  C   UNL     1     -11.555  12.077  65.688  1.00  0.00    -0.296 C  
HETATM   10  H1  UNL     1      -8.867   9.418  64.965  1.00  0.00     0.000 HD 
HETATM   11  O   UNL     1     -12.315  12.581  64.859  1.00  0.00    -0.466 OA 
ENDROOT
BRANCH   9  12
HETATM   12  C   UNL     1     -11.640  12.456  67.126  1.00  0.00    -0.365 A  
HETATM   13  N   UNL     1     -11.842  11.433  68.003  1.00  0.00    -0.622 NA 
HETATM   14  C   UNL     1     -12.001  11.837  69.284  1.00  0.00    -0.291 A  
HETATM   15 CL   UNL     1     -12.323  10.555  70.384  1.00  0.00    -0.398 Cl 
HETATM   16  C   UNL     1     -11.961  13.183  69.693  1.00  0.00    -0.306 A  
HETATM   17  N   UNL     1     -12.071  13.590  71.025  1.00  0.00    -0.460 NA 
HETATM   18  N   UNL     1     -11.736  14.171  68.801  1.00  0.00    -0.324 NA 
HETATM   19  C   UNL     1     -11.583  13.808  67.505  1.00  0.00    -0.354 A  
HETATM   20  H2  UNL     1     -11.353  13.093  71.552  1.00  0.00     0.000 HD 
HETATM   21  H1  UNL     1     -12.042  14.565  71.322  1.00  0.00     0.000 HD 
HETATM   22  N   UNL     1     -11.245  14.843  66.636  1.00  0.00    -0.345 NA 
HETATM   23  H1  UNL     1     -11.204  15.823  66.912  1.00  0.00     0.000 HD 
HETATM   24  H2  UNL     1     -11.875  14.781  65.836  1.00  0.00     0.000 HD 
ENDBRANCH   9  12
TORSDOF 1
ENDMDL
MODEL       43
REMARK 921   NORMALIZED FREE ENERGY PREDICTED BY IDOCK:   -5.64 KCAL/MOL
REMARK 922        TOTAL FREE ENERGY PREDICTED BY IDOCK:   -6.34 KCAL/MOL
REMARK 923 INTER-LIGAND FREE ENERGY PREDICTED BY IDOCK:   -5.95 KCAL/MOL
REMARK 924 INTRA-LIGAND FREE ENERGY PREDICTED BY IDOCK:   -0.39 KCAL/MOL
REMARK 927      BINDING AFFINITY PREDICTED BY RF-SCORE:    0.00 PKD
ROOT
HETATM    1  N   UNL     1     -11.993  13.241  70.584  1.00  0.00    -0.532 NA 
HETATM    2  H2  UNL     1     -12.362  12.594  71.282  1.00  0.00     0.000 HD 
HETATM    3  C   UNL     1     -12.649  14.399  70.372  1.00  0.00    -0.345 C  
HETATM    4  H1  UNL     1     -11.146  12.978  70.080  1.00  0.00     0.000 HD 
HETATM    5  N   UNL     1     -13.714  14.729  71.006  1.00  0.00    -0.555 NA 
HETATM    6  N   UNL     1     -12.200  15.297  69.452  1.00  0.00    -0.555 N  
HETATM    7  H   UNL     1     -12.768  16.133  69.315  1.00  0.00     0.000 HD 
HETATM    8  H2  UNL     1     -14.083  14.083  71.705  1.00  0.00     0.000 HD 
HETATM    9  C   UNL     1     -11.054  15.194  68.682  1.00  0.00    -0.271 C  
HETATM   10  H1  UNL     1     -14.210  15.606  70.846  1.00  0.00     0.000 HD 
HETATM   11  O   UNL     1     -10.358  14.180  68.604  1.00  0.00    -0.236 OA 
ENDROOT
BRANCH   9  12
HETATM   12  C   UNL     1     -10.729  16.403  67.875  1.00  0.00    -0.332 A  
HETATM   13  N   UNL     1     -10.607  17.570  68.567  1.00  0.00    -0.345 NA 
HETATM   14  C   UNL     1     -10.399  18.650  67.781  1.00  0.00    -0.410 A  
HETATM   15 CL   UNL     1     -10.312  20.134  68.645  1.00  0.00    -0.450 Cl 
HETATM   16  C   UNL     1     -10.311  18.595  66.377  1.00  0.00    -0.432 A  
HETATM   17  N   UNL     1     -10.042  19.705  65.575  1.00  0.00    -0.351 NA 
HETATM   18  N   UNL     1     -10.414  17.418  65.723  1.00  0.00    -0.551 NA 
HETATM   19  C   UNL     1     -10.634  16.313  66.475  1.00  0.00    -0.256 A  
HETATM   20  H2  UNL     1      -9.175  20.121  65.915  1.00  0.00     0.000 HD 
HETATM   21  H1  UNL     1      -9.978  19.665  64.557  1.00  0.00     0.000 HD 
HETATM   22  N   UNL     1     -10.624  15.109  65.775  1.00  0.00    -0.330 NA 
HETATM   23  H1  UNL     1     -10.555  15.044  64.760  1.00  0.00     0.000 HD 
HETATM   24  H2  UNL     1     -11.458  14.592  66.053  1.00  0.00     0.000 HD 
ENDBRANCH   9  12
TORSDOF 1
ENDMDL
MODEL       44
REMARK 921   NORMALIZED FREE ENERGY PREDICTED BY IDOCK:   -5.60 KCAL/MOL
REMARK 922        TOTAL FREE ENERGY PREDICTED BY IDOCK:   -6.30 KCAL/MOL
REMARK 923 INTER-LIGAND FREE ENERGY PREDICTED BY IDOCK:   -5.94 KCAL/MOL
REMARK 924 INTRA-LIGAND FREE ENERGY PREDICTED BY IDOCK:   -0.36 KCAL/MOL
REMARK 927      BINDING AFFINITY PREDICTED BY RF-SCORE:    0.00 PKD
ROOT
HETATM    1  N   UNL     1      -8.706   7.476  66.728  1.00  0.00    -0.128 NA 
HETATM    2  H2  UNL     1      -8.452   6.591  67.167  1.00  0.00     0.000 HD 
HETATM    3  C   UNL     1     -10.009   7.819  66.682  1.00  0.00    -0.228 C  
HETATM    4  H1  UNL     1      -7.961   8.058  66.344  1.00  0.00     0.000 HD 
HETATM    5  N   UNL     1     -10.945   7.087  67.164  1.00  0.00    -0.538 NA 
HETATM    6  N   UNL     1     -10.402   8.989  66.107  1.00  0.00    -0.277 N  
HETATM    7  H   UNL     1     -11.406   9.165  66.072  1.00  0.00     0.000 HD 
HETATM    8  H2  UNL     1     -10.691   6.201  67.604  1.00  0.00     0.000 HD 
HETATM    9  C   UNL     1      -9.583   9.965  65.566  1.00  0.00    -0.277 C  
HETATM   10  H1  UNL     1     -11.931   7.347  67.131  1.00  0.00     0.000 HD 
HETATM   11  O   UNL     1      -8.373   9.830  65.378  1.00  0.00    -0.129 OA 
ENDROOT
BRANCH   9  12
HETATM   12  C   UNL     1     -10.282  11.213  65.150  1.00  0.00    -0.289 A  
HETATM   13  N   UNL     1     -10.666  12.047  66.157  1.00  0.00    -0.265 NA 
HETATM   14  C   UNL     1     -11.372  13.121  65.735  1.00  0.00    -0.306 A  
HETATM   15 CL   UNL     1     -11.916  14.140  67.008  1.00  0.00    -0.456 Cl 
HETATM   16  C   UNL     1     -11.690  13.371  64.387  1.00  0.00    -0.394 A  
HETATM   17  N   UNL     1     -12.373  14.509  63.952  1.00  0.00    -1.047 NA 
HETATM   18  N   UNL     1     -11.276  12.535  63.411  1.00  0.00    -0.458 NA 
HETATM   19  C   UNL     1     -10.574  11.442  63.794  1.00  0.00    -0.403 A  
HETATM   20  H2  UNL     1     -11.859  15.319  64.296  1.00  0.00     0.000 HD 
HETATM   21  H1  UNL     1     -12.603  14.691  62.975  1.00  0.00     0.000 HD 
HETATM   22  N   UNL     1     -10.072  10.665  62.753  1.00  0.00    -0.746 NA 
HETATM   23  H1  UNL     1     -10.283  10.832  61.769  1.00  0.00     0.000 HD 
HETATM   24  H2  UNL     1     -10.319   9.696  62.953  1.00  0.00     0.000 HD 
ENDBRANCH   9  12
TORSDOF 1
ENDMDL
MODEL       45
REMARK 921   NORMALIZED FREE ENERGY PREDICTED BY IDOCK:   -5.60 KCAL/MOL
REMARK 922        TOTAL FREE ENERGY PREDICTED BY IDOCK:   -6.30 KCAL/MOL
REMARK 923 INTER-LIGAND FREE ENERGY PREDICTED BY IDOCK:   -5.91 KCAL/MOL
REMARK 924 INTRA-LIGAND FREE ENERGY PREDICTED BY IDOCK:   -0.39 KCAL/MOL
REMARK 927      BINDING AFFINITY PREDICTED BY RF-SCORE:    0.00 PKD
ROOT
HETATM    1  N   UNL     1     -12.135  14.576  68.454  1.00  0.00    -0.578 NA 
HETATM    2  H2  UNL     1     -12.720  13.828  68.828  1.00  0.00     0.000 HD 
HETATM    3  C   UNL     1     -11.989  15.702  69.180  1.00  0.00    -0.310 C  
HETATM    4  H1  UNL     1     -11.690  14.434  67.546  1.00  0.00     0.000 HD 
HETATM    5  N   UNL     1     -12.548  15.879  70.320  1.00  0.00    -0.563 NA 
HETATM    6  N   UNL     1     -11.220  16.730  68.725  1.00  0.00    -0.222 N  
HETATM    7  H   UNL     1     -11.187  17.567  69.308  1.00  0.00     0.000 HD 
HETATM    8  H2  UNL     1     -13.133  15.132  70.696  1.00  0.00     0.000 HD 
HETATM    9  C   UNL     1     -10.479  16.759  67.557  1.00  0.00    -0.319 C  
HETATM   10  H1  UNL     1     -12.437  16.731  70.870  1.00  0.00     0.000 HD 
HETATM   11  O   UNL     1     -10.546  15.906  66.670  1.00  0.00    -0.314 OA 
ENDROOT
BRANCH   9  12
HETATM   12  C   UNL     1      -9.607  17.956  67.396  1.00  0.00    -0.271 A  
HETATM   13  N   UNL     1      -8.615  18.102  68.318  1.00  0.00    -0.281 NA 
HETATM   14  C   UNL     1      -7.908  19.247  68.181  1.00  0.00    -0.308 A  
HETATM   15 CL   UNL     1      -6.699  19.468  69.383  1.00  0.00    -0.369 Cl 
HETATM   16  C   UNL     1      -8.156  20.209  67.184  1.00  0.00    -0.329 A  
HETATM   17  N   UNL     1      -7.389  21.363  67.014  1.00  0.00    -0.834 NA 
HETATM   18  N   UNL     1      -9.134  20.023  66.271  1.00  0.00    -0.347 NA 
HETATM   19  C   UNL     1      -9.872  18.892  66.381  1.00  0.00    -0.375 A  
HETATM   20  H2  UNL     1      -6.419  21.067  66.912  1.00  0.00     0.000 HD 
HETATM   21  H1  UNL     1      -7.569  22.060  66.291  1.00  0.00     0.000 HD 
HETATM   22  N   UNL     1     -10.795  18.685  65.358  1.00  0.00    -0.488 NA 
HETATM   23  H1  UNL     1     -10.987  19.364  64.622  1.00  0.00     0.000 HD 
HETATM   24  H2  UNL     1     -11.686  18.458  65.798  1.00  0.00     0.000 HD 
ENDBRANCH   9  12
TORSDOF 1
ENDMDL
MODEL       46
REMARK 921   NORMALIZED FREE ENERGY PREDICTED BY IDOCK:   -5.53 KCAL/MOL
REMARK 922        TOTAL FREE ENERGY PREDICTED BY IDOCK:   -6.23 KCAL/MOL
REMARK 923 INTER-LIGAND FREE ENERGY PREDICTED BY IDOCK:   -5.95 KCAL/MOL
REMARK 924 INTRA-LIGAND FREE ENERGY PREDICTED BY IDOCK:   -0.28 KCAL/MOL
REMARK 927      BINDING AFFINITY PREDICTED BY RF-SCORE:    0.00 PKD
ROOT
HETATM    1  N   UNL     1     -11.294  11.343  63.289  1.00  0.00    -0.848 NA 
HETATM    2  H2  UNL     1     -11.308  10.626  62.563  1.00  0.00     0.000 HD 
HETATM    3  C   UNL     1     -10.128  11.964  63.556  1.00  0.00    -0.441 C  
HETATM    4  H1  UNL     1     -12.165  11.554  63.777  1.00  0.00     0.000 HD 
HETATM    5  N   UNL     1      -9.034  11.698  62.942  1.00  0.00    -0.645 NA 
HETATM    6  N   UNL     1     -10.055  12.928  64.516  1.00  0.00    -0.569 N  
HETATM    7  H   UNL     1      -9.132  13.326  64.692  1.00  0.00     0.000 HD 
HETATM    8  H2  UNL     1      -9.047  10.981  62.215  1.00  0.00     0.000 HD 
HETATM    9  C   UNL     1     -11.099  13.424  65.276  1.00  0.00    -0.291 C  
HETATM   10  H1  UNL     1      -8.151  12.168  63.143  1.00  0.00     0.000 HD 
HETATM   11  O   UNL     1     -12.230  12.935  65.304  1.00  0.00    -0.423 OA 
ENDROOT
BRANCH   9  12
HETATM   12  C   UNL     1     -10.752  14.588  66.137  1.00  0.00    -0.310 A  
HETATM   13  N   UNL     1      -9.782  15.417  65.660  1.00  0.00    -0.346 NA 
HETATM   14  C   UNL     1      -9.442  16.407  66.516  1.00  0.00    -0.272 A  
HETATM   15 CL   UNL     1      -8.171  17.415  65.947  1.00  0.00    -0.140 Cl 
HETATM   16  C   UNL     1     -10.026  16.583  67.785  1.00  0.00    -0.253 A  
HETATM   17  N   UNL     1      -9.709  17.639  68.642  1.00  0.00    -0.321 NA 
HETATM   18  N   UNL     1     -11.001  15.757  68.219  1.00  0.00    -0.310 NA 
HETATM   19  C   UNL     1     -11.363  14.745  67.394  1.00  0.00    -0.351 A  
HETATM   20  H2  UNL     1      -9.852  18.504  68.122  1.00  0.00     0.000 HD 
HETATM   21  H1  UNL     1     -10.132  17.767  69.561  1.00  0.00     0.000 HD 
HETATM   22  N   UNL     1     -12.445  13.984  67.829  1.00  0.00    -0.428 NA 
HETATM   23  H1  UNL     1     -12.887  14.098  68.740  1.00  0.00     0.000 HD 
HETATM   24  H2  UNL     1     -12.176  13.003  67.746  1.00  0.00     0.000 HD 
ENDBRANCH   9  12
TORSDOF 1
ENDMDL
MODEL       47
REMARK 921   NORMALIZED FREE ENERGY PREDICTED BY IDOCK:   -5.50 KCAL/MOL
REMARK 922        TOTAL FREE ENERGY PREDICTED BY IDOCK:   -6.20 KCAL/MOL
REMARK 923 INTER-LIGAND FREE ENERGY PREDICTED BY IDOCK:   -5.83 KCAL/MOL
REMARK 924 INTRA-LIGAND FREE ENERGY PREDICTED BY IDOCK:   -0.37 KCAL/MOL
REMARK 927      BINDING AFFINITY PREDICTED BY RF-SCORE:    0.00 PKD
ROOT
HETATM    1  N   UNL     1     -12.280  14.174  67.396  1.00  0.00    -0.570 NA 
HETATM    2  H2  UNL     1     -12.850  13.340  67.249  1.00  0.00     0.000 HD 
HETATM    3  C   UNL     1     -11.464  14.577  66.401  1.00  0.00    -0.360 C  
HETATM    4  H1  UNL     1     -12.356  14.662  68.289  1.00  0.00     0.000 HD 
HETATM    5  N   UNL     1     -11.369  13.964  65.279  1.00  0.00    -0.306 NA 
HETATM    6  N   UNL     1     -10.683  15.683  66.546  1.00  0.00    -0.307 N  
HETATM    7  H   UNL     1     -10.061  15.906  65.769  1.00  0.00     0.000 HD 
HETATM    8  H2  UNL     1     -11.939  13.130  65.132  1.00  0.00     0.000 HD 
HETATM    9  C   UNL     1     -10.644  16.536  67.635  1.00  0.00    -0.321 C  
HETATM   10  H1  UNL     1     -10.752  14.269  64.526  1.00  0.00     0.000 HD 
HETATM   11  O   UNL     1     -11.201  16.314  68.711  1.00  0.00    -0.333 OA 
ENDROOT
BRANCH   9  12
HETATM   12  C   UNL     1      -9.809  17.755  67.449  1.00  0.00    -0.311 A  
HETATM   13  N   UNL     1      -8.883  18.000  68.418  1.00  0.00    -0.288 NA 
HETATM   14  C   UNL     1      -8.213  19.163  68.249  1.00  0.00    -0.334 A  
HETATM   15 CL   UNL     1      -7.092  19.509  69.506  1.00  0.00    -0.325 Cl 
HETATM   16  C   UNL     1      -8.434  20.049  67.179  1.00  0.00    -0.334 A  
HETATM   17  N   UNL     1      -7.701  21.221  66.981  1.00  0.00    -0.741 NA 
HETATM   18  N   UNL     1      -9.344  19.765  66.222  1.00  0.00    -0.383 NA 
HETATM   19  C   UNL     1     -10.044  18.614  66.361  1.00  0.00    -0.403 A  
HETATM   20  H2  UNL     1      -6.716  20.960  66.957  1.00  0.00     0.000 HD 
HETATM   21  H1  UNL     1      -7.861  21.863  66.204  1.00  0.00     0.000 HD 
HETATM   22  N   UNL     1     -10.892  18.305  65.299  1.00  0.00    -0.513 NA 
HETATM   23  H1  UNL     1     -11.062  18.928  64.511  1.00  0.00     0.000 HD 
HETATM   24  H2  UNL     1     -11.800  18.069  65.698  1.00  0.00     0.000 HD 
ENDBRANCH   9  12
TORSDOF 1
ENDMDL
MODEL       48
REMARK 921   NORMALIZED FREE ENERGY PREDICTED BY IDOCK:   -5.49 KCAL/MOL
REMARK 922        TOTAL FREE ENERGY PREDICTED BY IDOCK:   -6.18 KCAL/MOL
REMARK 923 INTER-LIGAND FREE ENERGY PREDICTED BY IDOCK:   -5.80 KCAL/MOL
REMARK 924 INTRA-LIGAND FREE ENERGY PREDICTED BY IDOCK:   -0.38 KCAL/MOL
REMARK 927      BINDING AFFINITY PREDICTED BY RF-SCORE:    0.00 PKD
ROOT
HETATM    1  N   UNL     1      -9.777  12.139  66.477  1.00  0.00    -0.218 NA 
HETATM    2  H2  UNL     1      -9.458  12.458  65.562  1.00  0.00     0.000 HD 
HETATM    3  C   UNL     1     -11.104  12.059  66.702  1.00  0.00    -0.310 C  
HETATM    4  H1  UNL     1      -9.076  11.896  67.178  1.00  0.00     0.000 HD 
HETATM    5  N   UNL     1     -11.985  12.364  65.821  1.00  0.00    -0.557 NA 
HETATM    6  N   UNL     1     -11.583  11.640  67.906  1.00  0.00    -0.307 N  
HETATM    7  H   UNL     1     -12.597  11.642  68.019  1.00  0.00     0.000 HD 
HETATM    8  H2  UNL     1     -11.666  12.682  64.906  1.00  0.00     0.000 HD 
HETATM    9  C   UNL     1     -10.840  11.211  68.992  1.00  0.00    -0.231 C  
HETATM   10  H1  UNL     1     -12.989  12.303  65.991  1.00  0.00     0.000 HD 
HETATM   11  O   UNL     1      -9.614  11.307  69.077  1.00  0.00    -0.146 OA 
ENDROOT
BRANCH   9  12
HETATM   12  C   UNL     1     -11.639  10.660  70.122  1.00  0.00    -0.330 A  
HETATM   13  N   UNL     1     -11.593   9.308  70.283  1.00  0.00    -0.177 NA 
HETATM   14  C   UNL     1     -12.402   8.849  71.265  1.00  0.00    -0.291 A  
HETATM   15 CL   UNL     1     -12.400   7.138  71.427  1.00  0.00    -0.393 Cl 
HETATM   16  C   UNL     1     -13.220   9.675  72.059  1.00  0.00    -0.453 A  
HETATM   17  N   UNL     1     -14.012   9.201  73.107  1.00  0.00    -1.161 NA 
HETATM   18  N   UNL     1     -13.225  11.014  71.888  1.00  0.00    -0.463 NA 
HETATM   19  C   UNL     1     -12.435  11.512  70.907  1.00  0.00    -0.366 A  
HETATM   20  H2  UNL     1     -13.400   8.686  73.739  1.00  0.00     0.000 HD 
HETATM   21  H1  UNL     1     -14.604   9.800  73.683  1.00  0.00     0.000 HD 
HETATM   22  N   UNL     1     -12.384  12.902  70.836  1.00  0.00    -0.401 NA 
HETATM   23  H1  UNL     1     -12.962  13.520  71.405  1.00  0.00     0.000 HD 
HETATM   24  H2  UNL     1     -12.539  13.160  69.861  1.00  0.00     0.000 HD 
ENDBRANCH   9  12
TORSDOF 1
ENDMDL
MODEL       49
REMARK 921   NORMALIZED FREE ENERGY PREDICTED BY IDOCK:   -5.48 KCAL/MOL
REMARK 922        TOTAL FREE ENERGY PREDICTED BY IDOCK:   -6.18 KCAL/MOL
REMARK 923 INTER-LIGAND FREE ENERGY PREDICTED BY IDOCK:   -5.80 KCAL/MOL
REMARK 924 INTRA-LIGAND FREE ENERGY PREDICTED BY IDOCK:   -0.38 KCAL/MOL
REMARK 927      BINDING AFFINITY PREDICTED BY RF-SCORE:    0.00 PKD
ROOT
HETATM    1  N   UNL     1      -8.905  20.725  66.930  1.00  0.00    -0.582 NA 
HETATM    2  H2  UNL     1      -8.436  21.617  67.092  1.00  0.00     0.000 HD 
HETATM    3  C   UNL     1      -8.427  19.627  67.550  1.00  0.00    -0.307 C  
HETATM    4  H1  UNL     1      -9.712  20.709  66.306  1.00  0.00     0.000 HD 
HETATM    5  N   UNL     1      -7.413  19.648  68.334  1.00  0.00    -0.317 NA 
HETATM    6  N   UNL     1      -9.017  18.413  67.368  1.00  0.00    -0.259 N  
HETATM    7  H   UNL     1      -8.579  17.619  67.836  1.00  0.00     0.000 HD 
HETATM    8  H2  UNL     1      -6.944  20.540  68.496  1.00  0.00     0.000 HD 
HETATM    9  C   UNL     1     -10.146  18.142  66.616  1.00  0.00    -0.373 C  
HETATM   10  H1  UNL     1      -7.052  18.818  68.803  1.00  0.00     0.000 HD 
HETATM   11  O   UNL     1     -10.688  18.951  65.860  1.00  0.00    -0.448 OA 
ENDROOT
BRANCH   9  12
HETATM   12  C   UNL     1     -10.656  16.747  66.727  1.00  0.00    -0.203 A  
HETATM   13  N   UNL     1     -10.750  16.243  67.989  1.00  0.00    -0.320 NA 
HETATM   14  C   UNL     1     -11.133  14.947  68.032  1.00  0.00    -0.295 A  
HETATM   15 CL   UNL     1     -11.188  14.288  69.618  1.00  0.00    -0.276 Cl 
HETATM   16  C   UNL     1     -11.415  14.174  66.890  1.00  0.00    -0.357 A  
HETATM   17  N   UNL     1     -11.862  12.852  66.942  1.00  0.00    -0.385 NA 
HETATM   18  N   UNL     1     -11.333  14.710  65.653  1.00  0.00    -0.334 NA 
HETATM   19  C   UNL     1     -10.942  16.004  65.568  1.00  0.00    -0.209 A  
HETATM   20  H2  UNL     1     -12.696  12.838  67.528  1.00  0.00     0.000 HD 
HETATM   21  H1  UNL     1     -12.067  12.292  66.114  1.00  0.00     0.000 HD 
HETATM   22  N   UNL     1     -10.977  16.550  64.287  1.00  0.00    -1.137 NA 
HETATM   23  H1  UNL     1     -11.184  16.012  63.447  1.00  0.00     0.000 HD 
HETATM   24  H2  UNL     1     -10.081  17.014  64.133  1.00  0.00     0.000 HD 
ENDBRANCH   9  12
TORSDOF 1
ENDMDL
MODEL       50
REMARK 921   NORMALIZED FREE ENERGY PREDICTED BY IDOCK:   -5.48 KCAL/MOL
REMARK 922        TOTAL FREE ENERGY PREDICTED BY IDOCK:   -6.18 KCAL/MOL
REMARK 923 INTER-LIGAND FREE ENERGY PREDICTED BY IDOCK:   -5.81 KCAL/MOL
REMARK 924 INTRA-LIGAND FREE ENERGY PREDICTED BY IDOCK:   -0.37 KCAL/MOL
REMARK 927      BINDING AFFINITY PREDICTED BY RF-SCORE:    0.00 PKD
ROOT
HETATM    1  N   UNL     1     -13.705  10.052  72.337  1.00  0.00    -0.567 NA 
HETATM    2  H2  UNL     1     -13.978   9.114  72.629  1.00  0.00     0.000 HD 
HETATM    3  C   UNL     1     -12.813  10.179  71.334  1.00  0.00    -0.428 C  
HETATM    4  H1  UNL     1     -14.121  10.850  72.818  1.00  0.00     0.000 HD 
HETATM    5  N   UNL     1     -12.290   9.176  70.729  1.00  0.00    -0.488 NA 
HETATM    6  N   UNL     1     -12.415  11.409  70.906  1.00  0.00    -0.390 N  
HETATM    7  H   UNL     1     -11.708  11.429  70.171  1.00  0.00     0.000 HD 
HETATM    8  H2  UNL     1     -12.563   8.237  71.021  1.00  0.00     0.000 HD 
HETATM    9  C   UNL     1     -12.869  12.634  71.362  1.00  0.00    -0.261 C  
HETATM   10  H1  UNL     1     -11.615   9.272  69.970  1.00  0.00     0.000 HD 
HETATM   11  O   UNL     1     -13.589  12.784  72.351  1.00  0.00    -0.565 OA 
ENDROOT
BRANCH   9  12
HETATM   12  C   UNL     1     -12.373  13.813  70.598  1.00  0.00    -0.375 A  
HETATM   13  N   UNL     1     -12.375  13.690  69.241  1.00  0.00    -0.227 NA 
HETATM   14  C   UNL     1     -11.834  14.750  68.598  1.00  0.00    -0.300 A  
HETATM   15 CL   UNL     1     -11.774  14.570  66.889  1.00  0.00    -0.399 Cl 
HETATM   16  C   UNL     1     -11.315  15.883  69.250  1.00  0.00    -0.355 A  
HETATM   17  N   UNL     1     -10.807  16.997  68.579  1.00  0.00    -0.342 NA 
HETATM   18  N   UNL     1     -11.348  15.983  70.597  1.00  0.00    -0.385 NA 
HETATM   19  C   UNL     1     -11.872  14.937  71.279  1.00  0.00    -0.339 A  
HETATM   20  H2  UNL     1     -11.534  17.323  67.943  1.00  0.00     0.000 HD 
HETATM   21  H1  UNL     1     -10.431  17.819  69.052  1.00  0.00     0.000 HD 
HETATM   22  N   UNL     1     -11.989  15.124  72.654  1.00  0.00    -0.388 NA 
HETATM   23  H1  UNL     1     -11.626  15.939  73.147  1.00  0.00     0.000 HD 
HETATM   24  H2  UNL     1     -11.593  14.299  73.105  1.00  0.00     0.000 HD 
ENDBRANCH   9  12
TORSDOF 1
ENDMDL
MODEL       51
REMARK 921   NORMALIZED FREE ENERGY PREDICTED BY IDOCK:   -5.48 KCAL/MOL
REMARK 922        TOTAL FREE ENERGY PREDICTED BY IDOCK:   -6.18 KCAL/MOL
REMARK 923 INTER-LIGAND FREE ENERGY PREDICTED BY IDOCK:   -5.79 KCAL/MOL
REMARK 924 INTRA-LIGAND FREE ENERGY PREDICTED BY IDOCK:   -0.39 KCAL/MOL
REMARK 927      BINDING AFFINITY PREDICTED BY RF-SCORE:    0.00 PKD
ROOT
HETATM    1  N   UNL     1     -12.272  13.081  70.815  1.00  0.00    -0.463 NA 
HETATM    2  H2  UNL     1     -12.419  13.500  71.733  1.00  0.00     0.000 HD 
HETATM    3  C   UNL     1     -11.952  13.889  69.784  1.00  0.00    -0.338 C  
HETATM    4  H1  UNL     1     -12.376  12.070  70.721  1.00  0.00     0.000 HD 
HETATM    5  N   UNL     1     -11.822  15.159  69.902  1.00  0.00    -0.308 NA 
HETATM    6  N   UNL     1     -11.746  13.380  68.538  1.00  0.00    -0.336 N  
HETATM    7  H   UNL     1     -11.546  14.053  67.798  1.00  0.00     0.000 HD 
HETATM    8  H2  UNL     1     -11.969  15.579  70.821  1.00  0.00     0.000 HD 
HETATM    9  C   UNL     1     -11.777  12.047  68.169  1.00  0.00    -0.333 C  
HETATM   10  H1  UNL     1     -11.579  15.770  69.122  1.00  0.00     0.000 HD 
HETATM   11  O   UNL     1     -12.167  11.133  68.899  1.00  0.00    -0.522 OA 
ENDROOT
BRANCH   9  12
HETATM   12  C   UNL     1     -11.356  11.772  66.767  1.00  0.00    -0.320 A  
HETATM   13  N   UNL     1     -11.955  12.527  65.803  1.00  0.00    -0.517 NA 
HETATM   14  C   UNL     1     -11.605  12.180  64.544  1.00  0.00    -0.336 A  
HETATM   15 CL   UNL     1     -12.409  13.085  63.324  1.00  0.00    -0.525 Cl 
HETATM   16  C   UNL     1     -10.706  11.142  64.236  1.00  0.00    -0.333 A  
HETATM   17  N   UNL     1     -10.308  10.824  62.937  1.00  0.00    -0.754 NA 
HETATM   18  N   UNL     1     -10.113  10.426  65.216  1.00  0.00    -0.306 NA 
HETATM   19  C   UNL     1     -10.446  10.736  66.492  1.00  0.00    -0.240 A  
HETATM   20  H2  UNL     1      -9.937  11.676  62.518  1.00  0.00     0.000 HD 
HETATM   21  H1  UNL     1      -9.656  10.071  62.714  1.00  0.00     0.000 HD 
HETATM   22  N   UNL     1      -9.732  10.053  67.473  1.00  0.00    -0.156 NA 
HETATM   23  H1  UNL     1      -9.072   9.302  67.274  1.00  0.00     0.000 HD 
HETATM   24  H2  UNL     1     -10.411   9.686  68.140  1.00  0.00     0.000 HD 
ENDBRANCH   9  12
TORSDOF 1
ENDMDL
MODEL       52
REMARK 921   NORMALIZED FREE ENERGY PREDICTED BY IDOCK:   -5.46 KCAL/MOL
REMARK 922        TOTAL FREE ENERGY PREDICTED BY IDOCK:   -6.16 KCAL/MOL
REMARK 923 INTER-LIGAND FREE ENERGY PREDICTED BY IDOCK:   -5.78 KCAL/MOL
REMARK 924 INTRA-LIGAND FREE ENERGY PREDICTED BY IDOCK:   -0.38 KCAL/MOL
REMARK 927      BINDING AFFINITY PREDICTED BY RF-SCORE:    0.00 PKD
ROOT
HETATM    1  N   UNL     1     -11.612  15.538  64.639  1.00  0.00    -0.485 NA 
HETATM    2  H2  UNL     1     -11.669  16.244  63.905  1.00  0.00     0.000 HD 
HETATM    3  C   UNL     1     -12.001  14.280  64.351  1.00  0.00    -0.456 C  
HETATM    4  H1  UNL     1     -11.263  15.819  65.556  1.00  0.00     0.000 HD 
HETATM    5  N   UNL     1     -12.439  13.926  63.199  1.00  0.00    -1.079 NA 
HETATM    6  N   UNL     1     -11.945  13.299  65.295  1.00  0.00    -0.364 N  
HETATM    7  H   UNL     1     -12.293  12.381  65.020  1.00  0.00     0.000 HD 
HETATM    8  H2  UNL     1     -12.496  14.632  62.464  1.00  0.00     0.000 HD 
HETATM    9  C   UNL     1     -11.466  13.418  66.588  1.00  0.00    -0.344 C  
HETATM   10  H1  UNL     1     -12.733  12.974  62.981  1.00  0.00     0.000 HD 
HETATM   11  O   UNL     1     -11.172  14.487  67.125  1.00  0.00    -0.310 OA 
ENDROOT
BRANCH   9  12
HETATM   12  C   UNL     1     -11.380  12.138  67.346  1.00  0.00    -0.326 A  
HETATM   13  N   UNL     1     -12.025  12.110  68.546  1.00  0.00    -0.338 NA 
HETATM   14  C   UNL     1     -11.844  10.960  69.234  1.00  0.00    -0.324 A  
HETATM   15 CL   UNL     1     -12.599  10.945  70.778  1.00  0.00    -0.455 Cl 
HETATM   16  C   UNL     1     -11.068   9.881  68.770  1.00  0.00    -0.135 A  
HETATM   17  N   UNL     1     -10.929   8.675  69.461  1.00  0.00    -0.416 NA 
HETATM   18  N   UNL     1     -10.460   9.933  67.566  1.00  0.00    -0.237 NA 
HETATM   19  C   UNL     1     -10.608  11.073  66.850  1.00  0.00    -0.258 A  
HETATM   20  H2  UNL     1     -11.867   8.318  69.636  1.00  0.00     0.000 HD 
HETATM   21  H1  UNL     1     -10.367   7.893  69.124  1.00  0.00     0.000 HD 
HETATM   22  N   UNL     1     -10.059  11.045  65.570  1.00  0.00    -0.248 NA 
HETATM   23  H1  UNL     1      -9.500  10.272  65.211  1.00  0.00     0.000 HD 
HETATM   24  H2  UNL     1      -9.504  11.894  65.462  1.00  0.00     0.000 HD 
ENDBRANCH   9  12
TORSDOF 1
ENDMDL
MODEL       53
REMARK 921   NORMALIZED FREE ENERGY PREDICTED BY IDOCK:   -5.45 KCAL/MOL
REMARK 922        TOTAL FREE ENERGY PREDICTED BY IDOCK:   -6.15 KCAL/MOL
REMARK 923 INTER-LIGAND FREE ENERGY PREDICTED BY IDOCK:   -5.75 KCAL/MOL
REMARK 924 INTRA-LIGAND FREE ENERGY PREDICTED BY IDOCK:   -0.40 KCAL/MOL
REMARK 927      BINDING AFFINITY PREDICTED BY RF-SCORE:    0.00 PKD
ROOT
HETATM    1  N   UNL     1     -14.321   9.154  72.950  1.00  0.00    -1.054 NA 
HETATM    2  H2  UNL     1     -14.980   8.695  73.580  1.00  0.00     0.000 HD 
HETATM    3  C   UNL     1     -13.713   8.410  72.005  1.00  0.00    -0.374 C  
HETATM    4  H1  UNL     1     -14.155  10.154  73.068  1.00  0.00     0.000 HD 
HETATM    5  N   UNL     1     -13.923   7.153  71.858  1.00  0.00    -0.559 NA 
HETATM    6  N   UNL     1     -12.825   8.973  71.139  1.00  0.00    -0.497 N  
HETATM    7  H   UNL     1     -12.373   8.343  70.477  1.00  0.00     0.000 HD 
HETATM    8  H2  UNL     1     -14.582   6.694  72.487  1.00  0.00     0.000 HD 
HETATM    9  C   UNL     1     -12.471  10.308  71.064  1.00  0.00    -0.384 C  
HETATM   10  H1  UNL     1     -13.463   6.590  71.142  1.00  0.00     0.000 HD 
HETATM   11  O   UNL     1     -12.794  11.161  71.894  1.00  0.00    -0.411 OA 
ENDROOT
BRANCH   9  12
HETATM   12  C   UNL     1     -11.594  10.663  69.913  1.00  0.00    -0.316 A  
HETATM   13  N   UNL     1     -12.126  11.520  68.997  1.00  0.00    -0.382 NA 
HETATM   14  C   UNL     1     -11.327  11.741  67.929  1.00  0.00    -0.292 A  
HETATM   15 CL   UNL     1     -12.022  12.768  66.739  1.00  0.00    -0.441 Cl 
HETATM   16  C   UNL     1     -10.059  11.153  67.762  1.00  0.00    -0.178 A  
HETATM   17  N   UNL     1      -9.215  11.426  66.684  1.00  0.00    -0.176 NA 
HETATM   18  N   UNL     1      -9.551  10.324  68.700  1.00  0.00    -0.161 NA 
HETATM   19  C   UNL     1     -10.327  10.069  69.781  1.00  0.00    -0.255 A  
HETATM   20  H2  UNL     1      -9.085  12.437  66.652  1.00  0.00     0.000 HD 
HETATM   21  H1  UNL     1      -8.297  11.000  66.563  1.00  0.00     0.000 HD 
HETATM   22  N   UNL     1      -9.725   9.300  70.774  1.00  0.00    -0.268 NA 
HETATM   23  H1  UNL     1      -8.806   8.869  70.678  1.00  0.00     0.000 HD 
HETATM   24  H2  UNL     1     -10.380   8.558  71.019  1.00  0.00     0.000 HD 
ENDBRANCH   9  12
TORSDOF 1
ENDMDL
MODEL       54
REMARK 921   NORMALIZED FREE ENERGY PREDICTED BY IDOCK:   -5.41 KCAL/MOL
REMARK 922        TOTAL FREE ENERGY PREDICTED BY IDOCK:   -6.11 KCAL/MOL
REMARK 923 INTER-LIGAND FREE ENERGY PREDICTED BY IDOCK:   -5.74 KCAL/MOL
REMARK 924 INTRA-LIGAND FREE ENERGY PREDICTED BY IDOCK:   -0.37 KCAL/MOL
REMARK 927      BINDING AFFINITY PREDICTED BY RF-SCORE:    0.00 PKD
ROOT
HETATM    1  N   UNL     1     -13.836  14.231  72.649  1.00  0.00    -0.613 NA 
HETATM    2  H2  UNL     1     -14.358  13.992  73.491  1.00  0.00     0.000 HD 
HETATM    3  C   UNL     1     -13.266  13.235  71.941  1.00  0.00    -0.431 C  
HETATM    4  H1  UNL     1     -13.769  15.214  72.383  1.00  0.00     0.000 HD 
HETATM    5  N   UNL     1     -13.350  12.000  72.275  1.00  0.00    -0.546 NA 
HETATM    6  N   UNL     1     -12.557  13.501  70.809  1.00  0.00    -0.331 N  
HETATM    7  H   UNL     1     -12.120  12.703  70.347  1.00  0.00     0.000 HD 
HETATM    8  H2  UNL     1     -13.873  11.759  73.118  1.00  0.00     0.000 HD 
HETATM    9  C   UNL     1     -12.367  14.738  70.220  1.00  0.00    -0.345 C  
HETATM   10  H1  UNL     1     -12.920  11.246  71.740  1.00  0.00     0.000 HD 
HETATM   11  O   UNL     1     -12.681  15.811  70.739  1.00  0.00    -0.453 OA 
ENDROOT
BRANCH   9  12
HETATM   12  C   UNL     1     -11.680  14.706  68.898  1.00  0.00    -0.309 A  
HETATM   13  N   UNL     1     -12.085  13.732  68.037  1.00  0.00    -0.339 NA 
HETATM   14  C   UNL     1     -11.373  13.689  66.888  1.00  0.00    -0.327 A  
HETATM   15 CL   UNL     1     -11.836  12.418  65.828  1.00  0.00    -0.475 Cl 
HETATM   16  C   UNL     1     -10.310  14.562  66.591  1.00  0.00    -0.274 A  
HETATM   17  N   UNL     1      -9.613  14.549  65.381  1.00  0.00    -0.516 NA 
HETATM   18  N   UNL     1      -9.947  15.532  67.458  1.00  0.00    -0.229 NA 
HETATM   19  C   UNL     1     -10.630  15.601  68.625  1.00  0.00    -0.243 A  
HETATM   20  H2  UNL     1     -10.301  14.647  64.635  1.00  0.00     0.000 HD 
HETATM   21  H1  UNL     1      -8.843  15.182  65.165  1.00  0.00     0.000 HD 
HETATM   22  N   UNL     1     -10.301  16.680  69.442  1.00  0.00    -0.307 NA 
HETATM   23  H1  UNL     1      -9.540  17.329  69.243  1.00  0.00     0.000 HD 
HETATM   24  H2  UNL     1     -10.144  16.311  70.380  1.00  0.00     0.000 HD 
ENDBRANCH   9  12
TORSDOF 1
ENDMDL
MODEL       55
REMARK 921   NORMALIZED FREE ENERGY PREDICTED BY IDOCK:   -5.41 KCAL/MOL
REMARK 922        TOTAL FREE ENERGY PREDICTED BY IDOCK:   -6.10 KCAL/MOL
REMARK 923 INTER-LIGAND FREE ENERGY PREDICTED BY IDOCK:   -5.71 KCAL/MOL
REMARK 924 INTRA-LIGAND FREE ENERGY PREDICTED BY IDOCK:   -0.39 KCAL/MOL
REMARK 927      BINDING AFFINITY PREDICTED BY RF-SCORE:    0.00 PKD
ROOT
HETATM    1  N   UNL     1     -12.221  14.571  68.348  1.00  0.00    -0.608 NA 
HETATM    2  H2  UNL     1     -12.319  15.504  67.945  1.00  0.00     0.000 HD 
HETATM    3  C   UNL     1     -11.920  14.467  69.658  1.00  0.00    -0.336 C  
HETATM    4  H1  UNL     1     -12.354  13.764  67.738  1.00  0.00     0.000 HD 
HETATM    5  N   UNL     1     -11.752  15.481  70.423  1.00  0.00    -0.307 NA 
HETATM    6  N   UNL     1     -11.777  13.246  70.245  1.00  0.00    -0.539 N  
HETATM    7  H   UNL     1     -11.510  13.242  71.229  1.00  0.00     0.000 HD 
HETATM    8  H2  UNL     1     -11.851  16.414  70.021  1.00  0.00     0.000 HD 
HETATM    9  C   UNL     1     -11.956  12.011  69.647  1.00  0.00    -0.293 C  
HETATM   10  H1  UNL     1     -11.526  15.402  71.415  1.00  0.00     0.000 HD 
HETATM   11  O   UNL     1     -12.112  11.841  68.436  1.00  0.00    -0.490 OA 
ENDROOT
BRANCH   9  12
HETATM   12  C   UNL     1     -11.888  10.847  70.574  1.00  0.00    -0.360 A  
HETATM   13  N   UNL     1     -10.957   9.898  70.275  1.00  0.00    -0.285 NA 
HETATM   14  C   UNL     1     -10.994   8.822  71.094  1.00  0.00    -0.268 A  
HETATM   15 CL   UNL     1      -9.867   7.592  70.680  1.00  0.00    -0.182 Cl 
HETATM   16  C   UNL     1     -11.899   8.679  72.162  1.00  0.00    -0.377 A  
HETATM   17  N   UNL     1     -11.897   7.591  73.038  1.00  0.00    -0.573 NA 
HETATM   18  N   UNL     1     -12.795   9.649  72.445  1.00  0.00    -0.307 NA 
HETATM   19  C   UNL     1     -12.797  10.739  71.641  1.00  0.00    -0.457 A  
HETATM   20  H2  UNL     1     -10.957   7.520  73.428  1.00  0.00     0.000 HD 
HETATM   21  H1  UNL     1     -12.553   7.488  73.812  1.00  0.00     0.000 HD 
HETATM   22  N   UNL     1     -13.658  11.762  72.031  1.00  0.00    -0.332 NA 
HETATM   23  H1  UNL     1     -14.317  11.683  72.805  1.00  0.00     0.000 HD 
HETATM   24  H2  UNL     1     -14.193  12.036  71.207  1.00  0.00     0.000 HD 
ENDBRANCH   9  12
TORSDOF 1
ENDMDL
MODEL       56
REMARK 921   NORMALIZED FREE ENERGY PREDICTED BY IDOCK:   -5.40 KCAL/MOL
REMARK 922        TOTAL FREE ENERGY PREDICTED BY IDOCK:   -6.09 KCAL/MOL
REMARK 923 INTER-LIGAND FREE ENERGY PREDICTED BY IDOCK:   -5.79 KCAL/MOL
REMARK 924 INTRA-LIGAND FREE ENERGY PREDICTED BY IDOCK:   -0.30 KCAL/MOL
REMARK 927      BINDING AFFINITY PREDICTED BY RF-SCORE:    0.00 PKD
ROOT
HETATM    1  N   UNL     1     -13.425  10.794  72.080  1.00  0.00    -0.533 NA 
HETATM    2  H2  UNL     1     -13.962  10.469  72.884  1.00  0.00     0.000 HD 
HETATM    3  C   UNL     1     -13.073   9.897  71.138  1.00  0.00    -0.370 C  
HETATM    4  H1  UNL     1     -13.179  11.784  72.030  1.00  0.00     0.000 HD 
HETATM    5  N   UNL     1     -13.382   8.654  71.202  1.00  0.00    -0.532 NA 
HETATM    6  N   UNL     1     -12.356  10.279  70.045  1.00  0.00    -0.517 N  
HETATM    7  H   UNL     1     -12.090   9.540  69.393  1.00  0.00     0.000 HD 
HETATM    8  H2  UNL     1     -13.920   8.328  72.006  1.00  0.00     0.000 HD 
HETATM    9  C   UNL     1     -11.948  11.562  69.725  1.00  0.00    -0.346 C  
HETATM   10  H1  UNL     1     -13.117   7.975  70.488  1.00  0.00     0.000 HD 
HETATM   11  O   UNL     1     -12.040  12.529  70.484  1.00  0.00    -0.365 OA 
ENDROOT
BRANCH   9  12
HETATM   12  C   UNL     1     -11.314  11.705  68.385  1.00  0.00    -0.279 A  
HETATM   13  N   UNL     1     -12.142  12.070  67.367  1.00  0.00    -0.520 NA 
HETATM   14  C   UNL     1     -11.538  12.101  66.158  1.00  0.00    -0.354 A  
HETATM   15 CL   UNL     1     -12.595  12.495  64.861  1.00  0.00    -0.548 Cl 
HETATM   16  C   UNL     1     -10.181  11.791  65.950  1.00  0.00    -0.237 A  
HETATM   17  N   UNL     1      -9.550  11.877  64.707  1.00  0.00    -0.427 NA 
HETATM   18  N   UNL     1      -9.381  11.454  66.984  1.00  0.00    -0.172 NA 
HETATM   19  C   UNL     1      -9.952  11.401  68.212  1.00  0.00    -0.198 A  
HETATM   20  H2  UNL     1      -9.700  12.822  64.357  1.00  0.00     0.000 HD 
HETATM   21  H1  UNL     1      -8.566  11.652  64.557  1.00  0.00     0.000 HD 
HETATM   22  N   UNL     1      -9.073  11.159  69.264  1.00  0.00    -0.392 NA 
HETATM   23  H1  UNL     1      -8.086  10.939  69.138  1.00  0.00     0.000 HD 
HETATM   24  H2  UNL     1      -9.478  10.412  69.829  1.00  0.00     0.000 HD 
ENDBRANCH   9  12
TORSDOF 1
ENDMDL
MODEL       57
REMARK 921   NORMALIZED FREE ENERGY PREDICTED BY IDOCK:   -5.40 KCAL/MOL
REMARK 922        TOTAL FREE ENERGY PREDICTED BY IDOCK:   -6.09 KCAL/MOL
REMARK 923 INTER-LIGAND FREE ENERGY PREDICTED BY IDOCK:   -5.70 KCAL/MOL
REMARK 924 INTRA-LIGAND FREE ENERGY PREDICTED BY IDOCK:   -0.38 KCAL/MOL
REMARK 927      BINDING AFFINITY PREDICTED BY RF-SCORE:    0.00 PKD
ROOT
HETATM    1  N   UNL     1     -11.999  14.374  66.381  1.00  0.00    -0.404 NA 
HETATM    2  H2  UNL     1     -12.584  13.564  66.174  1.00  0.00     0.000 HD 
HETATM    3  C   UNL     1     -11.196  14.851  65.408  1.00  0.00    -0.359 C  
HETATM    4  H1  UNL     1     -12.050  14.783  67.314  1.00  0.00     0.000 HD 
HETATM    5  N   UNL     1     -11.132  14.337  64.235  1.00  0.00    -0.605 NA 
HETATM    6  N   UNL     1     -10.395  15.929  65.633  1.00  0.00    -0.367 N  
HETATM    7  H   UNL     1      -9.785  16.211  64.866  1.00  0.00     0.000 HD 
HETATM    8  H2  UNL     1     -11.718  13.527  64.028  1.00  0.00     0.000 HD 
HETATM    9  C   UNL     1     -10.322  16.683  66.791  1.00  0.00    -0.295 C  
HETATM   10  H1  UNL     1     -10.525  14.698  63.499  1.00  0.00     0.000 HD 
HETATM   11  O   UNL     1     -10.862  16.376  67.855  1.00  0.00    -0.333 OA 
ENDROOT
BRANCH   9  12
HETATM   12  C   UNL     1      -9.472  17.902  66.695  1.00  0.00    -0.298 A  
HETATM   13  N   UNL     1      -8.282  17.753  66.047  1.00  0.00    -0.527 NA 
HETATM   14  C   UNL     1      -7.510  18.863  66.063  1.00  0.00    -0.244 A  
HETATM   15 CL   UNL     1      -5.981  18.659  65.306  1.00  0.00    -0.276 Cl 
HETATM   16  C   UNL     1      -7.883  20.070  66.683  1.00  0.00    -0.308 A  
HETATM   17  N   UNL     1      -7.106  21.230  66.650  1.00  0.00    -0.731 NA 
HETATM   18  N   UNL     1      -9.080  20.192  67.298  1.00  0.00    -0.353 NA 
HETATM   19  C   UNL     1      -9.878  19.098  67.313  1.00  0.00    -0.334 A  
HETATM   20  H2  UNL     1      -6.919  21.440  65.670  1.00  0.00     0.000 HD 
HETATM   21  H1  UNL     1      -7.376  22.105  67.099  1.00  0.00     0.000 HD 
HETATM   22  N   UNL     1     -11.144  19.296  67.858  1.00  0.00    -0.268 NA 
HETATM   23  H1  UNL     1     -11.439  20.163  68.306  1.00  0.00     0.000 HD 
HETATM   24  H2  UNL     1     -11.306  18.543  68.526  1.00  0.00     0.000 HD 
ENDBRANCH   9  12
TORSDOF 1
ENDMDL
MODEL       58
REMARK 921   NORMALIZED FREE ENERGY PREDICTED BY IDOCK:   -5.36 KCAL/MOL
REMARK 922        TOTAL FREE ENERGY PREDICTED BY IDOCK:   -6.04 KCAL/MOL
REMARK 923 INTER-LIGAND FREE ENERGY PREDICTED BY IDOCK:   -5.65 KCAL/MOL
REMARK 924 INTRA-LIGAND FREE ENERGY PREDICTED BY IDOCK:   -0.39 KCAL/MOL
REMARK 927      BINDING AFFINITY PREDICTED BY RF-SCORE:    0.00 PKD
ROOT
HETATM    1  N   UNL     1     -12.039  14.331  68.111  1.00  0.00    -0.551 NA 
HETATM    2  H2  UNL     1     -12.186  15.242  67.678  1.00  0.00     0.000 HD 
HETATM    3  C   UNL     1     -12.094  14.242  69.455  1.00  0.00    -0.318 C  
HETATM    4  H1  UNL     1     -11.857  13.530  67.505  1.00  0.00     0.000 HD 
HETATM    5  N   UNL     1     -12.323  15.248  70.216  1.00  0.00    -0.370 NA 
HETATM    6  N   UNL     1     -11.905  13.048  70.084  1.00  0.00    -0.503 N  
HETATM    7  H   UNL     1     -11.920  13.063  71.103  1.00  0.00     0.000 HD 
HETATM    8  H2  UNL     1     -12.471  16.161  69.783  1.00  0.00     0.000 HD 
HETATM    9  C   UNL     1     -11.694  11.819  69.485  1.00  0.00    -0.343 C  
HETATM   10  H1  UNL     1     -12.366  15.181  71.233  1.00  0.00     0.000 HD 
HETATM   11  O   UNL     1     -11.480  11.660  68.281  1.00  0.00    -0.252 OA 
ENDROOT
BRANCH   9  12
HETATM   12  C   UNL     1     -11.678  10.659  70.419  1.00  0.00    -0.353 A  
HETATM   13  N   UNL     1     -12.852  10.386  71.054  1.00  0.00    -0.377 NA 
HETATM   14  C   UNL     1     -12.763   9.382  71.955  1.00  0.00    -0.401 A  
HETATM   15 CL   UNL     1     -14.226   9.079  72.806  1.00  0.00    -0.301 Cl 
HETATM   16  C   UNL     1     -11.579   8.671  72.225  1.00  0.00    -0.354 A  
HETATM   17  N   UNL     1     -11.506   7.600  73.117  1.00  0.00    -0.613 NA 
HETATM   18  N   UNL     1     -10.436   8.953  71.562  1.00  0.00    -0.295 NA 
HETATM   19  C   UNL     1     -10.481   9.960  70.658  1.00  0.00    -0.231 A  
HETATM   20  H2  UNL     1     -12.207   6.918  72.828  1.00  0.00     0.000 HD 
HETATM   21  H1  UNL     1     -10.648   7.084  73.313  1.00  0.00     0.000 HD 
HETATM   22  N   UNL     1      -9.316  10.145  69.919  1.00  0.00    -0.391 NA 
HETATM   23  H1  UNL     1      -8.448   9.638  70.093  1.00  0.00     0.000 HD 
HETATM   24  H2  UNL     1      -9.093  11.140  69.952  1.00  0.00     0.000 HD 
ENDBRANCH   9  12
TORSDOF 1
ENDMDL
MODEL       59
REMARK 921   NORMALIZED FREE ENERGY PREDICTED BY IDOCK:   -5.35 KCAL/MOL
REMARK 922        TOTAL FREE ENERGY PREDICTED BY IDOCK:   -6.04 KCAL/MOL
REMARK 923 INTER-LIGAND FREE ENERGY PREDICTED BY IDOCK:   -6.13 KCAL/MOL
REMARK 924 INTRA-LIGAND FREE ENERGY PREDICTED BY IDOCK:    0.09 KCAL/MOL
REMARK 927      BINDING AFFINITY PREDICTED BY RF-SCORE:    0.00 PKD
ROOT
HETATM    1  N   UNL     1     -10.713  19.162  65.784  1.00  0.00    -0.442 NA 
HETATM    2  H2  UNL     1     -10.695  20.145  66.055  1.00  0.00     0.000 HD 
HETATM    3  C   UNL     1     -10.026  18.276  66.534  1.00  0.00    -0.373 C  
HETATM    4  H1  UNL     1     -11.251  18.896  64.958  1.00  0.00     0.000 HD 
HETATM    5  N   UNL     1      -9.351  18.610  67.571  1.00  0.00    -0.281 NA 
HETATM    6  N   UNL     1     -10.017  16.952  66.215  1.00  0.00    -0.296 N  
HETATM    7  H   UNL     1      -9.444  16.346  66.802  1.00  0.00     0.000 HD 
HETATM    8  H2  UNL     1      -9.332  19.594  67.843  1.00  0.00     0.000 HD 
HETATM    9  C   UNL     1     -10.704  16.342  65.180  1.00  0.00    -0.331 C  
HETATM   10  H1  UNL     1      -8.831  17.940  68.139  1.00  0.00     0.000 HD 
HETATM   11  O   UNL     1     -11.298  16.950  64.288  1.00  0.00    -1.202 OA 
ENDROOT
BRANCH   9  12
HETATM   12  C   UNL     1     -10.632  14.854  65.169  1.00  0.00    -0.428 A  
HETATM   13  N   UNL     1     -11.570  14.216  64.414  1.00  0.00    -0.383 NA 
HETATM   14  C   UNL     1     -11.518  12.868  64.506  1.00  0.00    -0.344 A  
HETATM   15 CL   UNL     1     -12.741  12.060  63.609  1.00  0.00    -0.611 Cl 
HETATM   16  C   UNL     1     -10.588  12.170  65.300  1.00  0.00    -0.281 A  
HETATM   17  N   UNL     1     -10.504  10.777  65.349  1.00  0.00    -0.238 NA 
HETATM   18  N   UNL     1      -9.657  12.833  66.020  1.00  0.00    -0.221 NA 
HETATM   19  C   UNL     1      -9.683  14.186  65.962  1.00  0.00    -0.274 A  
HETATM   20  H2  UNL     1     -10.389  10.448  64.392  1.00  0.00     0.000 HD 
HETATM   21  H1  UNL     1      -9.830  10.272  65.925  1.00  0.00     0.000 HD 
HETATM   22  N   UNL     1      -8.642  14.827  66.628  1.00  0.00    -0.426 NA 
HETATM   23  H1  UNL     1      -7.954  14.342  67.204  1.00  0.00     0.000 HD 
HETATM   24  H2  UNL     1      -9.058  15.556  67.208  1.00  0.00     0.000 HD 
ENDBRANCH   9  12
TORSDOF 1
ENDMDL
MODEL       60
REMARK 921   NORMALIZED FREE ENERGY PREDICTED BY IDOCK:   -5.34 KCAL/MOL
REMARK 922        TOTAL FREE ENERGY PREDICTED BY IDOCK:   -6.02 KCAL/MOL
REMARK 923 INTER-LIGAND FREE ENERGY PREDICTED BY IDOCK:   -5.65 KCAL/MOL
REMARK 924 INTRA-LIGAND FREE ENERGY PREDICTED BY IDOCK:   -0.37 KCAL/MOL
REMARK 927      BINDING AFFINITY PREDICTED BY RF-SCORE:    0.00 PKD
ROOT
HETATM    1  N   UNL     1      -8.819  16.757  65.734  1.00  0.00    -0.476 NA 
HETATM    2  H2  UNL     1      -8.360  17.002  64.857  1.00  0.00     0.000 HD 
HETATM    3  C   UNL     1     -10.137  16.473  65.713  1.00  0.00    -0.303 C  
HETATM    4  H1  UNL     1      -8.257  16.738  66.586  1.00  0.00     0.000 HD 
HETATM    5  N   UNL     1     -10.842  16.496  64.643  1.00  0.00    -0.902 NA 
HETATM    6  N   UNL     1     -10.797  16.139  66.857  1.00  0.00    -0.237 N  
HETATM    7  H   UNL     1     -11.800  15.977  66.773  1.00  0.00     0.000 HD 
HETATM    8  H2  UNL     1     -10.384  16.741  63.764  1.00  0.00     0.000 HD 
HETATM    9  C   UNL     1     -10.250  15.998  68.120  1.00  0.00    -0.243 C  
HETATM   10  H1  UNL     1     -11.839  16.280  64.626  1.00  0.00     0.000 HD 
HETATM   11  O   UNL     1      -9.099  16.322  68.419  1.00  0.00    -0.192 OA 
ENDROOT
BRANCH   9  12
HETATM   12  C   UNL     1     -11.184  15.470  69.154  1.00  0.00    -0.299 A  
HETATM   13  N   UNL     1     -11.281  16.199  70.300  1.00  0.00    -0.377 NA 
HETATM   14  C   UNL     1     -12.072  15.633  71.240  1.00  0.00    -0.411 A  
HETATM   15 CL   UNL     1     -12.144  16.515  72.713  1.00  0.00    -0.546 Cl 
HETATM   16  C   UNL     1     -12.742  14.407  71.068  1.00  0.00    -0.346 A  
HETATM   17  N   UNL     1     -13.600  13.854  72.021  1.00  0.00    -0.434 NA 
HETATM   18  N   UNL     1     -12.642  13.720  69.910  1.00  0.00    -0.189 NA 
HETATM   19  C   UNL     1     -11.850  14.249  68.947  1.00  0.00    -0.336 A  
HETATM   20  H2  UNL     1     -14.307  14.557  72.234  1.00  0.00     0.000 HD 
HETATM   21  H1  UNL     1     -14.086  12.966  71.896  1.00  0.00     0.000 HD 
HETATM   22  N   UNL     1     -11.860  13.569  67.732  1.00  0.00    -0.359 NA 
HETATM   23  H1  UNL     1     -12.343  12.684  67.582  1.00  0.00     0.000 HD 
HETATM   24  H2  UNL     1     -10.888  13.431  67.455  1.00  0.00     0.000 HD 
ENDBRANCH   9  12
TORSDOF 1
ENDMDL
MODEL       61
REMARK 921   NORMALIZED FREE ENERGY PREDICTED BY IDOCK:   -5.28 KCAL/MOL
REMARK 922        TOTAL FREE ENERGY PREDICTED BY IDOCK:   -5.96 KCAL/MOL
REMARK 923 INTER-LIGAND FREE ENERGY PREDICTED BY IDOCK:   -5.58 KCAL/MOL
REMARK 924 INTRA-LIGAND FREE ENERGY PREDICTED BY IDOCK:   -0.38 KCAL/MOL
REMARK 927      BINDING AFFINITY PREDICTED BY RF-SCORE:    0.00 PKD
ROOT
HETATM    1  N   UNL     1     -13.337  10.978  71.976  1.00  0.00    -0.531 NA 
HETATM    2  H2  UNL     1     -13.841  10.716  72.823  1.00  0.00     0.000 HD 
HETATM    3  C   UNL     1     -13.265  10.083  70.970  1.00  0.00    -0.325 C  
HETATM    4  H1  UNL     1     -12.912  11.904  71.932  1.00  0.00     0.000 HD 
HETATM    5  N   UNL     1     -13.800   8.919  71.025  1.00  0.00    -0.583 NA 
HETATM    6  N   UNL     1     -12.604  10.383  69.817  1.00  0.00    -0.548 N  
HETATM    7  H   UNL     1     -12.556   9.645  69.114  1.00  0.00     0.000 HD 
HETATM    8  H2  UNL     1     -14.304   8.657  71.873  1.00  0.00     0.000 HD 
HETATM    9  C   UNL     1     -11.992  11.582  69.498  1.00  0.00    -0.335 C  
HETATM   10  H1  UNL     1     -13.746   8.243  70.263  1.00  0.00     0.000 HD 
HETATM   11  O   UNL     1     -11.816  12.506  70.295  1.00  0.00    -0.317 OA 
ENDROOT
BRANCH   9  12
HETATM   12  C   UNL     1     -11.484  11.677  68.101  1.00  0.00    -0.313 A  
HETATM   13  N   UNL     1     -10.875  10.562  67.609  1.00  0.00    -0.279 NA 
HETATM   14  C   UNL     1     -10.354  10.726  66.372  1.00  0.00    -0.248 A  
HETATM   15 CL   UNL     1      -9.526   9.343  65.775  1.00  0.00    -0.303 Cl 
HETATM   16  C   UNL     1     -10.427  11.928  65.643  1.00  0.00    -0.262 A  
HETATM   17  N   UNL     1      -9.935  12.076  64.344  1.00  0.00    -0.402 NA 
HETATM   18  N   UNL     1     -11.058  13.009  66.150  1.00  0.00    -0.283 NA 
HETATM   19  C   UNL     1     -11.584  12.887  67.393  1.00  0.00    -0.360 A  
HETATM   20  H2  UNL     1     -10.368  11.350  63.773  1.00  0.00     0.000 HD 
HETATM   21  H1  UNL     1      -9.988  12.947  63.816  1.00  0.00     0.000 HD 
HETATM   22  N   UNL     1     -12.319  13.984  67.834  1.00  0.00    -0.495 NA 
HETATM   23  H1  UNL     1     -12.391  14.862  67.321  1.00  0.00     0.000 HD 
HETATM   24  H2  UNL     1     -11.988  14.211  68.772  1.00  0.00     0.000 HD 
ENDBRANCH   9  12
TORSDOF 1
ENDMDL
MODEL       62
REMARK 921   NORMALIZED FREE ENERGY PREDICTED BY IDOCK:   -5.28 KCAL/MOL
REMARK 922        TOTAL FREE ENERGY PREDICTED BY IDOCK:   -5.96 KCAL/MOL
REMARK 923 INTER-LIGAND FREE ENERGY PREDICTED BY IDOCK:   -5.58 KCAL/MOL
REMARK 924 INTRA-LIGAND FREE ENERGY PREDICTED BY IDOCK:   -0.38 KCAL/MOL
REMARK 927      BINDING AFFINITY PREDICTED BY RF-SCORE:    0.00 PKD
ROOT
HETATM    1  N   UNL     1      -8.989  19.004  66.422  1.00  0.00    -0.329 NA 
HETATM    2  H2  UNL     1      -8.561  19.929  66.460  1.00  0.00     0.000 HD 
HETATM    3  C   UNL     1      -8.698  18.121  67.398  1.00  0.00    -0.245 C  
HETATM    4  H1  UNL     1      -9.617  18.792  65.645  1.00  0.00     0.000 HD 
HETATM    5  N   UNL     1      -7.910  18.388  68.374  1.00  0.00    -0.298 NA 
HETATM    6  N   UNL     1      -9.242  16.872  67.394  1.00  0.00    -0.221 N  
HETATM    7  H   UNL     1      -8.946  16.244  68.141  1.00  0.00     0.000 HD 
HETATM    8  H2  UNL     1      -7.482  19.314  68.413  1.00  0.00     0.000 HD 
HETATM    9  C   UNL     1     -10.153  16.366  66.484  1.00  0.00    -0.295 C  
HETATM   10  H1  UNL     1      -7.690  17.720  69.113  1.00  0.00     0.000 HD 
HETATM   11  O   UNL     1     -10.478  16.933  65.438  1.00  0.00    -0.609 OA 
ENDROOT
BRANCH   9  12
HETATM   12  C   UNL     1     -10.696  15.021  66.819  1.00  0.00    -0.308 A  
HETATM   13  N   UNL     1     -11.170  14.866  68.088  1.00  0.00    -0.286 NA 
HETATM   14  C   UNL     1     -11.569  13.605  68.370  1.00  0.00    -0.342 A  
HETATM   15 CL   UNL     1     -12.104  13.390  69.989  1.00  0.00    -0.407 Cl 
HETATM   16  C   UNL     1     -11.513  12.540  67.452  1.00  0.00    -0.341 A  
HETATM   17  N   UNL     1     -11.977  11.253  67.731  1.00  0.00    -0.635 NA 
HETATM   18  N   UNL     1     -11.058  12.732  66.195  1.00  0.00    -0.282 NA 
HETATM   19  C   UNL     1     -10.638  13.979  65.876  1.00  0.00    -0.301 A  
HETATM   20  H2  UNL     1     -12.947  11.341  68.031  1.00  0.00     0.000 HD 
HETATM   21  H1  UNL     1     -11.936  10.480  67.066  1.00  0.00     0.000 HD 
HETATM   22  N   UNL     1     -10.282  14.162  64.543  1.00  0.00    -0.678 NA 
HETATM   23  H1  UNL     1     -10.240  13.407  63.859  1.00  0.00     0.000 HD 
HETATM   24  H2  UNL     1      -9.373  14.626  64.534  1.00  0.00     0.000 HD 
ENDBRANCH   9  12
TORSDOF 1
ENDMDL
MODEL       63
REMARK 921   NORMALIZED FREE ENERGY PREDICTED BY IDOCK:   -5.26 KCAL/MOL
REMARK 922        TOTAL FREE ENERGY PREDICTED BY IDOCK:   -5.95 KCAL/MOL
REMARK 923 INTER-LIGAND FREE ENERGY PREDICTED BY IDOCK:   -5.56 KCAL/MOL
REMARK 924 INTRA-LIGAND FREE ENERGY PREDICTED BY IDOCK:   -0.38 KCAL/MOL
REMARK 927      BINDING AFFINITY PREDICTED BY RF-SCORE:    0.00 PKD
ROOT
HETATM    1  N   UNL     1      -8.739  10.563  66.735  1.00  0.00    -0.131 NA 
HETATM    2  H2  UNL     1      -8.162  10.565  65.894  1.00  0.00     0.000 HD 
HETATM    3  C   UNL     1      -9.746   9.672  66.821  1.00  0.00    -0.197 C  
HETATM    4  H1  UNL     1      -8.524  11.237  67.471  1.00  0.00     0.000 HD 
HETATM    5  N   UNL     1     -10.015   8.824  65.897  1.00  0.00    -0.454 NA 
HETATM    6  N   UNL     1     -10.546   9.628  67.923  1.00  0.00    -0.247 N  
HETATM    7  H   UNL     1     -11.313   8.956  67.903  1.00  0.00     0.000 HD 
HETATM    8  H2  UNL     1      -9.438   8.825  65.055  1.00  0.00     0.000 HD 
HETATM    9  C   UNL     1     -10.428  10.398  69.066  1.00  0.00    -0.219 C  
HETATM   10  H1  UNL     1     -10.777   8.149  65.963  1.00  0.00     0.000 HD 
HETATM   11  O   UNL     1      -9.668  11.363  69.179  1.00  0.00    -0.074 OA 
ENDROOT
BRANCH   9  12
HETATM   12  C   UNL     1     -11.348  10.022  70.176  1.00  0.00    -0.291 A  
HETATM   13  N   UNL     1     -11.391   8.698  70.494  1.00  0.00    -0.248 NA 
HETATM   14  C   UNL     1     -12.303   8.396  71.446  1.00  0.00    -0.299 A  
HETATM   15 CL   UNL     1     -12.409   6.718  71.802  1.00  0.00    -0.394 Cl 
HETATM   16  C   UNL     1     -13.137   9.346  72.064  1.00  0.00    -0.433 A  
HETATM   17  N   UNL     1     -14.040   9.037  73.083  1.00  0.00    -1.223 NA 
HETATM   18  N   UNL     1     -13.054  10.655  71.741  1.00  0.00    -0.468 NA 
HETATM   19  C   UNL     1     -12.159  10.997  70.783  1.00  0.00    -0.366 A  
HETATM   20  H2  UNL     1     -13.512   8.574  73.823  1.00  0.00     0.000 HD 
HETATM   21  H1  UNL     1     -14.644   9.726  73.531  1.00  0.00     0.000 HD 
HETATM   22  N   UNL     1     -12.025  12.365  70.558  1.00  0.00    -0.520 NA 
HETATM   23  H1  UNL     1     -12.614  13.071  70.999  1.00  0.00     0.000 HD 
HETATM   24  H2  UNL     1     -12.083  12.511  69.551  1.00  0.00     0.000 HD 
ENDBRANCH   9  12
TORSDOF 1
ENDMDL
MODEL       64
REMARK 921   NORMALIZED FREE ENERGY PREDICTED BY IDOCK:   -5.23 KCAL/MOL
REMARK 922        TOTAL FREE ENERGY PREDICTED BY IDOCK:   -5.91 KCAL/MOL
REMARK 923 INTER-LIGAND FREE ENERGY PREDICTED BY IDOCK:   -5.55 KCAL/MOL
REMARK 924 INTRA-LIGAND FREE ENERGY PREDICTED BY IDOCK:   -0.37 KCAL/MOL
REMARK 927      BINDING AFFINITY PREDICTED BY RF-SCORE:    0.00 PKD
ROOT
HETATM    1  N   UNL     1      -8.278  11.130  67.183  1.00  0.00    -0.132 NA 
HETATM    2  H2  UNL     1      -7.597  11.569  66.563  1.00  0.00     0.000 HD 
HETATM    3  C   UNL     1      -8.412  11.613  68.435  1.00  0.00    -0.157 C  
HETATM    4  H1  UNL     1      -8.824  10.345  66.826  1.00  0.00     0.000 HD 
HETATM    5  N   UNL     1      -7.726  12.599  68.884  1.00  0.00    -0.319 NA 
HETATM    6  N   UNL     1      -9.306  11.063  69.303  1.00  0.00    -0.409 N  
HETATM    7  H   UNL     1      -9.326  11.452  70.245  1.00  0.00     0.000 HD 
HETATM    8  H2  UNL     1      -7.046  13.039  68.264  1.00  0.00     0.000 HD 
HETATM    9  C   UNL     1     -10.190  10.031  69.041  1.00  0.00    -0.203 C  
HETATM   10  H1  UNL     1      -7.829  12.965  69.831  1.00  0.00     0.000 HD 
HETATM   11  O   UNL     1     -10.175   9.346  68.016  1.00  0.00    -0.182 OA 
ENDROOT
BRANCH   9  12
HETATM   12  C   UNL     1     -11.161   9.742  70.133  1.00  0.00    -0.285 A  
HETATM   13  N   UNL     1     -11.243   8.442  70.532  1.00  0.00    -0.254 NA 
HETATM   14  C   UNL     1     -12.199   8.217  71.462  1.00  0.00    -0.301 A  
HETATM   15 CL   UNL     1     -12.351   6.567  71.919  1.00  0.00    -0.388 Cl 
HETATM   16  C   UNL     1     -13.038   9.219  71.984  1.00  0.00    -0.436 A  
HETATM   17  N   UNL     1     -13.986   8.991  72.983  1.00  0.00    -1.141 NA 
HETATM   18  N   UNL     1     -12.916  10.503  71.582  1.00  0.00    -0.447 NA 
HETATM   19  C   UNL     1     -11.977  10.767  70.643  1.00  0.00    -0.367 A  
HETATM   20  H2  UNL     1     -13.498   8.567  73.771  1.00  0.00     0.000 HD 
HETATM   21  H1  UNL     1     -14.595   9.717  73.361  1.00  0.00     0.000 HD 
HETATM   22  N   UNL     1     -11.807  12.116  70.338  1.00  0.00    -0.525 NA 
HETATM   23  H1  UNL     1     -12.399  12.859  70.708  1.00  0.00     0.000 HD 
HETATM   24  H2  UNL     1     -11.822  12.198  69.321  1.00  0.00     0.000 HD 
ENDBRANCH   9  12
TORSDOF 1
ENDMDL
MODEL       65
REMARK 921   NORMALIZED FREE ENERGY PREDICTED BY IDOCK:   -5.21 KCAL/MOL
REMARK 922        TOTAL FREE ENERGY PREDICTED BY IDOCK:   -5.88 KCAL/MOL
REMARK 923 INTER-LIGAND FREE ENERGY PREDICTED BY IDOCK:   -5.72 KCAL/MOL
REMARK 924 INTRA-LIGAND FREE ENERGY PREDICTED BY IDOCK:   -0.16 KCAL/MOL
REMARK 927      BINDING AFFINITY PREDICTED BY RF-SCORE:    0.00 PKD
ROOT
HETATM    1  N   UNL     1     -11.804  16.454  63.721  1.00  0.00    -1.377 NA 
HETATM    2  H2  UNL     1     -12.397  16.507  62.892  1.00  0.00     0.000 HD 
HETATM    3  C   UNL     1     -11.591  15.247  64.282  1.00  0.00    -0.197 C  
HETATM    4  H1  UNL     1     -11.402  17.318  64.085  1.00  0.00     0.000 HD 
HETATM    5  N   UNL     1     -12.097  14.161  63.825  1.00  0.00    -0.903 NA 
HETATM    6  N   UNL     1     -10.809  15.121  65.390  1.00  0.00    -0.357 N  
HETATM    7  H   UNL     1     -10.724  14.184  65.784  1.00  0.00     0.000 HD 
HETATM    8  H2  UNL     1     -12.689  14.213  62.995  1.00  0.00     0.000 HD 
HETATM    9  C   UNL     1     -10.117  16.130  66.037  1.00  0.00    -0.351 C  
HETATM   10  H1  UNL     1     -11.935  13.247  64.249  1.00  0.00     0.000 HD 
HETATM   11  O   UNL     1     -10.248  17.331  65.791  1.00  0.00    -0.533 OA 
ENDROOT
BRANCH   9  12
HETATM   12  C   UNL     1      -9.214  15.672  67.129  1.00  0.00    -0.212 A  
HETATM   13  N   UNL     1      -8.949  14.336  67.166  1.00  0.00    -0.215 NA 
HETATM   14  C   UNL     1      -8.197  13.959  68.226  1.00  0.00    -0.158 A  
HETATM   15 CL   UNL     1      -7.918  12.266  68.314  1.00  0.00    -0.157 Cl 
HETATM   16  C   UNL     1      -7.721  14.849  69.207  1.00  0.00    -0.166 A  
HETATM   17  N   UNL     1      -6.901  14.462  70.269  1.00  0.00    -0.399 NA 
HETATM   18  N   UNL     1      -7.984  16.171  69.129  1.00  0.00    -0.236 NA 
HETATM   19  C   UNL     1      -8.743  16.588  68.087  1.00  0.00    -0.194 A  
HETATM   20  H2  UNL     1      -6.089  13.994  69.868  1.00  0.00     0.000 HD 
HETATM   21  H1  UNL     1      -6.556  15.107  70.980  1.00  0.00     0.000 HD 
HETATM   22  N   UNL     1      -8.898  17.967  67.982  1.00  0.00    -0.268 NA 
HETATM   23  H1  UNL     1      -8.556  18.631  68.676  1.00  0.00     0.000 HD 
HETATM   24  H2  UNL     1      -9.893  18.150  67.856  1.00  0.00     0.000 HD 
ENDBRANCH   9  12
TORSDOF 1
ENDMDL
MODEL       66
REMARK 921   NORMALIZED FREE ENERGY PREDICTED BY IDOCK:   -5.20 KCAL/MOL
REMARK 922        TOTAL FREE ENERGY PREDICTED BY IDOCK:   -5.88 KCAL/MOL
REMARK 923 INTER-LIGAND FREE ENERGY PREDICTED BY IDOCK:   -5.56 KCAL/MOL
REMARK 924 INTRA-LIGAND FREE ENERGY PREDICTED BY IDOCK:   -0.32 KCAL/MOL
REMARK 927      BINDING AFFINITY PREDICTED BY RF-SCORE:    0.00 PKD
ROOT
HETATM    1  N   UNL     1      -8.098  16.403  67.847  1.00  0.00    -0.156 NA 
HETATM    2  H2  UNL     1      -7.438  16.873  68.466  1.00  0.00     0.000 HD 
HETATM    3  C   UNL     1      -7.701  15.277  67.220  1.00  0.00    -0.211 C  
HETATM    4  H1  UNL     1      -9.027  16.809  67.731  1.00  0.00     0.000 HD 
HETATM    5  N   UNL     1      -6.533  14.768  67.366  1.00  0.00    -0.310 NA 
HETATM    6  N   UNL     1      -8.543  14.611  66.382  1.00  0.00    -0.429 N  
HETATM    7  H   UNL     1      -8.162  13.790  65.912  1.00  0.00     0.000 HD 
HETATM    8  H2  UNL     1      -5.872  15.238  67.986  1.00  0.00     0.000 HD 
HETATM    9  C   UNL     1      -9.860  14.931  66.102  1.00  0.00    -0.308 C  
HETATM   10  H1  UNL     1      -6.232  13.916  66.893  1.00  0.00     0.000 HD 
HETATM   11  O   UNL     1     -10.411  15.976  66.452  1.00  0.00    -0.286 OA 
ENDROOT
BRANCH   9  12
HETATM   12  C   UNL     1     -10.586  13.931  65.270  1.00  0.00    -0.361 A  
HETATM   13  N   UNL     1      -9.816  13.166  64.446  1.00  0.00    -0.089 NA 
HETATM   14  C   UNL     1     -10.528  12.336  63.650  1.00  0.00    -0.450 A  
HETATM   15 CL   UNL     1      -9.564  11.418  62.562  1.00  0.00    -0.177 Cl 
HETATM   16  C   UNL     1     -11.933  12.255  63.658  1.00  0.00    -0.543 A  
HETATM   17  N   UNL     1     -12.660  11.358  62.872  1.00  0.00    -0.847 NA 
HETATM   18  N   UNL     1     -12.666  13.012  64.503  1.00  0.00    -0.701 NA 
HETATM   19  C   UNL     1     -11.989  13.864  65.310  1.00  0.00    -0.375 A  
HETATM   20  H2  UNL     1     -12.303  10.424  63.071  1.00  0.00     0.000 HD 
HETATM   21  H1  UNL     1     -13.678  11.299  62.878  1.00  0.00     0.000 HD 
HETATM   22  N   UNL     1     -12.771  14.544  66.240  1.00  0.00    -0.321 NA 
HETATM   23  H1  UNL     1     -13.789  14.495  66.269  1.00  0.00     0.000 HD 
HETATM   24  H2  UNL     1     -12.519  15.531  66.181  1.00  0.00     0.000 HD 
ENDBRANCH   9  12
TORSDOF 1
ENDMDL
MODEL       67
REMARK 921   NORMALIZED FREE ENERGY PREDICTED BY IDOCK:   -5.19 KCAL/MOL
REMARK 922        TOTAL FREE ENERGY PREDICTED BY IDOCK:   -5.87 KCAL/MOL
REMARK 923 INTER-LIGAND FREE ENERGY PREDICTED BY IDOCK:   -5.50 KCAL/MOL
REMARK 924 INTRA-LIGAND FREE ENERGY PREDICTED BY IDOCK:   -0.37 KCAL/MOL
REMARK 927      BINDING AFFINITY PREDICTED BY RF-SCORE:    0.00 PKD
ROOT
HETATM    1  N   UNL     1      -8.886  10.888  64.015  1.00  0.00    -0.341 NA 
HETATM    2  H2  UNL     1      -8.590  10.283  63.249  1.00  0.00     0.000 HD 
HETATM    3  C   UNL     1     -10.125  11.419  63.972  1.00  0.00    -0.320 C  
HETATM    4  H1  UNL     1      -8.230  11.061  64.777  1.00  0.00     0.000 HD 
HETATM    5  N   UNL     1     -10.949  11.201  63.014  1.00  0.00    -0.821 NA 
HETATM    6  N   UNL     1     -10.569  12.233  64.969  1.00  0.00    -0.277 N  
HETATM    7  H   UNL     1     -11.501  12.631  64.851  1.00  0.00     0.000 HD 
HETATM    8  H2  UNL     1     -10.653  10.595  62.248  1.00  0.00     0.000 HD 
HETATM    9  C   UNL     1      -9.891  12.576  66.125  1.00  0.00    -0.258 C  
HETATM   10  H1  UNL     1     -11.887  11.602  62.982  1.00  0.00     0.000 HD 
HETATM   11  O   UNL     1      -8.704  12.320  66.337  1.00  0.00    -0.139 OA 
ENDROOT
BRANCH   9  12
HETATM   12  C   UNL     1     -10.687  13.356  67.113  1.00  0.00    -0.264 A  
HETATM   13  N   UNL     1     -10.433  14.694  67.164  1.00  0.00    -0.266 NA 
HETATM   14  C   UNL     1     -11.116  15.342  68.135  1.00  0.00    -0.308 A  
HETATM   15 CL   UNL     1     -10.748  17.017  68.247  1.00  0.00    -0.373 Cl 
HETATM   16  C   UNL     1     -12.013  14.712  69.018  1.00  0.00    -0.283 A  
HETATM   17  N   UNL     1     -12.756  15.395  69.983  1.00  0.00    -0.631 NA 
HETATM   18  N   UNL     1     -12.259  13.387  68.927  1.00  0.00    -0.230 NA 
HETATM   19  C   UNL     1     -11.586  12.701  67.973  1.00  0.00    -0.343 A  
HETATM   20  H2  UNL     1     -13.274  16.129  69.501  1.00  0.00     0.000 HD 
HETATM   21  H1  UNL     1     -13.406  14.939  70.624  1.00  0.00     0.000 HD 
HETATM   22  N   UNL     1     -11.949  11.363  67.839  1.00  0.00    -0.644 NA 
HETATM   23  H1  UNL     1     -12.600  10.887  68.463  1.00  0.00     0.000 HD 
HETATM   24  H2  UNL     1     -11.088  10.816  67.831  1.00  0.00     0.000 HD 
ENDBRANCH   9  12
TORSDOF 1
ENDMDL
MODEL       68
REMARK 921   NORMALIZED FREE ENERGY PREDICTED BY IDOCK:   -5.19 KCAL/MOL
REMARK 922        TOTAL FREE ENERGY PREDICTED BY IDOCK:   -5.87 KCAL/MOL
REMARK 923 INTER-LIGAND FREE ENERGY PREDICTED BY IDOCK:   -5.65 KCAL/MOL
REMARK 924 INTRA-LIGAND FREE ENERGY PREDICTED BY IDOCK:   -0.22 KCAL/MOL
REMARK 927      BINDING AFFINITY PREDICTED BY RF-SCORE:    0.00 PKD
ROOT
HETATM    1  N   UNL     1      -9.985  19.839  68.020  1.00  0.00    -0.409 NA 
HETATM    2  H2  UNL     1      -9.740  20.818  67.871  1.00  0.00     0.000 HD 
HETATM    3  C   UNL     1     -10.370  19.104  66.958  1.00  0.00    -0.414 C  
HETATM    4  H1  UNL     1      -9.925  19.464  68.967  1.00  0.00     0.000 HD 
HETATM    5  N   UNL     1     -10.444  19.575  65.767  1.00  0.00    -0.483 NA 
HETATM    6  N   UNL     1     -10.707  17.792  67.103  1.00  0.00    -0.277 N  
HETATM    7  H   UNL     1     -11.027  17.308  66.264  1.00  0.00     0.000 HD 
HETATM    8  H2  UNL     1     -10.199  20.555  65.617  1.00  0.00     0.000 HD 
HETATM    9  C   UNL     1     -10.660  17.046  68.267  1.00  0.00    -0.372 C  
HETATM   10  H1  UNL     1     -10.735  19.019  64.963  1.00  0.00     0.000 HD 
HETATM   11  O   UNL     1     -10.461  17.520  69.388  1.00  0.00    -0.278 OA 
ENDROOT
BRANCH   9  12
HETATM   12  C   UNL     1     -10.935  15.593  68.095  1.00  0.00    -0.314 A  
HETATM   13  N   UNL     1     -11.517  15.230  66.917  1.00  0.00    -0.215 NA 
HETATM   14  C   UNL     1     -11.826  13.915  66.845  1.00  0.00    -0.423 A  
HETATM   15 CL   UNL     1     -12.621  13.465  65.389  1.00  0.00    -0.535 Cl 
HETATM   16  C   UNL     1     -11.575  12.992  67.877  1.00  0.00    -0.342 A  
HETATM   17  N   UNL     1     -11.847  11.626  67.776  1.00  0.00    -0.611 NA 
HETATM   18  N   UNL     1     -10.977  13.380  69.024  1.00  0.00    -0.249 NA 
HETATM   19  C   UNL     1     -10.661  14.692  69.139  1.00  0.00    -0.255 A  
HETATM   20  H2  UNL     1     -11.368  11.284  66.944  1.00  0.00     0.000 HD 
HETATM   21  H1  UNL     1     -11.666  10.956  68.524  1.00  0.00     0.000 HD 
HETATM   22  N   UNL     1      -9.948  15.032  70.287  1.00  0.00    -0.472 NA 
HETATM   23  H1  UNL     1      -9.750  14.379  71.044  1.00  0.00     0.000 HD 
HETATM   24  H2  UNL     1     -10.411  15.840  70.701  1.00  0.00     0.000 HD 
ENDBRANCH   9  12
TORSDOF 1
ENDMDL
MODEL       69
REMARK 921   NORMALIZED FREE ENERGY PREDICTED BY IDOCK:   -5.18 KCAL/MOL
REMARK 922        TOTAL FREE ENERGY PREDICTED BY IDOCK:   -5.86 KCAL/MOL
REMARK 923 INTER-LIGAND FREE ENERGY PREDICTED BY IDOCK:   -5.48 KCAL/MOL
REMARK 924 INTRA-LIGAND FREE ENERGY PREDICTED BY IDOCK:   -0.38 KCAL/MOL
REMARK 927      BINDING AFFINITY PREDICTED BY RF-SCORE:    0.00 PKD
ROOT
HETATM    1  N   UNL     1     -12.840  13.990  65.878  1.00  0.00    -0.464 NA 
HETATM    2  H2  UNL     1     -13.667  13.443  65.639  1.00  0.00     0.000 HD 
HETATM    3  C   UNL     1     -12.074  14.468  64.877  1.00  0.00    -0.416 C  
HETATM    4  H1  UNL     1     -12.632  14.147  66.865  1.00  0.00     0.000 HD 
HETATM    5  N   UNL     1     -12.335  14.270  63.638  1.00  0.00    -1.109 NA 
HETATM    6  N   UNL     1     -10.959  15.204  65.143  1.00  0.00    -0.392 N  
HETATM    7  H   UNL     1     -10.405  15.499  64.339  1.00  0.00     0.000 HD 
HETATM    8  H2  UNL     1     -13.162  13.723  63.397  1.00  0.00     0.000 HD 
HETATM    9  C   UNL     1     -10.497  15.593  66.389  1.00  0.00    -0.305 C  
HETATM   10  H1  UNL     1     -11.756  14.633  62.880  1.00  0.00     0.000 HD 
HETATM   11  O   UNL     1     -10.951  15.179  67.457  1.00  0.00    -0.294 OA 
ENDROOT
BRANCH   9  12
HETATM   12  C   UNL     1      -9.338  16.528  66.366  1.00  0.00    -0.287 A  
HETATM   13  N   UNL     1      -8.128  15.988  66.685  1.00  0.00    -0.267 NA 
HETATM   14  C   UNL     1      -7.125  16.894  66.736  1.00  0.00    -0.238 A  
HETATM   15 CL   UNL     1      -5.611  16.229  67.206  1.00  0.00    -0.158 Cl 
HETATM   16  C   UNL     1      -7.294  18.268  66.484  1.00  0.00    -0.233 A  
HETATM   17  N   UNL     1      -6.244  19.189  66.485  1.00  0.00    -0.173 NA 
HETATM   18  N   UNL     1      -8.503  18.767  66.148  1.00  0.00    -0.469 NA 
HETATM   19  C   UNL     1      -9.536  17.893  66.096  1.00  0.00    -0.178 A  
HETATM   20  H2  UNL     1      -5.541  18.846  65.831  1.00  0.00     0.000 HD 
HETATM   21  H1  UNL     1      -6.366  20.185  66.301  1.00  0.00     0.000 HD 
HETATM   22  N   UNL     1     -10.740  18.425  65.640  1.00  0.00    -0.497 NA 
HETATM   23  H1  UNL     1     -10.883  19.416  65.445  1.00  0.00     0.000 HD 
HETATM   24  H2  UNL     1     -11.464  18.141  66.300  1.00  0.00     0.000 HD 
ENDBRANCH   9  12
TORSDOF 1
ENDMDL
MODEL       70
REMARK 921   NORMALIZED FREE ENERGY PREDICTED BY IDOCK:   -5.18 KCAL/MOL
REMARK 922        TOTAL FREE ENERGY PREDICTED BY IDOCK:   -5.86 KCAL/MOL
REMARK 923 INTER-LIGAND FREE ENERGY PREDICTED BY IDOCK:   -5.84 KCAL/MOL
REMARK 924 INTRA-LIGAND FREE ENERGY PREDICTED BY IDOCK:   -0.02 KCAL/MOL
REMARK 927      BINDING AFFINITY PREDICTED BY RF-SCORE:    0.00 PKD
ROOT
HETATM    1  N   UNL     1     -13.707  12.754  72.544  1.00  0.00    -0.659 NA 
HETATM    2  H2  UNL     1     -14.230  12.509  73.384  1.00  0.00     0.000 HD 
HETATM    3  C   UNL     1     -13.097  11.768  71.857  1.00  0.00    -0.376 C  
HETATM    4  H1  UNL     1     -13.670  13.735  72.265  1.00  0.00     0.000 HD 
HETATM    5  N   UNL     1     -13.144  10.535  72.207  1.00  0.00    -0.527 NA 
HETATM    6  N   UNL     1     -12.385  12.041  70.728  1.00  0.00    -0.362 N  
HETATM    7  H   UNL     1     -11.917  11.252  70.282  1.00  0.00     0.000 HD 
HETATM    8  H2  UNL     1     -13.668  10.289  73.048  1.00  0.00     0.000 HD 
HETATM    9  C   UNL     1     -12.229  13.276  70.123  1.00  0.00    -0.306 C  
HETATM   10  H1  UNL     1     -12.683   9.788  71.687  1.00  0.00     0.000 HD 
HETATM   11  O   UNL     1     -12.584  14.345  70.624  1.00  0.00    -0.325 OA 
ENDROOT
BRANCH   9  12
HETATM   12  C   UNL     1     -11.527  13.248  68.810  1.00  0.00    -0.306 A  
HETATM   13  N   UNL     1     -10.830  14.372  68.480  1.00  0.00    -0.243 NA 
HETATM   14  C   UNL     1     -10.285  14.331  67.243  1.00  0.00    -0.252 A  
HETATM   15 CL   UNL     1      -9.462  15.773  66.798  1.00  0.00    -0.244 Cl 
HETATM   16  C   UNL     1     -10.412  13.240  66.365  1.00  0.00    -0.284 A  
HETATM   17  N   UNL     1      -9.802  13.182  65.110  1.00  0.00    -0.521 NA 
HETATM   18  N   UNL     1     -11.092  12.131  66.730  1.00  0.00    -0.283 NA 
HETATM   19  C   UNL     1     -11.662  12.137  67.959  1.00  0.00    -0.344 A  
HETATM   20  H2  UNL     1      -8.805  13.339  65.252  1.00  0.00     0.000 HD 
HETATM   21  H1  UNL     1      -9.894  12.390  64.473  1.00  0.00     0.000 HD 
HETATM   22  N   UNL     1     -12.258  10.938  68.341  1.00  0.00    -0.810 NA 
HETATM   23  H1  UNL     1     -12.356  10.132  67.724  1.00  0.00     0.000 HD 
HETATM   24  H2  UNL     1     -13.189  11.162  68.691  1.00  0.00     0.000 HD 
ENDBRANCH   9  12
TORSDOF 1
ENDMDL
MODEL       71
REMARK 921   NORMALIZED FREE ENERGY PREDICTED BY IDOCK:   -5.17 KCAL/MOL
REMARK 922        TOTAL FREE ENERGY PREDICTED BY IDOCK:   -5.85 KCAL/MOL
REMARK 923 INTER-LIGAND FREE ENERGY PREDICTED BY IDOCK:   -5.48 KCAL/MOL
REMARK 924 INTRA-LIGAND FREE ENERGY PREDICTED BY IDOCK:   -0.37 KCAL/MOL
REMARK 927      BINDING AFFINITY PREDICTED BY RF-SCORE:    0.00 PKD
ROOT
HETATM    1  N   UNL     1     -12.650   8.295  72.793  1.00  0.00    -0.610 NA 
HETATM    2  H2  UNL     1     -12.666   7.432  73.337  1.00  0.00     0.000 HD 
HETATM    3  C   UNL     1     -11.676   8.458  71.876  1.00  0.00    -0.334 C  
HETATM    4  H1  UNL     1     -13.372   8.994  72.971  1.00  0.00     0.000 HD 
HETATM    5  N   UNL     1     -10.768   7.580  71.652  1.00  0.00    -0.213 NA 
HETATM    6  N   UNL     1     -11.608   9.592  71.123  1.00  0.00    -0.336 N  
HETATM    7  H   UNL     1     -10.822   9.664  70.478  1.00  0.00     0.000 HD 
HETATM    8  H2  UNL     1     -10.784   6.716  72.195  1.00  0.00     0.000 HD 
HETATM    9  C   UNL     1     -12.494  10.655  71.143  1.00  0.00    -0.418 C  
HETATM   10  H1  UNL     1     -10.032   7.702  70.957  1.00  0.00     0.000 HD 
HETATM   11  O   UNL     1     -13.390  10.798  71.977  1.00  0.00    -0.447 OA 
ENDROOT
BRANCH   9  12
HETATM   12  C   UNL     1     -12.258  11.688  70.096  1.00  0.00    -0.288 A  
HETATM   13  N   UNL     1     -11.964  11.222  68.850  1.00  0.00    -0.462 NA 
HETATM   14  C   UNL     1     -11.673  12.196  67.959  1.00  0.00    -0.344 A  
HETATM   15 CL   UNL     1     -11.236  11.609  66.403  1.00  0.00    -0.366 Cl 
HETATM   16  C   UNL     1     -11.670  13.569  68.269  1.00  0.00    -0.359 A  
HETATM   17  N   UNL     1     -11.421  14.573  67.331  1.00  0.00    -0.352 NA 
HETATM   18  N   UNL     1     -11.987  14.000  69.509  1.00  0.00    -0.320 NA 
HETATM   19  C   UNL     1     -12.275  13.053  70.434  1.00  0.00    -0.310 A  
HETATM   20  H2  UNL     1     -12.079  14.439  66.564  1.00  0.00     0.000 HD 
HETATM   21  H1  UNL     1     -11.419  15.568  67.555  1.00  0.00     0.000 HD 
HETATM   22  N   UNL     1     -12.703  13.540  71.666  1.00  0.00    -0.320 NA 
HETATM   23  H1  UNL     1     -12.716  14.530  71.911  1.00  0.00     0.000 HD 
HETATM   24  H2  UNL     1     -12.162  13.060  72.385  1.00  0.00     0.000 HD 
ENDBRANCH   9  12
TORSDOF 1
ENDMDL
MODEL       72
REMARK 921   NORMALIZED FREE ENERGY PREDICTED BY IDOCK:   -5.16 KCAL/MOL
REMARK 922        TOTAL FREE ENERGY PREDICTED BY IDOCK:   -5.83 KCAL/MOL
REMARK 923 INTER-LIGAND FREE ENERGY PREDICTED BY IDOCK:   -6.04 KCAL/MOL
REMARK 924 INTRA-LIGAND FREE ENERGY PREDICTED BY IDOCK:    0.21 KCAL/MOL
REMARK 927      BINDING AFFINITY PREDICTED BY RF-SCORE:    0.00 PKD
ROOT
HETATM    1  N   UNL     1     -12.495  11.474  63.040  1.00  0.00    -0.914 NA 
HETATM    2  H2  UNL     1     -12.701  11.033  62.144  1.00  0.00     0.000 HD 
HETATM    3  C   UNL     1     -11.221  11.468  63.481  1.00  0.00    -0.322 C  
HETATM    4  H1  UNL     1     -13.265  11.897  63.560  1.00  0.00     0.000 HD 
HETATM    5  N   UNL     1     -10.255  10.936  62.828  1.00  0.00    -0.763 NA 
HETATM    6  N   UNL     1     -10.893  12.043  64.671  1.00  0.00    -0.296 N  
HETATM    7  H   UNL     1      -9.918  11.966  64.961  1.00  0.00     0.000 HD 
HETATM    8  H2  UNL     1     -10.460  10.495  61.930  1.00  0.00     0.000 HD 
HETATM    9  C   UNL     1     -11.742  12.720  65.529  1.00  0.00    -0.395 C  
HETATM   10  H1  UNL     1      -9.291  10.932  63.161  1.00  0.00     0.000 HD 
HETATM   11  O   UNL     1     -12.968  12.753  65.410  1.00  0.00    -0.587 OA 
ENDROOT
BRANCH   9  12
HETATM   12  C   UNL     1     -11.072  13.381  66.684  1.00  0.00    -0.295 A  
HETATM   13  N   UNL     1     -11.886  14.066  67.535  1.00  0.00    -0.387 NA 
HETATM   14  C   UNL     1     -11.223  14.721  68.515  1.00  0.00    -0.276 A  
HETATM   15 CL   UNL     1     -12.240  15.642  69.550  1.00  0.00    -0.309 Cl 
HETATM   16  C   UNL     1      -9.823  14.705  68.661  1.00  0.00    -0.224 A  
HETATM   17  N   UNL     1      -9.147  15.338  69.706  1.00  0.00    -0.432 NA 
HETATM   18  N   UNL     1      -9.046  13.997  67.813  1.00  0.00    -0.184 NA 
HETATM   19  C   UNL     1      -9.673  13.336  66.810  1.00  0.00    -0.258 A  
HETATM   20  H2  UNL     1      -9.545  14.989  70.578  1.00  0.00     0.000 HD 
HETATM   21  H1  UNL     1      -8.133  15.327  69.812  1.00  0.00     0.000 HD 
HETATM   22  N   UNL     1      -8.850  12.531  66.026  1.00  0.00    -0.401 NA 
HETATM   23  H1  UNL     1      -7.835  12.499  66.118  1.00  0.00     0.000 HD 
HETATM   24  H2  UNL     1      -9.057  12.749  65.051  1.00  0.00     0.000 HD 
ENDBRANCH   9  12
TORSDOF 1
ENDMDL
MODEL       73
REMARK 921   NORMALIZED FREE ENERGY PREDICTED BY IDOCK:   -5.15 KCAL/MOL
REMARK 922        TOTAL FREE ENERGY PREDICTED BY IDOCK:   -5.83 KCAL/MOL
REMARK 923 INTER-LIGAND FREE ENERGY PREDICTED BY IDOCK:   -5.63 KCAL/MOL
REMARK 924 INTRA-LIGAND FREE ENERGY PREDICTED BY IDOCK:   -0.20 KCAL/MOL
REMARK 927      BINDING AFFINITY PREDICTED BY RF-SCORE:    0.00 PKD
ROOT
HETATM    1  N   UNL     1     -12.534  15.174  63.866  1.00  0.00    -1.018 NA 
HETATM    2  H2  UNL     1     -13.178  14.612  63.308  1.00  0.00     0.000 HD 
HETATM    3  C   UNL     1     -12.122  14.687  65.054  1.00  0.00    -0.349 C  
HETATM    4  H1  UNL     1     -12.234  16.077  63.497  1.00  0.00     0.000 HD 
HETATM    5  N   UNL     1     -12.499  13.553  65.517  1.00  0.00    -0.477 NA 
HETATM    6  N   UNL     1     -11.263  15.397  65.838  1.00  0.00    -0.243 N  
HETATM    7  H   UNL     1     -11.025  14.987  66.741  1.00  0.00     0.000 HD 
HETATM    8  H2  UNL     1     -13.142  12.990  64.959  1.00  0.00     0.000 HD 
HETATM    9  C   UNL     1     -10.679  16.615  65.538  1.00  0.00    -0.223 C  
HETATM   10  H1  UNL     1     -12.186  13.184  66.416  1.00  0.00     0.000 HD 
HETATM   11  O   UNL     1     -10.991  17.317  64.574  1.00  0.00    -0.937 OA 
ENDROOT
BRANCH   9  12
HETATM   12  C   UNL     1      -9.656  17.080  66.516  1.00  0.00    -0.278 A  
HETATM   13  N   UNL     1      -9.101  16.116  67.303  1.00  0.00    -0.201 NA 
HETATM   14  C   UNL     1      -8.245  16.599  68.232  1.00  0.00    -0.200 A  
HETATM   15 CL   UNL     1      -7.593  15.395  69.272  1.00  0.00    -0.200 Cl 
HETATM   16  C   UNL     1      -7.941  17.965  68.386  1.00  0.00    -0.298 A  
HETATM   17  N   UNL     1      -7.015  18.452  69.311  1.00  0.00    -0.220 NA 
HETATM   18  N   UNL     1      -8.492  18.893  67.574  1.00  0.00    -0.272 NA 
HETATM   19  C   UNL     1      -9.364  18.450  66.637  1.00  0.00    -0.305 A  
HETATM   20  H2  UNL     1      -6.136  17.965  69.143  1.00  0.00     0.000 HD 
HETATM   21  H1  UNL     1      -6.795  19.442  69.422  1.00  0.00     0.000 HD 
HETATM   22  N   UNL     1      -9.825  19.420  65.751  1.00  0.00    -0.411 NA 
HETATM   23  H1  UNL     1      -9.613  20.414  65.838  1.00  0.00     0.000 HD 
HETATM   24  H2  UNL     1     -10.840  19.333  65.709  1.00  0.00     0.000 HD 
ENDBRANCH   9  12
TORSDOF 1
ENDMDL
MODEL       74
REMARK 921   NORMALIZED FREE ENERGY PREDICTED BY IDOCK:   -5.15 KCAL/MOL
REMARK 922        TOTAL FREE ENERGY PREDICTED BY IDOCK:   -5.83 KCAL/MOL
REMARK 923 INTER-LIGAND FREE ENERGY PREDICTED BY IDOCK:   -5.43 KCAL/MOL
REMARK 924 INTRA-LIGAND FREE ENERGY PREDICTED BY IDOCK:   -0.39 KCAL/MOL
REMARK 927      BINDING AFFINITY PREDICTED BY RF-SCORE:    0.00 PKD
ROOT
HETATM    1  N   UNL     1      -8.905  20.395  66.803  1.00  0.00    -0.531 NA 
HETATM    2  H2  UNL     1      -8.379  21.264  66.707  1.00  0.00     0.000 HD 
HETATM    3  C   UNL     1      -8.416  19.282  66.222  1.00  0.00    -0.319 C  
HETATM    4  H1  UNL     1      -9.775  20.412  67.335  1.00  0.00     0.000 HD 
HETATM    5  N   UNL     1      -7.322  19.260  65.553  1.00  0.00    -0.447 NA 
HETATM    6  N   UNL     1      -9.080  18.096  66.320  1.00  0.00    -0.233 N  
HETATM    7  H   UNL     1      -8.674  17.304  65.821  1.00  0.00     0.000 HD 
HETATM    8  H2  UNL     1      -6.795  20.129  65.457  1.00  0.00     0.000 HD 
HETATM    9  C   UNL     1     -10.246  17.852  67.023  1.00  0.00    -0.358 C  
HETATM   10  H1  UNL     1      -6.952  18.417  65.114  1.00  0.00     0.000 HD 
HETATM   11  O   UNL     1     -10.946  18.729  67.532  1.00  0.00    -0.407 OA 
ENDROOT
BRANCH   9  12
HETATM   12  C   UNL     1     -10.657  16.422  67.083  1.00  0.00    -0.276 A  
HETATM   13  N   UNL     1     -10.700  15.762  65.892  1.00  0.00    -0.325 NA 
HETATM   14  C   UNL     1     -11.163  14.494  65.988  1.00  0.00    -0.337 A  
HETATM   15 CL   UNL     1     -11.284  13.680  64.479  1.00  0.00    -0.379 Cl 
HETATM   16  C   UNL     1     -11.564  13.894  67.197  1.00  0.00    -0.364 A  
HETATM   17  N   UNL     1     -11.989  12.568  67.298  1.00  0.00    -0.505 NA 
HETATM   18  N   UNL     1     -11.487  14.570  68.364  1.00  0.00    -0.286 NA 
HETATM   19  C   UNL     1     -11.039  15.846  68.308  1.00  0.00    -0.345 A  
HETATM   20  H2  UNL     1     -11.254  11.984  66.901  1.00  0.00     0.000 HD 
HETATM   21  H1  UNL     1     -12.280  12.133  68.174  1.00  0.00     0.000 HD 
HETATM   22  N   UNL     1     -10.870  16.470  69.542  1.00  0.00    -0.323 NA 
HETATM   23  H1  UNL     1     -11.148  16.052  70.430  1.00  0.00     0.000 HD 
HETATM   24  H2  UNL     1     -11.325  17.381  69.484  1.00  0.00     0.000 HD 
ENDBRANCH   9  12
TORSDOF 1
ENDMDL
MODEL       75
REMARK 921   NORMALIZED FREE ENERGY PREDICTED BY IDOCK:   -5.09 KCAL/MOL
REMARK 922        TOTAL FREE ENERGY PREDICTED BY IDOCK:   -5.76 KCAL/MOL
REMARK 923 INTER-LIGAND FREE ENERGY PREDICTED BY IDOCK:   -5.40 KCAL/MOL
REMARK 924 INTRA-LIGAND FREE ENERGY PREDICTED BY IDOCK:   -0.36 KCAL/MOL
REMARK 927      BINDING AFFINITY PREDICTED BY RF-SCORE:    0.00 PKD
ROOT
HETATM    1  N   UNL     1      -6.749   9.189  65.216  1.00  0.00    -0.068 NA 
HETATM    2  H2  UNL     1      -5.842   8.729  65.136  1.00  0.00     0.000 HD 
HETATM    3  C   UNL     1      -6.778  10.516  65.451  1.00  0.00    -0.078 C  
HETATM    4  H1  UNL     1      -7.591   8.621  65.113  1.00  0.00     0.000 HD 
HETATM    5  N   UNL     1      -5.720  11.229  65.581  1.00  0.00    -0.485 NA 
HETATM    6  N   UNL     1      -7.963  11.178  65.566  1.00  0.00    -0.367 N  
HETATM    7  H   UNL     1      -7.909  12.173  65.785  1.00  0.00     0.000 HD 
HETATM    8  H2  UNL     1      -4.812  10.770  65.501  1.00  0.00     0.000 HD 
HETATM    9  C   UNL     1      -9.230  10.644  65.418  1.00  0.00    -0.193 C  
HETATM   10  H1  UNL     1      -5.741  12.234  65.758  1.00  0.00     0.000 HD 
HETATM   11  O   UNL     1      -9.470   9.439  65.322  1.00  0.00    -0.265 OA 
ENDROOT
BRANCH   9  12
HETATM   12  C   UNL     1     -10.338  11.639  65.442  1.00  0.00    -0.267 A  
HETATM   13  N   UNL     1     -10.545  12.277  66.628  1.00  0.00    -0.225 NA 
HETATM   14  C   UNL     1     -11.615  13.104  66.623  1.00  0.00    -0.356 A  
HETATM   15 CL   UNL     1     -11.919  13.858  68.137  1.00  0.00    -0.403 Cl 
HETATM   16  C   UNL     1     -12.448  13.303  65.507  1.00  0.00    -0.474 A  
HETATM   17  N   UNL     1     -13.520  14.198  65.491  1.00  0.00    -0.616 NA 
HETATM   18  N   UNL     1     -12.203  12.672  64.338  1.00  0.00    -0.419 NA 
HETATM   19  C   UNL     1     -11.145  11.826  64.305  1.00  0.00    -0.355 A  
HETATM   20  H2  UNL     1     -13.154  15.111  65.760  1.00  0.00     0.000 HD 
HETATM   21  H1  UNL     1     -14.124  14.343  64.682  1.00  0.00     0.000 HD 
HETATM   22  N   UNL     1     -10.861  11.281  63.056  1.00  0.00    -0.826 NA 
HETATM   23  H1  UNL     1     -11.446  11.417  62.232  1.00  0.00     0.000 HD 
HETATM   24  H2  UNL     1     -10.751  10.276  63.184  1.00  0.00     0.000 HD 
ENDBRANCH   9  12
TORSDOF 1
ENDMDL
MODEL       76
REMARK 921   NORMALIZED FREE ENERGY PREDICTED BY IDOCK:   -5.09 KCAL/MOL
REMARK 922        TOTAL FREE ENERGY PREDICTED BY IDOCK:   -5.76 KCAL/MOL
REMARK 923 INTER-LIGAND FREE ENERGY PREDICTED BY IDOCK:   -5.38 KCAL/MOL
REMARK 924 INTRA-LIGAND FREE ENERGY PREDICTED BY IDOCK:   -0.38 KCAL/MOL
REMARK 927      BINDING AFFINITY PREDICTED BY RF-SCORE:    0.00 PKD
ROOT
HETATM    1  N   UNL     1      -6.640  13.949  70.232  1.00  0.00    -0.395 NA 
HETATM    2  H2  UNL     1      -5.926  13.778  70.940  1.00  0.00     0.000 HD 
HETATM    3  C   UNL     1      -6.602  15.112  69.551  1.00  0.00    -0.163 C  
HETATM    4  H1  UNL     1      -7.347  13.232  70.074  1.00  0.00     0.000 HD 
HETATM    5  N   UNL     1      -5.713  16.014  69.749  1.00  0.00    -0.139 NA 
HETATM    6  N   UNL     1      -7.532  15.390  68.594  1.00  0.00    -0.123 N  
HETATM    7  H   UNL     1      -7.467  16.304  68.148  1.00  0.00     0.000 HD 
HETATM    8  H2  UNL     1      -4.998  15.843  70.457  1.00  0.00     0.000 HD 
HETATM    9  C   UNL     1      -8.555  14.563  68.165  1.00  0.00    -0.169 C  
HETATM   10  H1  UNL     1      -5.684  16.893  69.233  1.00  0.00     0.000 HD 
HETATM   11  O   UNL     1      -8.871  13.506  68.716  1.00  0.00    -0.052 OA 
ENDROOT
BRANCH   9  12
HETATM   12  C   UNL     1      -9.322  15.068  66.993  1.00  0.00    -0.224 A  
HETATM   13  N   UNL     1      -9.581  16.406  66.979  1.00  0.00    -0.232 NA 
HETATM   14  C   UNL     1     -10.354  16.800  65.941  1.00  0.00    -0.328 A  
HETATM   15 CL   UNL     1     -10.739  18.475  65.957  1.00  0.00    -0.353 Cl 
HETATM   16  C   UNL     1     -10.852  15.926  64.956  1.00  0.00    -0.426 A  
HETATM   17  N   UNL     1     -11.604  16.347  63.858  1.00  0.00    -1.602 NA 
HETATM   18  N   UNL     1     -10.558  14.608  64.987  1.00  0.00    -0.418 NA 
HETATM   19  C   UNL     1      -9.794  14.172  66.018  1.00  0.00    -0.309 A  
HETATM   20  H2  UNL     1     -11.061  17.064  63.378  1.00  0.00     0.000 HD 
HETATM   21  H1  UNL     1     -11.964  15.714  63.144  1.00  0.00     0.000 HD 
HETATM   22  N   UNL     1      -9.423  12.831  65.954  1.00  0.00    -0.447 NA 
HETATM   23  H1  UNL     1      -9.766  12.182  65.247  1.00  0.00     0.000 HD 
HETATM   24  H2  UNL     1      -9.626  12.418  66.864  1.00  0.00     0.000 HD 
ENDBRANCH   9  12
TORSDOF 1
ENDMDL
MODEL       77
REMARK 921   NORMALIZED FREE ENERGY PREDICTED BY IDOCK:   -5.06 KCAL/MOL
REMARK 922        TOTAL FREE ENERGY PREDICTED BY IDOCK:   -5.73 KCAL/MOL
REMARK 923 INTER-LIGAND FREE ENERGY PREDICTED BY IDOCK:   -5.33 KCAL/MOL
REMARK 924 INTRA-LIGAND FREE ENERGY PREDICTED BY IDOCK:   -0.39 KCAL/MOL
REMARK 927      BINDING AFFINITY PREDICTED BY RF-SCORE:    0.00 PKD
ROOT
HETATM    1  N   UNL     1      -7.477  10.282  68.117  1.00  0.00    -0.085 NA 
HETATM    2  H2  UNL     1      -6.625  10.608  67.659  1.00  0.00     0.000 HD 
HETATM    3  C   UNL     1      -7.701  10.652  69.394  1.00  0.00    -0.129 C  
HETATM    4  H1  UNL     1      -8.117   9.691  67.586  1.00  0.00     0.000 HD 
HETATM    5  N   UNL     1      -6.896  11.395  70.062  1.00  0.00    -0.420 NA 
HETATM    6  N   UNL     1      -8.822  10.244  70.052  1.00  0.00    -0.359 N  
HETATM    7  H   UNL     1      -8.907  10.528  71.028  1.00  0.00     0.000 HD 
HETATM    8  H2  UNL     1      -6.045  11.722  69.604  1.00  0.00     0.000 HD 
HETATM    9  C   UNL     1      -9.857   9.485  69.536  1.00  0.00    -0.193 C  
HETATM   10  H1  UNL     1      -7.066  11.675  71.027  1.00  0.00     0.000 HD 
HETATM   11  O   UNL     1      -9.828   8.925  68.438  1.00  0.00    -0.164 OA 
ENDROOT
BRANCH   9  12
HETATM   12  C   UNL     1     -11.031   9.325  70.439  1.00  0.00    -0.255 A  
HETATM   13  N   UNL     1     -11.711  10.466  70.744  1.00  0.00    -0.347 NA 
HETATM   14  C   UNL     1     -12.711  10.281  71.636  1.00  0.00    -0.456 A  
HETATM   15 CL   UNL     1     -13.528  11.729  72.075  1.00  0.00    -0.461 Cl 
HETATM   16  C   UNL     1     -13.037   9.036  72.204  1.00  0.00    -0.435 A  
HETATM   17  N   UNL     1     -14.105   8.842  73.082  1.00  0.00    -1.225 NA 
HETATM   18  N   UNL     1     -12.357   7.920  71.864  1.00  0.00    -0.304 NA 
HETATM   19  C   UNL     1     -11.339   8.065  70.981  1.00  0.00    -0.273 A  
HETATM   20  H2  UNL     1     -14.944   9.190  72.619  1.00  0.00     0.000 HD 
HETATM   21  H1  UNL     1     -14.341   7.939  73.494  1.00  0.00     0.000 HD 
HETATM   22  N   UNL     1     -10.736   6.878  70.572  1.00  0.00    -0.227 NA 
HETATM   23  H1  UNL     1     -10.960   5.964  70.965  1.00  0.00     0.000 HD 
HETATM   24  H2  UNL     1      -9.728   7.005  70.664  1.00  0.00     0.000 HD 
ENDBRANCH   9  12
TORSDOF 1
ENDMDL
MODEL       78
REMARK 921   NORMALIZED FREE ENERGY PREDICTED BY IDOCK:   -5.05 KCAL/MOL
REMARK 922        TOTAL FREE ENERGY PREDICTED BY IDOCK:   -5.72 KCAL/MOL
REMARK 923 INTER-LIGAND FREE ENERGY PREDICTED BY IDOCK:   -5.56 KCAL/MOL
REMARK 924 INTRA-LIGAND FREE ENERGY PREDICTED BY IDOCK:   -0.16 KCAL/MOL
REMARK 927      BINDING AFFINITY PREDICTED BY RF-SCORE:    0.00 PKD
ROOT
HETATM    1  N   UNL     1     -12.781  15.078  63.735  1.00  0.00    -0.799 NA 
HETATM    2  H2  UNL     1     -13.581  14.777  63.178  1.00  0.00     0.000 HD 
HETATM    3  C   UNL     1     -12.268  14.219  64.639  1.00  0.00    -0.454 C  
HETATM    4  H1  UNL     1     -12.409  16.016  63.580  1.00  0.00     0.000 HD 
HETATM    5  N   UNL     1     -12.735  13.041  64.832  1.00  0.00    -0.706 NA 
HETATM    6  N   UNL     1     -11.200  14.573  65.408  1.00  0.00    -0.329 N  
HETATM    7  H   UNL     1     -10.890  13.889  66.098  1.00  0.00     0.000 HD 
HETATM    8  H2  UNL     1     -13.535  12.739  64.275  1.00  0.00     0.000 HD 
HETATM    9  C   UNL     1     -10.493  15.760  65.352  1.00  0.00    -0.414 C  
HETATM   10  H1  UNL     1     -12.347  12.391  65.516  1.00  0.00     0.000 HD 
HETATM   11  O   UNL     1     -10.841  16.746  64.698  1.00  0.00    -0.835 OA 
ENDROOT
BRANCH   9  12
HETATM   12  C   UNL     1      -9.272  15.806  66.204  1.00  0.00    -0.350 A  
HETATM   13  N   UNL     1      -8.831  14.608  66.682  1.00  0.00    -0.240 NA 
HETATM   14  C   UNL     1      -7.775  14.712  67.520  1.00  0.00    -0.195 A  
HETATM   15 CL   UNL     1      -7.258  13.211  68.178  1.00  0.00    -0.103 Cl 
HETATM   16  C   UNL     1      -7.172  15.933  67.876  1.00  0.00    -0.136 A  
HETATM   17  N   UNL     1      -6.048  16.029  68.699  1.00  0.00    -0.106 NA 
HETATM   18  N   UNL     1      -7.620  17.101  67.367  1.00  0.00    -0.163 NA 
HETATM   19  C   UNL     1      -8.684  17.040  66.531  1.00  0.00    -0.263 A  
HETATM   20  H2  UNL     1      -5.322  15.443  68.288  1.00  0.00     0.000 HD 
HETATM   21  H1  UNL     1      -5.610  16.914  68.957  1.00  0.00     0.000 HD 
HETATM   22  N   UNL     1      -9.045  18.250  65.943  1.00  0.00    -0.467 NA 
HETATM   23  H1  UNL     1      -8.618  19.145  66.180  1.00  0.00     0.000 HD 
HETATM   24  H2  UNL     1     -10.052  18.355  66.065  1.00  0.00     0.000 HD 
ENDBRANCH   9  12
TORSDOF 1
ENDMDL
MODEL       79
REMARK 921   NORMALIZED FREE ENERGY PREDICTED BY IDOCK:   -5.04 KCAL/MOL
REMARK 922        TOTAL FREE ENERGY PREDICTED BY IDOCK:   -5.71 KCAL/MOL
REMARK 923 INTER-LIGAND FREE ENERGY PREDICTED BY IDOCK:   -5.33 KCAL/MOL
REMARK 924 INTRA-LIGAND FREE ENERGY PREDICTED BY IDOCK:   -0.39 KCAL/MOL
REMARK 927      BINDING AFFINITY PREDICTED BY RF-SCORE:    0.00 PKD
ROOT
HETATM    1  N   UNL     1     -12.681  14.617  72.915  1.00  0.00    -0.413 NA 
HETATM    2  H2  UNL     1     -12.786  15.143  73.782  1.00  0.00     0.000 HD 
HETATM    3  C   UNL     1     -12.159  15.245  71.842  1.00  0.00    -0.381 C  
HETATM    4  H1  UNL     1     -12.976  13.640  72.902  1.00  0.00     0.000 HD 
HETATM    5  N   UNL     1     -11.788  16.472  71.859  1.00  0.00    -0.652 NA 
HETATM    6  N   UNL     1     -11.997  14.588  70.660  1.00  0.00    -0.301 N  
HETATM    7  H   UNL     1     -11.634  15.136  69.880  1.00  0.00     0.000 HD 
HETATM    8  H2  UNL     1     -11.893  16.999  72.727  1.00  0.00     0.000 HD 
HETATM    9  C   UNL     1     -12.272  13.256  70.406  1.00  0.00    -0.332 C  
HETATM   10  H1  UNL     1     -11.392  16.947  71.047  1.00  0.00     0.000 HD 
HETATM   11  O   UNL     1     -12.868  12.509  71.184  1.00  0.00    -0.320 OA 
ENDROOT
BRANCH   9  12
HETATM   12  C   UNL     1     -11.847  12.771  69.063  1.00  0.00    -0.297 A  
HETATM   13  N   UNL     1     -12.121  13.596  68.015  1.00  0.00    -0.334 NA 
HETATM   14  C   UNL     1     -11.795  13.074  66.811  1.00  0.00    -0.388 A  
HETATM   15 CL   UNL     1     -12.202  14.083  65.480  1.00  0.00    -0.424 Cl 
HETATM   16  C   UNL     1     -11.223  11.800  66.636  1.00  0.00    -0.323 A  
HETATM   17  N   UNL     1     -10.840  11.287  65.395  1.00  0.00    -0.231 NA 
HETATM   18  N   UNL     1     -10.944  11.015  67.699  1.00  0.00    -0.255 NA 
HETATM   19  C   UNL     1     -11.265  11.499  68.923  1.00  0.00    -0.247 A  
HETATM   20  H2  UNL     1     -10.203  11.963  64.974  1.00  0.00     0.000 HD 
HETATM   21  H1  UNL     1     -10.425  10.364  65.269  1.00  0.00     0.000 HD 
HETATM   22  N   UNL     1     -10.861  10.709  69.997  1.00  0.00    -0.429 NA 
HETATM   23  H1  UNL     1     -10.439   9.787  69.895  1.00  0.00     0.000 HD 
HETATM   24  H2  UNL     1     -11.667  10.605  70.613  1.00  0.00     0.000 HD 
ENDBRANCH   9  12
TORSDOF 1
ENDMDL
MODEL       80
REMARK 921   NORMALIZED FREE ENERGY PREDICTED BY IDOCK:   -5.03 KCAL/MOL
REMARK 922        TOTAL FREE ENERGY PREDICTED BY IDOCK:   -5.69 KCAL/MOL
REMARK 923 INTER-LIGAND FREE ENERGY PREDICTED BY IDOCK:   -5.32 KCAL/MOL
REMARK 924 INTRA-LIGAND FREE ENERGY PREDICTED BY IDOCK:   -0.38 KCAL/MOL
REMARK 927      BINDING AFFINITY PREDICTED BY RF-SCORE:    0.00 PKD
ROOT
HETATM    1  N   UNL     1     -13.243   9.294  72.782  1.00  0.00    -0.595 NA 
HETATM    2  H2  UNL     1     -13.423   8.463  73.345  1.00  0.00     0.000 HD 
HETATM    3  C   UNL     1     -12.113   9.340  72.048  1.00  0.00    -0.336 C  
HETATM    4  H1  UNL     1     -13.927  10.051  72.802  1.00  0.00     0.000 HD 
HETATM    5  N   UNL     1     -11.254   8.389  72.022  1.00  0.00    -0.309 NA 
HETATM    6  N   UNL     1     -11.825  10.426  71.279  1.00  0.00    -0.332 N  
HETATM    7  H   UNL     1     -10.934  10.409  70.781  1.00  0.00     0.000 HD 
HETATM    8  H2  UNL     1     -11.434   7.556  72.585  1.00  0.00     0.000 HD 
HETATM    9  C   UNL     1     -12.612  11.550  71.100  1.00  0.00    -0.359 C  
HETATM   10  H1  UNL     1     -10.399   8.422  71.466  1.00  0.00     0.000 HD 
HETATM   11  O   UNL     1     -13.626  11.799  71.755  1.00  0.00    -0.184 OA 
ENDROOT
BRANCH   9  12
HETATM   12  C   UNL     1     -12.115  12.510  70.076  1.00  0.00    -0.266 A  
HETATM   13  N   UNL     1     -11.964  13.800  70.488  1.00  0.00    -0.319 NA 
HETATM   14  C   UNL     1     -11.595  14.648  69.501  1.00  0.00    -0.310 A  
HETATM   15 CL   UNL     1     -11.470  16.288  70.002  1.00  0.00    -0.285 Cl 
HETATM   16  C   UNL     1     -11.380  14.254  68.167  1.00  0.00    -0.288 A  
HETATM   17  N   UNL     1     -10.947  15.123  67.164  1.00  0.00    -0.322 NA 
HETATM   18  N   UNL     1     -11.517  12.962  67.796  1.00  0.00    -0.301 NA 
HETATM   19  C   UNL     1     -11.895  12.083  68.754  1.00  0.00    -0.302 A  
HETATM   20  H2  UNL     1     -10.085  15.558  67.493  1.00  0.00     0.000 HD 
HETATM   21  H1  UNL     1     -10.791  14.838  66.197  1.00  0.00     0.000 HD 
HETATM   22  N   UNL     1     -11.918  10.748  68.358  1.00  0.00    -0.809 NA 
HETATM   23  H1  UNL     1     -11.759  10.439  67.400  1.00  0.00     0.000 HD 
HETATM   24  H2  UNL     1     -12.814  10.362  68.654  1.00  0.00     0.000 HD 
ENDBRANCH   9  12
TORSDOF 1
ENDMDL
MODEL       81
REMARK 921   NORMALIZED FREE ENERGY PREDICTED BY IDOCK:   -5.03 KCAL/MOL
REMARK 922        TOTAL FREE ENERGY PREDICTED BY IDOCK:   -5.69 KCAL/MOL
REMARK 923 INTER-LIGAND FREE ENERGY PREDICTED BY IDOCK:   -5.32 KCAL/MOL
REMARK 924 INTRA-LIGAND FREE ENERGY PREDICTED BY IDOCK:   -0.38 KCAL/MOL
REMARK 927      BINDING AFFINITY PREDICTED BY RF-SCORE:    0.00 PKD
ROOT
HETATM    1  N   UNL     1     -11.439   9.385  71.509  1.00  0.00    -0.376 NA 
HETATM    2  H2  UNL     1     -11.692   8.942  72.392  1.00  0.00     0.000 HD 
HETATM    3  C   UNL     1     -12.159  10.446  71.093  1.00  0.00    -0.386 C  
HETATM    4  H1  UNL     1     -10.653   9.003  70.982  1.00  0.00     0.000 HD 
HETATM    5  N   UNL     1     -13.147  10.926  71.755  1.00  0.00    -0.480 NA 
HETATM    6  N   UNL     1     -11.864  11.074  69.921  1.00  0.00    -0.321 N  
HETATM    7  H   UNL     1     -12.475  11.844  69.650  1.00  0.00     0.000 HD 
HETATM    8  H2  UNL     1     -13.401  10.484  72.639  1.00  0.00     0.000 HD 
HETATM    9  C   UNL     1     -10.822  10.778  69.060  1.00  0.00    -0.235 C  
HETATM   10  H1  UNL     1     -13.692  11.730  71.441  1.00  0.00     0.000 HD 
HETATM   11  O   UNL     1     -10.103   9.781  69.156  1.00  0.00    -0.173 OA 
ENDROOT
BRANCH   9  12
HETATM   12  C   UNL     1     -10.646  11.735  67.933  1.00  0.00    -0.201 A  
HETATM   13  N   UNL     1     -11.696  11.842  67.070  1.00  0.00    -0.594 NA 
HETATM   14  C   UNL     1     -11.455  12.655  66.017  1.00  0.00    -0.368 A  
HETATM   15 CL   UNL     1     -12.750  12.739  64.891  1.00  0.00    -0.544 Cl 
HETATM   16  C   UNL     1     -10.241  13.339  65.815  1.00  0.00    -0.292 A  
HETATM   17  N   UNL     1     -10.017  14.220  64.754  1.00  0.00    -0.557 NA 
HETATM   18  N   UNL     1      -9.228  13.229  66.701  1.00  0.00    -0.242 NA 
HETATM   19  C   UNL     1      -9.427  12.414  67.765  1.00  0.00    -0.199 A  
HETATM   20  H2  UNL     1     -10.757  14.921  64.783  1.00  0.00     0.000 HD 
HETATM   21  H1  UNL     1      -9.138  14.715  64.608  1.00  0.00     0.000 HD 
HETATM   22  N   UNL     1      -8.404  12.414  68.710  1.00  0.00    -0.347 NA 
HETATM   23  H1  UNL     1      -7.520  12.907  68.588  1.00  0.00     0.000 HD 
HETATM   24  H2  UNL     1      -8.180  11.440  68.911  1.00  0.00     0.000 HD 
ENDBRANCH   9  12
TORSDOF 1
ENDMDL
MODEL       82
REMARK 921   NORMALIZED FREE ENERGY PREDICTED BY IDOCK:   -4.99 KCAL/MOL
REMARK 922        TOTAL FREE ENERGY PREDICTED BY IDOCK:   -5.66 KCAL/MOL
REMARK 923 INTER-LIGAND FREE ENERGY PREDICTED BY IDOCK:   -5.27 KCAL/MOL
REMARK 924 INTRA-LIGAND FREE ENERGY PREDICTED BY IDOCK:   -0.39 KCAL/MOL
REMARK 927      BINDING AFFINITY PREDICTED BY RF-SCORE:    0.00 PKD
ROOT
HETATM    1  N   UNL     1      -8.554  19.464  68.656  1.00  0.00    -0.363 NA 
HETATM    2  H2  UNL     1      -7.984  20.163  69.134  1.00  0.00     0.000 HD 
HETATM    3  C   UNL     1      -7.972  18.307  68.282  1.00  0.00    -0.300 C  
HETATM    4  H1  UNL     1      -9.537  19.677  68.483  1.00  0.00     0.000 HD 
HETATM    5  N   UNL     1      -6.737  18.041  68.499  1.00  0.00    -0.217 NA 
HETATM    6  N   UNL     1      -8.688  17.342  67.640  1.00  0.00    -0.219 N  
HETATM    7  H   UNL     1      -8.174  16.510  67.352  1.00  0.00     0.000 HD 
HETATM    8  H2  UNL     1      -6.166  18.739  68.978  1.00  0.00     0.000 HD 
HETATM    9  C   UNL     1     -10.038  17.372  67.339  1.00  0.00    -0.321 C  
HETATM   10  H1  UNL     1      -6.296  17.165  68.217  1.00  0.00     0.000 HD 
HETATM   11  O   UNL     1     -10.757  18.365  67.466  1.00  0.00    -0.424 OA 
ENDROOT
BRANCH   9  12
HETATM   12  C   UNL     1     -10.584  16.106  66.774  1.00  0.00    -0.277 A  
HETATM   13  N   UNL     1     -10.623  15.040  67.622  1.00  0.00    -0.262 NA 
HETATM   14  C   UNL     1     -11.043  13.895  67.038  1.00  0.00    -0.301 A  
HETATM   15 CL   UNL     1     -11.029  12.533  68.086  1.00  0.00    -0.242 Cl 
HETATM   16  C   UNL     1     -11.413  13.794  65.684  1.00  0.00    -0.310 A  
HETATM   17  N   UNL     1     -11.897  12.622  65.100  1.00  0.00    -0.374 NA 
HETATM   18  N   UNL     1     -11.384  14.875  64.875  1.00  0.00    -0.400 NA 
HETATM   19  C   UNL     1     -10.958  16.040  65.420  1.00  0.00    -0.253 A  
HETATM   20  H2  UNL     1     -12.697  12.317  65.654  1.00  0.00     0.000 HD 
HETATM   21  H1  UNL     1     -12.166  12.549  64.118  1.00  0.00     0.000 HD 
HETATM   22  N   UNL     1     -11.048  17.152  64.587  1.00  0.00    -1.007 NA 
HETATM   23  H1  UNL     1     -11.319  17.104  63.605  1.00  0.00     0.000 HD 
HETATM   24  H2  UNL     1     -10.148  17.631  64.626  1.00  0.00     0.000 HD 
ENDBRANCH   9  12
TORSDOF 1
ENDMDL
MODEL       83
REMARK 921   NORMALIZED FREE ENERGY PREDICTED BY IDOCK:   -4.99 KCAL/MOL
REMARK 922        TOTAL FREE ENERGY PREDICTED BY IDOCK:   -5.66 KCAL/MOL
REMARK 923 INTER-LIGAND FREE ENERGY PREDICTED BY IDOCK:   -5.26 KCAL/MOL
REMARK 924 INTRA-LIGAND FREE ENERGY PREDICTED BY IDOCK:   -0.40 KCAL/MOL
REMARK 927      BINDING AFFINITY PREDICTED BY RF-SCORE:    0.00 PKD
ROOT
HETATM    1  N   UNL     1      -6.809  11.554  68.646  1.00  0.00    -0.071 NA 
HETATM    2  H2  UNL     1      -6.014  11.080  69.075  1.00  0.00     0.000 HD 
HETATM    3  C   UNL     1      -6.570  12.445  67.663  1.00  0.00    -0.131 C  
HETATM    4  H1  UNL     1      -7.746  11.331  68.982  1.00  0.00     0.000 HD 
HETATM    5  N   UNL     1      -5.392  12.726  67.240  1.00  0.00    -0.331 NA 
HETATM    6  N   UNL     1      -7.595  13.106  67.057  1.00  0.00    -0.383 N  
HETATM    7  H   UNL     1      -7.339  13.795  66.350  1.00  0.00     0.000 HD 
HETATM    8  H2  UNL     1      -4.597  12.251  67.669  1.00  0.00     0.000 HD 
HETATM    9  C   UNL     1      -8.948  12.942  67.299  1.00  0.00    -0.208 C  
HETATM   10  H1  UNL     1      -5.211  13.400  66.496  1.00  0.00     0.000 HD 
HETATM   11  O   UNL     1      -9.412  12.281  68.230  1.00  0.00    -0.210 OA 
ENDROOT
BRANCH   9  12
HETATM   12  C   UNL     1      -9.847  13.685  66.373  1.00  0.00    -0.296 A  
HETATM   13  N   UNL     1     -10.651  12.923  65.579  1.00  0.00    -0.275 NA 
HETATM   14  C   UNL     1     -11.382  13.640  64.696  1.00  0.00    -0.366 A  
HETATM   15 CL   UNL     1     -12.346  12.679  63.647  1.00  0.00    -0.576 Cl 
HETATM   16  C   UNL     1     -11.335  15.043  64.594  1.00  0.00    -0.352 A  
HETATM   17  N   UNL     1     -12.133  15.782  63.718  1.00  0.00    -1.173 NA 
HETATM   18  N   UNL     1     -10.544  15.771  65.411  1.00  0.00    -0.398 NA 
HETATM   19  C   UNL     1      -9.786  15.088  66.303  1.00  0.00    -0.285 A  
HETATM   20  H2  UNL     1     -13.102  15.526  63.904  1.00  0.00     0.000 HD 
HETATM   21  H1  UNL     1     -12.099  16.799  63.644  1.00  0.00     0.000 HD 
HETATM   22  N   UNL     1      -9.070  15.878  67.199  1.00  0.00    -0.204 NA 
HETATM   23  H1  UNL     1      -9.026  16.895  67.148  1.00  0.00     0.000 HD 
HETATM   24  H2  UNL     1      -8.109  15.536  67.201  1.00  0.00     0.000 HD 
ENDBRANCH   9  12
TORSDOF 1
ENDMDL
MODEL       84
REMARK 921   NORMALIZED FREE ENERGY PREDICTED BY IDOCK:   -4.93 KCAL/MOL
REMARK 922        TOTAL FREE ENERGY PREDICTED BY IDOCK:   -5.60 KCAL/MOL
REMARK 923 INTER-LIGAND FREE ENERGY PREDICTED BY IDOCK:   -5.23 KCAL/MOL
REMARK 924 INTRA-LIGAND FREE ENERGY PREDICTED BY IDOCK:   -0.37 KCAL/MOL
REMARK 927      BINDING AFFINITY PREDICTED BY RF-SCORE:    0.00 PKD
ROOT
HETATM    1  N   UNL     1     -10.070   9.433  66.260  1.00  0.00    -0.277 NA 
HETATM    2  H2  UNL     1      -9.715   9.074  65.374  1.00  0.00     0.000 HD 
HETATM    3  C   UNL     1     -10.646  10.652  66.274  1.00  0.00    -0.161 C  
HETATM    4  H1  UNL     1      -9.973   8.851  67.093  1.00  0.00     0.000 HD 
HETATM    5  N   UNL     1     -10.768  11.383  65.228  1.00  0.00    -0.283 NA 
HETATM    6  N   UNL     1     -11.137  11.178  67.431  1.00  0.00    -0.292 N  
HETATM    7  H   UNL     1     -11.522  12.121  67.376  1.00  0.00     0.000 HD 
HETATM    8  H2  UNL     1     -10.413  11.024  64.341  1.00  0.00     0.000 HD 
HETATM    9  C   UNL     1     -11.168  10.568  68.673  1.00  0.00    -0.270 C  
HETATM   10  H1  UNL     1     -11.204  12.305  65.238  1.00  0.00     0.000 HD 
HETATM   11  O   UNL     1     -10.596   9.510  68.942  1.00  0.00    -0.215 OA 
ENDROOT
BRANCH   9  12
HETATM   12  C   UNL     1     -11.910  11.320  69.724  1.00  0.00    -0.364 A  
HETATM   13  N   UNL     1     -11.814  12.678  69.667  1.00  0.00    -0.320 NA 
HETATM   14  C   UNL     1     -12.431  13.310  70.692  1.00  0.00    -0.298 A  
HETATM   15 CL   UNL     1     -12.255  15.020  70.662  1.00  0.00    -0.348 Cl 
HETATM   16  C   UNL     1     -13.114  12.646  71.727  1.00  0.00    -0.360 A  
HETATM   17  N   UNL     1     -13.795  13.305  72.753  1.00  0.00    -0.701 NA 
HETATM   18  N   UNL     1     -13.209  11.299  71.741  1.00  0.00    -0.436 NA 
HETATM   19  C   UNL     1     -12.595  10.628  70.737  1.00  0.00    -0.386 A  
HETATM   20  H2  UNL     1     -14.459  13.942  72.313  1.00  0.00     0.000 HD 
HETATM   21  H1  UNL     1     -14.291  12.824  73.503  1.00  0.00     0.000 HD 
HETATM   22  N   UNL     1     -12.809   9.252  70.727  1.00  0.00    -0.516 NA 
HETATM   23  H1  UNL     1     -13.306   8.750  71.462  1.00  0.00     0.000 HD 
HETATM   24  H2  UNL     1     -11.898   8.806  70.622  1.00  0.00     0.000 HD 
ENDBRANCH   9  12
TORSDOF 1
ENDMDL
MODEL       85
REMARK 921   NORMALIZED FREE ENERGY PREDICTED BY IDOCK:   -4.93 KCAL/MOL
REMARK 922        TOTAL FREE ENERGY PREDICTED BY IDOCK:   -5.59 KCAL/MOL
REMARK 923 INTER-LIGAND FREE ENERGY PREDICTED BY IDOCK:   -5.27 KCAL/MOL
REMARK 924 INTRA-LIGAND FREE ENERGY PREDICTED BY IDOCK:   -0.32 KCAL/MOL
REMARK 927      BINDING AFFINITY PREDICTED BY RF-SCORE:    0.00 PKD
ROOT
HETATM    1  N   UNL     1      -9.505  11.668  63.768  1.00  0.00    -0.478 NA 
HETATM    2  H2  UNL     1      -9.273  11.614  62.776  1.00  0.00     0.000 HD 
HETATM    3  C   UNL     1     -10.804  11.618  64.127  1.00  0.00    -0.372 C  
HETATM    4  H1  UNL     1      -8.742  11.757  64.440  1.00  0.00     0.000 HD 
HETATM    5  N   UNL     1     -11.762  11.506  63.283  1.00  0.00    -0.867 NA 
HETATM    6  N   UNL     1     -11.167  11.686  65.438  1.00  0.00    -0.246 N  
HETATM    7  H   UNL     1     -12.168  11.683  65.634  1.00  0.00     0.000 HD 
HETATM    8  H2  UNL     1     -11.531  11.452  62.290  1.00  0.00     0.000 HD 
HETATM    9  C   UNL     1     -10.322  11.758  66.532  1.00  0.00    -0.223 C  
HETATM   10  H1  UNL     1     -12.745  11.468  63.555  1.00  0.00     0.000 HD 
HETATM   11  O   UNL     1      -9.106  11.941  66.459  1.00  0.00    -0.204 OA 
ENDROOT
BRANCH   9  12
HETATM   12  C   UNL     1     -10.998  11.660  67.856  1.00  0.00    -0.225 A  
HETATM   13  N   UNL     1     -11.309  12.843  68.457  1.00  0.00    -0.267 NA 
HETATM   14  C   UNL     1     -11.840  12.702  69.693  1.00  0.00    -0.311 A  
HETATM   15 CL   UNL     1     -12.171  14.192  70.483  1.00  0.00    -0.408 Cl 
HETATM   16  C   UNL     1     -12.061  11.459  70.316  1.00  0.00    -0.374 A  
HETATM   17  N   UNL     1     -12.658  11.318  71.570  1.00  0.00    -0.346 NA 
HETATM   18  N   UNL     1     -11.761  10.304  69.683  1.00  0.00    -0.200 NA 
HETATM   19  C   UNL     1     -11.217  10.404  68.446  1.00  0.00    -0.258 A  
HETATM   20  H2  UNL     1     -13.556  11.799  71.532  1.00  0.00     0.000 HD 
HETATM   21  H1  UNL     1     -12.818  10.417  72.021  1.00  0.00     0.000 HD 
HETATM   22  N   UNL     1     -11.025   9.193  67.785  1.00  0.00    -0.492 NA 
HETATM   23  H1  UNL     1     -11.184   8.282  68.213  1.00  0.00     0.000 HD 
HETATM   24  H2  UNL     1     -10.071   9.194  67.426  1.00  0.00     0.000 HD 
ENDBRANCH   9  12
TORSDOF 1
ENDMDL
MODEL       86
REMARK 921   NORMALIZED FREE ENERGY PREDICTED BY IDOCK:   -4.93 KCAL/MOL
REMARK 922        TOTAL FREE ENERGY PREDICTED BY IDOCK:   -5.59 KCAL/MOL
REMARK 923 INTER-LIGAND FREE ENERGY PREDICTED BY IDOCK:   -5.42 KCAL/MOL
REMARK 924 INTRA-LIGAND FREE ENERGY PREDICTED BY IDOCK:   -0.16 KCAL/MOL
REMARK 927      BINDING AFFINITY PREDICTED BY RF-SCORE:    0.00 PKD
ROOT
HETATM    1  N   UNL     1     -12.998  14.683  73.343  1.00  0.00    -0.563 NA 
HETATM    2  H2  UNL     1     -13.125  15.237  74.190  1.00  0.00     0.000 HD 
HETATM    3  C   UNL     1     -12.351  15.241  72.300  1.00  0.00    -0.370 C  
HETATM    4  H1  UNL     1     -13.369  13.732  73.327  1.00  0.00     0.000 HD 
HETATM    5  N   UNL     1     -11.886  16.435  72.321  1.00  0.00    -0.594 NA 
HETATM    6  N   UNL     1     -12.157  14.544  71.146  1.00  0.00    -0.331 N  
HETATM    7  H   UNL     1     -11.695  15.042  70.385  1.00  0.00     0.000 HD 
HETATM    8  H2  UNL     1     -12.012  16.991  73.168  1.00  0.00     0.000 HD 
HETATM    9  C   UNL     1     -12.518  13.231  70.898  1.00  0.00    -0.342 C  
HETATM   10  H1  UNL     1     -11.396  16.858  71.532  1.00  0.00     0.000 HD 
HETATM   11  O   UNL     1     -13.227  12.553  71.644  1.00  0.00    -0.399 OA 
ENDROOT
BRANCH   9  12
HETATM   12  C   UNL     1     -12.036  12.681  69.600  1.00  0.00    -0.213 A  
HETATM   13  N   UNL     1     -11.678  11.366  69.604  1.00  0.00    -0.314 NA 
HETATM   14  C   UNL     1     -11.165  10.938  68.429  1.00  0.00    -0.285 A  
HETATM   15 CL   UNL     1     -10.649   9.299  68.450  1.00  0.00    -0.250 Cl 
HETATM   16  C   UNL     1     -11.010  11.757  67.294  1.00  0.00    -0.267 A  
HETATM   17  N   UNL     1     -10.530  11.296  66.067  1.00  0.00    -0.251 NA 
HETATM   18  N   UNL     1     -11.396  13.052  67.317  1.00  0.00    -0.290 NA 
HETATM   19  C   UNL     1     -11.905  13.522  68.481  1.00  0.00    -0.362 A  
HETATM   20  H2  UNL     1     -11.115  10.508  65.791  1.00  0.00     0.000 HD 
HETATM   21  H1  UNL     1     -10.419  11.890  65.245  1.00  0.00     0.000 HD 
HETATM   22  N   UNL     1     -12.392  14.826  68.431  1.00  0.00    -0.593 NA 
HETATM   23  H1  UNL     1     -12.297  15.435  67.619  1.00  0.00     0.000 HD 
HETATM   24  H2  UNL     1     -11.999  15.325  69.228  1.00  0.00     0.000 HD 
ENDBRANCH   9  12
TORSDOF 1
ENDMDL
MODEL       87
REMARK 921   NORMALIZED FREE ENERGY PREDICTED BY IDOCK:   -4.92 KCAL/MOL
REMARK 922        TOTAL FREE ENERGY PREDICTED BY IDOCK:   -5.59 KCAL/MOL
REMARK 923 INTER-LIGAND FREE ENERGY PREDICTED BY IDOCK:   -5.19 KCAL/MOL
REMARK 924 INTRA-LIGAND FREE ENERGY PREDICTED BY IDOCK:   -0.40 KCAL/MOL
REMARK 927      BINDING AFFINITY PREDICTED BY RF-SCORE:    0.00 PKD
ROOT
HETATM    1  N   UNL     1      -8.247   9.988  66.887  1.00  0.00    -0.120 NA 
HETATM    2  H2  UNL     1      -7.636   9.929  66.072  1.00  0.00     0.000 HD 
HETATM    3  C   UNL     1      -9.449   9.379  66.834  1.00  0.00    -0.156 C  
HETATM    4  H1  UNL     1      -7.918  10.505  67.702  1.00  0.00     0.000 HD 
HETATM    5  N   UNL     1      -9.862   8.729  65.809  1.00  0.00    -0.458 NA 
HETATM    6  N   UNL     1     -10.302   9.428  67.894  1.00  0.00    -0.212 N  
HETATM    7  H   UNL     1     -11.210   8.980  67.770  1.00  0.00     0.000 HD 
HETATM    8  H2  UNL     1      -9.251   8.669  64.993  1.00  0.00     0.000 HD 
HETATM    9  C   UNL     1     -10.068  10.020  69.122  1.00  0.00    -0.208 C  
HETATM   10  H1  UNL     1     -10.771   8.267  65.769  1.00  0.00     0.000 HD 
HETATM   11  O   UNL     1      -9.100  10.742  69.372  1.00  0.00    -0.102 OA 
ENDROOT
BRANCH   9  12
HETATM   12  C   UNL     1     -11.121   9.779  70.148  1.00  0.00    -0.285 A  
HETATM   13  N   UNL     1     -11.796  10.880  70.582  1.00  0.00    -0.347 NA 
HETATM   14  C   UNL     1     -12.678  10.622  71.574  1.00  0.00    -0.444 A  
HETATM   15 CL   UNL     1     -13.483  12.018  72.172  1.00  0.00    -0.499 Cl 
HETATM   16  C   UNL     1     -12.895   9.342  72.119  1.00  0.00    -0.401 A  
HETATM   17  N   UNL     1     -13.846   9.073  73.105  1.00  0.00    -1.177 NA 
HETATM   18  N   UNL     1     -12.225   8.268  71.651  1.00  0.00    -0.300 NA 
HETATM   19  C   UNL     1     -11.323   8.487  70.663  1.00  0.00    -0.241 A  
HETATM   20  H2  UNL     1     -14.744   9.408  72.759  1.00  0.00     0.000 HD 
HETATM   21  H1  UNL     1     -14.003   8.145  73.500  1.00  0.00     0.000 HD 
HETATM   22  N   UNL     1     -10.735   7.341  70.133  1.00  0.00    -0.239 NA 
HETATM   23  H1  UNL     1     -10.882   6.404  70.507  1.00  0.00     0.000 HD 
HETATM   24  H2  UNL     1      -9.728   7.502  70.113  1.00  0.00     0.000 HD 
ENDBRANCH   9  12
TORSDOF 1
ENDMDL
MODEL       88
REMARK 921   NORMALIZED FREE ENERGY PREDICTED BY IDOCK:   -4.91 KCAL/MOL
REMARK 922        TOTAL FREE ENERGY PREDICTED BY IDOCK:   -5.57 KCAL/MOL
REMARK 923 INTER-LIGAND FREE ENERGY PREDICTED BY IDOCK:   -5.19 KCAL/MOL
REMARK 924 INTRA-LIGAND FREE ENERGY PREDICTED BY IDOCK:   -0.38 KCAL/MOL
REMARK 927      BINDING AFFINITY PREDICTED BY RF-SCORE:    0.00 PKD
ROOT
HETATM    1  N   UNL     1      -7.786  18.506  65.630  1.00  0.00    -0.483 NA 
HETATM    2  H2  UNL     1      -7.160  19.305  65.531  1.00  0.00     0.000 HD 
HETATM    3  C   UNL     1      -7.271  17.338  66.064  1.00  0.00    -0.184 C  
HETATM    4  H1  UNL     1      -8.771  18.630  65.396  1.00  0.00     0.000 HD 
HETATM    5  N   UNL     1      -6.033  17.182  66.358  1.00  0.00    -0.270 NA 
HETATM    6  N   UNL     1      -8.063  16.240  66.214  1.00  0.00    -0.298 N  
HETATM    7  H   UNL     1      -7.600  15.380  66.507  1.00  0.00     0.000 HD 
HETATM    8  H2  UNL     1      -5.406  17.982  66.259  1.00  0.00     0.000 HD 
HETATM    9  C   UNL     1      -9.430  16.168  66.010  1.00  0.00    -0.339 C  
HETATM   10  H1  UNL     1      -5.643  16.298  66.687  1.00  0.00     0.000 HD 
HETATM   11  O   UNL     1     -10.104  17.063  65.497  1.00  0.00    -0.577 OA 
ENDROOT
BRANCH   9  12
HETATM   12  C   UNL     1     -10.057  14.876  66.405  1.00  0.00    -0.284 A  
HETATM   13  N   UNL     1     -10.784  14.244  65.441  1.00  0.00    -0.323 NA 
HETATM   14  C   UNL     1     -11.405  13.123  65.874  1.00  0.00    -0.311 A  
HETATM   15 CL   UNL     1     -12.378  12.361  64.679  1.00  0.00    -0.526 Cl 
HETATM   16  C   UNL     1     -11.317  12.635  67.191  1.00  0.00    -0.319 A  
HETATM   17  N   UNL     1     -11.915  11.448  67.618  1.00  0.00    -0.626 NA 
HETATM   18  N   UNL     1     -10.569  13.273  68.117  1.00  0.00    -0.242 NA 
HETATM   19  C   UNL     1      -9.940  14.407  67.726  1.00  0.00    -0.226 A  
HETATM   20  H2  UNL     1     -11.588  10.706  67.000  1.00  0.00     0.000 HD 
HETATM   21  H1  UNL     1     -11.852  11.094  68.572  1.00  0.00     0.000 HD 
HETATM   22  N   UNL     1      -9.094  14.973  68.676  1.00  0.00    -0.184 NA 
HETATM   23  H1  UNL     1      -9.009  14.633  69.633  1.00  0.00     0.000 HD 
HETATM   24  H2  UNL     1      -9.320  15.966  68.728  1.00  0.00     0.000 HD 
ENDBRANCH   9  12
TORSDOF 1
ENDMDL
MODEL       89
REMARK 921   NORMALIZED FREE ENERGY PREDICTED BY IDOCK:   -4.91 KCAL/MOL
REMARK 922        TOTAL FREE ENERGY PREDICTED BY IDOCK:   -5.57 KCAL/MOL
REMARK 923 INTER-LIGAND FREE ENERGY PREDICTED BY IDOCK:   -5.19 KCAL/MOL
REMARK 924 INTRA-LIGAND FREE ENERGY PREDICTED BY IDOCK:   -0.38 KCAL/MOL
REMARK 927      BINDING AFFINITY PREDICTED BY RF-SCORE:    0.00 PKD
ROOT
HETATM    1  N   UNL     1     -12.375  14.573  63.815  1.00  0.00    -1.087 NA 
HETATM    2  H2  UNL     1     -12.898  14.916  63.009  1.00  0.00     0.000 HD 
HETATM    3  C   UNL     1     -12.260  13.241  63.986  1.00  0.00    -0.410 C  
HETATM    4  H1  UNL     1     -11.964  15.256  64.453  1.00  0.00     0.000 HD 
HETATM    5  N   UNL     1     -12.776  12.383  63.185  1.00  0.00    -0.760 NA 
HETATM    6  N   UNL     1     -11.572  12.731  65.046  1.00  0.00    -0.322 N  
HETATM    7  H   UNL     1     -11.560  11.715  65.135  1.00  0.00     0.000 HD 
HETATM    8  H2  UNL     1     -13.299  12.726  62.378  1.00  0.00     0.000 HD 
HETATM    9  C   UNL     1     -10.889  13.445  66.014  1.00  0.00    -0.274 C  
HETATM   10  H1  UNL     1     -12.688  11.375  63.314  1.00  0.00     0.000 HD 
HETATM   11  O   UNL     1     -10.948  14.669  66.145  1.00  0.00    -0.317 OA 
ENDROOT
BRANCH   9  12
HETATM   12  C   UNL     1     -10.095  12.616  66.964  1.00  0.00    -0.224 A  
HETATM   13  N   UNL     1     -10.706  11.491  67.431  1.00  0.00    -0.220 NA 
HETATM   14  C   UNL     1      -9.980  10.821  68.355  1.00  0.00    -0.164 A  
HETATM   15 CL   UNL     1     -10.775   9.439  68.996  1.00  0.00    -0.232 Cl 
HETATM   16  C   UNL     1      -8.710  11.230  68.803  1.00  0.00    -0.103 A  
HETATM   17  N   UNL     1      -7.943  10.506  69.717  1.00  0.00    -0.363 NA 
HETATM   18  N   UNL     1      -8.123  12.339  68.303  1.00  0.00    -0.161 NA 
HETATM   19  C   UNL     1      -8.823  13.044  67.383  1.00  0.00    -0.203 A  
HETATM   20  H2  UNL     1      -7.841   9.562  69.345  1.00  0.00     0.000 HD 
HETATM   21  H1  UNL     1      -7.022  10.802  70.042  1.00  0.00     0.000 HD 
HETATM   22  N   UNL     1      -8.140  14.115  66.812  1.00  0.00    -0.348 NA 
HETATM   23  H1  UNL     1      -7.217  14.425  67.116  1.00  0.00     0.000 HD 
HETATM   24  H2  UNL     1      -8.759  14.925  66.857  1.00  0.00     0.000 HD 
ENDBRANCH   9  12
TORSDOF 1
ENDMDL
MODEL       90
REMARK 921   NORMALIZED FREE ENERGY PREDICTED BY IDOCK:   -4.90 KCAL/MOL
REMARK 922        TOTAL FREE ENERGY PREDICTED BY IDOCK:   -5.56 KCAL/MOL
REMARK 923 INTER-LIGAND FREE ENERGY PREDICTED BY IDOCK:   -5.23 KCAL/MOL
REMARK 924 INTRA-LIGAND FREE ENERGY PREDICTED BY IDOCK:   -0.33 KCAL/MOL
REMARK 927      BINDING AFFINITY PREDICTED BY RF-SCORE:    0.00 PKD
ROOT
HETATM    1  N   UNL     1     -11.077   6.840  68.756  1.00  0.00    -0.491 NA 
HETATM    2  H2  UNL     1     -11.242   5.909  69.139  1.00  0.00     0.000 HD 
HETATM    3  C   UNL     1     -11.027   6.983  67.417  1.00  0.00    -0.266 C  
HETATM    4  H1  UNL     1     -10.958   7.617  69.406  1.00  0.00     0.000 HD 
HETATM    5  N   UNL     1     -11.177   6.006  66.600  1.00  0.00    -0.742 NA 
HETATM    6  N   UNL     1     -10.810   8.204  66.854  1.00  0.00    -0.373 N  
HETATM    7  H   UNL     1     -10.745   8.232  65.836  1.00  0.00     0.000 HD 
HETATM    8  H2  UNL     1     -11.342   5.074  66.983  1.00  0.00     0.000 HD 
HETATM    9  C   UNL     1     -10.670   9.411  67.516  1.00  0.00    -0.222 C  
HETATM   10  H1  UNL     1     -11.140   6.114  65.586  1.00  0.00     0.000 HD 
HETATM   11  O   UNL     1     -10.555   9.523  68.738  1.00  0.00    -0.215 OA 
ENDROOT
BRANCH   9  12
HETATM   12  C   UNL     1     -10.601  10.609  66.633  1.00  0.00    -0.214 A  
HETATM   13  N   UNL     1     -10.104  10.401  65.381  1.00  0.00    -0.290 NA 
HETATM   14  C   UNL     1      -9.980  11.532  64.650  1.00  0.00    -0.261 A  
HETATM   15 CL   UNL     1      -9.291  11.284  63.095  1.00  0.00    -0.317 Cl 
HETATM   16  C   UNL     1     -10.329  12.813  65.119  1.00  0.00    -0.295 A  
HETATM   17  N   UNL     1     -10.249  13.969  64.342  1.00  0.00    -0.711 NA 
HETATM   18  N   UNL     1     -10.839  12.981  66.358  1.00  0.00    -0.276 NA 
HETATM   19  C   UNL     1     -10.969  11.873  67.126  1.00  0.00    -0.269 A  
HETATM   20  H2  UNL     1     -10.791  13.801  63.495  1.00  0.00     0.000 HD 
HETATM   21  H1  UNL     1     -10.502  14.898  64.682  1.00  0.00     0.000 HD 
HETATM   22  N   UNL     1     -11.600  12.072  68.352  1.00  0.00    -0.290 NA 
HETATM   23  H1  UNL     1     -11.867  12.989  68.709  1.00  0.00     0.000 HD 
HETATM   24  H2  UNL     1     -11.020  11.629  69.064  1.00  0.00     0.000 HD 
ENDBRANCH   9  12
TORSDOF 1
ENDMDL
MODEL       91
REMARK 921   NORMALIZED FREE ENERGY PREDICTED BY IDOCK:   -4.89 KCAL/MOL
REMARK 922        TOTAL FREE ENERGY PREDICTED BY IDOCK:   -5.55 KCAL/MOL
REMARK 923 INTER-LIGAND FREE ENERGY PREDICTED BY IDOCK:   -5.30 KCAL/MOL
REMARK 924 INTRA-LIGAND FREE ENERGY PREDICTED BY IDOCK:   -0.25 KCAL/MOL
REMARK 927      BINDING AFFINITY PREDICTED BY RF-SCORE:    0.00 PKD
ROOT
HETATM    1  N   UNL     1     -13.140  11.323  71.430  1.00  0.00    -0.357 NA 
HETATM    2  H2  UNL     1     -13.518  10.581  72.020  1.00  0.00     0.000 HD 
HETATM    3  C   UNL     1     -12.319  10.982  70.417  1.00  0.00    -0.356 C  
HETATM    4  H1  UNL     1     -13.403  12.287  71.637  1.00  0.00     0.000 HD 
HETATM    5  N   UNL     1     -11.989   9.770  70.158  1.00  0.00    -0.463 NA 
HETATM    6  N   UNL     1     -11.787  11.934  69.600  1.00  0.00    -0.328 N  
HETATM    7  H   UNL     1     -11.142  11.608  68.880  1.00  0.00     0.000 HD 
HETATM    8  H2  UNL     1     -12.367   9.028  70.748  1.00  0.00     0.000 HD 
HETATM    9  C   UNL     1     -12.029  13.295  69.644  1.00  0.00    -0.314 C  
HETATM   10  H1  UNL     1     -11.368   9.512  69.391  1.00  0.00     0.000 HD 
HETATM   11  O   UNL     1     -12.643  13.863  70.550  1.00  0.00    -0.333 OA 
ENDROOT
BRANCH   9  12
HETATM   12  C   UNL     1     -11.433  14.076  68.524  1.00  0.00    -0.302 A  
HETATM   13  N   UNL     1     -10.820  15.243  68.869  1.00  0.00    -0.236 NA 
HETATM   14  C   UNL     1     -10.373  15.957  67.810  1.00  0.00    -0.278 A  
HETATM   15 CL   UNL     1      -9.660  17.461  68.236  1.00  0.00    -0.280 Cl 
HETATM   16  C   UNL     1     -10.516  15.548  66.471  1.00  0.00    -0.300 A  
HETATM   17  N   UNL     1     -10.005  16.263  65.386  1.00  0.00    -0.521 NA 
HETATM   18  N   UNL     1     -11.110  14.374  66.165  1.00  0.00    -0.323 NA 
HETATM   19  C   UNL     1     -11.581  13.635  67.197  1.00  0.00    -0.361 A  
HETATM   20  H2  UNL     1      -9.009  16.397  65.555  1.00  0.00     0.000 HD 
HETATM   21  H1  UNL     1     -10.109  15.966  64.415  1.00  0.00     0.000 HD 
HETATM   22  N   UNL     1     -12.086  12.385  66.849  1.00  0.00    -0.547 NA 
HETATM   23  H1  UNL     1     -12.192  12.065  65.887  1.00  0.00     0.000 HD 
HETATM   24  H2  UNL     1     -12.996  12.291  67.300  1.00  0.00     0.000 HD 
ENDBRANCH   9  12
TORSDOF 1
ENDMDL
MODEL       92
REMARK 921   NORMALIZED FREE ENERGY PREDICTED BY IDOCK:   -4.88 KCAL/MOL
REMARK 922        TOTAL FREE ENERGY PREDICTED BY IDOCK:   -5.54 KCAL/MOL
REMARK 923 INTER-LIGAND FREE ENERGY PREDICTED BY IDOCK:   -5.19 KCAL/MOL
REMARK 924 INTRA-LIGAND FREE ENERGY PREDICTED BY IDOCK:   -0.35 KCAL/MOL
REMARK 927      BINDING AFFINITY PREDICTED BY RF-SCORE:    0.00 PKD
ROOT
HETATM    1  N   UNL     1     -12.472  10.097  70.155  1.00  0.00    -0.523 NA 
HETATM    2  H2  UNL     1     -12.679   9.101  70.229  1.00  0.00     0.000 HD 
HETATM    3  C   UNL     1     -11.628  10.508  69.188  1.00  0.00    -0.224 C  
HETATM    4  H1  UNL     1     -12.916  10.734  70.818  1.00  0.00     0.000 HD 
HETATM    5  N   UNL     1     -11.071   9.707  68.355  1.00  0.00    -0.481 NA 
HETATM    6  N   UNL     1     -11.319  11.827  69.046  1.00  0.00    -0.255 N  
HETATM    7  H   UNL     1     -10.643  12.061  68.319  1.00  0.00     0.000 HD 
HETATM    8  H2  UNL     1     -11.278   8.710  68.428  1.00  0.00     0.000 HD 
HETATM    9  C   UNL     1     -11.825  12.883  69.784  1.00  0.00    -0.310 C  
HETATM   10  H1  UNL     1     -10.433  10.018  67.623  1.00  0.00     0.000 HD 
HETATM   11  O   UNL     1     -12.514  12.754  70.798  1.00  0.00    -0.344 OA 
ENDROOT
BRANCH   9  12
HETATM   12  C   UNL     1     -11.428  14.235  69.301  1.00  0.00    -0.289 A  
HETATM   13  N   UNL     1     -11.368  14.394  67.949  1.00  0.00    -0.286 NA 
HETATM   14  C   UNL     1     -10.919  15.610  67.564  1.00  0.00    -0.309 A  
HETATM   15 CL   UNL     1     -10.778  15.792  65.860  1.00  0.00    -0.328 Cl 
HETATM   16  C   UNL     1     -10.545  16.629  68.459  1.00  0.00    -0.338 A  
HETATM   17  N   UNL     1     -10.132  17.900  68.055  1.00  0.00    -0.338 NA 
HETATM   18  N   UNL     1     -10.636  16.446  69.794  1.00  0.00    -0.309 NA 
HETATM   19  C   UNL     1     -11.073  15.237  70.221  1.00  0.00    -0.293 A  
HETATM   20  H2  UNL     1     -10.866  18.279  67.457  1.00  0.00     0.000 HD 
HETATM   21  H1  UNL     1      -9.862  18.640  68.704  1.00  0.00     0.000 HD 
HETATM   22  N   UNL     1     -11.258  15.126  71.597  1.00  0.00    -0.562 NA 
HETATM   23  H1  UNL     1     -11.001  15.853  72.263  1.00  0.00     0.000 HD 
HETATM   24  H2  UNL     1     -10.795  14.268  71.895  1.00  0.00     0.000 HD 
ENDBRANCH   9  12
TORSDOF 1
ENDMDL
MODEL       93
REMARK 921   NORMALIZED FREE ENERGY PREDICTED BY IDOCK:   -4.88 KCAL/MOL
REMARK 922        TOTAL FREE ENERGY PREDICTED BY IDOCK:   -5.54 KCAL/MOL
REMARK 923 INTER-LIGAND FREE ENERGY PREDICTED BY IDOCK:   -5.18 KCAL/MOL
REMARK 924 INTRA-LIGAND FREE ENERGY PREDICTED BY IDOCK:   -0.35 KCAL/MOL
REMARK 927      BINDING AFFINITY PREDICTED BY RF-SCORE:    0.00 PKD
ROOT
HETATM    1  N   UNL     1      -8.688  19.056  67.018  1.00  0.00    -0.286 NA 
HETATM    2  H2  UNL     1      -8.072  19.783  66.652  1.00  0.00     0.000 HD 
HETATM    3  C   UNL     1      -8.429  18.553  68.242  1.00  0.00    -0.318 C  
HETATM    4  H1  UNL     1      -9.470  18.747  66.440  1.00  0.00     0.000 HD 
HETATM    5  N   UNL     1      -7.446  18.942  68.968  1.00  0.00    -0.303 NA 
HETATM    6  N   UNL     1      -9.219  17.581  68.777  1.00  0.00    -0.261 N  
HETATM    7  H   UNL     1      -8.941  17.218  69.689  1.00  0.00     0.000 HD 
HETATM    8  H2  UNL     1      -6.830  19.669  68.602  1.00  0.00     0.000 HD 
HETATM    9  C   UNL     1     -10.360  17.035  68.215  1.00  0.00    -0.347 C  
HETATM   10  H1  UNL     1      -7.250  18.561  69.894  1.00  0.00     0.000 HD 
HETATM   11  O   UNL     1     -10.731  17.240  67.058  1.00  0.00    -0.270 OA 
ENDROOT
BRANCH   9  12
HETATM   12  C   UNL     1     -11.112  16.102  69.100  1.00  0.00    -0.329 A  
HETATM   13  N   UNL     1     -11.176  16.447  70.417  1.00  0.00    -0.335 NA 
HETATM   14  C   UNL     1     -11.792  15.526  71.192  1.00  0.00    -0.387 A  
HETATM   15 CL   UNL     1     -11.815  15.926  72.864  1.00  0.00    -0.579 Cl 
HETATM   16  C   UNL     1     -12.326  14.319  70.703  1.00  0.00    -0.361 A  
HETATM   17  N   UNL     1     -13.009  13.397  71.499  1.00  0.00    -0.359 NA 
HETATM   18  N   UNL     1     -12.266  14.017  69.388  1.00  0.00    -0.333 NA 
HETATM   19  C   UNL     1     -11.646  14.910  68.580  1.00  0.00    -0.323 A  
HETATM   20  H2  UNL     1     -13.769  13.899  71.958  1.00  0.00     0.000 HD 
HETATM   21  H1  UNL     1     -13.396  12.523  71.145  1.00  0.00     0.000 HD 
HETATM   22  N   UNL     1     -11.702  14.616  67.220  1.00  0.00    -0.392 NA 
HETATM   23  H1  UNL     1     -12.089  13.752  66.843  1.00  0.00     0.000 HD 
HETATM   24  H2  UNL     1     -10.754  14.705  66.853  1.00  0.00     0.000 HD 
ENDBRANCH   9  12
TORSDOF 1
ENDMDL
MODEL       94
REMARK 921   NORMALIZED FREE ENERGY PREDICTED BY IDOCK:   -4.87 KCAL/MOL
REMARK 922        TOTAL FREE ENERGY PREDICTED BY IDOCK:   -5.53 KCAL/MOL
REMARK 923 INTER-LIGAND FREE ENERGY PREDICTED BY IDOCK:   -5.16 KCAL/MOL
REMARK 924 INTRA-LIGAND FREE ENERGY PREDICTED BY IDOCK:   -0.38 KCAL/MOL
REMARK 927      BINDING AFFINITY PREDICTED BY RF-SCORE:    0.00 PKD
ROOT
HETATM    1  N   UNL     1     -11.860  13.003  69.221  1.00  0.00    -0.317 NA 
HETATM    2  H2  UNL     1     -12.396  12.163  69.439  1.00  0.00     0.000 HD 
HETATM    3  C   UNL     1     -11.623  13.295  67.926  1.00  0.00    -0.334 C  
HETATM    4  H1  UNL     1     -11.530  13.582  69.994  1.00  0.00     0.000 HD 
HETATM    5  N   UNL     1     -12.038  12.568  66.955  1.00  0.00    -0.533 NA 
HETATM    6  N   UNL     1     -10.912  14.405  67.580  1.00  0.00    -0.280 N  
HETATM    7  H   UNL     1     -10.736  14.542  66.585  1.00  0.00     0.000 HD 
HETATM    8  H2  UNL     1     -12.574  11.727  67.173  1.00  0.00     0.000 HD 
HETATM    9  C   UNL     1     -10.405  15.366  68.437  1.00  0.00    -0.229 C  
HETATM   10  H1  UNL     1     -11.859  12.789  65.975  1.00  0.00     0.000 HD 
HETATM   11  O   UNL     1     -10.383  15.261  69.665  1.00  0.00    -0.245 OA 
ENDROOT
BRANCH   9  12
HETATM   12  C   UNL     1      -9.807  16.553  67.765  1.00  0.00    -0.240 A  
HETATM   13  N   UNL     1     -10.260  17.768  68.183  1.00  0.00    -0.361 NA 
HETATM   14  C   UNL     1      -9.753  18.809  67.484  1.00  0.00    -0.307 A  
HETATM   15 CL   UNL     1     -10.375  20.339  67.963  1.00  0.00    -0.456 Cl 
HETATM   16  C   UNL     1      -8.839  18.671  66.423  1.00  0.00    -0.275 A  
HETATM   17  N   UNL     1      -8.278  19.752  65.740  1.00  0.00    -0.441 NA 
HETATM   18  N   UNL     1      -8.392  17.453  66.047  1.00  0.00    -0.537 NA 
HETATM   19  C   UNL     1      -8.885  16.384  66.717  1.00  0.00    -0.225 A  
HETATM   20  H2  UNL     1      -7.842  20.355  66.437  1.00  0.00     0.000 HD 
HETATM   21  H1  UNL     1      -7.615  19.652  64.971  1.00  0.00     0.000 HD 
HETATM   22  N   UNL     1      -8.318  15.158  66.376  1.00  0.00    -0.376 NA 
HETATM   23  H1  UNL     1      -7.650  15.036  65.615  1.00  0.00     0.000 HD 
HETATM   24  H2  UNL     1      -9.086  14.507  66.209  1.00  0.00     0.000 HD 
ENDBRANCH   9  12
TORSDOF 1
ENDMDL
MODEL       95
REMARK 921   NORMALIZED FREE ENERGY PREDICTED BY IDOCK:   -4.87 KCAL/MOL
REMARK 922        TOTAL FREE ENERGY PREDICTED BY IDOCK:   -5.53 KCAL/MOL
REMARK 923 INTER-LIGAND FREE ENERGY PREDICTED BY IDOCK:   -5.15 KCAL/MOL
REMARK 924 INTRA-LIGAND FREE ENERGY PREDICTED BY IDOCK:   -0.38 KCAL/MOL
REMARK 927      BINDING AFFINITY PREDICTED BY RF-SCORE:    0.00 PKD
ROOT
HETATM    1  N   UNL     1      -6.851  11.285  68.734  1.00  0.00    -0.075 NA 
HETATM    2  H2  UNL     1      -6.203  10.611  69.143  1.00  0.00     0.000 HD 
HETATM    3  C   UNL     1      -6.495  11.903  67.589  1.00  0.00    -0.089 C  
HETATM    4  H1  UNL     1      -7.735  11.459  69.211  1.00  0.00     0.000 HD 
HETATM    5  N   UNL     1      -5.383  11.684  66.989  1.00  0.00    -0.103 NA 
HETATM    6  N   UNL     1      -7.323  12.812  67.001  1.00  0.00    -0.374 N  
HETATM    7  H   UNL     1      -6.973  13.269  66.160  1.00  0.00     0.000 HD 
HETATM    8  H2  UNL     1      -4.736  11.010  67.398  1.00  0.00     0.000 HD 
HETATM    9  C   UNL     1      -8.588  13.179  67.425  1.00  0.00    -0.204 C  
HETATM   10  H1  UNL     1      -5.115  12.151  66.123  1.00  0.00     0.000 HD 
HETATM   11  O   UNL     1      -9.081  12.849  68.505  1.00  0.00    -0.155 OA 
ENDROOT
BRANCH   9  12
HETATM   12  C   UNL     1      -9.325  14.079  66.496  1.00  0.00    -0.255 A  
HETATM   13  N   UNL     1      -9.396  15.390  66.862  1.00  0.00    -0.224 NA 
HETATM   14  C   UNL     1     -10.149  16.147  66.033  1.00  0.00    -0.351 A  
HETATM   15 CL   UNL     1     -10.297  17.786  66.529  1.00  0.00    -0.355 Cl 
HETATM   16  C   UNL     1     -10.804  15.648  64.891  1.00  0.00    -0.418 A  
HETATM   17  N   UNL     1     -11.536  16.446  64.009  1.00  0.00    -1.573 NA 
HETATM   18  N   UNL     1     -10.696  14.348  64.543  1.00  0.00    -0.319 NA 
HETATM   19  C   UNL     1      -9.958  13.553  65.355  1.00  0.00    -0.199 A  
HETATM   20  H2  UNL     1     -10.919  17.196  63.699  1.00  0.00     0.000 HD 
HETATM   21  H1  UNL     1     -12.010  16.085  63.182  1.00  0.00     0.000 HD 
HETATM   22  N   UNL     1      -9.779  12.248  64.904  1.00  0.00    -0.455 NA 
HETATM   23  H1  UNL     1     -10.238  11.867  64.077  1.00  0.00     0.000 HD 
HETATM   24  H2  UNL     1     -10.000  11.627  65.682  1.00  0.00     0.000 HD 
ENDBRANCH   9  12
TORSDOF 1
ENDMDL
MODEL       96
REMARK 921   NORMALIZED FREE ENERGY PREDICTED BY IDOCK:   -4.82 KCAL/MOL
REMARK 922        TOTAL FREE ENERGY PREDICTED BY IDOCK:   -5.47 KCAL/MOL
REMARK 923 INTER-LIGAND FREE ENERGY PREDICTED BY IDOCK:   -5.18 KCAL/MOL
REMARK 924 INTRA-LIGAND FREE ENERGY PREDICTED BY IDOCK:   -0.30 KCAL/MOL
REMARK 927      BINDING AFFINITY PREDICTED BY RF-SCORE:    0.00 PKD
ROOT
HETATM    1  N   UNL     1     -10.907   7.178  71.202  1.00  0.00    -0.237 NA 
HETATM    2  H2  UNL     1     -10.840   6.230  71.575  1.00  0.00     0.000 HD 
HETATM    3  C   UNL     1     -11.167   7.333  69.889  1.00  0.00    -0.170 C  
HETATM    4  H1  UNL     1     -10.773   7.961  71.842  1.00  0.00     0.000 HD 
HETATM    5  N   UNL     1     -11.335   6.349  69.084  1.00  0.00    -0.572 NA 
HETATM    6  N   UNL     1     -11.266   8.576  69.340  1.00  0.00    -0.431 N  
HETATM    7  H   UNL     1     -11.424   8.619  68.333  1.00  0.00     0.000 HD 
HETATM    8  H2  UNL     1     -11.269   5.401  69.457  1.00  0.00     0.000 HD 
HETATM    9  C   UNL     1     -11.174   9.787  70.004  1.00  0.00    -0.251 C  
HETATM   10  H1  UNL     1     -11.533   6.466  68.091  1.00  0.00     0.000 HD 
HETATM   11  O   UNL     1     -10.820   9.910  71.178  1.00  0.00    -0.309 OA 
ENDROOT
BRANCH   9  12
HETATM   12  C   UNL     1     -11.481  10.984  69.173  1.00  0.00    -0.301 A  
HETATM   13  N   UNL     1     -11.306  10.841  67.829  1.00  0.00    -0.441 NA 
HETATM   14  C   UNL     1     -11.512  11.979  67.129  1.00  0.00    -0.335 A  
HETATM   15 CL   UNL     1     -11.226  11.820  65.441  1.00  0.00    -0.341 Cl 
HETATM   16  C   UNL     1     -11.877  13.206  67.714  1.00  0.00    -0.348 A  
HETATM   17  N   UNL     1     -12.141  14.365  66.980  1.00  0.00    -0.524 NA 
HETATM   18  N   UNL     1     -12.064  13.309  69.047  1.00  0.00    -0.283 NA 
HETATM   19  C   UNL     1     -11.856  12.193  69.786  1.00  0.00    -0.327 A  
HETATM   20  H2  UNL     1     -12.860  14.131  66.297  1.00  0.00     0.000 HD 
HETATM   21  H1  UNL     1     -12.405  15.254  67.404  1.00  0.00     0.000 HD 
HETATM   22  N   UNL     1     -12.166  12.311  71.139  1.00  0.00    -0.308 NA 
HETATM   23  H1  UNL     1     -12.438  13.188  71.583  1.00  0.00     0.000 HD 
HETATM   24  H2  UNL     1     -11.372  11.943  71.662  1.00  0.00     0.000 HD 
ENDBRANCH   9  12
TORSDOF 1
ENDMDL
MODEL       97
REMARK 921   NORMALIZED FREE ENERGY PREDICTED BY IDOCK:   -4.82 KCAL/MOL
REMARK 922        TOTAL FREE ENERGY PREDICTED BY IDOCK:   -5.47 KCAL/MOL
REMARK 923 INTER-LIGAND FREE ENERGY PREDICTED BY IDOCK:   -5.20 KCAL/MOL
REMARK 924 INTRA-LIGAND FREE ENERGY PREDICTED BY IDOCK:   -0.27 KCAL/MOL
REMARK 927      BINDING AFFINITY PREDICTED BY RF-SCORE:    0.00 PKD
ROOT
HETATM    1  N   UNL     1      -9.504   6.318  68.874  1.00  0.00    -0.127 NA 
HETATM    2  H2  UNL     1      -9.139   5.499  68.388  1.00  0.00     0.000 HD 
HETATM    3  C   UNL     1     -10.683   6.833  68.470  1.00  0.00    -0.231 C  
HETATM    4  H1  UNL     1      -8.959   6.708  69.644  1.00  0.00     0.000 HD 
HETATM    5  N   UNL     1     -11.368   6.344  67.503  1.00  0.00    -0.700 NA 
HETATM    6  N   UNL     1     -11.214   7.926  69.085  1.00  0.00    -0.382 N  
HETATM    7  H   UNL     1     -12.088   8.286  68.701  1.00  0.00     0.000 HD 
HETATM    8  H2  UNL     1     -11.004   5.524  67.016  1.00  0.00     0.000 HD 
HETATM    9  C   UNL     1     -10.694   8.600  70.176  1.00  0.00    -0.234 C  
HETATM   10  H1  UNL     1     -12.260   6.733  67.198  1.00  0.00     0.000 HD 
HETATM   11  O   UNL     1      -9.572   8.399  70.647  1.00  0.00    -0.164 OA 
ENDROOT
BRANCH   9  12
HETATM   12  C   UNL     1     -11.573   9.665  70.736  1.00  0.00    -0.321 A  
HETATM   13  N   UNL     1     -11.423  10.908  70.198  1.00  0.00    -0.313 NA 
HETATM   14  C   UNL     1     -12.179  11.855  70.799  1.00  0.00    -0.303 A  
HETATM   15 CL   UNL     1     -11.942  13.437  70.169  1.00  0.00    -0.406 Cl 
HETATM   16  C   UNL     1     -13.047  11.601  71.877  1.00  0.00    -0.385 A  
HETATM   17  N   UNL     1     -13.865  12.572  72.457  1.00  0.00    -0.544 NA 
HETATM   18  N   UNL     1     -13.189  10.352  72.372  1.00  0.00    -0.186 NA 
HETATM   19  C   UNL     1     -12.440   9.376  71.804  1.00  0.00    -0.391 A  
HETATM   20  H2  UNL     1     -14.425  12.981  71.710  1.00  0.00     0.000 HD 
HETATM   21  H1  UNL     1     -14.494  12.388  73.238  1.00  0.00     0.000 HD 
HETATM   22  N   UNL     1     -12.696   8.088  72.267  1.00  0.00    -0.512 NA 
HETATM   23  H1  UNL     1     -13.325   7.879  73.042  1.00  0.00     0.000 HD 
HETATM   24  H2  UNL     1     -11.796   7.663  72.489  1.00  0.00     0.000 HD 
ENDBRANCH   9  12
TORSDOF 1
ENDMDL
MODEL       98
REMARK 921   NORMALIZED FREE ENERGY PREDICTED BY IDOCK:   -4.79 KCAL/MOL
REMARK 922        TOTAL FREE ENERGY PREDICTED BY IDOCK:   -5.44 KCAL/MOL
REMARK 923 INTER-LIGAND FREE ENERGY PREDICTED BY IDOCK:   -5.08 KCAL/MOL
REMARK 924 INTRA-LIGAND FREE ENERGY PREDICTED BY IDOCK:   -0.36 KCAL/MOL
REMARK 927      BINDING AFFINITY PREDICTED BY RF-SCORE:    0.00 PKD
ROOT
HETATM    1  N   UNL     1      -9.663   7.453  66.349  1.00  0.00    -0.390 NA 
HETATM    2  H2  UNL     1      -9.310   6.603  65.909  1.00  0.00     0.000 HD 
HETATM    3  C   UNL     1      -9.464   8.630  65.721  1.00  0.00    -0.122 C  
HETATM    4  H1  UNL     1     -10.150   7.371  67.242  1.00  0.00     0.000 HD 
HETATM    5  N   UNL     1      -8.852   8.733  64.599  1.00  0.00    -0.407 NA 
HETATM    6  N   UNL     1      -9.915   9.795  66.265  1.00  0.00    -0.251 N  
HETATM    7  H   UNL     1      -9.693  10.651  65.757  1.00  0.00     0.000 HD 
HETATM    8  H2  UNL     1      -8.499   7.882  64.159  1.00  0.00     0.000 HD 
HETATM    9  C   UNL     1     -10.641   9.939  67.434  1.00  0.00    -0.277 C  
HETATM   10  H1  UNL     1      -8.702   9.623  64.124  1.00  0.00     0.000 HD 
HETATM   11  O   UNL     1     -10.841   9.032  68.244  1.00  0.00    -0.142 OA 
ENDROOT
BRANCH   9  12
HETATM   12  C   UNL     1     -11.135  11.319  67.700  1.00  0.00    -0.277 A  
HETATM   13  N   UNL     1     -11.582  12.014  66.616  1.00  0.00    -0.513 NA 
HETATM   14  C   UNL     1     -11.937  13.289  66.896  1.00  0.00    -0.375 A  
HETATM   15 CL   UNL     1     -12.435  14.190  65.519  1.00  0.00    -0.487 Cl 
HETATM   16  C   UNL     1     -11.863  13.862  68.179  1.00  0.00    -0.372 A  
HETATM   17  N   UNL     1     -12.281  15.161  68.471  1.00  0.00    -0.581 NA 
HETATM   18  N   UNL     1     -11.437  13.138  69.237  1.00  0.00    -0.287 NA 
HETATM   19  C   UNL     1     -11.061  11.859  68.996  1.00  0.00    -0.246 A  
HETATM   20  H2  UNL     1     -13.249  15.243  68.160  1.00  0.00     0.000 HD 
HETATM   21  H1  UNL     1     -12.228  15.576  69.402  1.00  0.00     0.000 HD 
HETATM   22  N   UNL     1     -10.734  11.115  70.127  1.00  0.00    -0.357 NA 
HETATM   23  H1  UNL     1     -10.680  11.507  71.067  1.00  0.00     0.000 HD 
HETATM   24  H2  UNL     1      -9.841  10.659  69.940  1.00  0.00     0.000 HD 
ENDBRANCH   9  12
TORSDOF 1
ENDMDL
MODEL       99
REMARK 921   NORMALIZED FREE ENERGY PREDICTED BY IDOCK:   -4.78 KCAL/MOL
REMARK 922        TOTAL FREE ENERGY PREDICTED BY IDOCK:   -5.44 KCAL/MOL
REMARK 923 INTER-LIGAND FREE ENERGY PREDICTED BY IDOCK:   -5.07 KCAL/MOL
REMARK 924 INTRA-LIGAND FREE ENERGY PREDICTED BY IDOCK:   -0.37 KCAL/MOL
REMARK 927      BINDING AFFINITY PREDICTED BY RF-SCORE:    0.00 PKD
ROOT
HETATM    1  N   UNL     1     -11.848  16.249  70.510  1.00  0.00    -0.454 NA 
HETATM    2  H2  UNL     1     -11.865  17.012  71.188  1.00  0.00     0.000 HD 
HETATM    3  C   UNL     1     -11.229  16.453  69.330  1.00  0.00    -0.267 C  
HETATM    4  H1  UNL     1     -12.302  15.370  70.759  1.00  0.00     0.000 HD 
HETATM    5  N   UNL     1     -10.659  17.558  69.017  1.00  0.00    -0.369 NA 
HETATM    6  N   UNL     1     -11.178  15.467  68.391  1.00  0.00    -0.323 N  
HETATM    7  H   UNL     1     -10.729  15.704  67.506  1.00  0.00     0.000 HD 
HETATM    8  H2  UNL     1     -10.675  18.321  69.695  1.00  0.00     0.000 HD 
HETATM    9  C   UNL     1     -11.671  14.180  68.510  1.00  0.00    -0.345 C  
HETATM   10  H1  UNL     1     -10.190  17.711  68.125  1.00  0.00     0.000 HD 
HETATM   11  O   UNL     1     -12.383  13.792  69.438  1.00  0.00    -0.310 OA 
ENDROOT
BRANCH   9  12
HETATM   12  C   UNL     1     -11.331  13.270  67.381  1.00  0.00    -0.303 A  
HETATM   13  N   UNL     1     -11.844  13.608  66.165  1.00  0.00    -0.371 NA 
HETATM   14  C   UNL     1     -11.582  12.705  65.193  1.00  0.00    -0.348 A  
HETATM   15 CL   UNL     1     -12.285  13.093  63.673  1.00  0.00    -0.562 Cl 
HETATM   16  C   UNL     1     -10.846  11.522  65.397  1.00  0.00    -0.259 A  
HETATM   17  N   UNL     1     -10.532  10.621  64.378  1.00  0.00    -0.352 NA 
HETATM   18  N   UNL     1     -10.332  11.228  66.611  1.00  0.00    -0.229 NA 
HETATM   19  C   UNL     1     -10.583  12.103  67.614  1.00  0.00    -0.210 A  
HETATM   20  H2  UNL     1     -10.058  11.147  63.645  1.00  0.00     0.000 HD 
HETATM   21  H1  UNL     1      -9.999   9.764  64.526  1.00  0.00     0.000 HD 
HETATM   22  N   UNL     1      -9.945  11.820  68.820  1.00  0.00    -0.367 NA 
HETATM   23  H1  UNL     1      -9.402  10.974  68.988  1.00  0.00     0.000 HD 
HETATM   24  H2  UNL     1     -10.650  11.876  69.554  1.00  0.00     0.000 HD 
ENDBRANCH   9  12
TORSDOF 1
ENDMDL
MODEL      100
REMARK 921   NORMALIZED FREE ENERGY PREDICTED BY IDOCK:   -4.76 KCAL/MOL
REMARK 922        TOTAL FREE ENERGY PREDICTED BY IDOCK:   -5.41 KCAL/MOL
REMARK 923 INTER-LIGAND FREE ENERGY PREDICTED BY IDOCK:   -5.02 KCAL/MOL
REMARK 924 INTRA-LIGAND FREE ENERGY PREDICTED BY IDOCK:   -0.39 KCAL/MOL
REMARK 927      BINDING AFFINITY PREDICTED BY RF-SCORE:    0.00 PKD
ROOT
HETATM    1  N   UNL     1      -9.047   5.677  67.038  1.00  0.00    -0.113 NA 
HETATM    2  H2  UNL     1      -8.663   5.138  66.262  1.00  0.00     0.000 HD 
HETATM    3  C   UNL     1     -10.376   5.902  67.067  1.00  0.00    -0.243 C  
HETATM    4  H1  UNL     1      -8.406   6.019  67.754  1.00  0.00     0.000 HD 
HETATM    5  N   UNL     1     -11.182   5.472  66.167  1.00  0.00    -0.761 NA 
HETATM    6  N   UNL     1     -10.940   6.616  68.081  1.00  0.00    -0.446 N  
HETATM    7  H   UNL     1     -11.944   6.782  68.018  1.00  0.00     0.000 HD 
HETATM    8  H2  UNL     1     -10.798   4.932  65.390  1.00  0.00     0.000 HD 
HETATM    9  C   UNL     1     -10.294   7.140  69.187  1.00  0.00    -0.200 C  
HETATM   10  H1  UNL     1     -12.187   5.642  66.190  1.00  0.00     0.000 HD 
HETATM   11  O   UNL     1      -9.070   7.173  69.326  1.00  0.00    -0.139 OA 
ENDROOT
BRANCH   9  12
HETATM   12  C   UNL     1     -11.192   7.738  70.215  1.00  0.00    -0.206 A  
HETATM   13  N   UNL     1     -12.219   6.952  70.642  1.00  0.00    -0.329 NA 
HETATM   14  C   UNL     1     -13.055   7.570  71.507  1.00  0.00    -0.356 A  
HETATM   15 CL   UNL     1     -14.390   6.605  71.996  1.00  0.00    -0.275 Cl 
HETATM   16  C   UNL     1     -12.894   8.900  71.940  1.00  0.00    -0.380 A  
HETATM   17  N   UNL     1     -13.729   9.516  72.874  1.00  0.00    -0.626 NA 
HETATM   18  N   UNL     1     -11.851   9.645  71.513  1.00  0.00    -0.390 NA 
HETATM   19  C   UNL     1     -10.997   9.065  70.637  1.00  0.00    -0.257 A  
HETATM   20  H2  UNL     1     -13.736   8.927  73.706  1.00  0.00     0.000 HD 
HETATM   21  H1  UNL     1     -13.612  10.480  73.188  1.00  0.00     0.000 HD 
HETATM   22  N   UNL     1      -9.878   9.826  70.308  1.00  0.00    -0.299 NA 
HETATM   23  H1  UNL     1      -9.737  10.788  70.615  1.00  0.00     0.000 HD 
HETATM   24  H2  UNL     1      -9.798   9.819  69.291  1.00  0.00     0.000 HD 
ENDBRANCH   9  12
TORSDOF 1
ENDMDL
MODEL      101
REMARK 921   NORMALIZED FREE ENERGY PREDICTED BY IDOCK:   -4.75 KCAL/MOL
REMARK 922        TOTAL FREE ENERGY PREDICTED BY IDOCK:   -5.40 KCAL/MOL
REMARK 923 INTER-LIGAND FREE ENERGY PREDICTED BY IDOCK:   -5.08 KCAL/MOL
REMARK 924 INTRA-LIGAND FREE ENERGY PREDICTED BY IDOCK:   -0.32 KCAL/MOL
REMARK 927      BINDING AFFINITY PREDICTED BY RF-SCORE:    0.00 PKD
ROOT
HETATM    1  N   UNL     1     -10.553   6.171  74.093  1.00  0.00    -0.389 NA 
HETATM    2  H2  UNL     1     -10.174   5.562  74.819  1.00  0.00     0.000 HD 
HETATM    3  C   UNL     1      -9.911   7.327  73.826  1.00  0.00    -0.322 C  
HETATM    4  H1  UNL     1     -11.398   5.875  73.605  1.00  0.00     0.000 HD 
HETATM    5  N   UNL     1      -8.849   7.698  74.440  1.00  0.00    -0.430 NA 
HETATM    6  N   UNL     1     -10.375   8.175  72.867  1.00  0.00    -0.312 N  
HETATM    7  H   UNL     1      -9.863   9.050  72.746  1.00  0.00     0.000 HD 
HETATM    8  H2  UNL     1      -8.470   7.089  75.166  1.00  0.00     0.000 HD 
HETATM    9  C   UNL     1     -11.465   7.977  72.039  1.00  0.00    -0.309 C  
HETATM   10  H1  UNL     1      -8.363   8.572  74.238  1.00  0.00     0.000 HD 
HETATM   11  O   UNL     1     -12.280   7.062  72.171  1.00  0.00    -0.285 OA 
ENDROOT
BRANCH   9  12
HETATM   12  C   UNL     1     -11.642   9.004  70.974  1.00  0.00    -0.300 A  
HETATM   13  N   UNL     1     -10.885   8.840  69.853  1.00  0.00    -0.226 NA 
HETATM   14  C   UNL     1     -11.016   9.843  68.956  1.00  0.00    -0.190 A  
HETATM   15 CL   UNL     1     -10.012   9.675  67.571  1.00  0.00    -0.216 Cl 
HETATM   16  C   UNL     1     -11.853  10.960  69.143  1.00  0.00    -0.317 A  
HETATM   17  N   UNL     1     -12.025  11.965  68.190  1.00  0.00    -0.528 NA 
HETATM   18  N   UNL     1     -12.607  11.081  70.257  1.00  0.00    -0.276 NA 
HETATM   19  C   UNL     1     -12.496  10.101  71.185  1.00  0.00    -0.387 A  
HETATM   20  H2  UNL     1     -12.315  11.513  67.324  1.00  0.00     0.000 HD 
HETATM   21  H1  UNL     1     -12.631  12.775  68.325  1.00  0.00     0.000 HD 
HETATM   22  N   UNL     1     -13.369  10.206  72.265  1.00  0.00    -0.590 NA 
HETATM   23  H1  UNL     1     -13.988  11.002  72.418  1.00  0.00     0.000 HD 
HETATM   24  H2  UNL     1     -12.814  10.090  73.113  1.00  0.00     0.000 HD 
ENDBRANCH   9  12
TORSDOF 1
ENDMDL
MODEL      102
REMARK 921   NORMALIZED FREE ENERGY PREDICTED BY IDOCK:   -4.74 KCAL/MOL
REMARK 922        TOTAL FREE ENERGY PREDICTED BY IDOCK:   -5.39 KCAL/MOL
REMARK 923 INTER-LIGAND FREE ENERGY PREDICTED BY IDOCK:   -5.01 KCAL/MOL
REMARK 924 INTRA-LIGAND FREE ENERGY PREDICTED BY IDOCK:   -0.37 KCAL/MOL
REMARK 927      BINDING AFFINITY PREDICTED BY RF-SCORE:    0.00 PKD
ROOT
HETATM    1  N   UNL     1     -13.137   9.967  71.388  1.00  0.00    -0.394 NA 
HETATM    2  H2  UNL     1     -13.820  10.720  71.300  1.00  0.00     0.000 HD 
HETATM    3  C   UNL     1     -13.337   9.025  72.331  1.00  0.00    -0.460 C  
HETATM    4  H1  UNL     1     -12.335   9.965  70.757  1.00  0.00     0.000 HD 
HETATM    5  N   UNL     1     -14.344   9.029  73.125  1.00  0.00    -1.133 NA 
HETATM    6  N   UNL     1     -12.455   7.999  72.490  1.00  0.00    -0.574 N  
HETATM    7  H   UNL     1     -12.648   7.346  73.249  1.00  0.00     0.000 HD 
HETATM    8  H2  UNL     1     -15.028   9.781  73.037  1.00  0.00     0.000 HD 
HETATM    9  C   UNL     1     -11.326   7.750  71.730  1.00  0.00    -0.261 C  
HETATM   10  H1  UNL     1     -14.496   8.316  73.838  1.00  0.00     0.000 HD 
HETATM   11  O   UNL     1     -10.864   8.529  70.895  1.00  0.00    -0.219 OA 
ENDROOT
BRANCH   9  12
HETATM   12  C   UNL     1     -10.637   6.464  72.032  1.00  0.00    -0.213 A  
HETATM   13  N   UNL     1     -10.365   5.665  70.962  1.00  0.00    -0.222 NA 
HETATM   14  C   UNL     1      -9.820   4.474  71.296  1.00  0.00    -0.190 A  
HETATM   15 CL   UNL     1      -9.539   3.436  69.955  1.00  0.00    -0.238 Cl 
HETATM   16  C   UNL     1      -9.548   4.078  72.619  1.00  0.00    -0.136 A  
HETATM   17  N   UNL     1      -8.935   2.869  72.954  1.00  0.00    -0.085 NA 
HETATM   18  N   UNL     1      -9.809   4.903  73.656  1.00  0.00    -0.144 NA 
HETATM   19  C   UNL     1     -10.365   6.103  73.364  1.00  0.00    -0.239 A  
HETATM   20  H2  UNL     1      -8.056   2.823  72.440  1.00  0.00     0.000 HD 
HETATM   21  H1  UNL     1      -8.738   2.582  73.913  1.00  0.00     0.000 HD 
HETATM   22  N   UNL     1     -10.516   6.966  74.446  1.00  0.00    -0.506 NA 
HETATM   23  H1  UNL     1     -10.320   6.703  75.411  1.00  0.00     0.000 HD 
HETATM   24  H2  UNL     1     -11.473   7.318  74.419  1.00  0.00     0.000 HD 
ENDBRANCH   9  12
TORSDOF 1
ENDMDL
MODEL      103
REMARK 921   NORMALIZED FREE ENERGY PREDICTED BY IDOCK:   -4.72 KCAL/MOL
REMARK 922        TOTAL FREE ENERGY PREDICTED BY IDOCK:   -5.37 KCAL/MOL
REMARK 923 INTER-LIGAND FREE ENERGY PREDICTED BY IDOCK:   -5.00 KCAL/MOL
REMARK 924 INTRA-LIGAND FREE ENERGY PREDICTED BY IDOCK:   -0.37 KCAL/MOL
REMARK 927      BINDING AFFINITY PREDICTED BY RF-SCORE:    0.00 PKD
ROOT
HETATM    1  N   UNL     1     -12.783  12.408  63.464  1.00  0.00    -0.768 NA 
HETATM    2  H2  UNL     1     -13.259  12.076  62.625  1.00  0.00     0.000 HD 
HETATM    3  C   UNL     1     -11.547  11.941  63.729  1.00  0.00    -0.462 C  
HETATM    4  H1  UNL     1     -13.267  13.078  64.063  1.00  0.00     0.000 HD 
HETATM    5  N   UNL     1     -10.938  11.099  62.977  1.00  0.00    -0.821 NA 
HETATM    6  N   UNL     1     -10.868  12.352  64.837  1.00  0.00    -0.286 N  
HETATM    7  H   UNL     1      -9.955  11.926  64.996  1.00  0.00     0.000 HD 
HETATM    8  H2  UNL     1     -11.413  10.767  62.137  1.00  0.00     0.000 HD 
HETATM    9  C   UNL     1     -11.288  13.284  65.769  1.00  0.00    -0.307 C  
HETATM   10  H1  UNL     1     -10.002  10.746  63.177  1.00  0.00     0.000 HD 
HETATM   11  O   UNL     1     -12.424  13.759  65.814  1.00  0.00    -0.455 OA 
ENDROOT
BRANCH   9  12
HETATM   12  C   UNL     1     -10.269  13.653  66.791  1.00  0.00    -0.268 A  
HETATM   13  N   UNL     1      -9.436  12.653  67.194  1.00  0.00    -0.207 NA 
HETATM   14  C   UNL     1      -8.589  13.015  68.184  1.00  0.00    -0.188 A  
HETATM   15 CL   UNL     1      -7.584  11.738  68.743  1.00  0.00    -0.123 Cl 
HETATM   16  C   UNL     1      -8.554  14.300  68.757  1.00  0.00    -0.101 A  
HETATM   17  N   UNL     1      -7.641  14.684  69.741  1.00  0.00    -0.395 NA 
HETATM   18  N   UNL     1      -9.379  15.276  68.319  1.00  0.00    -0.190 NA 
HETATM   19  C   UNL     1     -10.250  14.950  67.334  1.00  0.00    -0.234 A  
HETATM   20  H2  UNL     1      -6.708  14.489  69.380  1.00  0.00     0.000 HD 
HETATM   21  H1  UNL     1      -7.615  15.616  70.156  1.00  0.00     0.000 HD 
HETATM   22  N   UNL     1     -11.004  16.009  66.836  1.00  0.00    -0.197 NA 
HETATM   23  H1  UNL     1     -10.990  16.950  67.230  1.00  0.00     0.000 HD 
HETATM   24  H2  UNL     1     -11.977  15.705  66.820  1.00  0.00     0.000 HD 
ENDBRANCH   9  12
TORSDOF 1
ENDMDL
MODEL      104
REMARK 921   NORMALIZED FREE ENERGY PREDICTED BY IDOCK:   -4.72 KCAL/MOL
REMARK 922        TOTAL FREE ENERGY PREDICTED BY IDOCK:   -5.37 KCAL/MOL
REMARK 923 INTER-LIGAND FREE ENERGY PREDICTED BY IDOCK:   -5.00 KCAL/MOL
REMARK 924 INTRA-LIGAND FREE ENERGY PREDICTED BY IDOCK:   -0.37 KCAL/MOL
REMARK 927      BINDING AFFINITY PREDICTED BY RF-SCORE:    0.00 PKD
ROOT
HETATM    1  N   UNL     1     -10.265  19.880  69.326  1.00  0.00    -0.588 NA 
HETATM    2  H2  UNL     1     -10.174  20.814  69.727  1.00  0.00     0.000 HD 
HETATM    3  C   UNL     1     -10.078  19.731  68.000  1.00  0.00    -0.446 C  
HETATM    4  H1  UNL     1     -10.494  19.106  69.949  1.00  0.00     0.000 HD 
HETATM    5  N   UNL     1      -9.791  20.705  67.216  1.00  0.00    -0.518 NA 
HETATM    6  N   UNL     1     -10.189  18.506  67.414  1.00  0.00    -0.353 N  
HETATM    7  H   UNL     1     -10.074  18.473  66.401  1.00  0.00     0.000 HD 
HETATM    8  H2  UNL     1      -9.699  21.639  67.617  1.00  0.00     0.000 HD 
HETATM    9  C   UNL     1     -10.439  17.302  68.048  1.00  0.00    -0.375 C  
HETATM   10  H1  UNL     1      -9.649  20.591  66.213  1.00  0.00     0.000 HD 
HETATM   11  O   UNL     1     -10.766  17.194  69.231  1.00  0.00    -0.300 OA 
ENDROOT
BRANCH   9  12
HETATM   12  C   UNL     1     -10.347  16.100  67.173  1.00  0.00    -0.291 A  
HETATM   13  N   UNL     1     -11.532  15.572  66.755  1.00  0.00    -0.057 NA 
HETATM   14  C   UNL     1     -11.398  14.433  66.038  1.00  0.00    -0.335 A  
HETATM   15 CL   UNL     1     -12.893  13.727  65.566  1.00  0.00    -0.526 Cl 
HETATM   16  C   UNL     1     -10.160  13.835  65.738  1.00  0.00    -0.307 A  
HETATM   17  N   UNL     1     -10.025  12.689  64.952  1.00  0.00    -0.471 NA 
HETATM   18  N   UNL     1      -9.002  14.396  66.149  1.00  0.00    -0.013 NA 
HETATM   19  C   UNL     1      -9.094  15.533  66.880  1.00  0.00    -0.241 A  
HETATM   20  H2  UNL     1     -10.492  12.875  64.065  1.00  0.00     0.000 HD 
HETATM   21  H1  UNL     1      -9.128  12.256  64.734  1.00  0.00     0.000 HD 
HETATM   22  N   UNL     1      -7.879  16.138  67.189  1.00  0.00    -0.179 NA 
HETATM   23  H1  UNL     1      -6.971  15.727  66.976  1.00  0.00     0.000 HD 
HETATM   24  H2  UNL     1      -7.890  16.342  68.188  1.00  0.00     0.000 HD 
ENDBRANCH   9  12
TORSDOF 1
ENDMDL
MODEL      105
REMARK 921   NORMALIZED FREE ENERGY PREDICTED BY IDOCK:   -4.71 KCAL/MOL
REMARK 922        TOTAL FREE ENERGY PREDICTED BY IDOCK:   -5.36 KCAL/MOL
REMARK 923 INTER-LIGAND FREE ENERGY PREDICTED BY IDOCK:   -4.98 KCAL/MOL
REMARK 924 INTRA-LIGAND FREE ENERGY PREDICTED BY IDOCK:   -0.38 KCAL/MOL
REMARK 927      BINDING AFFINITY PREDICTED BY RF-SCORE:    0.00 PKD
ROOT
HETATM    1  N   UNL     1     -11.028  17.481  65.061  1.00  0.00    -0.749 NA 
HETATM    2  H2  UNL     1     -11.439  18.258  64.543  1.00  0.00     0.000 HD 
HETATM    3  C   UNL     1     -11.342  16.224  64.689  1.00  0.00    -0.232 C  
HETATM    4  H1  UNL     1     -10.400  17.694  65.836  1.00  0.00     0.000 HD 
HETATM    5  N   UNL     1     -12.132  15.956  63.715  1.00  0.00    -1.230 NA 
HETATM    6  N   UNL     1     -10.821  15.151  65.348  1.00  0.00    -0.357 N  
HETATM    7  H   UNL     1     -11.133  14.231  65.039  1.00  0.00     0.000 HD 
HETATM    8  H2  UNL     1     -12.543  16.732  63.196  1.00  0.00     0.000 HD 
HETATM    9  C   UNL     1      -9.913  15.179  66.392  1.00  0.00    -0.272 C  
HETATM   10  H1  UNL     1     -12.369  15.004  63.434  1.00  0.00     0.000 HD 
HETATM   11  O   UNL     1      -9.571  16.202  66.989  1.00  0.00    -0.218 OA 
ENDROOT
BRANCH   9  12
HETATM   12  C   UNL     1      -9.398  13.846  66.812  1.00  0.00    -0.275 A  
HETATM   13  N   UNL     1     -10.307  12.832  66.832  1.00  0.00    -0.237 NA 
HETATM   14  C   UNL     1      -9.811  11.665  67.304  1.00  0.00    -0.187 A  
HETATM   15 CL   UNL     1     -10.973  10.401  67.394  1.00  0.00    -0.350 Cl 
HETATM   16  C   UNL     1      -8.483  11.494  67.735  1.00  0.00    -0.137 A  
HETATM   17  N   UNL     1      -7.962  10.273  68.170  1.00  0.00    -0.107 NA 
HETATM   18  N   UNL     1      -7.600  12.514  67.681  1.00  0.00    -0.132 NA 
HETATM   19  C   UNL     1      -8.061  13.703  67.225  1.00  0.00    -0.139 A  
HETATM   20  H2  UNL     1      -8.128   9.593  67.428  1.00  0.00     0.000 HD 
HETATM   21  H1  UNL     1      -6.999  10.148  68.482  1.00  0.00     0.000 HD 
HETATM   22  N   UNL     1      -7.096  14.697  67.081  1.00  0.00    -0.357 NA 
HETATM   23  H1  UNL     1      -6.127  14.593  67.380  1.00  0.00     0.000 HD 
HETATM   24  H2  UNL     1      -7.460  15.538  67.529  1.00  0.00     0.000 HD 
ENDBRANCH   9  12
TORSDOF 1
ENDMDL
MODEL      106
REMARK 921   NORMALIZED FREE ENERGY PREDICTED BY IDOCK:   -4.71 KCAL/MOL
REMARK 922        TOTAL FREE ENERGY PREDICTED BY IDOCK:   -5.36 KCAL/MOL
REMARK 923 INTER-LIGAND FREE ENERGY PREDICTED BY IDOCK:   -4.98 KCAL/MOL
REMARK 924 INTRA-LIGAND FREE ENERGY PREDICTED BY IDOCK:   -0.37 KCAL/MOL
REMARK 927      BINDING AFFINITY PREDICTED BY RF-SCORE:    0.00 PKD
ROOT
HETATM    1  N   UNL     1      -9.737   3.805  66.453  1.00  0.00    -0.362 NA 
HETATM    2  H2  UNL     1      -9.755   2.871  66.043  1.00  0.00     0.000 HD 
HETATM    3  C   UNL     1     -10.556   4.746  65.943  1.00  0.00    -0.244 C  
HETATM    4  H1  UNL     1      -9.100   3.980  67.231  1.00  0.00     0.000 HD 
HETATM    5  N   UNL     1     -11.356   4.526  64.966  1.00  0.00    -1.108 NA 
HETATM    6  N   UNL     1     -10.571   6.009  66.455  1.00  0.00    -0.489 N  
HETATM    7  H   UNL     1     -11.185   6.680  65.994  1.00  0.00     0.000 HD 
HETATM    8  H2  UNL     1     -11.375   3.592  64.555  1.00  0.00     0.000 HD 
HETATM    9  C   UNL     1      -9.842   6.476  67.534  1.00  0.00    -0.124 C  
HETATM   10  H1  UNL     1     -11.976   5.238  64.580  1.00  0.00     0.000 HD 
HETATM   11  O   UNL     1      -8.938   5.846  68.087  1.00  0.00    -0.117 OA 
ENDROOT
BRANCH   9  12
HETATM   12  C   UNL     1     -10.180   7.860  67.969  1.00  0.00    -0.208 A  
HETATM   13  N   UNL     1     -10.431   8.024  69.298  1.00  0.00    -0.221 NA 
HETATM   14  C   UNL     1     -10.818   9.277  69.628  1.00  0.00    -0.212 A  
HETATM   15 CL   UNL     1     -11.202   9.472  71.292  1.00  0.00    -0.428 Cl 
HETATM   16  C   UNL     1     -10.953  10.328  68.701  1.00  0.00    -0.244 A  
HETATM   17  N   UNL     1     -11.301  11.633  69.055  1.00  0.00    -0.250 NA 
HETATM   18  N   UNL     1     -10.674  10.137  67.393  1.00  0.00    -0.277 NA 
HETATM   19  C   UNL     1     -10.293   8.892  67.020  1.00  0.00    -0.269 A  
HETATM   20  H2  UNL     1     -10.636  11.940  69.764  1.00  0.00     0.000 HD 
HETATM   21  H1  UNL     1     -11.398  12.394  68.383  1.00  0.00     0.000 HD 
HETATM   22  N   UNL     1      -9.910   8.764  65.688  1.00  0.00    -0.429 NA 
HETATM   23  H1  UNL     1      -9.992   9.512  65.000  1.00  0.00     0.000 HD 
HETATM   24  H2  UNL     1     -10.400   7.953  65.310  1.00  0.00     0.000 HD 
ENDBRANCH   9  12
TORSDOF 1
ENDMDL
MODEL      107
REMARK 921   NORMALIZED FREE ENERGY PREDICTED BY IDOCK:   -4.67 KCAL/MOL
REMARK 922        TOTAL FREE ENERGY PREDICTED BY IDOCK:   -5.32 KCAL/MOL
REMARK 923 INTER-LIGAND FREE ENERGY PREDICTED BY IDOCK:   -4.93 KCAL/MOL
REMARK 924 INTRA-LIGAND FREE ENERGY PREDICTED BY IDOCK:   -0.39 KCAL/MOL
REMARK 927      BINDING AFFINITY PREDICTED BY RF-SCORE:    0.00 PKD
ROOT
HETATM    1  N   UNL     1     -13.274  10.280  71.634  1.00  0.00    -0.410 NA 
HETATM    2  H2  UNL     1     -13.873  11.034  71.972  1.00  0.00     0.000 HD 
HETATM    3  C   UNL     1     -13.480   9.035  72.107  1.00  0.00    -0.459 C  
HETATM    4  H1  UNL     1     -12.547  10.507  70.954  1.00  0.00     0.000 HD 
HETATM    5  N   UNL     1     -14.393   8.751  72.961  1.00  0.00    -1.133 NA 
HETATM    6  N   UNL     1     -12.708   7.993  71.688  1.00  0.00    -0.320 N  
HETATM    7  H   UNL     1     -12.894   7.087  72.118  1.00  0.00     0.000 HD 
HETATM    8  H2  UNL     1     -14.993   9.504  73.299  1.00  0.00     0.000 HD 
HETATM    9  C   UNL     1     -11.700   8.035  70.742  1.00  0.00    -0.206 C  
HETATM   10  H1  UNL     1     -14.550   7.808  73.318  1.00  0.00     0.000 HD 
HETATM   11  O   UNL     1     -11.242   9.073  70.259  1.00  0.00    -0.245 OA 
ENDROOT
BRANCH   9  12
HETATM   12  C   UNL     1     -11.133   6.709  70.369  1.00  0.00    -0.322 A  
HETATM   13  N   UNL     1     -10.819   5.880  71.404  1.00  0.00    -0.266 NA 
HETATM   14  C   UNL     1     -10.227   4.727  71.017  1.00  0.00    -0.168 A  
HETATM   15 CL   UNL     1      -9.768   3.708  72.323  1.00  0.00    -0.211 Cl 
HETATM   16  C   UNL     1      -9.956   4.394  69.677  1.00  0.00    -0.138 A  
HETATM   17  N   UNL     1      -9.394   3.179  69.280  1.00  0.00    -0.157 NA 
HETATM   18  N   UNL     1     -10.300   5.229  68.673  1.00  0.00    -0.155 NA 
HETATM   19  C   UNL     1     -10.886   6.400  69.020  1.00  0.00    -0.327 A  
HETATM   20  H2  UNL     1      -9.980   2.437  69.662  1.00  0.00     0.000 HD 
HETATM   21  H1  UNL     1      -9.198   2.938  68.309  1.00  0.00     0.000 HD 
HETATM   22  N   UNL     1     -11.324   7.182  67.954  1.00  0.00    -0.414 NA 
HETATM   23  H1  UNL     1     -11.145   6.958  66.976  1.00  0.00     0.000 HD 
HETATM   24  H2  UNL     1     -10.980   8.129  68.113  1.00  0.00     0.000 HD 
ENDBRANCH   9  12
TORSDOF 1
ENDMDL
MODEL      108
REMARK 921   NORMALIZED FREE ENERGY PREDICTED BY IDOCK:   -4.66 KCAL/MOL
REMARK 922        TOTAL FREE ENERGY PREDICTED BY IDOCK:   -5.30 KCAL/MOL
REMARK 923 INTER-LIGAND FREE ENERGY PREDICTED BY IDOCK:   -5.48 KCAL/MOL
REMARK 924 INTRA-LIGAND FREE ENERGY PREDICTED BY IDOCK:    0.18 KCAL/MOL
REMARK 927      BINDING AFFINITY PREDICTED BY RF-SCORE:    0.00 PKD
ROOT
HETATM    1  N   UNL     1     -10.368  18.699  68.110  1.00  0.00    -0.372 NA 
HETATM    2  H2  UNL     1     -10.040  19.653  67.958  1.00  0.00     0.000 HD 
HETATM    3  C   UNL     1     -10.313  17.831  67.080  1.00  0.00    -0.353 C  
HETATM    4  H1  UNL     1     -10.721  18.450  69.034  1.00  0.00     0.000 HD 
HETATM    5  N   UNL     1      -9.869  18.145  65.919  1.00  0.00    -0.547 NA 
HETATM    6  N   UNL     1     -10.739  16.545  67.229  1.00  0.00    -0.287 N  
HETATM    7  H   UNL     1     -10.707  15.955  66.398  1.00  0.00     0.000 HD 
HETATM    8  H2  UNL     1      -9.540  19.099  65.767  1.00  0.00     0.000 HD 
HETATM    9  C   UNL     1     -11.211  15.956  68.389  1.00  0.00    -0.368 C  
HETATM   10  H1  UNL     1      -9.827  17.487  65.140  1.00  0.00     0.000 HD 
HETATM   11  O   UNL     1     -11.469  16.571  69.425  1.00  0.00    -0.200 OA 
ENDROOT
BRANCH   9  12
HETATM   12  C   UNL     1     -11.455  14.490  68.295  1.00  0.00    -0.311 A  
HETATM   13  N   UNL     1     -11.748  13.855  69.465  1.00  0.00    -0.293 NA 
HETATM   14  C   UNL     1     -11.875  12.515  69.340  1.00  0.00    -0.308 A  
HETATM   15 CL   UNL     1     -12.177  11.703  70.825  1.00  0.00    -0.470 Cl 
HETATM   16  C   UNL     1     -11.724  11.821  68.125  1.00  0.00    -0.307 A  
HETATM   17  N   UNL     1     -11.909  10.443  67.993  1.00  0.00    -0.681 NA 
HETATM   18  N   UNL     1     -11.455  12.482  66.979  1.00  0.00    -0.334 NA 
HETATM   19  C   UNL     1     -11.310  13.827  67.063  1.00  0.00    -0.326 A  
HETATM   20  H2  UNL     1     -12.840  10.228  68.349  1.00  0.00     0.000 HD 
HETATM   21  H1  UNL     1     -11.800   9.940  67.112  1.00  0.00     0.000 HD 
HETATM   22  N   UNL     1     -11.144  14.482  65.846  1.00  0.00    -0.321 NA 
HETATM   23  H1  UNL     1     -11.039  14.001  64.953  1.00  0.00     0.000 HD 
HETATM   24  H2  UNL     1     -10.343  15.106  65.947  1.00  0.00     0.000 HD 
ENDBRANCH   9  12
TORSDOF 1
ENDMDL
MODEL      109
REMARK 921   NORMALIZED FREE ENERGY PREDICTED BY IDOCK:   -4.63 KCAL/MOL
REMARK 922        TOTAL FREE ENERGY PREDICTED BY IDOCK:   -5.27 KCAL/MOL
REMARK 923 INTER-LIGAND FREE ENERGY PREDICTED BY IDOCK:   -4.87 KCAL/MOL
REMARK 924 INTRA-LIGAND FREE ENERGY PREDICTED BY IDOCK:   -0.40 KCAL/MOL
REMARK 927      BINDING AFFINITY PREDICTED BY RF-SCORE:    0.00 PKD
ROOT
HETATM    1  N   UNL     1     -10.413  16.384  64.709  1.00  0.00    -0.618 NA 
HETATM    2  H2  UNL     1     -10.475  17.192  64.089  1.00  0.00     0.000 HD 
HETATM    3  C   UNL     1     -11.390  15.457  64.656  1.00  0.00    -0.355 C  
HETATM    4  H1  UNL     1      -9.613  16.318  65.340  1.00  0.00     0.000 HD 
HETATM    5  N   UNL     1     -12.395  15.540  63.864  1.00  0.00    -0.920 NA 
HETATM    6  N   UNL     1     -11.354  14.360  65.463  1.00  0.00    -0.326 N  
HETATM    7  H   UNL     1     -12.147  13.721  65.399  1.00  0.00     0.000 HD 
HETATM    8  H2  UNL     1     -12.458  16.348  63.244  1.00  0.00     0.000 HD 
HETATM    9  C   UNL     1     -10.357  14.021  66.361  1.00  0.00    -0.289 C  
HETATM   10  H1  UNL     1     -13.134  14.839  63.824  1.00  0.00     0.000 HD 
HETATM   11  O   UNL     1      -9.426  14.764  66.678  1.00  0.00    -0.245 OA 
ENDROOT
BRANCH   9  12
HETATM   12  C   UNL     1     -10.509  12.681  66.992  1.00  0.00    -0.232 A  
HETATM   13  N   UNL     1      -9.492  11.799  66.776  1.00  0.00    -0.188 NA 
HETATM   14  C   UNL     1      -9.717  10.571  67.295  1.00  0.00    -0.169 A  
HETATM   15 CL   UNL     1      -8.469   9.436  66.966  1.00  0.00    -0.127 Cl 
HETATM   16  C   UNL     1     -10.884  10.217  67.998  1.00  0.00    -0.270 A  
HETATM   17  N   UNL     1     -11.087   8.963  68.578  1.00  0.00    -0.442 NA 
HETATM   18  N   UNL     1     -11.863  11.121  68.214  1.00  0.00    -0.577 NA 
HETATM   19  C   UNL     1     -11.680  12.361  67.701  1.00  0.00    -0.346 A  
HETATM   20  H2  UNL     1     -10.297   8.786  69.197  1.00  0.00     0.000 HD 
HETATM   21  H1  UNL     1     -11.933   8.707  69.088  1.00  0.00     0.000 HD 
HETATM   22  N   UNL     1     -12.659  13.293  68.039  1.00  0.00     0.229 NA 
HETATM   23  H1  UNL     1     -13.508  13.061  68.553  1.00  0.00     0.000 HD 
HETATM   24  H2  UNL     1     -12.946  13.754  67.176  1.00  0.00     0.000 HD 
ENDBRANCH   9  12
TORSDOF 1
ENDMDL
MODEL      110
REMARK 921   NORMALIZED FREE ENERGY PREDICTED BY IDOCK:   -4.61 KCAL/MOL
REMARK 922        TOTAL FREE ENERGY PREDICTED BY IDOCK:   -5.26 KCAL/MOL
REMARK 923 INTER-LIGAND FREE ENERGY PREDICTED BY IDOCK:   -5.11 KCAL/MOL
REMARK 924 INTRA-LIGAND FREE ENERGY PREDICTED BY IDOCK:   -0.15 KCAL/MOL
REMARK 927      BINDING AFFINITY PREDICTED BY RF-SCORE:    0.00 PKD
ROOT
HETATM    1  N   UNL     1     -13.729   9.096  73.283  1.00  0.00    -0.970 NA 
HETATM    2  H2  UNL     1     -14.179   8.549  74.017  1.00  0.00     0.000 HD 
HETATM    3  C   UNL     1     -12.852   8.477  72.468  1.00  0.00    -0.255 C  
HETATM    4  H1  UNL     1     -13.964  10.086  73.202  1.00  0.00     0.000 HD 
HETATM    5  N   UNL     1     -12.556   7.234  72.569  1.00  0.00    -0.465 NA 
HETATM    6  N   UNL     1     -12.223   9.161  71.472  1.00  0.00    -0.328 N  
HETATM    7  H   UNL     1     -11.543   8.639  70.919  1.00  0.00     0.000 HD 
HETATM    8  H2  UNL     1     -13.006   6.686  73.304  1.00  0.00     0.000 HD 
HETATM    9  C   UNL     1     -12.410  10.489  71.130  1.00  0.00    -0.405 C  
HETATM   10  H1  UNL     1     -11.893   6.765  71.952  1.00  0.00     0.000 HD 
HETATM   11  O   UNL     1     -13.062  11.293  71.799  1.00  0.00    -0.472 OA 
ENDROOT
BRANCH   9  12
HETATM   12  C   UNL     1     -11.702  10.926  69.894  1.00  0.00    -0.339 A  
HETATM   13  N   UNL     1     -11.146   9.936  69.142  1.00  0.00    -0.196 NA 
HETATM   14  C   UNL     1     -10.441  10.389  68.080  1.00  0.00    -0.188 A  
HETATM   15 CL   UNL     1      -9.681   9.147  67.167  1.00  0.00    -0.221 Cl 
HETATM   16  C   UNL     1     -10.288  11.751  67.764  1.00  0.00    -0.194 A  
HETATM   17  N   UNL     1      -9.604  12.211  66.636  1.00  0.00    -0.214 NA 
HETATM   18  N   UNL     1     -10.871  12.708  68.518  1.00  0.00    -0.244 NA 
HETATM   19  C   UNL     1     -11.577  12.295  69.598  1.00  0.00    -0.278 A  
HETATM   20  H2  UNL     1     -10.023  11.759  65.824  1.00  0.00     0.000 HD 
HETATM   21  H1  UNL     1      -9.493  13.199  66.406  1.00  0.00     0.000 HD 
HETATM   22  N   UNL     1     -12.253  13.300  70.284  1.00  0.00    -0.340 NA 
HETATM   23  H1  UNL     1     -12.162  14.293  70.069  1.00  0.00     0.000 HD 
HETATM   24  H2  UNL     1     -12.036  13.187  71.274  1.00  0.00     0.000 HD 
ENDBRANCH   9  12
TORSDOF 1
ENDMDL
MODEL      111
REMARK 921   NORMALIZED FREE ENERGY PREDICTED BY IDOCK:   -4.61 KCAL/MOL
REMARK 922        TOTAL FREE ENERGY PREDICTED BY IDOCK:   -5.25 KCAL/MOL
REMARK 923 INTER-LIGAND FREE ENERGY PREDICTED BY IDOCK:   -4.88 KCAL/MOL
REMARK 924 INTRA-LIGAND FREE ENERGY PREDICTED BY IDOCK:   -0.38 KCAL/MOL
REMARK 927      BINDING AFFINITY PREDICTED BY RF-SCORE:    0.00 PKD
ROOT
HETATM    1  N   UNL     1     -10.819  13.892  64.264  1.00  0.00    -0.591 NA 
HETATM    2  H2  UNL     1     -10.785  14.238  63.305  1.00  0.00     0.000 HD 
HETATM    3  C   UNL     1     -11.820  13.059  64.611  1.00  0.00    -0.372 C  
HETATM    4  H1  UNL     1     -10.093  14.195  64.914  1.00  0.00     0.000 HD 
HETATM    5  N   UNL     1     -12.732  12.678  63.794  1.00  0.00    -0.736 NA 
HETATM    6  N   UNL     1     -11.911  12.568  65.878  1.00  0.00    -0.431 N  
HETATM    7  H   UNL     1     -12.716  11.975  66.081  1.00  0.00     0.000 HD 
HETATM    8  H2  UNL     1     -12.699  13.024  62.834  1.00  0.00     0.000 HD 
HETATM    9  C   UNL     1     -11.028  12.789  66.920  1.00  0.00    -0.260 C  
HETATM   10  H1  UNL     1     -13.489  12.047  64.056  1.00  0.00     0.000 HD 
HETATM   11  O   UNL     1     -10.108  13.609  66.889  1.00  0.00    -0.251 OA 
ENDROOT
BRANCH   9  12
HETATM   12  C   UNL     1     -11.296  11.995  68.151  1.00  0.00    -0.291 A  
HETATM   13  N   UNL     1     -11.038  10.659  68.070  1.00  0.00    -0.281 NA 
HETATM   14  C   UNL     1     -11.380   9.970  69.182  1.00  0.00    -0.094 A  
HETATM   15 CL   UNL     1     -11.119   8.275  69.058  1.00  0.00     0.116 Cl 
HETATM   16  C   UNL     1     -11.948  10.558  70.327  1.00  0.00    -0.325 A  
HETATM   17  N   UNL     1     -12.249   9.850  71.492  1.00  0.00    -0.394 NA 
HETATM   18  N   UNL     1     -12.171  11.889  70.384  1.00  0.00    -0.338 NA 
HETATM   19  C   UNL     1     -11.851  12.614  69.285  1.00  0.00    -0.302 A  
HETATM   20  H2  UNL     1     -11.395   9.379  71.788  1.00  0.00     0.000 HD 
HETATM   21  H1  UNL     1     -12.660  10.277  72.322  1.00  0.00     0.000 HD 
HETATM   22  N   UNL     1     -11.993  13.992  69.423  1.00  0.00    -0.325 NA 
HETATM   23  H1  UNL     1     -12.395  14.441  70.245  1.00  0.00     0.000 HD 
HETATM   24  H2  UNL     1     -12.516  14.324  68.613  1.00  0.00     0.000 HD 
ENDBRANCH   9  12
TORSDOF 1
ENDMDL
MODEL      112
REMARK 921   NORMALIZED FREE ENERGY PREDICTED BY IDOCK:   -4.60 KCAL/MOL
REMARK 922        TOTAL FREE ENERGY PREDICTED BY IDOCK:   -5.24 KCAL/MOL
REMARK 923 INTER-LIGAND FREE ENERGY PREDICTED BY IDOCK:   -4.84 KCAL/MOL
REMARK 924 INTRA-LIGAND FREE ENERGY PREDICTED BY IDOCK:   -0.40 KCAL/MOL
REMARK 927      BINDING AFFINITY PREDICTED BY RF-SCORE:    0.00 PKD
ROOT
HETATM    1  N   UNL     1      -7.203  13.860  69.642  1.00  0.00    -0.330 NA 
HETATM    2  H2  UNL     1      -6.469  14.057  70.322  1.00  0.00     0.000 HD 
HETATM    3  C   UNL     1      -7.545  14.829  68.768  1.00  0.00    -0.137 C  
HETATM    4  H1  UNL     1      -7.643  12.940  69.656  1.00  0.00     0.000 HD 
HETATM    5  N   UNL     1      -6.991  15.985  68.750  1.00  0.00    -0.131 NA 
HETATM    6  N   UNL     1      -8.519  14.618  67.840  1.00  0.00    -0.150 N  
HETATM    7  H   UNL     1      -8.753  15.407  67.238  1.00  0.00     0.000 HD 
HETATM    8  H2  UNL     1      -6.256  16.182  69.431  1.00  0.00     0.000 HD 
HETATM    9  C   UNL     1      -9.223  13.446  67.626  1.00  0.00    -0.212 C  
HETATM   10  H1  UNL     1      -7.249  16.718  68.089  1.00  0.00     0.000 HD 
HETATM   11  O   UNL     1      -9.181  12.465  68.370  1.00  0.00    -0.197 OA 
ENDROOT
BRANCH   9  12
HETATM   12  C   UNL     1     -10.118  13.458  66.435  1.00  0.00    -0.292 A  
HETATM   13  N   UNL     1      -9.801  12.583  65.441  1.00  0.00    -0.213 NA 
HETATM   14  C   UNL     1     -10.588  12.694  64.347  1.00  0.00    -0.364 A  
HETATM   15 CL   UNL     1     -10.149  11.638  63.063  1.00  0.00    -0.371 Cl 
HETATM   16  C   UNL     1     -11.643  13.618  64.228  1.00  0.00    -0.382 A  
HETATM   17  N   UNL     1     -12.486  13.691  63.118  1.00  0.00    -1.045 NA 
HETATM   18  N   UNL     1     -11.945  14.458  65.242  1.00  0.00    -0.378 NA 
HETATM   19  C   UNL     1     -11.172  14.385  66.352  1.00  0.00    -0.345 A  
HETATM   20  H2  UNL     1     -12.883  12.762  62.979  1.00  0.00     0.000 HD 
HETATM   21  H1  UNL     1     -13.251  14.361  63.032  1.00  0.00     0.000 HD 
HETATM   22  N   UNL     1     -11.583  15.187  67.414  1.00  0.00    -0.294 NA 
HETATM   23  H1  UNL     1     -12.347  15.859  67.353  1.00  0.00     0.000 HD 
HETATM   24  H2  UNL     1     -10.762  15.695  67.743  1.00  0.00     0.000 HD 
ENDBRANCH   9  12
TORSDOF 1
ENDMDL
MODEL      113
REMARK 921   NORMALIZED FREE ENERGY PREDICTED BY IDOCK:   -4.56 KCAL/MOL
REMARK 922        TOTAL FREE ENERGY PREDICTED BY IDOCK:   -5.20 KCAL/MOL
REMARK 923 INTER-LIGAND FREE ENERGY PREDICTED BY IDOCK:   -4.90 KCAL/MOL
REMARK 924 INTRA-LIGAND FREE ENERGY PREDICTED BY IDOCK:   -0.31 KCAL/MOL
REMARK 927      BINDING AFFINITY PREDICTED BY RF-SCORE:    0.00 PKD
ROOT
HETATM    1  N   UNL     1      -9.285  11.702  68.859  1.00  0.00    -0.404 NA 
HETATM    2  H2  UNL     1      -9.071  10.730  69.086  1.00  0.00     0.000 HD 
HETATM    3  C   UNL     1      -8.632  12.279  67.831  1.00  0.00    -0.169 C  
HETATM    4  H1  UNL     1      -9.982  12.189  69.422  1.00  0.00     0.000 HD 
HETATM    5  N   UNL     1      -7.755  11.667  67.123  1.00  0.00    -0.152 NA 
HETATM    6  N   UNL     1      -8.879  13.574  67.486  1.00  0.00    -0.197 N  
HETATM    7  H   UNL     1      -8.320  13.958  66.725  1.00  0.00     0.000 HD 
HETATM    8  H2  UNL     1      -7.541  10.695  67.349  1.00  0.00     0.000 HD 
HETATM    9  C   UNL     1      -9.809  14.422  68.061  1.00  0.00    -0.221 C  
HETATM   10  H1  UNL     1      -7.261  12.104  66.344  1.00  0.00     0.000 HD 
HETATM   11  O   UNL     1     -10.438  14.170  69.091  1.00  0.00    -0.217 OA 
ENDROOT
BRANCH   9  12
HETATM   12  C   UNL     1      -9.972  15.734  67.374  1.00  0.00    -0.237 A  
HETATM   13  N   UNL     1      -9.968  16.835  68.177  1.00  0.00    -0.260 NA 
HETATM   14  C   UNL     1     -10.206  17.991  67.518  1.00  0.00    -0.369 A  
HETATM   15 CL   UNL     1     -10.269  19.374  68.537  1.00  0.00    -0.510 Cl 
HETATM   16  C   UNL     1     -10.436  18.072  66.132  1.00  0.00    -0.331 A  
HETATM   17  N   UNL     1     -10.629  19.274  65.448  1.00  0.00    -0.411 NA 
HETATM   18  N   UNL     1     -10.412  16.964  65.360  1.00  0.00    -0.642 NA 
HETATM   19  C   UNL     1     -10.187  15.783  65.985  1.00  0.00    -0.333 A  
HETATM   20  H2  UNL     1      -9.828  19.870  65.656  1.00  0.00     0.000 HD 
HETATM   21  H1  UNL     1     -10.795  19.333  64.444  1.00  0.00     0.000 HD 
HETATM   22  N   UNL     1     -10.060  14.682  65.143  1.00  0.00    -0.443 NA 
HETATM   23  H1  UNL     1     -10.216  14.718  64.136  1.00  0.00     0.000 HD 
HETATM   24  H2  UNL     1     -10.662  13.947  65.514  1.00  0.00     0.000 HD 
ENDBRANCH   9  12
TORSDOF 1
ENDMDL
MODEL      114
REMARK 921   NORMALIZED FREE ENERGY PREDICTED BY IDOCK:   -4.56 KCAL/MOL
REMARK 922        TOTAL FREE ENERGY PREDICTED BY IDOCK:   -5.20 KCAL/MOL
REMARK 923 INTER-LIGAND FREE ENERGY PREDICTED BY IDOCK:   -4.82 KCAL/MOL
REMARK 924 INTRA-LIGAND FREE ENERGY PREDICTED BY IDOCK:   -0.38 KCAL/MOL
REMARK 927      BINDING AFFINITY PREDICTED BY RF-SCORE:    0.00 PKD
ROOT
HETATM    1  N   UNL     1     -12.600  12.731  63.024  1.00  0.00    -0.627 NA 
HETATM    2  H2  UNL     1     -13.289  13.024  62.331  1.00  0.00     0.000 HD 
HETATM    3  C   UNL     1     -12.077  13.664  63.844  1.00  0.00    -0.411 C  
HETATM    4  H1  UNL     1     -12.339  11.745  63.061  1.00  0.00     0.000 HD 
HETATM    5  N   UNL     1     -12.405  14.903  63.797  1.00  0.00    -1.071 NA 
HETATM    6  N   UNL     1     -11.153  13.326  64.786  1.00  0.00    -0.326 N  
HETATM    7  H   UNL     1     -10.771  14.090  65.344  1.00  0.00     0.000 HD 
HETATM    8  H2  UNL     1     -13.095  15.197  63.104  1.00  0.00     0.000 HD 
HETATM    9  C   UNL     1     -10.678  12.057  65.065  1.00  0.00    -0.296 C  
HETATM   10  H1  UNL     1     -12.010  15.610  64.418  1.00  0.00     0.000 HD 
HETATM   11  O   UNL     1     -10.908  11.062  64.376  1.00  0.00    -0.334 OA 
ENDROOT
BRANCH   9  12
HETATM   12  C   UNL     1      -9.788  11.967  66.256  1.00  0.00    -0.231 A  
HETATM   13  N   UNL     1      -8.457  11.827  66.000  1.00  0.00     0.035 NA 
HETATM   14  C   UNL     1      -7.703  11.662  67.111  1.00  0.00    -0.159 A  
HETATM   15 CL   UNL     1      -6.033  11.417  66.788  1.00  0.00    -0.129 Cl 
HETATM   16  C   UNL     1      -8.225  11.636  68.417  1.00  0.00    -0.155 A  
HETATM   17  N   UNL     1      -7.436  11.519  69.563  1.00  0.00    -0.349 NA 
HETATM   18  N   UNL     1      -9.547  11.800  68.639  1.00  0.00    -0.159 NA 
HETATM   19  C   UNL     1     -10.338  11.958  67.550  1.00  0.00    -0.200 A  
HETATM   20  H2  UNL     1      -6.743  12.266  69.530  1.00  0.00     0.000 HD 
HETATM   21  H1  UNL     1      -7.814  11.500  70.511  1.00  0.00     0.000 HD 
HETATM   22  N   UNL     1     -11.675  12.233  67.825  1.00  0.00    -0.407 NA 
HETATM   23  H1  UNL     1     -12.074  12.226  68.763  1.00  0.00     0.000 HD 
HETATM   24  H2  UNL     1     -12.237  11.600  67.256  1.00  0.00     0.000 HD 
ENDBRANCH   9  12
TORSDOF 1
ENDMDL
MODEL      115
REMARK 921   NORMALIZED FREE ENERGY PREDICTED BY IDOCK:   -4.56 KCAL/MOL
REMARK 922        TOTAL FREE ENERGY PREDICTED BY IDOCK:   -5.20 KCAL/MOL
REMARK 923 INTER-LIGAND FREE ENERGY PREDICTED BY IDOCK:   -4.82 KCAL/MOL
REMARK 924 INTRA-LIGAND FREE ENERGY PREDICTED BY IDOCK:   -0.38 KCAL/MOL
REMARK 927      BINDING AFFINITY PREDICTED BY RF-SCORE:    0.00 PKD
ROOT
HETATM    1  N   UNL     1      -8.255  19.945  66.014  1.00  0.00    -0.441 NA 
HETATM    2  H2  UNL     1      -8.138  20.957  65.952  1.00  0.00     0.000 HD 
HETATM    3  C   UNL     1      -9.371  19.462  66.596  1.00  0.00    -0.349 C  
HETATM    4  H1  UNL     1      -7.521  19.348  65.632  1.00  0.00     0.000 HD 
HETATM    5  N   UNL     1     -10.294  20.212  67.076  1.00  0.00    -0.414 NA 
HETATM    6  N   UNL     1      -9.576  18.120  66.704  1.00  0.00    -0.295 N  
HETATM    7  H   UNL     1     -10.423  17.826  67.191  1.00  0.00     0.000 HD 
HETATM    8  H2  UNL     1     -10.177  21.225  67.014  1.00  0.00     0.000 HD 
HETATM    9  C   UNL     1      -8.758  17.113  66.222  1.00  0.00    -0.233 C  
HETATM   10  H1  UNL     1     -11.139  19.847  67.515  1.00  0.00     0.000 HD 
HETATM   11  O   UNL     1      -7.627  17.296  65.766  1.00  0.00    -0.440 OA 
ENDROOT
BRANCH   9  12
HETATM   12  C   UNL     1      -9.314  15.737  66.346  1.00  0.00    -0.301 A  
HETATM   13  N   UNL     1     -10.604  15.574  65.937  1.00  0.00    -0.324 NA 
HETATM   14  C   UNL     1     -11.090  14.331  66.151  1.00  0.00    -0.324 A  
HETATM   15 CL   UNL     1     -12.737  14.140  65.700  1.00  0.00    -0.523 Cl 
HETATM   16  C   UNL     1     -10.348  13.288  66.737  1.00  0.00    -0.257 A  
HETATM   17  N   UNL     1     -10.838  11.991  66.906  1.00  0.00    -0.247 NA 
HETATM   18  N   UNL     1      -9.064  13.476  67.112  1.00  0.00    -0.223 NA 
HETATM   19  C   UNL     1      -8.544  14.712  66.923  1.00  0.00    -0.204 A  
HETATM   20  H2  UNL     1     -11.147  11.664  65.992  1.00  0.00     0.000 HD 
HETATM   21  H1  UNL     1     -10.300  11.235  67.331  1.00  0.00     0.000 HD 
HETATM   22  N   UNL     1      -7.188  14.835  67.219  1.00  0.00    -0.246 NA 
HETATM   23  H1  UNL     1      -6.630  14.092  67.637  1.00  0.00     0.000 HD 
HETATM   24  H2  UNL     1      -7.083  15.660  67.810  1.00  0.00     0.000 HD 
ENDBRANCH   9  12
TORSDOF 1
ENDMDL
MODEL      116
REMARK 921   NORMALIZED FREE ENERGY PREDICTED BY IDOCK:   -4.54 KCAL/MOL
REMARK 922        TOTAL FREE ENERGY PREDICTED BY IDOCK:   -5.18 KCAL/MOL
REMARK 923 INTER-LIGAND FREE ENERGY PREDICTED BY IDOCK:   -4.82 KCAL/MOL
REMARK 924 INTRA-LIGAND FREE ENERGY PREDICTED BY IDOCK:   -0.36 KCAL/MOL
REMARK 927      BINDING AFFINITY PREDICTED BY RF-SCORE:    0.00 PKD
ROOT
HETATM    1  N   UNL     1     -10.149  18.008  66.229  1.00  0.00    -0.416 NA 
HETATM    2  H2  UNL     1      -9.829  18.890  65.828  1.00  0.00     0.000 HD 
HETATM    3  C   UNL     1      -9.919  17.777  67.537  1.00  0.00    -0.324 C  
HETATM    4  H1  UNL     1     -10.628  17.344  65.620  1.00  0.00     0.000 HD 
HETATM    5  N   UNL     1      -9.317  18.611  68.303  1.00  0.00    -0.316 NA 
HETATM    6  N   UNL     1     -10.325  16.615  68.122  1.00  0.00    -0.288 N  
HETATM    7  H   UNL     1     -10.082  16.490  69.105  1.00  0.00     0.000 HD 
HETATM    8  H2  UNL     1      -8.997  19.494  67.902  1.00  0.00     0.000 HD 
HETATM    9  C   UNL     1     -11.033  15.588  67.524  1.00  0.00    -0.316 C  
HETATM   10  H1  UNL     1      -9.143  18.436  69.293  1.00  0.00     0.000 HD 
HETATM   11  O   UNL     1     -11.254  15.508  66.314  1.00  0.00    -0.239 OA 
ENDROOT
BRANCH   9  12
HETATM   12  C   UNL     1     -11.479  14.510  68.450  1.00  0.00    -0.302 A  
HETATM   13  N   UNL     1     -11.933  14.917  69.668  1.00  0.00    -0.311 NA 
HETATM   14  C   UNL     1     -12.243  13.899  70.503  1.00  0.00    -0.373 A  
HETATM   15 CL   UNL     1     -12.751  14.408  72.064  1.00  0.00    -0.396 Cl 
HETATM   16  C   UNL     1     -12.118  12.539  70.162  1.00  0.00    -0.292 A  
HETATM   17  N   UNL     1     -12.490  11.493  71.009  1.00  0.00    -0.384 NA 
HETATM   18  N   UNL     1     -11.686  12.169  68.938  1.00  0.00    -0.311 NA 
HETATM   19  C   UNL     1     -11.355  13.160  68.076  1.00  0.00    -0.292 A  
HETATM   20  H2  UNL     1     -13.463  11.649  71.272  1.00  0.00     0.000 HD 
HETATM   21  H1  UNL     1     -12.400  10.507  70.762  1.00  0.00     0.000 HD 
HETATM   22  N   UNL     1     -11.020  12.740  66.791  1.00  0.00    -0.264 NA 
HETATM   23  H1  UNL     1     -10.930  11.762  66.520  1.00  0.00     0.000 HD 
HETATM   24  H2  UNL     1     -10.146  13.203  66.541  1.00  0.00     0.000 HD 
ENDBRANCH   9  12
TORSDOF 1
ENDMDL
MODEL      117
REMARK 921   NORMALIZED FREE ENERGY PREDICTED BY IDOCK:   -4.54 KCAL/MOL
REMARK 922        TOTAL FREE ENERGY PREDICTED BY IDOCK:   -5.18 KCAL/MOL
REMARK 923 INTER-LIGAND FREE ENERGY PREDICTED BY IDOCK:   -4.79 KCAL/MOL
REMARK 924 INTRA-LIGAND FREE ENERGY PREDICTED BY IDOCK:   -0.39 KCAL/MOL
REMARK 927      BINDING AFFINITY PREDICTED BY RF-SCORE:    0.00 PKD
ROOT
HETATM    1  N   UNL     1     -12.542   8.326  72.669  1.00  0.00    -0.607 NA 
HETATM    2  H2  UNL     1     -13.091   7.863  73.393  1.00  0.00     0.000 HD 
HETATM    3  C   UNL     1     -13.135   8.599  71.489  1.00  0.00    -0.305 C  
HETATM    4  H1  UNL     1     -11.570   8.560  72.872  1.00  0.00     0.000 HD 
HETATM    5  N   UNL     1     -14.357   8.305  71.233  1.00  0.00    -0.648 NA 
HETATM    6  N   UNL     1     -12.447   9.215  70.488  1.00  0.00    -0.466 N  
HETATM    7  H   UNL     1     -12.946   9.353  69.610  1.00  0.00     0.000 HD 
HETATM    8  H2  UNL     1     -14.907   7.842  71.958  1.00  0.00     0.000 HD 
HETATM    9  C   UNL     1     -11.142   9.673  70.537  1.00  0.00    -0.308 C  
HETATM   10  H1  UNL     1     -14.806   8.512  70.341  1.00  0.00     0.000 HD 
HETATM   11  O   UNL     1     -10.356   9.433  71.456  1.00  0.00    -0.327 OA 
ENDROOT
BRANCH   9  12
HETATM   12  C   UNL     1     -10.703  10.450  69.345  1.00  0.00    -0.244 A  
HETATM   13  N   UNL     1     -11.336  11.639  69.140  1.00  0.00    -0.259 NA 
HETATM   14  C   UNL     1     -10.965  12.264  67.999  1.00  0.00    -0.225 A  
HETATM   15 CL   UNL     1     -11.810  13.731  67.703  1.00  0.00    -0.400 Cl 
HETATM   16  C   UNL     1     -10.014  11.752  67.097  1.00  0.00    -0.203 A  
HETATM   17  N   UNL     1      -9.596  12.427  65.948  1.00  0.00    -0.360 NA 
HETATM   18  N   UNL     1      -9.389  10.580  67.341  1.00  0.00    -0.143 NA 
HETATM   19  C   UNL     1      -9.741   9.918  68.469  1.00  0.00    -0.154 A  
HETATM   20  H2  UNL     1      -9.268  13.346  66.242  1.00  0.00     0.000 HD 
HETATM   21  H1  UNL     1      -8.907  12.056  65.294  1.00  0.00     0.000 HD 
HETATM   22  N   UNL     1      -8.996   8.772  68.740  1.00  0.00    -0.138 NA 
HETATM   23  H1  UNL     1      -8.299   8.386  68.104  1.00  0.00     0.000 HD 
HETATM   24  H2  UNL     1      -9.659   8.025  68.948  1.00  0.00     0.000 HD 
ENDBRANCH   9  12
TORSDOF 1
ENDMDL
MODEL      118
REMARK 921   NORMALIZED FREE ENERGY PREDICTED BY IDOCK:   -4.53 KCAL/MOL
REMARK 922        TOTAL FREE ENERGY PREDICTED BY IDOCK:   -5.17 KCAL/MOL
REMARK 923 INTER-LIGAND FREE ENERGY PREDICTED BY IDOCK:   -4.80 KCAL/MOL
REMARK 924 INTRA-LIGAND FREE ENERGY PREDICTED BY IDOCK:   -0.37 KCAL/MOL
REMARK 927      BINDING AFFINITY PREDICTED BY RF-SCORE:    0.00 PKD
ROOT
HETATM    1  N   UNL     1      -8.674  16.068  65.617  1.00  0.00    -0.177 NA 
HETATM    2  H2  UNL     1      -8.301  16.474  64.758  1.00  0.00     0.000 HD 
HETATM    3  C   UNL     1      -9.997  16.169  65.852  1.00  0.00    -0.356 C  
HETATM    4  H1  UNL     1      -8.026  15.607  66.256  1.00  0.00     0.000 HD 
HETATM    5  N   UNL     1     -10.811  16.749  65.049  1.00  0.00    -0.653 NA 
HETATM    6  N   UNL     1     -10.546  15.646  66.984  1.00  0.00    -0.308 N  
HETATM    7  H   UNL     1     -11.546  15.794  67.116  1.00  0.00     0.000 HD 
HETATM    8  H2  UNL     1     -10.439  17.154  64.190  1.00  0.00     0.000 HD 
HETATM    9  C   UNL     1      -9.889  14.934  67.973  1.00  0.00    -0.216 C  
HETATM   10  H1  UNL     1     -11.813  16.825  65.227  1.00  0.00     0.000 HD 
HETATM   11  O   UNL     1      -8.665  14.816  68.047  1.00  0.00    -0.158 OA 
ENDROOT
BRANCH   9  12
HETATM   12  C   UNL     1     -10.774  14.346  69.017  1.00  0.00    -0.250 A  
HETATM   13  N   UNL     1     -10.985  13.002  68.935  1.00  0.00    -0.245 NA 
HETATM   14  C   UNL     1     -11.863  12.532  69.849  1.00  0.00    -0.303 A  
HETATM   15 CL   UNL     1     -12.183  10.849  69.706  1.00  0.00    -0.398 Cl 
HETATM   16  C   UNL     1     -12.507  13.337  70.807  1.00  0.00    -0.324 A  
HETATM   17  N   UNL     1     -13.371  12.838  71.783  1.00  0.00    -0.406 NA 
HETATM   18  N   UNL     1     -12.259  14.663  70.875  1.00  0.00    -0.300 NA 
HETATM   19  C   UNL     1     -11.393  15.175  69.969  1.00  0.00    -0.277 A  
HETATM   20  H2  UNL     1     -12.865  12.113  72.291  1.00  0.00     0.000 HD 
HETATM   21  H1  UNL     1     -13.838  13.422  72.477  1.00  0.00     0.000 HD 
HETATM   22  N   UNL     1     -11.080  16.521  70.142  1.00  0.00    -0.433 NA 
HETATM   23  H1  UNL     1     -11.529  17.122  70.833  1.00  0.00     0.000 HD 
HETATM   24  H2  UNL     1     -11.186  16.975  69.235  1.00  0.00     0.000 HD 
ENDBRANCH   9  12
TORSDOF 1
ENDMDL
MODEL      119
REMARK 921   NORMALIZED FREE ENERGY PREDICTED BY IDOCK:   -4.52 KCAL/MOL
REMARK 922        TOTAL FREE ENERGY PREDICTED BY IDOCK:   -5.16 KCAL/MOL
REMARK 923 INTER-LIGAND FREE ENERGY PREDICTED BY IDOCK:   -4.78 KCAL/MOL
REMARK 924 INTRA-LIGAND FREE ENERGY PREDICTED BY IDOCK:   -0.38 KCAL/MOL
REMARK 927      BINDING AFFINITY PREDICTED BY RF-SCORE:    0.00 PKD
ROOT
HETATM    1  N   UNL     1     -11.619  15.539  68.360  1.00  0.00    -0.367 NA 
HETATM    2  H2  UNL     1     -11.714  16.395  68.907  1.00  0.00     0.000 HD 
HETATM    3  C   UNL     1     -10.554  15.416  67.542  1.00  0.00    -0.283 C  
HETATM    4  H1  UNL     1     -12.335  14.819  68.457  1.00  0.00     0.000 HD 
HETATM    5  N   UNL     1      -9.654  16.321  67.419  1.00  0.00    -0.229 NA 
HETATM    6  N   UNL     1     -10.379  14.294  66.789  1.00  0.00    -0.271 N  
HETATM    7  H   UNL     1      -9.574  14.285  66.164  1.00  0.00     0.000 HD 
HETATM    8  H2  UNL     1      -9.749  17.177  67.967  1.00  0.00     0.000 HD 
HETATM    9  C   UNL     1     -11.179  13.165  66.784  1.00  0.00    -0.299 C  
HETATM   10  H1  UNL     1      -8.848  16.227  66.801  1.00  0.00     0.000 HD 
HETATM   11  O   UNL     1     -12.272  13.085  67.348  1.00  0.00    -0.286 OA 
ENDROOT
BRANCH   9  12
HETATM   12  C   UNL     1     -10.656  12.027  65.977  1.00  0.00    -0.268 A  
HETATM   13  N   UNL     1     -10.597  10.822  66.609  1.00  0.00    -0.246 NA 
HETATM   14  C   UNL     1     -10.034   9.843  65.865  1.00  0.00    -0.277 A  
HETATM   15 CL   UNL     1      -9.896   8.338  66.683  1.00  0.00    -0.320 Cl 
HETATM   16  C   UNL     1      -9.551  10.031  64.557  1.00  0.00    -0.279 A  
HETATM   17  N   UNL     1      -9.020   9.004  63.773  1.00  0.00    -0.419 NA 
HETATM   18  N   UNL     1      -9.644  11.234  63.950  1.00  0.00    -0.246 NA 
HETATM   19  C   UNL     1     -10.193  12.244  64.667  1.00  0.00    -0.285 A  
HETATM   20  H2  UNL     1      -9.719   8.264  63.732  1.00  0.00     0.000 HD 
HETATM   21  H1  UNL     1      -8.670   9.140  62.825  1.00  0.00     0.000 HD 
HETATM   22  N   UNL     1     -10.372  13.436  63.970  1.00  0.00    -0.706 NA 
HETATM   23  H1  UNL     1     -10.036  13.593  63.020  1.00  0.00     0.000 HD 
HETATM   24  H2  UNL     1      -9.992  14.184  64.550  1.00  0.00     0.000 HD 
ENDBRANCH   9  12
TORSDOF 1
ENDMDL
MODEL      120
REMARK 921   NORMALIZED FREE ENERGY PREDICTED BY IDOCK:   -4.51 KCAL/MOL
REMARK 922        TOTAL FREE ENERGY PREDICTED BY IDOCK:   -5.15 KCAL/MOL
REMARK 923 INTER-LIGAND FREE ENERGY PREDICTED BY IDOCK:   -4.96 KCAL/MOL
REMARK 924 INTRA-LIGAND FREE ENERGY PREDICTED BY IDOCK:   -0.19 KCAL/MOL
REMARK 927      BINDING AFFINITY PREDICTED BY RF-SCORE:    0.00 PKD
ROOT
HETATM    1  N   UNL     1      -9.464  13.181  68.482  1.00  0.00    -0.374 NA 
HETATM    2  H2  UNL     1      -9.722  12.194  68.470  1.00  0.00     0.000 HD 
HETATM    3  C   UNL     1      -9.149  13.777  67.314  1.00  0.00    -0.232 C  
HETATM    4  H1  UNL     1      -9.456  13.669  69.378  1.00  0.00     0.000 HD 
HETATM    5  N   UNL     1      -9.160  13.164  66.188  1.00  0.00    -0.458 NA 
HETATM    6  N   UNL     1      -8.797  15.092  67.275  1.00  0.00    -0.189 N  
HETATM    7  H   UNL     1      -8.533  15.467  66.364  1.00  0.00     0.000 HD 
HETATM    8  H2  UNL     1      -9.419  12.177  66.175  1.00  0.00     0.000 HD 
HETATM    9  C   UNL     1      -8.760  15.974  68.341  1.00  0.00    -0.186 C  
HETATM   10  H1  UNL     1      -8.923  13.615  65.304  1.00  0.00     0.000 HD 
HETATM   11  O   UNL     1      -8.884  15.642  69.522  1.00  0.00    -0.264 OA 
ENDROOT
BRANCH   9  12
HETATM   12  C   UNL     1      -8.491  17.392  67.974  1.00  0.00    -0.235 A  
HETATM   13  N   UNL     1      -7.657  18.077  68.806  1.00  0.00    -0.289 NA 
HETATM   14  C   UNL     1      -7.515  19.382  68.481  1.00  0.00    -0.331 A  
HETATM   15 CL   UNL     1      -6.517  20.266  69.566  1.00  0.00    -0.319 Cl 
HETATM   16  C   UNL     1      -8.157  19.994  67.388  1.00  0.00    -0.323 A  
HETATM   17  N   UNL     1      -7.965  21.328  67.025  1.00  0.00    -0.620 NA 
HETATM   18  N   UNL     1      -8.961  19.281  66.570  1.00  0.00    -0.334 NA 
HETATM   19  C   UNL     1      -9.138  17.972  66.868  1.00  0.00    -0.269 A  
HETATM   20  H2  UNL     1      -6.962  21.465  66.900  1.00  0.00     0.000 HD 
HETATM   21  H1  UNL     1      -8.430  21.771  66.233  1.00  0.00     0.000 HD 
HETATM   22  N   UNL     1      -9.883  17.248  65.941  1.00  0.00    -0.534 NA 
HETATM   23  H1  UNL     1     -10.351  17.668  65.139  1.00  0.00     0.000 HD 
HETATM   24  H2  UNL     1     -10.588  16.726  66.461  1.00  0.00     0.000 HD 
ENDBRANCH   9  12
TORSDOF 1
ENDMDL
MODEL      121
REMARK 921   NORMALIZED FREE ENERGY PREDICTED BY IDOCK:   -4.51 KCAL/MOL
REMARK 922        TOTAL FREE ENERGY PREDICTED BY IDOCK:   -5.15 KCAL/MOL
REMARK 923 INTER-LIGAND FREE ENERGY PREDICTED BY IDOCK:   -4.76 KCAL/MOL
REMARK 924 INTRA-LIGAND FREE ENERGY PREDICTED BY IDOCK:   -0.39 KCAL/MOL
REMARK 927      BINDING AFFINITY PREDICTED BY RF-SCORE:    0.00 PKD
ROOT
HETATM    1  N   UNL     1      -9.305  12.924  68.509  1.00  0.00    -0.378 NA 
HETATM    2  H2  UNL     1      -9.506  11.924  68.481  1.00  0.00     0.000 HD 
HETATM    3  C   UNL     1      -9.271  13.604  67.345  1.00  0.00    -0.222 C  
HETATM    4  H1  UNL     1      -9.140  13.360  69.416  1.00  0.00     0.000 HD 
HETATM    5  N   UNL     1      -9.478  13.056  66.205  1.00  0.00    -0.430 NA 
HETATM    6  N   UNL     1      -9.008  14.940  67.326  1.00  0.00    -0.188 N  
HETATM    7  H   UNL     1      -8.958  15.382  66.408  1.00  0.00     0.000 HD 
HETATM    8  H2  UNL     1      -9.679  12.055  66.177  1.00  0.00     0.000 HD 
HETATM    9  C   UNL     1      -8.801  15.762  68.420  1.00  0.00    -0.185 C  
HETATM   10  H1  UNL     1      -9.453  13.570  65.324  1.00  0.00     0.000 HD 
HETATM   11  O   UNL     1      -8.662  15.357  69.576  1.00  0.00    -0.255 OA 
ENDROOT
BRANCH   9  12
HETATM   12  C   UNL     1      -8.693  17.213  68.105  1.00  0.00    -0.232 A  
HETATM   13  N   UNL     1      -9.696  17.738  67.347  1.00  0.00    -0.277 NA 
HETATM   14  C   UNL     1      -9.506  19.035  67.015  1.00  0.00    -0.317 A  
HETATM   15 CL   UNL     1     -10.735  19.681  66.001  1.00  0.00    -0.569 Cl 
HETATM   16  C   UNL     1      -8.387  19.791  67.409  1.00  0.00    -0.309 A  
HETATM   17  N   UNL     1      -8.223  21.145  67.109  1.00  0.00    -0.588 NA 
HETATM   18  N   UNL     1      -7.420  19.247  68.180  1.00  0.00    -0.278 NA 
HETATM   19  C   UNL     1      -7.568  17.946  68.525  1.00  0.00    -0.289 A  
HETATM   20  H2  UNL     1      -9.051  21.632  67.451  1.00  0.00     0.000 HD 
HETATM   21  H1  UNL     1      -7.412  21.693  67.394  1.00  0.00     0.000 HD 
HETATM   22  N   UNL     1      -6.610  17.455  69.409  1.00  0.00    -0.239 NA 
HETATM   23  H1  UNL     1      -5.795  17.986  69.712  1.00  0.00     0.000 HD 
HETATM   24  H2  UNL     1      -6.269  16.574  69.024  1.00  0.00     0.000 HD 
ENDBRANCH   9  12
TORSDOF 1
ENDMDL
MODEL      122
REMARK 921   NORMALIZED FREE ENERGY PREDICTED BY IDOCK:   -4.50 KCAL/MOL
REMARK 922        TOTAL FREE ENERGY PREDICTED BY IDOCK:   -5.14 KCAL/MOL
REMARK 923 INTER-LIGAND FREE ENERGY PREDICTED BY IDOCK:   -4.75 KCAL/MOL
REMARK 924 INTRA-LIGAND FREE ENERGY PREDICTED BY IDOCK:   -0.39 KCAL/MOL
REMARK 927      BINDING AFFINITY PREDICTED BY RF-SCORE:    0.00 PKD
ROOT
HETATM    1  N   UNL     1      -7.952   7.173  67.203  1.00  0.00    -0.109 NA 
HETATM    2  H2  UNL     1      -7.481   6.275  67.319  1.00  0.00     0.000 HD 
HETATM    3  C   UNL     1      -8.921   7.273  66.271  1.00  0.00    -0.156 C  
HETATM    4  H1  UNL     1      -7.665   7.951  67.797  1.00  0.00     0.000 HD 
HETATM    5  N   UNL     1      -9.281   6.295  65.524  1.00  0.00    -0.372 NA 
HETATM    6  N   UNL     1      -9.580   8.449  66.075  1.00  0.00    -0.429 N  
HETATM    7  H   UNL     1     -10.273   8.464  65.326  1.00  0.00     0.000 HD 
HETATM    8  H2  UNL     1      -8.811   5.397  65.641  1.00  0.00     0.000 HD 
HETATM    9  C   UNL     1      -9.410   9.625  66.784  1.00  0.00    -0.152 C  
HETATM   10  H1  UNL     1     -10.015   6.371  64.820  1.00  0.00     0.000 HD 
HETATM   11  O   UNL     1      -8.504   9.821  67.596  1.00  0.00    -0.121 OA 
ENDROOT
BRANCH   9  12
HETATM   12  C   UNL     1     -10.381  10.705  66.454  1.00  0.00    -0.231 A  
HETATM   13  N   UNL     1     -10.462  11.056  65.140  1.00  0.00    -0.279 NA 
HETATM   14  C   UNL     1     -11.292  12.098  64.905  1.00  0.00    -0.326 A  
HETATM   15 CL   UNL     1     -11.344  12.589  63.258  1.00  0.00    -0.471 Cl 
HETATM   16  C   UNL     1     -12.015  12.768  65.909  1.00  0.00    -0.449 A  
HETATM   17  N   UNL     1     -12.912  13.807  65.654  1.00  0.00    -0.594 NA 
HETATM   18  N   UNL     1     -11.930  12.380  67.200  1.00  0.00    -0.549 NA 
HETATM   19  C   UNL     1     -11.100  11.346  67.478  1.00  0.00    -0.281 A  
HETATM   20  H2  UNL     1     -13.589  13.462  64.974  1.00  0.00     0.000 HD 
HETATM   21  H1  UNL     1     -13.436  14.293  66.382  1.00  0.00     0.000 HD 
HETATM   22  N   UNL     1     -11.124  10.906  68.799  1.00  0.00    -0.234 NA 
HETATM   23  H1  UNL     1     -11.646  11.371  69.542  1.00  0.00     0.000 HD 
HETATM   24  H2  UNL     1     -10.156  10.836  69.111  1.00  0.00     0.000 HD 
ENDBRANCH   9  12
TORSDOF 1
ENDMDL
MODEL      123
REMARK 921   NORMALIZED FREE ENERGY PREDICTED BY IDOCK:   -4.49 KCAL/MOL
REMARK 922        TOTAL FREE ENERGY PREDICTED BY IDOCK:   -5.13 KCAL/MOL
REMARK 923 INTER-LIGAND FREE ENERGY PREDICTED BY IDOCK:   -4.74 KCAL/MOL
REMARK 924 INTRA-LIGAND FREE ENERGY PREDICTED BY IDOCK:   -0.39 KCAL/MOL
REMARK 927      BINDING AFFINITY PREDICTED BY RF-SCORE:    0.00 PKD
ROOT
HETATM    1  N   UNL     1     -12.073  11.930  67.523  1.00  0.00    -0.528 NA 
HETATM    2  H2  UNL     1     -12.658  11.167  67.181  1.00  0.00     0.000 HD 
HETATM    3  C   UNL     1     -11.676  12.876  66.649  1.00  0.00    -0.390 C  
HETATM    4  H1  UNL     1     -11.816  11.938  68.510  1.00  0.00     0.000 HD 
HETATM    5  N   UNL     1     -11.999  12.866  65.408  1.00  0.00    -0.399 NA 
HETATM    6  N   UNL     1     -10.893  13.915  67.054  1.00  0.00    -0.284 N  
HETATM    7  H   UNL     1     -10.598  14.572  66.331  1.00  0.00     0.000 HD 
HETATM    8  H2  UNL     1     -12.585  12.104  65.065  1.00  0.00     0.000 HD 
HETATM    9  C   UNL     1     -10.457  14.174  68.341  1.00  0.00    -0.254 C  
HETATM   10  H1  UNL     1     -11.699  13.583  64.747  1.00  0.00     0.000 HD 
HETATM   11  O   UNL     1     -10.583  13.394  69.287  1.00  0.00    -0.079 OA 
ENDROOT
BRANCH   9  12
HETATM   12  C   UNL     1      -9.746  15.471  68.515  1.00  0.00    -0.203 A  
HETATM   13  N   UNL     1     -10.430  16.585  68.131  1.00  0.00    -0.298 NA 
HETATM   14  C   UNL     1      -9.710  17.726  68.226  1.00  0.00    -0.320 A  
HETATM   15 CL   UNL     1     -10.546  19.124  67.678  1.00  0.00    -0.538 Cl 
HETATM   16  C   UNL     1      -8.379  17.779  68.680  1.00  0.00    -0.273 A  
HETATM   17  N   UNL     1      -7.659  18.966  68.828  1.00  0.00    -0.333 NA 
HETATM   18  N   UNL     1      -7.736  16.658  69.075  1.00  0.00    -0.236 NA 
HETATM   19  C   UNL     1      -8.420  15.493  68.984  1.00  0.00    -0.229 A  
HETATM   20  H2  UNL     1      -8.207  19.579  69.431  1.00  0.00     0.000 HD 
HETATM   21  H1  UNL     1      -6.694  19.005  69.157  1.00  0.00     0.000 HD 
HETATM   22  N   UNL     1      -7.764  14.379  69.503  1.00  0.00    -0.371 NA 
HETATM   23  H1  UNL     1      -6.803  14.395  69.843  1.00  0.00     0.000 HD 
HETATM   24  H2  UNL     1      -7.822  13.642  68.801  1.00  0.00     0.000 HD 
ENDBRANCH   9  12
TORSDOF 1
ENDMDL
MODEL      124
REMARK 921   NORMALIZED FREE ENERGY PREDICTED BY IDOCK:   -4.48 KCAL/MOL
REMARK 922        TOTAL FREE ENERGY PREDICTED BY IDOCK:   -5.11 KCAL/MOL
REMARK 923 INTER-LIGAND FREE ENERGY PREDICTED BY IDOCK:   -4.72 KCAL/MOL
REMARK 924 INTRA-LIGAND FREE ENERGY PREDICTED BY IDOCK:   -0.39 KCAL/MOL
REMARK 927      BINDING AFFINITY PREDICTED BY RF-SCORE:    0.00 PKD
ROOT
HETATM    1  N   UNL     1     -10.048   6.562  70.041  1.00  0.00    -0.172 NA 
HETATM    2  H2  UNL     1      -9.963   5.622  70.427  1.00  0.00     0.000 HD 
HETATM    3  C   UNL     1     -11.238   7.189  70.131  1.00  0.00    -0.262 C  
HETATM    4  H1  UNL     1      -9.226   6.983  69.606  1.00  0.00     0.000 HD 
HETATM    5  N   UNL     1     -12.270   6.660  70.679  1.00  0.00    -0.455 NA 
HETATM    6  N   UNL     1     -11.404   8.445  69.632  1.00  0.00    -0.430 N  
HETATM    7  H   UNL     1     -12.342   8.842  69.699  1.00  0.00     0.000 HD 
HETATM    8  H2  UNL     1     -12.186   5.719  71.065  1.00  0.00     0.000 HD 
HETATM    9  C   UNL     1     -10.436   9.240  69.044  1.00  0.00    -0.216 C  
HETATM   10  H1  UNL     1     -13.171   7.134  70.748  1.00  0.00     0.000 HD 
HETATM   11  O   UNL     1      -9.308   8.849  68.737  1.00  0.00    -0.137 OA 
ENDROOT
BRANCH   9  12
HETATM   12  C   UNL     1     -10.868  10.632  68.735  1.00  0.00    -0.229 A  
HETATM   13  N   UNL     1     -11.296  11.374  69.794  1.00  0.00    -0.273 NA 
HETATM   14  C   UNL     1     -11.759  12.598  69.450  1.00  0.00    -0.325 A  
HETATM   15 CL   UNL     1     -12.363  13.512  70.775  1.00  0.00    -0.435 Cl 
HETATM   16  C   UNL     1     -11.800  13.078  68.128  1.00  0.00    -0.340 A  
HETATM   17  N   UNL     1     -12.229  14.362  67.785  1.00  0.00    -0.624 NA 
HETATM   18  N   UNL     1     -11.348  12.325  67.103  1.00  0.00    -0.313 NA 
HETATM   19  C   UNL     1     -10.885  11.088  67.405  1.00  0.00    -0.274 A  
HETATM   20  H2  UNL     1     -11.672  15.021  68.327  1.00  0.00     0.000 HD 
HETATM   21  H1  UNL     1     -12.259  14.710  66.826  1.00  0.00     0.000 HD 
HETATM   22  N   UNL     1     -10.327  10.387  66.339  1.00  0.00    -0.232 NA 
HETATM   23  H1  UNL     1     -10.340  10.718  65.375  1.00  0.00     0.000 HD 
HETATM   24  H2  UNL     1     -10.740   9.455  66.342  1.00  0.00     0.000 HD 
ENDBRANCH   9  12
TORSDOF 1
ENDMDL
MODEL      125
REMARK 921   NORMALIZED FREE ENERGY PREDICTED BY IDOCK:   -4.44 KCAL/MOL
REMARK 922        TOTAL FREE ENERGY PREDICTED BY IDOCK:   -5.08 KCAL/MOL
REMARK 923 INTER-LIGAND FREE ENERGY PREDICTED BY IDOCK:   -4.77 KCAL/MOL
REMARK 924 INTRA-LIGAND FREE ENERGY PREDICTED BY IDOCK:   -0.31 KCAL/MOL
REMARK 927      BINDING AFFINITY PREDICTED BY RF-SCORE:    0.00 PKD
ROOT
HETATM    1  N   UNL     1     -11.822  11.649  63.062  1.00  0.00    -0.877 NA 
HETATM    2  H2  UNL     1     -12.460  11.888  62.303  1.00  0.00     0.000 HD 
HETATM    3  C   UNL     1     -12.142  12.031  64.315  1.00  0.00    -0.322 C  
HETATM    4  H1  UNL     1     -10.972  11.132  62.836  1.00  0.00     0.000 HD 
HETATM    5  N   UNL     1     -13.210  12.681  64.599  1.00  0.00    -0.775 NA 
HETATM    6  N   UNL     1     -11.324  11.737  65.364  1.00  0.00    -0.268 N  
HETATM    7  H   UNL     1     -11.609  12.092  66.277  1.00  0.00     0.000 HD 
HETATM    8  H2  UNL     1     -13.849  12.920  63.840  1.00  0.00     0.000 HD 
HETATM    9  C   UNL     1     -10.149  11.008  65.322  1.00  0.00    -0.275 C  
HETATM   10  H1  UNL     1     -13.453  12.970  65.547  1.00  0.00     0.000 HD 
HETATM   11  O   UNL     1      -9.585  10.659  64.283  1.00  0.00    -0.242 OA 
ENDROOT
BRANCH   9  12
HETATM   12  C   UNL     1      -9.547  10.709  66.651  1.00  0.00    -0.175 A  
HETATM   13  N   UNL     1     -10.424  10.511  67.674  1.00  0.00    -0.217 NA 
HETATM   14  C   UNL     1      -9.829  10.331  68.875  1.00  0.00    -0.195 A  
HETATM   15 CL   UNL     1     -10.933  10.149  70.180  1.00  0.00    -0.348 Cl 
HETATM   16  C   UNL     1      -8.435  10.340  69.070  1.00  0.00    -0.150 A  
HETATM   17  N   UNL     1      -7.824  10.100  70.302  1.00  0.00    -0.400 NA 
HETATM   18  N   UNL     1      -7.591  10.517  68.030  1.00  0.00    -0.090 NA 
HETATM   19  C   UNL     1      -8.150  10.712  66.811  1.00  0.00    -0.131 A  
HETATM   20  H2  UNL     1      -8.169   9.202  70.640  1.00  0.00     0.000 HD 
HETATM   21  H1  UNL     1      -6.814  10.106  70.443  1.00  0.00     0.000 HD 
HETATM   22  N   UNL     1      -7.249  10.780  65.751  1.00  0.00    -0.304 NA 
HETATM   23  H1  UNL     1      -6.236  10.782  65.867  1.00  0.00     0.000 HD 
HETATM   24  H2  UNL     1      -7.490  11.606  65.203  1.00  0.00     0.000 HD 
ENDBRANCH   9  12
TORSDOF 1
ENDMDL
MODEL      126
REMARK 921   NORMALIZED FREE ENERGY PREDICTED BY IDOCK:   -4.43 KCAL/MOL
REMARK 922        TOTAL FREE ENERGY PREDICTED BY IDOCK:   -5.06 KCAL/MOL
REMARK 923 INTER-LIGAND FREE ENERGY PREDICTED BY IDOCK:   -4.67 KCAL/MOL
REMARK 924 INTRA-LIGAND FREE ENERGY PREDICTED BY IDOCK:   -0.39 KCAL/MOL
REMARK 927      BINDING AFFINITY PREDICTED BY RF-SCORE:    0.00 PKD
ROOT
HETATM    1  N   UNL     1     -11.837  12.802  66.050  1.00  0.00    -0.420 NA 
HETATM    2  H2  UNL     1     -12.187  13.451  65.345  1.00  0.00     0.000 HD 
HETATM    3  C   UNL     1     -11.898  13.170  67.346  1.00  0.00    -0.361 C  
HETATM    4  H1  UNL     1     -11.458  11.907  65.740  1.00  0.00     0.000 HD 
HETATM    5  N   UNL     1     -12.374  14.294  67.735  1.00  0.00    -0.578 NA 
HETATM    6  N   UNL     1     -11.444  12.341  68.328  1.00  0.00    -0.291 N  
HETATM    7  H   UNL     1     -11.483  12.700  69.281  1.00  0.00     0.000 HD 
HETATM    8  H2  UNL     1     -12.724  14.944  67.030  1.00  0.00     0.000 HD 
HETATM    9  C   UNL     1     -10.935  11.064  68.167  1.00  0.00    -0.247 C  
HETATM   10  H1  UNL     1     -12.420  14.572  68.716  1.00  0.00     0.000 HD 
HETATM   11  O   UNL     1     -10.665  10.556  67.077  1.00  0.00    -0.262 OA 
ENDROOT
BRANCH   9  12
HETATM   12  C   UNL     1     -10.665  10.331  69.435  1.00  0.00    -0.241 A  
HETATM   13  N   UNL     1      -9.378   9.928  69.630  1.00  0.00    -0.217 NA 
HETATM   14  C   UNL     1      -9.201   9.193  70.751  1.00  0.00    -0.262 A  
HETATM   15 CL   UNL     1      -7.593   8.625  70.966  1.00  0.00    -0.090 Cl 
HETATM   16  C   UNL     1     -10.237   8.866  71.647  1.00  0.00    -0.345 A  
HETATM   17  N   UNL     1     -10.039   8.152  72.830  1.00  0.00    -0.301 NA 
HETATM   18  N   UNL     1     -11.498   9.300  71.436  1.00  0.00    -0.339 NA 
HETATM   19  C   UNL     1     -11.718  10.031  70.317  1.00  0.00    -0.251 A  
HETATM   20  H2  UNL     1      -9.323   8.644  73.364  1.00  0.00     0.000 HD 
HETATM   21  H1  UNL     1     -10.789   7.915  73.480  1.00  0.00     0.000 HD 
HETATM   22  N   UNL     1     -13.003  10.552  70.193  1.00  0.00    -0.461 NA 
HETATM   23  H1  UNL     1     -13.767  10.334  70.833  1.00  0.00     0.000 HD 
HETATM   24  H2  UNL     1     -13.328  10.331  69.252  1.00  0.00     0.000 HD 
ENDBRANCH   9  12
TORSDOF 1
ENDMDL
MODEL      127
REMARK 921   NORMALIZED FREE ENERGY PREDICTED BY IDOCK:   -4.42 KCAL/MOL
REMARK 922        TOTAL FREE ENERGY PREDICTED BY IDOCK:   -5.06 KCAL/MOL
REMARK 923 INTER-LIGAND FREE ENERGY PREDICTED BY IDOCK:   -4.69 KCAL/MOL
REMARK 924 INTRA-LIGAND FREE ENERGY PREDICTED BY IDOCK:   -0.37 KCAL/MOL
REMARK 927      BINDING AFFINITY PREDICTED BY RF-SCORE:    0.00 PKD
ROOT
HETATM    1  N   UNL     1     -10.384  13.446  64.113  1.00  0.00    -0.690 NA 
HETATM    2  H2  UNL     1     -10.407  13.125  63.145  1.00  0.00     0.000 HD 
HETATM    3  C   UNL     1     -11.237  14.420  64.487  1.00  0.00    -0.306 C  
HETATM    4  H1  UNL     1      -9.714  13.014  64.750  1.00  0.00     0.000 HD 
HETATM    5  N   UNL     1     -12.078  14.963  63.686  1.00  0.00    -0.822 NA 
HETATM    6  N   UNL     1     -11.246  14.885  65.768  1.00  0.00    -0.338 N  
HETATM    7  H   UNL     1     -11.889  15.650  65.970  1.00  0.00     0.000 HD 
HETATM    8  H2  UNL     1     -12.103  14.642  62.717  1.00  0.00     0.000 HD 
HETATM    9  C   UNL     1     -10.474  14.429  66.822  1.00  0.00    -0.273 C  
HETATM   10  H1  UNL     1     -12.725  15.700  63.969  1.00  0.00     0.000 HD 
HETATM   11  O   UNL     1      -9.538  13.636  66.706  1.00  0.00    -0.258 OA 
ENDROOT
BRANCH   9  12
HETATM   12  C   UNL     1     -10.811  15.018  68.148  1.00  0.00    -0.263 A  
HETATM   13  N   UNL     1     -10.611  16.360  68.274  1.00  0.00    -0.302 NA 
HETATM   14  C   UNL     1     -10.847  16.831  69.520  1.00  0.00    -0.225 A  
HETATM   15 CL   UNL     1     -10.531  18.511  69.701  1.00  0.00     0.507 Cl 
HETATM   16  C   UNL     1     -11.264  16.027  70.598  1.00  0.00    -0.372 A  
HETATM   17  N   UNL     1     -11.558  16.528  71.867  1.00  0.00    -0.518 NA 
HETATM   18  N   UNL     1     -11.474  14.703  70.433  1.00  0.00    -0.253 NA 
HETATM   19  C   UNL     1     -11.238  14.191  69.201  1.00  0.00    -0.272 A  
HETATM   20  H2  UNL     1     -12.258  17.259  71.749  1.00  0.00     0.000 HD 
HETATM   21  H1  UNL     1     -11.860  15.945  72.649  1.00  0.00     0.000 HD 
HETATM   22  N   UNL     1     -11.572  12.848  69.045  1.00  0.00    -0.303 NA 
HETATM   23  H1  UNL     1     -11.881  12.248  69.809  1.00  0.00     0.000 HD 
HETATM   24  H2  UNL     1     -10.774  12.389  68.607  1.00  0.00     0.000 HD 
ENDBRANCH   9  12
TORSDOF 1
ENDMDL
MODEL      128
REMARK 921   NORMALIZED FREE ENERGY PREDICTED BY IDOCK:   -4.41 KCAL/MOL
REMARK 922        TOTAL FREE ENERGY PREDICTED BY IDOCK:   -5.04 KCAL/MOL
REMARK 923 INTER-LIGAND FREE ENERGY PREDICTED BY IDOCK:   -4.77 KCAL/MOL
REMARK 924 INTRA-LIGAND FREE ENERGY PREDICTED BY IDOCK:   -0.27 KCAL/MOL
REMARK 927      BINDING AFFINITY PREDICTED BY RF-SCORE:    0.00 PKD
ROOT
HETATM    1  N   UNL     1     -12.402   8.387  72.710  1.00  0.00    -0.564 NA 
HETATM    2  H2  UNL     1     -13.026   8.106  73.467  1.00  0.00     0.000 HD 
HETATM    3  C   UNL     1     -12.900   8.452  71.459  1.00  0.00    -0.303 C  
HETATM    4  H1  UNL     1     -11.432   8.605  72.938  1.00  0.00     0.000 HD 
HETATM    5  N   UNL     1     -14.119   8.178  71.173  1.00  0.00    -0.646 NA 
HETATM    6  N   UNL     1     -12.109   8.822  70.413  1.00  0.00    -0.456 N  
HETATM    7  H   UNL     1     -12.541   8.810  69.489  1.00  0.00     0.000 HD 
HETATM    8  H2  UNL     1     -14.744   7.897  71.930  1.00  0.00     0.000 HD 
HETATM    9  C   UNL     1     -10.782   9.211  70.472  1.00  0.00    -0.238 C  
HETATM   10  H1  UNL     1     -14.495   8.228  70.226  1.00  0.00     0.000 HD 
HETATM   11  O   UNL     1     -10.075   9.117  71.476  1.00  0.00    -0.319 OA 
ENDROOT
BRANCH   9  12
HETATM   12  C   UNL     1     -10.217   9.713  69.188  1.00  0.00    -0.202 A  
HETATM   13  N   UNL     1      -8.984   9.241  68.852  1.00  0.00    -0.134 NA 
HETATM   14  C   UNL     1      -8.478   9.793  67.726  1.00  0.00    -0.121 A  
HETATM   15 CL   UNL     1      -6.895   9.250  67.335  1.00  0.00    -0.076 Cl 
HETATM   16  C   UNL     1      -9.148  10.763  66.957  1.00  0.00    -0.144 A  
HETATM   17  N   UNL     1      -8.644  11.290  65.766  1.00  0.00    -0.342 NA 
HETATM   18  N   UNL     1     -10.379  11.194  67.306  1.00  0.00    -0.199 NA 
HETATM   19  C   UNL     1     -10.917  10.673  68.435  1.00  0.00    -0.251 A  
HETATM   20  H2  UNL     1      -8.444  10.503  65.150  1.00  0.00     0.000 HD 
HETATM   21  H1  UNL     1      -9.130  11.993  65.209  1.00  0.00     0.000 HD 
HETATM   22  N   UNL     1     -12.228  11.059  68.700  1.00  0.00    -0.771 NA 
HETATM   23  H1  UNL     1     -12.735  11.755  68.154  1.00  0.00     0.000 HD 
HETATM   24  H2  UNL     1     -12.263  11.358  69.675  1.00  0.00     0.000 HD 
ENDBRANCH   9  12
TORSDOF 1
ENDMDL
MODEL      129
REMARK 921   NORMALIZED FREE ENERGY PREDICTED BY IDOCK:   -4.39 KCAL/MOL
REMARK 922        TOTAL FREE ENERGY PREDICTED BY IDOCK:   -5.02 KCAL/MOL
REMARK 923 INTER-LIGAND FREE ENERGY PREDICTED BY IDOCK:   -4.83 KCAL/MOL
REMARK 924 INTRA-LIGAND FREE ENERGY PREDICTED BY IDOCK:   -0.19 KCAL/MOL
REMARK 927      BINDING AFFINITY PREDICTED BY RF-SCORE:    0.00 PKD
ROOT
HETATM    1  N   UNL     1      -9.753   8.378  65.617  1.00  0.00    -0.391 NA 
HETATM    2  H2  UNL     1      -9.451   7.427  65.404  1.00  0.00     0.000 HD 
HETATM    3  C   UNL     1     -10.170   8.654  66.869  1.00  0.00    -0.296 C  
HETATM    4  H1  UNL     1      -9.725   9.074  64.871  1.00  0.00     0.000 HD 
HETATM    5  N   UNL     1     -10.206   7.780  67.806  1.00  0.00    -0.199 NA 
HETATM    6  N   UNL     1     -10.584   9.908  67.206  1.00  0.00    -0.258 N  
HETATM    7  H   UNL     1     -10.924  10.035  68.159  1.00  0.00     0.000 HD 
HETATM    8  H2  UNL     1      -9.903   6.828  67.594  1.00  0.00     0.000 HD 
HETATM    9  C   UNL     1     -10.592  11.026  66.391  1.00  0.00    -0.251 C  
HETATM   10  H1  UNL     1     -10.521   7.989  68.754  1.00  0.00     0.000 HD 
HETATM   11  O   UNL     1     -10.376  11.004  65.178  1.00  0.00    -0.269 OA 
ENDROOT
BRANCH   9  12
HETATM   12  C   UNL     1     -10.949  12.300  67.076  1.00  0.00    -0.268 A  
HETATM   13  N   UNL     1     -11.448  12.181  68.339  1.00  0.00    -0.279 NA 
HETATM   14  C   UNL     1     -11.838  13.356  68.883  1.00  0.00    -0.334 A  
HETATM   15 CL   UNL     1     -12.530  13.202  70.449  1.00  0.00    -0.327 Cl 
HETATM   16  C   UNL     1     -11.743  14.596  68.225  1.00  0.00    -0.328 A  
HETATM   17  N   UNL     1     -12.097  15.813  68.812  1.00  0.00    -0.545 NA 
HETATM   18  N   UNL     1     -11.223  14.682  66.981  1.00  0.00    -0.334 NA 
HETATM   19  C   UNL     1     -10.830  13.525  66.397  1.00  0.00    -0.290 A  
HETATM   20  H2  UNL     1     -11.571  15.892  69.681  1.00  0.00     0.000 HD 
HETATM   21  H1  UNL     1     -12.028  16.712  68.335  1.00  0.00     0.000 HD 
HETATM   22  N   UNL     1     -10.199  13.669  65.163  1.00  0.00    -0.465 NA 
HETATM   23  H1  UNL     1     -10.114  14.557  64.671  1.00  0.00     0.000 HD 
HETATM   24  H2  UNL     1     -10.641  13.011  64.521  1.00  0.00     0.000 HD 
ENDBRANCH   9  12
TORSDOF 1
ENDMDL
MODEL      130
REMARK 921   NORMALIZED FREE ENERGY PREDICTED BY IDOCK:   -4.39 KCAL/MOL
REMARK 922        TOTAL FREE ENERGY PREDICTED BY IDOCK:   -5.02 KCAL/MOL
REMARK 923 INTER-LIGAND FREE ENERGY PREDICTED BY IDOCK:   -4.62 KCAL/MOL
REMARK 924 INTRA-LIGAND FREE ENERGY PREDICTED BY IDOCK:   -0.39 KCAL/MOL
REMARK 927      BINDING AFFINITY PREDICTED BY RF-SCORE:    0.00 PKD
ROOT
HETATM    1  N   UNL     1      -7.751   7.477  64.304  1.00  0.00    -0.122 NA 
HETATM    2  H2  UNL     1      -7.227   6.605  64.239  1.00  0.00     0.000 HD 
HETATM    3  C   UNL     1      -8.733   7.570  65.223  1.00  0.00     0.072 C  
HETATM    4  H1  UNL     1      -7.508   8.238  63.668  1.00  0.00     0.000 HD 
HETATM    5  N   UNL     1      -9.039   6.615  66.022  1.00  0.00    -0.294 NA 
HETATM    6  N   UNL     1      -9.463   8.713  65.351  1.00  0.00    -0.436 N  
HETATM    7  H   UNL     1     -10.216   8.698  66.039  1.00  0.00     0.000 HD 
HETATM    8  H2  UNL     1      -8.514   5.742  65.958  1.00  0.00     0.000 HD 
HETATM    9  C   UNL     1      -9.293   9.891  64.645  1.00  0.00    -0.277 C  
HETATM   10  H1  UNL     1      -9.781   6.685  66.719  1.00  0.00     0.000 HD 
HETATM   11  O   UNL     1      -8.549  10.015  63.670  1.00  0.00    -0.168 OA 
ENDROOT
BRANCH   9  12
HETATM   12  C   UNL     1     -10.135  11.028  65.107  1.00  0.00    -0.289 A  
HETATM   13  N   UNL     1     -10.034  11.350  66.427  1.00  0.00    -0.208 NA 
HETATM   14  C   UNL     1     -10.882  12.329  66.816  1.00  0.00    -0.253 A  
HETATM   15 CL   UNL     1     -10.805  12.691  68.495  1.00  0.00    -0.264 Cl 
HETATM   16  C   UNL     1     -11.789  12.971  65.952  1.00  0.00    -0.416 A  
HETATM   17  N   UNL     1     -12.624  14.018  66.347  1.00  0.00    -0.502 NA 
HETATM   18  N   UNL     1     -11.849  12.644  64.644  1.00  0.00    -0.359 NA 
HETATM   19  C   UNL     1     -11.023  11.659  64.217  1.00  0.00    -0.355 A  
HETATM   20  H2  UNL     1     -12.030  14.742  66.751  1.00  0.00     0.000 HD 
HETATM   21  H1  UNL     1     -13.282  14.484  65.721  1.00  0.00     0.000 HD 
HETATM   22  N   UNL     1     -11.036  11.428  62.844  1.00  0.00    -0.756 NA 
HETATM   23  H1  UNL     1     -11.679  11.885  62.199  1.00  0.00     0.000 HD 
HETATM   24  H2  UNL     1     -11.139  10.422  62.709  1.00  0.00     0.000 HD 
ENDBRANCH   9  12
TORSDOF 1
ENDMDL
MODEL      131
REMARK 921   NORMALIZED FREE ENERGY PREDICTED BY IDOCK:   -4.35 KCAL/MOL
REMARK 922        TOTAL FREE ENERGY PREDICTED BY IDOCK:   -4.98 KCAL/MOL
REMARK 923 INTER-LIGAND FREE ENERGY PREDICTED BY IDOCK:   -4.60 KCAL/MOL
REMARK 924 INTRA-LIGAND FREE ENERGY PREDICTED BY IDOCK:   -0.38 KCAL/MOL
REMARK 927      BINDING AFFINITY PREDICTED BY RF-SCORE:    0.00 PKD
ROOT
HETATM    1  N   UNL     1      -9.367   5.682  65.118  1.00  0.00    -0.354 NA 
HETATM    2  H2  UNL     1      -9.208   5.445  64.138  1.00  0.00     0.000 HD 
HETATM    3  C   UNL     1     -10.478   5.211  65.719  1.00  0.00    -0.042 C  
HETATM    4  H1  UNL     1      -8.678   6.265  65.594  1.00  0.00     0.000 HD 
HETATM    5  N   UNL     1     -11.344   4.478  65.121  1.00  0.00    -1.113 NA 
HETATM    6  N   UNL     1     -10.738   5.498  67.025  1.00  0.00    -0.362 N  
HETATM    7  H   UNL     1     -11.616   5.142  67.404  1.00  0.00     0.000 HD 
HETATM    8  H2  UNL     1     -11.185   4.241  64.141  1.00  0.00     0.000 HD 
HETATM    9  C   UNL     1      -9.938   6.221  67.892  1.00  0.00    -0.133 C  
HETATM   10  H1  UNL     1     -12.184   4.121  65.577  1.00  0.00     0.000 HD 
HETATM   11  O   UNL     1      -8.939   6.856  67.549  1.00  0.00    -0.118 OA 
ENDROOT
BRANCH   9  12
HETATM   12  C   UNL     1     -10.402   6.241  69.307  1.00  0.00    -0.218 A  
HETATM   13  N   UNL     1     -10.972   7.403  69.734  1.00  0.00    -0.232 NA 
HETATM   14  C   UNL     1     -11.295   7.401  71.047  1.00  0.00    -0.275 A  
HETATM   15 CL   UNL     1     -11.951   8.889  71.605  1.00  0.00    -0.388 Cl 
HETATM   16  C   UNL     1     -11.076   6.310  71.908  1.00  0.00    -0.268 A  
HETATM   17  N   UNL     1     -11.461   6.294  73.250  1.00  0.00    -0.421 NA 
HETATM   18  N   UNL     1     -10.529   5.163  71.448  1.00  0.00    -0.207 NA 
HETATM   19  C   UNL     1     -10.181   5.130  70.140  1.00  0.00    -0.278 A  
HETATM   20  H2  UNL     1     -12.458   6.505  73.280  1.00  0.00     0.000 HD 
HETATM   21  H1  UNL     1     -11.302   5.502  73.875  1.00  0.00     0.000 HD 
HETATM   22  N   UNL     1      -9.724   3.897  69.680  1.00  0.00    -0.189 NA 
HETATM   23  H1  UNL     1      -9.563   3.091  70.284  1.00  0.00     0.000 HD 
HETATM   24  H2  UNL     1      -8.857   4.068  69.170  1.00  0.00     0.000 HD 
ENDBRANCH   9  12
TORSDOF 1
ENDMDL
MODEL      132
REMARK 921   NORMALIZED FREE ENERGY PREDICTED BY IDOCK:   -4.33 KCAL/MOL
REMARK 922        TOTAL FREE ENERGY PREDICTED BY IDOCK:   -4.96 KCAL/MOL
REMARK 923 INTER-LIGAND FREE ENERGY PREDICTED BY IDOCK:   -4.67 KCAL/MOL
REMARK 924 INTRA-LIGAND FREE ENERGY PREDICTED BY IDOCK:   -0.29 KCAL/MOL
REMARK 927      BINDING AFFINITY PREDICTED BY RF-SCORE:    0.00 PKD
ROOT
HETATM    1  N   UNL     1     -11.844   7.754  73.029  1.00  0.00    -0.631 NA 
HETATM    2  H2  UNL     1     -12.276   7.503  73.918  1.00  0.00     0.000 HD 
HETATM    3  C   UNL     1     -12.561   7.595  71.899  1.00  0.00    -0.303 C  
HETATM    4  H1  UNL     1     -10.888   8.112  73.039  1.00  0.00     0.000 HD 
HETATM    5  N   UNL     1     -13.761   7.145  71.886  1.00  0.00    -0.549 NA 
HETATM    6  N   UNL     1     -12.030   7.915  70.685  1.00  0.00    -0.483 N  
HETATM    7  H   UNL     1     -12.615   7.731  69.870  1.00  0.00     0.000 HD 
HETATM    8  H2  UNL     1     -14.195   6.894  72.776  1.00  0.00     0.000 HD 
HETATM    9  C   UNL     1     -10.783   8.461  70.443  1.00  0.00    -0.231 C  
HETATM   10  H1  UNL     1     -14.305   7.026  71.031  1.00  0.00     0.000 HD 
HETATM   11  O   UNL     1      -9.900   8.584  71.294  1.00  0.00    -0.183 OA 
ENDROOT
BRANCH   9  12
HETATM   12  C   UNL     1     -10.533   8.854  69.028  1.00  0.00    -0.214 A  
HETATM   13  N   UNL     1     -10.934  10.108  68.675  1.00  0.00    -0.236 NA 
HETATM   14  C   UNL     1     -10.766  10.384  67.362  1.00  0.00    -0.283 A  
HETATM   15 CL   UNL     1     -11.333  11.939  66.899  1.00  0.00    -0.380 Cl 
HETATM   16  C   UNL     1     -10.226   9.477  66.431  1.00  0.00    -0.232 A  
HETATM   17  N   UNL     1     -10.005   9.787  65.088  1.00  0.00    -0.400 NA 
HETATM   18  N   UNL     1      -9.818   8.249  66.818  1.00  0.00    -0.239 NA 
HETATM   19  C   UNL     1      -9.979   7.930  68.124  1.00  0.00    -0.180 A  
HETATM   20  H2  UNL     1      -9.425  10.624  65.063  1.00  0.00     0.000 HD 
HETATM   21  H1  UNL     1      -9.614   9.129  64.413  1.00  0.00     0.000 HD 
HETATM   22  N   UNL     1      -9.446   6.701  68.504  1.00  0.00    -0.124 NA 
HETATM   23  H1  UNL     1      -9.045   6.031  67.849  1.00  0.00     0.000 HD 
HETATM   24  H2  UNL     1     -10.167   6.210  69.032  1.00  0.00     0.000 HD 
ENDBRANCH   9  12
TORSDOF 1
ENDMDL
MODEL      133
REMARK 921   NORMALIZED FREE ENERGY PREDICTED BY IDOCK:   -4.33 KCAL/MOL
REMARK 922        TOTAL FREE ENERGY PREDICTED BY IDOCK:   -4.95 KCAL/MOL
REMARK 923 INTER-LIGAND FREE ENERGY PREDICTED BY IDOCK:   -4.77 KCAL/MOL
REMARK 924 INTRA-LIGAND FREE ENERGY PREDICTED BY IDOCK:   -0.18 KCAL/MOL
REMARK 927      BINDING AFFINITY PREDICTED BY RF-SCORE:    0.00 PKD
ROOT
HETATM    1  N   UNL     1      -8.742  11.372  66.552  1.00  0.00    -0.178 NA 
HETATM    2  H2  UNL     1      -8.201  11.739  65.768  1.00  0.00     0.000 HD 
HETATM    3  C   UNL     1      -9.571  12.209  67.207  1.00  0.00    -0.185 C  
HETATM    4  H1  UNL     1      -8.628  10.389  66.800  1.00  0.00     0.000 HD 
HETATM    5  N   UNL     1      -9.713  13.444  66.895  1.00  0.00    -0.246 NA 
HETATM    6  N   UNL     1     -10.315  11.769  68.260  1.00  0.00    -0.199 N  
HETATM    7  H   UNL     1     -10.890  12.466  68.734  1.00  0.00     0.000 HD 
HETATM    8  H2  UNL     1      -9.173  13.812  66.111  1.00  0.00     0.000 HD 
HETATM    9  C   UNL     1     -10.375  10.478  68.754  1.00  0.00    -0.191 C  
HETATM   10  H1  UNL     1     -10.341  14.077  67.390  1.00  0.00     0.000 HD 
HETATM   11  O   UNL     1      -9.622   9.566  68.406  1.00  0.00    -0.140 OA 
ENDROOT
BRANCH   9  12
HETATM   12  C   UNL     1     -11.397  10.256  69.814  1.00  0.00    -0.273 A  
HETATM   13  N   UNL     1     -11.984  11.376  70.322  1.00  0.00    -0.352 NA 
HETATM   14  C   UNL     1     -12.839  11.129  71.341  1.00  0.00    -0.439 A  
HETATM   15 CL   UNL     1     -13.530  12.544  72.030  1.00  0.00    -0.564 Cl 
HETATM   16  C   UNL     1     -13.112   9.842  71.841  1.00  0.00    -0.459 A  
HETATM   17  N   UNL     1     -14.036   9.587  72.857  1.00  0.00    -0.769 NA 
HETATM   18  N   UNL     1     -12.530   8.750  71.300  1.00  0.00    -0.290 NA 
HETATM   19  C   UNL     1     -11.658   8.957  70.284  1.00  0.00    -0.033 A  
HETATM   20  H2  UNL     1     -14.925   9.992  72.564  1.00  0.00     0.000 HD 
HETATM   21  H1  UNL     1     -14.235   8.655  73.219  1.00  0.00     0.000 HD 
HETATM   22  N   UNL     1     -11.165   7.803  69.682  1.00  0.00    -0.449 NA 
HETATM   23  H1  UNL     1     -11.355   6.861  70.023  1.00  0.00     0.000 HD 
HETATM   24  H2  UNL     1     -10.152   7.903  69.624  1.00  0.00     0.000 HD 
ENDBRANCH   9  12
TORSDOF 1
ENDMDL
MODEL      134
REMARK 921   NORMALIZED FREE ENERGY PREDICTED BY IDOCK:   -4.32 KCAL/MOL
REMARK 922        TOTAL FREE ENERGY PREDICTED BY IDOCK:   -4.95 KCAL/MOL
REMARK 923 INTER-LIGAND FREE ENERGY PREDICTED BY IDOCK:   -4.57 KCAL/MOL
REMARK 924 INTRA-LIGAND FREE ENERGY PREDICTED BY IDOCK:   -0.38 KCAL/MOL
REMARK 927      BINDING AFFINITY PREDICTED BY RF-SCORE:    0.00 PKD
ROOT
HETATM    1  N   UNL     1     -12.821  16.002  70.440  1.00  0.00    -0.618 NA 
HETATM    2  H2  UNL     1     -13.427  16.432  71.139  1.00  0.00     0.000 HD 
HETATM    3  C   UNL     1     -11.942  15.063  70.844  1.00  0.00    -0.319 C  
HETATM    4  H1  UNL     1     -12.909  16.305  69.470  1.00  0.00     0.000 HD 
HETATM    5  N   UNL     1     -11.831  14.683  72.063  1.00  0.00    -0.326 NA 
HETATM    6  N   UNL     1     -11.108  14.459  69.951  1.00  0.00    -0.431 N  
HETATM    7  H   UNL     1     -10.442  13.788  70.332  1.00  0.00     0.000 HD 
HETATM    8  H2  UNL     1     -12.438  15.112  72.762  1.00  0.00     0.000 HD 
HETATM    9  C   UNL     1     -11.071  14.660  68.582  1.00  0.00    -0.262 C  
HETATM   10  H1  UNL     1     -11.166  13.972  72.368  1.00  0.00     0.000 HD 
HETATM   11  O   UNL     1     -11.687  15.551  67.994  1.00  0.00    -0.322 OA 
ENDROOT
BRANCH   9  12
HETATM   12  C   UNL     1     -10.164  13.742  67.837  1.00  0.00    -0.245 A  
HETATM   13  N   UNL     1     -10.715  13.091  66.774  1.00  0.00    -0.261 NA 
HETATM   14  C   UNL     1      -9.878  12.206  66.186  1.00  0.00    -0.237 A  
HETATM   15 CL   UNL     1     -10.590  11.332  64.888  1.00  0.00    -0.367 Cl 
HETATM   16  C   UNL     1      -8.559  11.968  66.614  1.00  0.00    -0.143 A  
HETATM   17  N   UNL     1      -7.682  11.093  65.970  1.00  0.00    -0.345 NA 
HETATM   18  N   UNL     1      -8.036  12.647  67.658  1.00  0.00    -0.160 NA 
HETATM   19  C   UNL     1      -8.847  13.536  68.282  1.00  0.00    -0.179 A  
HETATM   20  H2  UNL     1      -7.635  11.379  64.992  1.00  0.00     0.000 HD 
HETATM   21  H1  UNL     1      -6.726  10.920  66.280  1.00  0.00     0.000 HD 
HETATM   22  N   UNL     1      -8.238  14.293  69.279  1.00  0.00    -0.356 NA 
HETATM   23  H1  UNL     1      -7.283  14.143  69.601  1.00  0.00     0.000 HD 
HETATM   24  H2  UNL     1      -8.842  14.250  70.100  1.00  0.00     0.000 HD 
ENDBRANCH   9  12
TORSDOF 1
ENDMDL
MODEL      135
REMARK 921   NORMALIZED FREE ENERGY PREDICTED BY IDOCK:   -4.31 KCAL/MOL
REMARK 922        TOTAL FREE ENERGY PREDICTED BY IDOCK:   -4.94 KCAL/MOL
REMARK 923 INTER-LIGAND FREE ENERGY PREDICTED BY IDOCK:   -4.60 KCAL/MOL
REMARK 924 INTRA-LIGAND FREE ENERGY PREDICTED BY IDOCK:   -0.33 KCAL/MOL
REMARK 927      BINDING AFFINITY PREDICTED BY RF-SCORE:    0.00 PKD
ROOT
HETATM    1  N   UNL     1     -12.043   8.852  71.457  1.00  0.00    -0.312 NA 
HETATM    2  H2  UNL     1     -12.530   9.504  72.072  1.00  0.00     0.000 HD 
HETATM    3  C   UNL     1     -12.501   7.587  71.372  1.00  0.00    -0.352 C  
HETATM    4  H1  UNL     1     -11.233   9.190  70.937  1.00  0.00     0.000 HD 
HETATM    5  N   UNL     1     -13.519   7.163  72.025  1.00  0.00    -0.555 NA 
HETATM    6  N   UNL     1     -11.887   6.676  70.566  1.00  0.00    -0.447 N  
HETATM    7  H   UNL     1     -12.262   5.728  70.581  1.00  0.00     0.000 HD 
HETATM    8  H2  UNL     1     -14.007   7.815  72.640  1.00  0.00     0.000 HD 
HETATM    9  C   UNL     1     -10.808   6.902  69.729  1.00  0.00    -0.259 C  
HETATM   10  H1  UNL     1     -13.866   6.206  71.960  1.00  0.00     0.000 HD 
HETATM   11  O   UNL     1     -10.139   7.937  69.722  1.00  0.00    -0.191 OA 
ENDROOT
BRANCH   9  12
HETATM   12  C   UNL     1     -10.448   5.758  68.845  1.00  0.00    -0.256 A  
HETATM   13  N   UNL     1      -9.873   4.686  69.459  1.00  0.00    -0.212 NA 
HETATM   14  C   UNL     1      -9.485   3.713  68.603  1.00  0.00    -0.140 A  
HETATM   15 CL   UNL     1      -8.697   2.389  69.366  1.00  0.00    -0.120 Cl 
HETATM   16  C   UNL     1      -9.654   3.781  67.208  1.00  0.00    -0.169 A  
HETATM   17  N   UNL     1      -9.300   2.750  66.335  1.00  0.00    -0.357 NA 
HETATM   18  N   UNL     1     -10.248   4.849  66.633  1.00  0.00    -0.247 NA 
HETATM   19  C   UNL     1     -10.642   5.850  67.456  1.00  0.00    -0.273 A  
HETATM   20  H2  UNL     1      -9.776   1.907  66.655  1.00  0.00     0.000 HD 
HETATM   21  H1  UNL     1      -9.423   2.799  65.324  1.00  0.00     0.000 HD 
HETATM   22  N   UNL     1     -11.348   6.880  66.839  1.00  0.00    -0.713 NA 
HETATM   23  H1  UNL     1     -11.488   6.947  65.831  1.00  0.00     0.000 HD 
HETATM   24  H2  UNL     1     -10.926   7.758  67.142  1.00  0.00     0.000 HD 
ENDBRANCH   9  12
TORSDOF 1
ENDMDL
MODEL      136
REMARK 921   NORMALIZED FREE ENERGY PREDICTED BY IDOCK:   -4.31 KCAL/MOL
REMARK 922        TOTAL FREE ENERGY PREDICTED BY IDOCK:   -4.93 KCAL/MOL
REMARK 923 INTER-LIGAND FREE ENERGY PREDICTED BY IDOCK:   -4.54 KCAL/MOL
REMARK 924 INTRA-LIGAND FREE ENERGY PREDICTED BY IDOCK:   -0.39 KCAL/MOL
REMARK 927      BINDING AFFINITY PREDICTED BY RF-SCORE:    0.00 PKD
ROOT
HETATM    1  N   UNL     1      -9.837   7.704  66.064  1.00  0.00    -0.422 NA 
HETATM    2  H2  UNL     1      -9.744   6.712  66.283  1.00  0.00     0.000 HD 
HETATM    3  C   UNL     1     -10.262   8.538  67.034  1.00  0.00    -0.301 C  
HETATM    4  H1  UNL     1      -9.604   8.016  65.121  1.00  0.00     0.000 HD 
HETATM    5  N   UNL     1     -10.556   8.146  68.219  1.00  0.00    -0.381 NA 
HETATM    6  N   UNL     1     -10.404   9.872  66.794  1.00  0.00    -0.229 N  
HETATM    7  H   UNL     1     -10.768  10.436  67.562  1.00  0.00     0.000 HD 
HETATM    8  H2  UNL     1     -10.463   7.153  68.439  1.00  0.00     0.000 HD 
HETATM    9  C   UNL     1     -10.105  10.541  65.621  1.00  0.00    -0.268 C  
HETATM   10  H1  UNL     1     -10.877   8.777  68.953  1.00  0.00     0.000 HD 
HETATM   11  O   UNL     1      -9.821   9.985  64.558  1.00  0.00    -0.305 OA 
ENDROOT
BRANCH   9  12
HETATM   12  C   UNL     1     -10.209  12.024  65.698  1.00  0.00    -0.252 A  
HETATM   13  N   UNL     1      -9.382  12.636  66.592  1.00  0.00    -0.235 NA 
HETATM   14  C   UNL     1      -9.576  13.971  66.688  1.00  0.00    -0.289 A  
HETATM   15 CL   UNL     1      -8.582  14.736  67.864  1.00  0.00    -0.160 Cl 
HETATM   16  C   UNL     1     -10.535  14.681  65.942  1.00  0.00    -0.314 A  
HETATM   17  N   UNL     1     -10.695  16.066  66.006  1.00  0.00    -0.301 NA 
HETATM   18  N   UNL     1     -11.325  14.047  65.048  1.00  0.00    -0.328 NA 
HETATM   19  C   UNL     1     -11.168  12.707  64.930  1.00  0.00    -0.297 A  
HETATM   20  H2  UNL     1      -9.787  16.484  65.804  1.00  0.00     0.000 HD 
HETATM   21  H1  UNL     1     -11.389  16.581  65.465  1.00  0.00     0.000 HD 
HETATM   22  N   UNL     1     -11.921  12.109  63.922  1.00  0.00    -0.459 NA 
HETATM   23  H1  UNL     1     -12.616  12.605  63.365  1.00  0.00     0.000 HD 
HETATM   24  H2  UNL     1     -12.386  11.300  64.333  1.00  0.00     0.000 HD 
ENDBRANCH   9  12
TORSDOF 1
ENDMDL
MODEL      137
REMARK 921   NORMALIZED FREE ENERGY PREDICTED BY IDOCK:   -4.30 KCAL/MOL
REMARK 922        TOTAL FREE ENERGY PREDICTED BY IDOCK:   -4.92 KCAL/MOL
REMARK 923 INTER-LIGAND FREE ENERGY PREDICTED BY IDOCK:   -4.74 KCAL/MOL
REMARK 924 INTRA-LIGAND FREE ENERGY PREDICTED BY IDOCK:   -0.18 KCAL/MOL
REMARK 927      BINDING AFFINITY PREDICTED BY RF-SCORE:    0.00 PKD
ROOT
HETATM    1  N   UNL     1      -7.541   8.581  63.977  1.00  0.00    -0.117 NA 
HETATM    2  H2  UNL     1      -6.872   8.028  63.442  1.00  0.00     0.000 HD 
HETATM    3  C   UNL     1      -7.521   9.922  63.840  1.00  0.00    -0.134 C  
HETATM    4  H1  UNL     1      -8.194   8.092  64.590  1.00  0.00     0.000 HD 
HETATM    5  N   UNL     1      -6.701  10.537  63.070  1.00  0.00    -0.308 NA 
HETATM    6  N   UNL     1      -8.393  10.707  64.532  1.00  0.00    -0.335 N  
HETATM    7  H   UNL     1      -8.294  11.715  64.410  1.00  0.00     0.000 HD 
HETATM    8  H2  UNL     1      -6.031   9.984  62.534  1.00  0.00     0.000 HD 
HETATM    9  C   UNL     1      -9.399  10.282  65.381  1.00  0.00    -0.207 C  
HETATM   10  H1  UNL     1      -6.685  11.551  62.965  1.00  0.00     0.000 HD 
HETATM   11  O   UNL     1      -9.540   9.118  65.764  1.00  0.00    -0.262 OA 
ENDROOT
BRANCH   9  12
HETATM   12  C   UNL     1     -10.302  11.358  65.876  1.00  0.00    -0.250 A  
HETATM   13  N   UNL     1     -10.294  12.520  65.163  1.00  0.00    -0.285 NA 
HETATM   14  C   UNL     1     -11.062  13.494  65.702  1.00  0.00    -0.289 A  
HETATM   15 CL   UNL     1     -11.002  14.982  64.843  1.00  0.00    -0.419 Cl 
HETATM   16  C   UNL     1     -11.808  13.342  66.885  1.00  0.00    -0.403 A  
HETATM   17  N   UNL     1     -12.641  14.334  67.407  1.00  0.00    -0.427 NA 
HETATM   18  N   UNL     1     -11.811  12.170  67.556  1.00  0.00    -0.553 NA 
HETATM   19  C   UNL     1     -11.046  11.172  67.054  1.00  0.00    -0.273 A  
HETATM   20  H2  UNL     1     -13.295  14.597  66.670  1.00  0.00     0.000 HD 
HETATM   21  H1  UNL     1     -13.183  14.224  68.265  1.00  0.00     0.000 HD 
HETATM   22  N   UNL     1     -11.162   9.949  67.711  1.00  0.00    -0.479 NA 
HETATM   23  H1  UNL     1     -11.702   9.814  68.565  1.00  0.00     0.000 HD 
HETATM   24  H2  UNL     1     -10.216   9.616  67.897  1.00  0.00     0.000 HD 
ENDBRANCH   9  12
TORSDOF 1
ENDMDL
MODEL      138
REMARK 921   NORMALIZED FREE ENERGY PREDICTED BY IDOCK:   -4.29 KCAL/MOL
REMARK 922        TOTAL FREE ENERGY PREDICTED BY IDOCK:   -4.91 KCAL/MOL
REMARK 923 INTER-LIGAND FREE ENERGY PREDICTED BY IDOCK:   -4.52 KCAL/MOL
REMARK 924 INTRA-LIGAND FREE ENERGY PREDICTED BY IDOCK:   -0.39 KCAL/MOL
REMARK 927      BINDING AFFINITY PREDICTED BY RF-SCORE:    0.00 PKD
ROOT
HETATM    1  N   UNL     1     -12.730  13.393  71.529  1.00  0.00    -0.325 NA 
HETATM    2  H2  UNL     1     -12.944  14.110  72.223  1.00  0.00     0.000 HD 
HETATM    3  C   UNL     1     -11.823  13.677  70.573  1.00  0.00    -0.203 C  
HETATM    4  H1  UNL     1     -13.214  12.498  71.592  1.00  0.00     0.000 HD 
HETATM    5  N   UNL     1     -11.214  14.802  70.494  1.00  0.00    -0.450 NA 
HETATM    6  N   UNL     1     -11.501  12.755  69.622  1.00  0.00    -0.467 N  
HETATM    7  H   UNL     1     -10.837  13.052  68.907  1.00  0.00     0.000 HD 
HETATM    8  H2  UNL     1     -11.427  15.519  71.188  1.00  0.00     0.000 HD 
HETATM    9  C   UNL     1     -11.980  11.461  69.525  1.00  0.00    -0.341 C  
HETATM   10  H1  UNL     1     -10.527  15.016  69.771  1.00  0.00     0.000 HD 
HETATM   11  O   UNL     1     -12.905  11.009  70.202  1.00  0.00    -0.197 OA 
ENDROOT
BRANCH   9  12
HETATM   12  C   UNL     1     -11.331  10.628  68.474  1.00  0.00    -0.284 A  
HETATM   13  N   UNL     1     -10.754   9.470  68.900  1.00  0.00    -0.217 NA 
HETATM   14  C   UNL     1     -10.104   8.794  67.925  1.00  0.00    -0.207 A  
HETATM   15 CL   UNL     1      -9.317   7.367  68.472  1.00  0.00    -0.142 Cl 
HETATM   16  C   UNL     1     -10.022   9.229  66.589  1.00  0.00    -0.264 A  
HETATM   17  N   UNL     1      -9.395   8.501  65.576  1.00  0.00    -0.433 NA 
HETATM   18  N   UNL     1     -10.624  10.372  66.195  1.00  0.00    -0.144 NA 
HETATM   19  C   UNL     1     -11.277  11.083  67.145  1.00  0.00    -0.217 A  
HETATM   20  H2  UNL     1      -9.818   7.574  65.565  1.00  0.00     0.000 HD 
HETATM   21  H1  UNL     1      -9.336   8.816  64.607  1.00  0.00     0.000 HD 
HETATM   22  N   UNL     1     -11.976  12.194  66.677  1.00  0.00    -0.629 NA 
HETATM   23  H1  UNL     1     -11.936  12.524  65.714  1.00  0.00     0.000 HD 
HETATM   24  H2  UNL     1     -11.724  12.981  67.275  1.00  0.00     0.000 HD 
ENDBRANCH   9  12
TORSDOF 1
ENDMDL
MODEL      139
REMARK 921   NORMALIZED FREE ENERGY PREDICTED BY IDOCK:   -4.27 KCAL/MOL
REMARK 922        TOTAL FREE ENERGY PREDICTED BY IDOCK:   -4.90 KCAL/MOL
REMARK 923 INTER-LIGAND FREE ENERGY PREDICTED BY IDOCK:   -4.60 KCAL/MOL
REMARK 924 INTRA-LIGAND FREE ENERGY PREDICTED BY IDOCK:   -0.30 KCAL/MOL
REMARK 927      BINDING AFFINITY PREDICTED BY RF-SCORE:    0.00 PKD
ROOT
HETATM    1  N   UNL     1      -9.308   5.217  65.024  1.00  0.00    -0.359 NA 
HETATM    2  H2  UNL     1      -9.211   4.990  64.034  1.00  0.00     0.000 HD 
HETATM    3  C   UNL     1     -10.491   4.975  65.625  1.00  0.00    -0.043 C  
HETATM    4  H1  UNL     1      -8.505   5.616  65.511  1.00  0.00     0.000 HD 
HETATM    5  N   UNL     1     -11.500   4.474  65.013  1.00  0.00    -1.108 NA 
HETATM    6  N   UNL     1     -10.674   5.260  66.944  1.00  0.00    -0.359 N  
HETATM    7  H   UNL     1     -11.605   5.089  67.323  1.00  0.00     0.000 HD 
HETATM    8  H2  UNL     1     -11.403   4.246  64.022  1.00  0.00     0.000 HD 
HETATM    9  C   UNL     1      -9.729   5.756  67.826  1.00  0.00    -0.119 C  
HETATM   10  H1  UNL     1     -12.394   4.290  65.467  1.00  0.00     0.000 HD 
HETATM   11  O   UNL     1      -8.618   6.171  67.491  1.00  0.00    -0.108 OA 
ENDROOT
BRANCH   9  12
HETATM   12  C   UNL     1     -10.168   5.820  69.247  1.00  0.00    -0.226 A  
HETATM   13  N   UNL     1      -9.863   4.737  70.017  1.00  0.00    -0.209 NA 
HETATM   14  C   UNL     1     -10.358   4.805  71.273  1.00  0.00    -0.113 A  
HETATM   15 CL   UNL     1     -10.033   3.411  72.226  1.00  0.00    -0.230 Cl 
HETATM   16  C   UNL     1     -11.118   5.885  71.761  1.00  0.00    -0.265 A  
HETATM   17  N   UNL     1     -11.581   5.974  73.075  1.00  0.00    -0.493 NA 
HETATM   18  N   UNL     1     -11.384   6.953  70.979  1.00  0.00    -0.282 NA 
HETATM   19  C   UNL     1     -10.914   6.918  69.709  1.00  0.00    -0.270 A  
HETATM   20  H2  UNL     1     -10.772   5.874  73.687  1.00  0.00     0.000 HD 
HETATM   21  H1  UNL     1     -12.131   6.756  73.429  1.00  0.00     0.000 HD 
HETATM   22  N   UNL     1     -11.114   8.083  68.971  1.00  0.00    -0.412 NA 
HETATM   23  H1  UNL     1     -11.655   8.879  69.306  1.00  0.00     0.000 HD 
HETATM   24  H2  UNL     1     -11.511   7.806  68.073  1.00  0.00     0.000 HD 
ENDBRANCH   9  12
TORSDOF 1
ENDMDL
MODEL      140
REMARK 921   NORMALIZED FREE ENERGY PREDICTED BY IDOCK:   -4.26 KCAL/MOL
REMARK 922        TOTAL FREE ENERGY PREDICTED BY IDOCK:   -4.89 KCAL/MOL
REMARK 923 INTER-LIGAND FREE ENERGY PREDICTED BY IDOCK:   -4.52 KCAL/MOL
REMARK 924 INTRA-LIGAND FREE ENERGY PREDICTED BY IDOCK:   -0.37 KCAL/MOL
REMARK 927      BINDING AFFINITY PREDICTED BY RF-SCORE:    0.00 PKD
ROOT
HETATM    1  N   UNL     1     -10.535   4.609  71.855  1.00  0.00    -0.149 NA 
HETATM    2  H2  UNL     1     -10.147   3.710  72.141  1.00  0.00     0.000 HD 
HETATM    3  C   UNL     1     -10.878   5.494  72.812  1.00  0.00    -0.263 C  
HETATM    4  H1  UNL     1     -10.644   4.794  70.857  1.00  0.00     0.000 HD 
HETATM    5  N   UNL     1     -10.741   5.261  74.065  1.00  0.00    -0.296 NA 
HETATM    6  N   UNL     1     -11.401   6.708  72.483  1.00  0.00    -0.312 N  
HETATM    7  H   UNL     1     -11.675   7.311  73.258  1.00  0.00     0.000 HD 
HETATM    8  H2  UNL     1     -10.353   4.362  74.352  1.00  0.00     0.000 HD 
HETATM    9  C   UNL     1     -11.598   7.210  71.209  1.00  0.00    -0.294 C  
HETATM   10  H1  UNL     1     -11.001   5.931  74.789  1.00  0.00     0.000 HD 
HETATM   11  O   UNL     1     -11.479   6.549  70.175  1.00  0.00    -0.368 OA 
ENDROOT
BRANCH   9  12
HETATM   12  C   UNL     1     -12.038   8.632  71.154  1.00  0.00    -0.260 A  
HETATM   13  N   UNL     1     -11.339   9.443  70.312  1.00  0.00    -0.243 NA 
HETATM   14  C   UNL     1     -11.719  10.740  70.364  1.00  0.00    -0.351 A  
HETATM   15 CL   UNL     1     -10.793  11.778  69.354  1.00  0.00    -0.179 Cl 
HETATM   16  C   UNL     1     -12.741  11.226  71.200  1.00  0.00    -0.390 A  
HETATM   17  N   UNL     1     -13.166  12.556  71.210  1.00  0.00    -0.127 NA 
HETATM   18  N   UNL     1     -13.431  10.391  72.008  1.00  0.00    -0.344 NA 
HETATM   19  C   UNL     1     -13.072   9.085  71.992  1.00  0.00    -0.414 A  
HETATM   20  H2  UNL     1     -13.419  12.799  70.253  1.00  0.00     0.000 HD 
HETATM   21  H1  UNL     1     -13.907  12.908  71.816  1.00  0.00     0.000 HD 
HETATM   22  N   UNL     1     -13.878   8.241  72.753  1.00  0.00    -0.526 NA 
HETATM   23  H1  UNL     1     -14.627   8.569  73.361  1.00  0.00     0.000 HD 
HETATM   24  H2  UNL     1     -13.257   7.667  73.325  1.00  0.00     0.000 HD 
ENDBRANCH   9  12
TORSDOF 1
ENDMDL
MODEL      141
REMARK 921   NORMALIZED FREE ENERGY PREDICTED BY IDOCK:   -4.23 KCAL/MOL
REMARK 922        TOTAL FREE ENERGY PREDICTED BY IDOCK:   -4.85 KCAL/MOL
REMARK 923 INTER-LIGAND FREE ENERGY PREDICTED BY IDOCK:   -4.47 KCAL/MOL
REMARK 924 INTRA-LIGAND FREE ENERGY PREDICTED BY IDOCK:   -0.38 KCAL/MOL
REMARK 927      BINDING AFFINITY PREDICTED BY RF-SCORE:    0.00 PKD
ROOT
HETATM    1  N   UNL     1     -10.857  11.561  65.423  1.00  0.00    -0.280 NA 
HETATM    2  H2  UNL     1     -11.010  12.359  64.806  1.00  0.00     0.000 HD 
HETATM    3  C   UNL     1     -11.265  11.655  66.705  1.00  0.00    -0.299 C  
HETATM    4  H1  UNL     1     -10.403  10.732  65.040  1.00  0.00     0.000 HD 
HETATM    5  N   UNL     1     -11.835  12.697  67.186  1.00  0.00    -0.432 NA 
HETATM    6  N   UNL     1     -11.084  10.619  67.571  1.00  0.00    -0.312 N  
HETATM    7  H   UNL     1     -11.380  10.774  68.535  1.00  0.00     0.000 HD 
HETATM    8  H2  UNL     1     -11.988  13.496  66.569  1.00  0.00     0.000 HD 
HETATM    9  C   UNL     1     -10.543   9.379  67.282  1.00  0.00    -0.244 C  
HETATM   10  H1  UNL     1     -12.144  12.768  68.156  1.00  0.00     0.000 HD 
HETATM   11  O   UNL     1      -9.988   9.094  66.219  1.00  0.00    -0.270 OA 
ENDROOT
BRANCH   9  12
HETATM   12  C   UNL     1     -10.617   8.386  68.390  1.00  0.00    -0.105 A  
HETATM   13  N   UNL     1     -10.311   8.854  69.633  1.00  0.00    -0.207 NA 
HETATM   14  C   UNL     1     -10.307   7.897  70.588  1.00  0.00    -0.202 A  
HETATM   15 CL   UNL     1      -9.856   8.470  72.145  1.00  0.00    -0.368 Cl 
HETATM   16  C   UNL     1     -10.592   6.541  70.343  1.00  0.00    -0.233 A  
HETATM   17  N   UNL     1     -10.639   5.567  71.343  1.00  0.00    -0.250 NA 
HETATM   18  N   UNL     1     -10.913   6.114  69.103  1.00  0.00    -0.354 NA 
HETATM   19  C   UNL     1     -10.917   7.041  68.115  1.00  0.00    -0.096 A  
HETATM   20  H2  UNL     1     -11.300   5.891  72.048  1.00  0.00     0.000 HD 
HETATM   21  H1  UNL     1     -10.845   4.584  71.165  1.00  0.00     0.000 HD 
HETATM   22  N   UNL     1     -11.360   6.584  66.876  1.00  0.00    -0.817 NA 
HETATM   23  H1  UNL     1     -11.578   5.608  66.677  1.00  0.00     0.000 HD 
HETATM   24  H2  UNL     1     -10.676   6.887  66.182  1.00  0.00     0.000 HD 
ENDBRANCH   9  12
TORSDOF 1
ENDMDL
MODEL      142
REMARK 921   NORMALIZED FREE ENERGY PREDICTED BY IDOCK:   -4.21 KCAL/MOL
REMARK 922        TOTAL FREE ENERGY PREDICTED BY IDOCK:   -4.83 KCAL/MOL
REMARK 923 INTER-LIGAND FREE ENERGY PREDICTED BY IDOCK:   -4.68 KCAL/MOL
REMARK 924 INTRA-LIGAND FREE ENERGY PREDICTED BY IDOCK:   -0.15 KCAL/MOL
REMARK 927      BINDING AFFINITY PREDICTED BY RF-SCORE:    0.00 PKD
ROOT
HETATM    1  N   UNL     1      -6.597  11.623  68.957  1.00  0.00    -0.083 NA 
HETATM    2  H2  UNL     1      -5.878  11.551  69.677  1.00  0.00     0.000 HD 
HETATM    3  C   UNL     1      -7.223  12.805  68.789  1.00  0.00    -0.077 C  
HETATM    4  H1  UNL     1      -6.807  10.795  68.399  1.00  0.00     0.000 HD 
HETATM    5  N   UNL     1      -6.958  13.845  69.491  1.00  0.00    -0.302 NA 
HETATM    6  N   UNL     1      -8.190  12.953  67.842  1.00  0.00    -0.152 N  
HETATM    7  H   UNL     1      -8.649  13.863  67.798  1.00  0.00     0.000 HD 
HETATM    8  H2  UNL     1      -6.238  13.775  70.211  1.00  0.00     0.000 HD 
HETATM    9  C   UNL     1      -8.616  12.001  66.934  1.00  0.00    -0.189 C  
HETATM   10  H1  UNL     1      -7.431  14.740  69.364  1.00  0.00     0.000 HD 
HETATM   11  O   UNL     1      -8.287  10.813  66.966  1.00  0.00    -0.124 OA 
ENDROOT
BRANCH   9  12
HETATM   12  C   UNL     1      -9.579  12.494  65.910  1.00  0.00    -0.168 A  
HETATM   13  N   UNL     1      -9.728  13.846  65.832  1.00  0.00    -0.256 NA 
HETATM   14  C   UNL     1     -10.676  14.240  64.951  1.00  0.00    -0.432 A  
HETATM   15 CL   UNL     1     -10.915  15.941  64.898  1.00  0.00    -0.465 Cl 
HETATM   16  C   UNL     1     -11.444  13.351  64.175  1.00  0.00    -0.383 A  
HETATM   17  N   UNL     1     -12.383  13.765  63.228  1.00  0.00    -1.124 NA 
HETATM   18  N   UNL     1     -11.256  12.017  64.261  1.00  0.00    -0.336 NA 
HETATM   19  C   UNL     1     -10.323  11.582  65.141  1.00  0.00    -0.278 A  
HETATM   20  H2  UNL     1     -11.904  14.391  62.582  1.00  0.00     0.000 HD 
HETATM   21  H1  UNL     1     -12.940  13.121  62.666  1.00  0.00     0.000 HD 
HETATM   22  N   UNL     1     -10.082  10.211  65.119  1.00  0.00    -0.312 NA 
HETATM   23  H1  UNL     1     -10.621   9.549  64.561  1.00  0.00     0.000 HD 
HETATM   24  H2  UNL     1     -10.112   9.884  66.085  1.00  0.00     0.000 HD 
ENDBRANCH   9  12
TORSDOF 1
ENDMDL
MODEL      143
REMARK 921   NORMALIZED FREE ENERGY PREDICTED BY IDOCK:   -4.20 KCAL/MOL
REMARK 922        TOTAL FREE ENERGY PREDICTED BY IDOCK:   -4.82 KCAL/MOL
REMARK 923 INTER-LIGAND FREE ENERGY PREDICTED BY IDOCK:   -4.43 KCAL/MOL
REMARK 924 INTRA-LIGAND FREE ENERGY PREDICTED BY IDOCK:   -0.39 KCAL/MOL
REMARK 927      BINDING AFFINITY PREDICTED BY RF-SCORE:    0.00 PKD
ROOT
HETATM    1  N   UNL     1      -8.145  17.243  66.333  1.00  0.00    -0.279 NA 
HETATM    2  H2  UNL     1      -7.678  18.141  66.208  1.00  0.00     0.000 HD 
HETATM    3  C   UNL     1      -8.018  16.613  67.518  1.00  0.00    -0.168 C  
HETATM    4  H1  UNL     1      -8.686  16.865  65.554  1.00  0.00     0.000 HD 
HETATM    5  N   UNL     1      -7.339  17.087  68.497  1.00  0.00    -0.209 NA 
HETATM    6  N   UNL     1      -8.621  15.411  67.737  1.00  0.00    -0.154 N  
HETATM    7  H   UNL     1      -8.449  14.972  68.641  1.00  0.00     0.000 HD 
HETATM    8  H2  UNL     1      -6.872  17.986  68.373  1.00  0.00     0.000 HD 
HETATM    9  C   UNL     1      -9.442  14.722  66.861  1.00  0.00    -0.240 C  
HETATM   10  H1  UNL     1      -7.243  16.611  69.394  1.00  0.00     0.000 HD 
HETATM   11  O   UNL     1      -9.610  15.029  65.680  1.00  0.00    -0.333 OA 
ENDROOT
BRANCH   9  12
HETATM   12  C   UNL     1     -10.089  13.507  67.430  1.00  0.00    -0.237 A  
HETATM   13  N   UNL     1      -9.261  12.628  68.062  1.00  0.00    -0.203 NA 
HETATM   14  C   UNL     1      -9.880  11.502  68.482  1.00  0.00    -0.195 A  
HETATM   15 CL   UNL     1      -8.827  10.361  69.219  1.00  0.00    -0.177 Cl 
HETATM   16  C   UNL     1     -11.252  11.245  68.298  1.00  0.00    -0.267 A  
HETATM   17  N   UNL     1     -11.897  10.105  68.782  1.00  0.00    -0.587 NA 
HETATM   18  N   UNL     1     -12.050  12.147  67.687  1.00  0.00    -0.488 NA 
HETATM   19  C   UNL     1     -11.464  13.284  67.241  1.00  0.00    -0.338 A  
HETATM   20  H2  UNL     1     -11.714  10.057  69.784  1.00  0.00     0.000 HD 
HETATM   21  H1  UNL     1     -12.891   9.918  68.649  1.00  0.00     0.000 HD 
HETATM   22  N   UNL     1     -12.338  14.234  66.718  1.00  0.00    -0.559 NA 
HETATM   23  H1  UNL     1     -13.335  14.072  66.581  1.00  0.00     0.000 HD 
HETATM   24  H2  UNL     1     -11.956  14.532  65.820  1.00  0.00     0.000 HD 
ENDBRANCH   9  12
TORSDOF 1
ENDMDL
MODEL      144
REMARK 921   NORMALIZED FREE ENERGY PREDICTED BY IDOCK:   -4.20 KCAL/MOL
REMARK 922        TOTAL FREE ENERGY PREDICTED BY IDOCK:   -4.82 KCAL/MOL
REMARK 923 INTER-LIGAND FREE ENERGY PREDICTED BY IDOCK:   -4.43 KCAL/MOL
REMARK 924 INTRA-LIGAND FREE ENERGY PREDICTED BY IDOCK:   -0.38 KCAL/MOL
REMARK 927      BINDING AFFINITY PREDICTED BY RF-SCORE:    0.00 PKD
ROOT
HETATM    1  N   UNL     1     -12.823  15.995  70.440  1.00  0.00    -0.618 NA 
HETATM    2  H2  UNL     1     -13.406  16.447  71.144  1.00  0.00     0.000 HD 
HETATM    3  C   UNL     1     -11.966  15.033  70.838  1.00  0.00    -0.319 C  
HETATM    4  H1  UNL     1     -12.916  16.293  69.469  1.00  0.00     0.000 HD 
HETATM    5  N   UNL     1     -11.848  14.658  72.059  1.00  0.00    -0.326 NA 
HETATM    6  N   UNL     1     -11.164  14.398  69.938  1.00  0.00    -0.404 N  
HETATM    7  H   UNL     1     -10.512  13.710  70.315  1.00  0.00     0.000 HD 
HETATM    8  H2  UNL     1     -12.432  15.110  72.763  1.00  0.00     0.000 HD 
HETATM    9  C   UNL     1     -11.141  14.587  68.568  1.00  0.00    -0.256 C  
HETATM   10  H1  UNL     1     -11.201  13.930  72.360  1.00  0.00     0.000 HD 
HETATM   11  O   UNL     1     -11.738  15.492  67.981  1.00  0.00    -0.322 OA 
ENDROOT
BRANCH   9  12
HETATM   12  C   UNL     1     -10.272  13.638  67.817  1.00  0.00    -0.242 A  
HETATM   13  N   UNL     1      -8.955  13.631  68.163  1.00  0.00    -0.186 NA 
HETATM   14  C   UNL     1      -8.194  12.818  67.395  1.00  0.00    -0.186 A  
HETATM   15 CL   UNL     1      -6.520  12.857  67.784  1.00  0.00    -0.126 Cl 
HETATM   16  C   UNL     1      -8.698  12.043  66.333  1.00  0.00    -0.088 A  
HETATM   17  N   UNL     1      -7.918  11.166  65.578  1.00  0.00    -0.367 NA 
HETATM   18  N   UNL     1     -10.014  12.057  66.030  1.00  0.00    -0.229 NA 
HETATM   19  C   UNL     1     -10.808  12.867  66.770  1.00  0.00    -0.267 A  
HETATM   20  H2  UNL     1      -7.466  10.526  66.230  1.00  0.00     0.000 HD 
HETATM   21  H1  UNL     1      -8.283  10.604  64.809  1.00  0.00     0.000 HD 
HETATM   22  N   UNL     1     -12.171  12.770  66.499  1.00  0.00    -0.496 NA 
HETATM   23  H1  UNL     1     -12.559  12.210  65.741  1.00  0.00     0.000 HD 
HETATM   24  H2  UNL     1     -12.523  13.719  66.383  1.00  0.00     0.000 HD 
ENDBRANCH   9  12
TORSDOF 1
ENDMDL
MODEL      145
REMARK 921   NORMALIZED FREE ENERGY PREDICTED BY IDOCK:   -4.19 KCAL/MOL
REMARK 922        TOTAL FREE ENERGY PREDICTED BY IDOCK:   -4.81 KCAL/MOL
REMARK 923 INTER-LIGAND FREE ENERGY PREDICTED BY IDOCK:   -4.43 KCAL/MOL
REMARK 924 INTRA-LIGAND FREE ENERGY PREDICTED BY IDOCK:   -0.38 KCAL/MOL
REMARK 927      BINDING AFFINITY PREDICTED BY RF-SCORE:    0.00 PKD
ROOT
HETATM    1  N   UNL     1     -11.357   8.957  70.898  1.00  0.00    -0.273 NA 
HETATM    2  H2  UNL     1     -11.555   8.278  71.633  1.00  0.00     0.000 HD 
HETATM    3  C   UNL     1     -12.359   9.753  70.472  1.00  0.00    -0.098 C  
HETATM    4  H1  UNL     1     -10.410   9.001  70.521  1.00  0.00     0.000 HD 
HETATM    5  N   UNL     1     -13.549   9.697  70.946  1.00  0.00    -0.551 NA 
HETATM    6  N   UNL     1     -12.148  10.677  69.494  1.00  0.00    -0.501 N  
HETATM    7  H   UNL     1     -12.960  11.216  69.193  1.00  0.00     0.000 HD 
HETATM    8  H2  UNL     1     -13.748   9.018  71.681  1.00  0.00     0.000 HD 
HETATM    9  C   UNL     1     -10.948  10.961  68.865  1.00  0.00    -0.229 C  
HETATM   10  H1  UNL     1     -14.307  10.300  70.624  1.00  0.00     0.000 HD 
HETATM   11  O   UNL     1      -9.922  10.290  68.991  1.00  0.00    -0.191 OA 
ENDROOT
BRANCH   9  12
HETATM   12  C   UNL     1     -10.983  12.132  67.945  1.00  0.00    -0.229 A  
HETATM   13  N   UNL     1     -11.135  13.351  68.534  1.00  0.00    -0.257 NA 
HETATM   14  C   UNL     1     -11.249  14.371  67.654  1.00  0.00    -0.313 A  
HETATM   15 CL   UNL     1     -11.509  15.902  68.391  1.00  0.00    -0.367 Cl 
HETATM   16  C   UNL     1     -11.213  14.210  66.256  1.00  0.00    -0.329 A  
HETATM   17  N   UNL     1     -11.276  15.273  65.353  1.00  0.00    -0.331 NA 
HETATM   18  N   UNL     1     -11.038  12.990  65.704  1.00  0.00    -0.275 NA 
HETATM   19  C   UNL     1     -10.931  11.940  66.554  1.00  0.00    -0.292 A  
HETATM   20  H2  UNL     1     -10.532  15.924  65.600  1.00  0.00     0.000 HD 
HETATM   21  H1  UNL     1     -11.250  15.156  64.340  1.00  0.00     0.000 HD 
HETATM   22  N   UNL     1     -10.642  10.718  65.951  1.00  0.00    -0.192 NA 
HETATM   23  H1  UNL     1     -10.605  10.579  64.942  1.00  0.00     0.000 HD 
HETATM   24  H2  UNL     1     -11.302  10.035  66.324  1.00  0.00     0.000 HD 
ENDBRANCH   9  12
TORSDOF 1
ENDMDL
MODEL      146
REMARK 921   NORMALIZED FREE ENERGY PREDICTED BY IDOCK:   -4.19 KCAL/MOL
REMARK 922        TOTAL FREE ENERGY PREDICTED BY IDOCK:   -4.81 KCAL/MOL
REMARK 923 INTER-LIGAND FREE ENERGY PREDICTED BY IDOCK:   -4.42 KCAL/MOL
REMARK 924 INTRA-LIGAND FREE ENERGY PREDICTED BY IDOCK:   -0.39 KCAL/MOL
REMARK 927      BINDING AFFINITY PREDICTED BY RF-SCORE:    0.00 PKD
ROOT
HETATM    1  N   UNL     1      -9.956   3.737  66.503  1.00  0.00    -0.395 NA 
HETATM    2  H2  UNL     1      -9.989   2.752  66.238  1.00  0.00     0.000 HD 
HETATM    3  C   UNL     1     -10.557   4.637  65.699  1.00  0.00    -0.203 C  
HETATM    4  H1  UNL     1      -9.470   3.992  67.362  1.00  0.00     0.000 HD 
HETATM    5  N   UNL     1     -11.168   4.317  64.618  1.00  0.00    -0.905 NA 
HETATM    6  N   UNL     1     -10.543   5.965  66.006  1.00  0.00    -0.435 N  
HETATM    7  H   UNL     1     -10.982   6.593  65.332  1.00  0.00     0.000 HD 
HETATM    8  H2  UNL     1     -11.202   3.331  64.354  1.00  0.00     0.000 HD 
HETATM    9  C   UNL     1      -9.996   6.551  67.133  1.00  0.00    -0.157 C  
HETATM   10  H1  UNL     1     -11.624   4.998  64.010  1.00  0.00     0.000 HD 
HETATM   11  O   UNL     1      -9.288   5.958  67.950  1.00  0.00    -0.109 OA 
ENDROOT
BRANCH   9  12
HETATM   12  C   UNL     1     -10.269   8.007  67.280  1.00  0.00    -0.275 A  
HETATM   13  N   UNL     1     -10.067   8.769  66.168  1.00  0.00    -0.204 NA 
HETATM   14  C   UNL     1     -10.243  10.093  66.376  1.00  0.00    -0.221 A  
HETATM   15 CL   UNL     1      -9.923  11.064  64.994  1.00  0.00    -0.315 Cl 
HETATM   16  C   UNL     1     -10.604  10.653  67.617  1.00  0.00    -0.246 A  
HETATM   17  N   UNL     1     -10.836  12.015  67.812  1.00  0.00    -0.207 NA 
HETATM   18  N   UNL     1     -10.818   9.867  68.694  1.00  0.00    -0.223 NA 
HETATM   19  C   UNL     1     -10.641   8.535  68.529  1.00  0.00    -0.111 A  
HETATM   20  H2  UNL     1     -11.544  12.301  67.136  1.00  0.00     0.000 HD 
HETATM   21  H1  UNL     1     -11.098  12.421  68.711  1.00  0.00     0.000 HD 
HETATM   22  N   UNL     1     -10.978   7.752  69.631  1.00  0.00    -0.410 NA 
HETATM   23  H1  UNL     1     -11.248   8.134  70.536  1.00  0.00     0.000 HD 
HETATM   24  H2  UNL     1     -10.201   7.112  69.795  1.00  0.00     0.000 HD 
ENDBRANCH   9  12
TORSDOF 1
ENDMDL
MODEL      147
REMARK 921   NORMALIZED FREE ENERGY PREDICTED BY IDOCK:   -4.18 KCAL/MOL
REMARK 922        TOTAL FREE ENERGY PREDICTED BY IDOCK:   -4.80 KCAL/MOL
REMARK 923 INTER-LIGAND FREE ENERGY PREDICTED BY IDOCK:   -4.41 KCAL/MOL
REMARK 924 INTRA-LIGAND FREE ENERGY PREDICTED BY IDOCK:   -0.39 KCAL/MOL
REMARK 927      BINDING AFFINITY PREDICTED BY RF-SCORE:    0.00 PKD
ROOT
HETATM    1  N   UNL     1      -7.793   6.583  66.786  1.00  0.00    -0.103 NA 
HETATM    2  H2  UNL     1      -7.494   5.661  67.105  1.00  0.00     0.000 HD 
HETATM    3  C   UNL     1      -8.542   6.664  65.669  1.00  0.00    -0.123 C  
HETATM    4  H1  UNL     1      -7.509   7.399  67.330  1.00  0.00     0.000 HD 
HETATM    5  N   UNL     1      -8.898   5.638  64.986  1.00  0.00    -0.331 NA 
HETATM    6  N   UNL     1      -8.967   7.870  65.200  1.00  0.00    -0.376 N  
HETATM    7  H   UNL     1      -9.495   7.860  64.328  1.00  0.00     0.000 HD 
HETATM    8  H2  UNL     1      -8.600   4.716  65.305  1.00  0.00     0.000 HD 
HETATM    9  C   UNL     1      -8.757   9.108  65.782  1.00  0.00    -0.165 C  
HETATM   10  H1  UNL     1      -9.466   5.700  64.141  1.00  0.00     0.000 HD 
HETATM   11  O   UNL     1      -8.003   9.308  66.736  1.00  0.00    -0.106 OA 
ENDROOT
BRANCH   9  12
HETATM   12  C   UNL     1      -9.475  10.239  65.131  1.00  0.00    -0.252 A  
HETATM   13  N   UNL     1     -10.303  10.964  65.935  1.00  0.00    -0.257 NA 
HETATM   14  C   UNL     1     -10.997  11.922  65.279  1.00  0.00    -0.302 A  
HETATM   15 CL   UNL     1     -12.092  12.795  66.275  1.00  0.00    -0.457 Cl 
HETATM   16  C   UNL     1     -10.886  12.165  63.897  1.00  0.00    -0.406 A  
HETATM   17  N   UNL     1     -11.565  13.190  63.235  1.00  0.00    -0.733 NA 
HETATM   18  N   UNL     1     -10.040  11.441  63.132  1.00  0.00    -0.361 NA 
HETATM   19  C   UNL     1      -9.334  10.464  63.750  1.00  0.00    -0.288 A  
HETATM   20  H2  UNL     1     -11.335  14.061  63.712  1.00  0.00     0.000 HD 
HETATM   21  H1  UNL     1     -11.484  13.366  62.233  1.00  0.00     0.000 HD 
HETATM   22  N   UNL     1      -8.394   9.817  62.952  1.00  0.00    -0.149 NA 
HETATM   23  H1  UNL     1      -8.292   9.981  61.951  1.00  0.00     0.000 HD 
HETATM   24  H2  UNL     1      -8.530   8.814  63.080  1.00  0.00     0.000 HD 
ENDBRANCH   9  12
TORSDOF 1
ENDMDL
MODEL      148
REMARK 921   NORMALIZED FREE ENERGY PREDICTED BY IDOCK:   -4.18 KCAL/MOL
REMARK 922        TOTAL FREE ENERGY PREDICTED BY IDOCK:   -4.79 KCAL/MOL
REMARK 923 INTER-LIGAND FREE ENERGY PREDICTED BY IDOCK:   -4.40 KCAL/MOL
REMARK 924 INTRA-LIGAND FREE ENERGY PREDICTED BY IDOCK:   -0.39 KCAL/MOL
REMARK 927      BINDING AFFINITY PREDICTED BY RF-SCORE:    0.00 PKD
ROOT
HETATM    1  N   UNL     1     -12.957  13.901  71.284  1.00  0.00    -0.342 NA 
HETATM    2  H2  UNL     1     -13.207  14.841  71.593  1.00  0.00     0.000 HD 
HETATM    3  C   UNL     1     -11.887  13.754  70.478  1.00  0.00    -0.223 C  
HETATM    4  H1  UNL     1     -13.531  13.119  71.600  1.00  0.00     0.000 HD 
HETATM    5  N   UNL     1     -11.167  14.738  70.081  1.00  0.00    -0.363 NA 
HETATM    6  N   UNL     1     -11.510  12.522  70.036  1.00  0.00    -0.526 N  
HETATM    7  H   UNL     1     -10.716  12.490  69.398  1.00  0.00     0.000 HD 
HETATM    8  H2  UNL     1     -11.416  15.678  70.390  1.00  0.00     0.000 HD 
HETATM    9  C   UNL     1     -12.092  11.309  70.363  1.00  0.00    -0.384 C  
HETATM   10  H1  UNL     1     -10.356  14.627  69.471  1.00  0.00     0.000 HD 
HETATM   11  O   UNL     1     -13.152  11.191  70.980  1.00  0.00    -0.292 OA 
ENDROOT
BRANCH   9  12
HETATM   12  C   UNL     1     -11.369  10.109  69.857  1.00  0.00    -0.275 A  
HETATM   13  N   UNL     1     -11.009  10.138  68.543  1.00  0.00    -0.239 NA 
HETATM   14  C   UNL     1     -10.435   8.992  68.111  1.00  0.00    -0.207 A  
HETATM   15 CL   UNL     1     -10.041   8.999  66.438  1.00  0.00    -0.369 Cl 
HETATM   16  C   UNL     1     -10.220   7.865  68.926  1.00  0.00    -0.205 A  
HETATM   17  N   UNL     1      -9.579   6.705  68.488  1.00  0.00    -0.126 NA 
HETATM   18  N   UNL     1     -10.570   7.877  70.231  1.00  0.00    -0.227 NA 
HETATM   19  C   UNL     1     -11.157   9.004  70.700  1.00  0.00    -0.265 A  
HETATM   20  H2  UNL     1      -8.672   6.984  68.115  1.00  0.00     0.000 HD 
HETATM   21  H1  UNL     1      -9.423   5.888  69.079  1.00  0.00     0.000 HD 
HETATM   22  N   UNL     1     -11.401   9.018  72.071  1.00  0.00    -0.363 NA 
HETATM   23  H1  UNL     1     -11.247   8.217  72.682  1.00  0.00     0.000 HD 
HETATM   24  H2  UNL     1     -12.368   9.314  72.202  1.00  0.00     0.000 HD 
ENDBRANCH   9  12
TORSDOF 1
ENDMDL
MODEL      149
REMARK 921   NORMALIZED FREE ENERGY PREDICTED BY IDOCK:   -4.16 KCAL/MOL
REMARK 922        TOTAL FREE ENERGY PREDICTED BY IDOCK:   -4.78 KCAL/MOL
REMARK 923 INTER-LIGAND FREE ENERGY PREDICTED BY IDOCK:   -4.38 KCAL/MOL
REMARK 924 INTRA-LIGAND FREE ENERGY PREDICTED BY IDOCK:   -0.40 KCAL/MOL
REMARK 927      BINDING AFFINITY PREDICTED BY RF-SCORE:    0.00 PKD
ROOT
HETATM    1  N   UNL     1     -12.153  15.721  69.459  1.00  0.00    -0.451 NA 
HETATM    2  H2  UNL     1     -12.402  16.089  70.377  1.00  0.00     0.000 HD 
HETATM    3  C   UNL     1     -11.714  14.449  69.374  1.00  0.00    -0.317 C  
HETATM    4  H1  UNL     1     -12.249  16.335  68.649  1.00  0.00     0.000 HD 
HETATM    5  N   UNL     1     -11.594  13.678  70.391  1.00  0.00    -0.522 NA 
HETATM    6  N   UNL     1     -11.369  13.910  68.171  1.00  0.00    -0.278 N  
HETATM    7  H   UNL     1     -11.007  12.956  68.187  1.00  0.00     0.000 HD 
HETATM    8  H2  UNL     1     -11.843  14.046  71.310  1.00  0.00     0.000 HD 
HETATM    9  C   UNL     1     -11.457  14.519  66.932  1.00  0.00    -0.364 C  
HETATM   10  H1  UNL     1     -11.263  12.716  70.327  1.00  0.00     0.000 HD 
HETATM   11  O   UNL     1     -11.710  15.713  66.761  1.00  0.00     0.103 OA 
ENDROOT
BRANCH   9  12
HETATM   12  C   UNL     1     -11.158  13.631  65.773  1.00  0.00    -0.287 A  
HETATM   13  N   UNL     1     -12.185  13.418  64.903  1.00  0.00    -0.388 NA 
HETATM   14  C   UNL     1     -11.891  12.538  63.920  1.00  0.00    -0.463 A  
HETATM   15 CL   UNL     1     -13.205  12.213  62.860  1.00  0.00     0.421 Cl 
HETATM   16  C   UNL     1     -10.646  11.895  63.787  1.00  0.00    -0.422 A  
HETATM   17  N   UNL     1     -10.331  11.029  62.738  1.00  0.00    -0.771 NA 
HETATM   18  N   UNL     1      -9.642  12.146  64.654  1.00  0.00    -0.018 NA 
HETATM   19  C   UNL     1      -9.900  13.014  65.661  1.00  0.00    -0.170 A  
HETATM   20  H2  UNL     1     -10.503  11.532  61.869  1.00  0.00     0.000 HD 
HETATM   21  H1  UNL     1      -9.428  10.563  62.642  1.00  0.00     0.000 HD 
HETATM   22  N   UNL     1      -8.808  13.330  66.466  1.00  0.00    -0.449 NA 
HETATM   23  H1  UNL     1      -7.896  12.882  66.384  1.00  0.00     0.000 HD 
HETATM   24  H2  UNL     1      -9.109  13.226  67.435  1.00  0.00     0.000 HD 
ENDBRANCH   9  12
TORSDOF 1
ENDMDL
MODEL      150
REMARK 921   NORMALIZED FREE ENERGY PREDICTED BY IDOCK:   -4.16 KCAL/MOL
REMARK 922        TOTAL FREE ENERGY PREDICTED BY IDOCK:   -4.77 KCAL/MOL
REMARK 923 INTER-LIGAND FREE ENERGY PREDICTED BY IDOCK:   -4.39 KCAL/MOL
REMARK 924 INTRA-LIGAND FREE ENERGY PREDICTED BY IDOCK:   -0.38 KCAL/MOL
REMARK 927      BINDING AFFINITY PREDICTED BY RF-SCORE:    0.00 PKD
ROOT
HETATM    1  N   UNL     1     -11.617   7.854  73.104  1.00  0.00    -0.599 NA 
HETATM    2  H2  UNL     1     -12.007   7.856  74.046  1.00  0.00     0.000 HD 
HETATM    3  C   UNL     1     -12.418   8.198  72.076  1.00  0.00    -0.336 C  
HETATM    4  H1  UNL     1     -10.638   7.591  72.986  1.00  0.00     0.000 HD 
HETATM    5  N   UNL     1     -13.648   8.529  72.224  1.00  0.00    -0.532 NA 
HETATM    6  N   UNL     1     -11.946   8.211  70.798  1.00  0.00    -0.471 N  
HETATM    7  H   UNL     1     -12.618   8.442  70.066  1.00  0.00     0.000 HD 
HETATM    8  H2  UNL     1     -14.040   8.531  73.167  1.00  0.00     0.000 HD 
HETATM    9  C   UNL     1     -10.652   7.945  70.388  1.00  0.00    -0.228 C  
HETATM   10  H1  UNL     1     -14.255   8.790  71.447  1.00  0.00     0.000 HD 
HETATM   11  O   UNL     1      -9.771   7.490  71.120  1.00  0.00    -0.164 OA 
ENDROOT
BRANCH   9  12
HETATM   12  C   UNL     1     -10.387   8.190  68.943  1.00  0.00    -0.211 A  
HETATM   13  N   UNL     1      -9.870   7.142  68.243  1.00  0.00    -0.148 NA 
HETATM   14  C   UNL     1      -9.566   7.441  66.959  1.00  0.00    -0.172 A  
HETATM   15 CL   UNL     1      -8.850   6.141  66.092  1.00  0.00    -0.152 Cl 
HETATM   16  C   UNL     1      -9.760   8.710  66.381  1.00  0.00    -0.263 A  
HETATM   17  N   UNL     1      -9.494   8.998  65.041  1.00  0.00    -0.430 NA 
HETATM   18  N   UNL     1     -10.295   9.722  67.097  1.00  0.00    -0.237 NA 
HETATM   19  C   UNL     1     -10.604   9.465  68.391  1.00  0.00    -0.204 A  
HETATM   20  H2  UNL     1     -10.017   8.328  64.479  1.00  0.00     0.000 HD 
HETATM   21  H1  UNL     1      -9.635   9.917  64.622  1.00  0.00     0.000 HD 
HETATM   22  N   UNL     1     -11.254  10.499  69.061  1.00  0.00    -0.248 NA 
HETATM   23  H1  UNL     1     -11.411  11.423  68.661  1.00  0.00     0.000 HD 
HETATM   24  H2  UNL     1     -10.769  10.634  69.948  1.00  0.00     0.000 HD 
ENDBRANCH   9  12
TORSDOF 1
ENDMDL
MODEL      151
REMARK 921   NORMALIZED FREE ENERGY PREDICTED BY IDOCK:   -4.16 KCAL/MOL
REMARK 922        TOTAL FREE ENERGY PREDICTED BY IDOCK:   -4.77 KCAL/MOL
REMARK 923 INTER-LIGAND FREE ENERGY PREDICTED BY IDOCK:   -4.48 KCAL/MOL
REMARK 924 INTRA-LIGAND FREE ENERGY PREDICTED BY IDOCK:   -0.29 KCAL/MOL
REMARK 927      BINDING AFFINITY PREDICTED BY RF-SCORE:    0.00 PKD
ROOT
HETATM    1  N   UNL     1     -13.102  10.610  71.648  1.00  0.00    -0.447 NA 
HETATM    2  H2  UNL     1     -13.943  11.185  71.706  1.00  0.00     0.000 HD 
HETATM    3  C   UNL     1     -13.080   9.437  72.312  1.00  0.00    -0.428 C  
HETATM    4  H1  UNL     1     -12.319  10.952  71.090  1.00  0.00     0.000 HD 
HETATM    5  N   UNL     1     -14.064   9.008  73.013  1.00  0.00    -1.146 NA 
HETATM    6  N   UNL     1     -11.982   8.632  72.267  1.00  0.00    -0.375 N  
HETATM    7  H   UNL     1     -12.019   7.779  72.826  1.00  0.00     0.000 HD 
HETATM    8  H2  UNL     1     -14.905   9.583  73.071  1.00  0.00     0.000 HD 
HETATM    9  C   UNL     1     -10.822   8.849  71.545  1.00  0.00    -0.326 C  
HETATM   10  H1  UNL     1     -14.047   8.120  73.515  1.00  0.00     0.000 HD 
HETATM   11  O   UNL     1     -10.552   9.901  70.962  1.00  0.00    -0.290 OA 
ENDROOT
BRANCH   9  12
HETATM   12  C   UNL     1      -9.851   7.719  71.562  1.00  0.00    -0.167 A  
HETATM   13  N   UNL     1     -10.388   6.469  71.637  1.00  0.00    -0.205 NA 
HETATM   14  C   UNL     1      -9.466   5.485  71.737  1.00  0.00    -0.149 A  
HETATM   15 CL   UNL     1     -10.141   3.913  71.901  1.00  0.00    -0.237 Cl 
HETATM   16  C   UNL     1      -8.077   5.710  71.761  1.00  0.00    -0.118 A  
HETATM   17  N   UNL     1      -7.128   4.687  71.811  1.00  0.00    -0.058 NA 
HETATM   18  N   UNL     1      -7.576   6.960  71.663  1.00  0.00    -0.089 NA 
HETATM   19  C   UNL     1      -8.468   7.975  71.571  1.00  0.00    -0.121 A  
HETATM   20  H2  UNL     1      -7.319   4.061  71.029  1.00  0.00     0.000 HD 
HETATM   21  H1  UNL     1      -6.121   4.849  71.828  1.00  0.00     0.000 HD 
HETATM   22  N   UNL     1      -7.913   9.235  71.361  1.00  0.00    -0.322 NA 
HETATM   23  H1  UNL     1      -6.910   9.420  71.367  1.00  0.00     0.000 HD 
HETATM   24  H2  UNL     1      -8.340   9.869  72.035  1.00  0.00     0.000 HD 
ENDBRANCH   9  12
TORSDOF 1
ENDMDL
MODEL      152
REMARK 921   NORMALIZED FREE ENERGY PREDICTED BY IDOCK:   -4.11 KCAL/MOL
REMARK 922        TOTAL FREE ENERGY PREDICTED BY IDOCK:   -4.73 KCAL/MOL
REMARK 923 INTER-LIGAND FREE ENERGY PREDICTED BY IDOCK:   -4.33 KCAL/MOL
REMARK 924 INTRA-LIGAND FREE ENERGY PREDICTED BY IDOCK:   -0.40 KCAL/MOL
REMARK 927      BINDING AFFINITY PREDICTED BY RF-SCORE:    0.00 PKD
ROOT
HETATM    1  N   UNL     1     -11.309  16.859  69.252  1.00  0.00    -0.179 NA 
HETATM    2  H2  UNL     1     -11.121  17.861  69.281  1.00  0.00     0.000 HD 
HETATM    3  C   UNL     1     -10.517  16.078  68.490  1.00  0.00    -0.258 C  
HETATM    4  H1  UNL     1     -12.089  16.496  69.802  1.00  0.00     0.000 HD 
HETATM    5  N   UNL     1      -9.538  16.534  67.799  1.00  0.00    -0.230 NA 
HETATM    6  N   UNL     1     -10.726  14.734  68.416  1.00  0.00    -0.237 N  
HETATM    7  H   UNL     1     -10.114  14.212  67.789  1.00  0.00     0.000 HD 
HETATM    8  H2  UNL     1      -9.349  17.537  67.827  1.00  0.00     0.000 HD 
HETATM    9  C   UNL     1     -11.679  14.003  69.102  1.00  0.00    -0.333 C  
HETATM   10  H1  UNL     1      -8.938  15.944  67.222  1.00  0.00     0.000 HD 
HETATM   11  O   UNL     1     -12.595  14.500  69.761  1.00  0.00    -0.266 OA 
ENDROOT
BRANCH   9  12
HETATM   12  C   UNL     1     -11.571  12.526  68.946  1.00  0.00    -0.318 A  
HETATM   13  N   UNL     1     -11.366  11.816  70.091  1.00  0.00    -0.074 NA 
HETATM   14  C   UNL     1     -11.187  10.492  69.886  1.00  0.00    -0.307 A  
HETATM   15 CL   UNL     1     -10.860   9.603  71.321  1.00  0.00    -0.414 Cl 
HETATM   16  C   UNL     1     -11.210   9.883  68.618  1.00  0.00    -0.068 A  
HETATM   17  N   UNL     1     -11.079   8.507  68.418  1.00  0.00    -0.353 NA 
HETATM   18  N   UNL     1     -11.438  10.611  67.504  1.00  0.00    -0.448 NA 
HETATM   19  C   UNL     1     -11.612  11.945  67.666  1.00  0.00    -0.312 A  
HETATM   20  H2  UNL     1     -11.793   8.050  68.984  1.00  0.00     0.000 HD 
HETATM   21  H1  UNL     1     -11.096   8.066  67.498  1.00  0.00     0.000 HD 
HETATM   22  N   UNL     1     -11.953  12.643  66.510  1.00  0.00    -0.533 NA 
HETATM   23  H1  UNL     1     -11.982  12.221  65.582  1.00  0.00     0.000 HD 
HETATM   24  H2  UNL     1     -11.335  13.452  66.453  1.00  0.00     0.000 HD 
ENDBRANCH   9  12
TORSDOF 1
ENDMDL
MODEL      153
REMARK 921   NORMALIZED FREE ENERGY PREDICTED BY IDOCK:   -4.11 KCAL/MOL
REMARK 922        TOTAL FREE ENERGY PREDICTED BY IDOCK:   -4.73 KCAL/MOL
REMARK 923 INTER-LIGAND FREE ENERGY PREDICTED BY IDOCK:   -4.33 KCAL/MOL
REMARK 924 INTRA-LIGAND FREE ENERGY PREDICTED BY IDOCK:   -0.39 KCAL/MOL
REMARK 927      BINDING AFFINITY PREDICTED BY RF-SCORE:    0.00 PKD
ROOT
HETATM    1  N   UNL     1      -7.279   8.935  68.028  1.00  0.00    -0.082 NA 
HETATM    2  H2  UNL     1      -6.622   8.326  68.516  1.00  0.00     0.000 HD 
HETATM    3  C   UNL     1      -8.516   9.086  68.542  1.00  0.00    -0.128 C  
HETATM    4  H1  UNL     1      -6.968   9.398  67.174  1.00  0.00     0.000 HD 
HETATM    5  N   UNL     1      -8.908   8.504  69.615  1.00  0.00    -0.136 NA 
HETATM    6  N   UNL     1      -9.433   9.887  67.928  1.00  0.00    -0.134 N  
HETATM    7  H   UNL     1     -10.361   9.923  68.350  1.00  0.00     0.000 HD 
HETATM    8  H2  UNL     1      -8.250   7.895  70.104  1.00  0.00     0.000 HD 
HETATM    9  C   UNL     1      -9.237  10.656  66.795  1.00  0.00    -0.156 C  
HETATM   10  H1  UNL     1      -9.844   8.619  70.004  1.00  0.00     0.000 HD 
HETATM   11  O   UNL     1      -8.237  10.593  66.077  1.00  0.00    -0.148 OA 
ENDROOT
BRANCH   9  12
HETATM   12  C   UNL     1     -10.371  11.555  66.442  1.00  0.00    -0.237 A  
HETATM   13  N   UNL     1     -10.930  11.360  65.215  1.00  0.00    -0.229 NA 
HETATM   14  C   UNL     1     -11.894  12.257  64.907  1.00  0.00    -0.358 A  
HETATM   15 CL   UNL     1     -12.555  12.056  63.333  1.00  0.00    -0.681 Cl 
HETATM   16  C   UNL     1     -12.299  13.299  65.762  1.00  0.00    -0.447 A  
HETATM   17  N   UNL     1     -13.332  14.189  65.461  1.00  0.00    -0.666 NA 
HETATM   18  N   UNL     1     -11.740  13.452  66.981  1.00  0.00    -0.359 NA 
HETATM   19  C   UNL     1     -10.761  12.579  67.323  1.00  0.00    -0.233 A  
HETATM   20  H2  UNL     1     -14.160  13.631  65.254  1.00  0.00     0.000 HD 
HETATM   21  H1  UNL     1     -13.626  14.944  66.080  1.00  0.00     0.000 HD 
HETATM   22  N   UNL     1     -10.288  12.700  68.627  1.00  0.00    -0.341 NA 
HETATM   23  H1  UNL     1     -10.572  13.443  69.266  1.00  0.00     0.000 HD 
HETATM   24  H2  UNL     1      -9.270  12.719  68.578  1.00  0.00     0.000 HD 
ENDBRANCH   9  12
TORSDOF 1
ENDMDL
MODEL      154
REMARK 921   NORMALIZED FREE ENERGY PREDICTED BY IDOCK:   -4.11 KCAL/MOL
REMARK 922        TOTAL FREE ENERGY PREDICTED BY IDOCK:   -4.72 KCAL/MOL
REMARK 923 INTER-LIGAND FREE ENERGY PREDICTED BY IDOCK:   -4.51 KCAL/MOL
REMARK 924 INTRA-LIGAND FREE ENERGY PREDICTED BY IDOCK:   -0.22 KCAL/MOL
REMARK 927      BINDING AFFINITY PREDICTED BY RF-SCORE:    0.00 PKD
ROOT
HETATM    1  N   UNL     1     -11.325   9.224  68.880  1.00  0.00    -0.377 NA 
HETATM    2  H2  UNL     1     -11.394   8.213  69.002  1.00  0.00     0.000 HD 
HETATM    3  C   UNL     1     -11.449  10.012  69.967  1.00  0.00    -0.248 C  
HETATM    4  H1  UNL     1     -11.167   9.588  67.940  1.00  0.00     0.000 HD 
HETATM    5  N   UNL     1     -11.649   9.553  71.147  1.00  0.00    -0.336 NA 
HETATM    6  N   UNL     1     -11.366  11.367  69.858  1.00  0.00    -0.443 N  
HETATM    7  H   UNL     1     -11.510  11.902  70.715  1.00  0.00     0.000 HD 
HETATM    8  H2  UNL     1     -11.717   8.542  71.270  1.00  0.00     0.000 HD 
HETATM    9  C   UNL     1     -11.108  12.094  68.710  1.00  0.00    -0.250 C  
HETATM   10  H1  UNL     1     -11.742  10.149  71.970  1.00  0.00     0.000 HD 
HETATM   11  O   UNL     1     -11.081  11.614  67.575  1.00  0.00    -0.240 OA 
ENDROOT
BRANCH   9  12
HETATM   12  C   UNL     1     -10.918  13.556  68.921  1.00  0.00    -0.252 A  
HETATM   13  N   UNL     1     -11.328  14.046  70.124  1.00  0.00    -0.121 NA 
HETATM   14  C   UNL     1     -11.215  15.389  70.233  1.00  0.00    -0.309 A  
HETATM   15 CL   UNL     1     -11.795  16.018  71.724  1.00  0.00    -0.557 Cl 
HETATM   16  C   UNL     1     -10.720  16.221  69.212  1.00  0.00    -0.307 A  
HETATM   17  N   UNL     1     -10.556  17.600  69.349  1.00  0.00    -0.328 NA 
HETATM   18  N   UNL     1     -10.301  15.701  68.038  1.00  0.00    -0.241 NA 
HETATM   19  C   UNL     1     -10.408  14.359  67.885  1.00  0.00    -0.232 A  
HETATM   20  H2  UNL     1      -9.973  17.754  70.171  1.00  0.00     0.000 HD 
HETATM   21  H1  UNL     1     -10.197  18.203  68.609  1.00  0.00     0.000 HD 
HETATM   22  N   UNL     1      -9.864  13.852  66.708  1.00  0.00    -0.266 NA 
HETATM   23  H1  UNL     1      -9.494  14.434  65.957  1.00  0.00     0.000 HD 
HETATM   24  H2  UNL     1     -10.564  13.237  66.294  1.00  0.00     0.000 HD 
ENDBRANCH   9  12
TORSDOF 1
ENDMDL
MODEL      155
REMARK 921   NORMALIZED FREE ENERGY PREDICTED BY IDOCK:   -4.11 KCAL/MOL
REMARK 922        TOTAL FREE ENERGY PREDICTED BY IDOCK:   -4.72 KCAL/MOL
REMARK 923 INTER-LIGAND FREE ENERGY PREDICTED BY IDOCK:   -4.32 KCAL/MOL
REMARK 924 INTRA-LIGAND FREE ENERGY PREDICTED BY IDOCK:   -0.40 KCAL/MOL
REMARK 927      BINDING AFFINITY PREDICTED BY RF-SCORE:    0.00 PKD
ROOT
HETATM    1  N   UNL     1     -10.131  18.786  67.837  1.00  0.00    -0.348 NA 
HETATM    2  H2  UNL     1     -10.100  19.797  67.702  1.00  0.00     0.000 HD 
HETATM    3  C   UNL     1     -10.353  18.001  66.764  1.00  0.00    -0.367 C  
HETATM    4  H1  UNL     1      -9.993  18.419  68.780  1.00  0.00     0.000 HD 
HETATM    5  N   UNL     1     -10.526  18.462  65.581  1.00  0.00    -0.619 NA 
HETATM    6  N   UNL     1     -10.404  16.645  66.891  1.00  0.00    -0.301 N  
HETATM    7  H   UNL     1     -10.615  16.116  66.045  1.00  0.00     0.000 HD 
HETATM    8  H2  UNL     1     -10.495  19.473  65.444  1.00  0.00     0.000 HD 
HETATM    9  C   UNL     1     -10.199  15.911  68.046  1.00  0.00    -0.238 C  
HETATM   10  H1  UNL     1     -10.693  17.868  64.768  1.00  0.00     0.000 HD 
HETATM   11  O   UNL     1     -10.104  16.400  69.173  1.00  0.00    -0.250 OA 
ENDROOT
BRANCH   9  12
HETATM   12  C   UNL     1     -10.160  14.434  67.853  1.00  0.00    -0.228 A  
HETATM   13  N   UNL     1      -8.994  13.818  68.193  1.00  0.00    -0.185 NA 
HETATM   14  C   UNL     1      -8.977  12.494  67.918  1.00  0.00    -0.188 A  
HETATM   15 CL   UNL     1      -7.484  11.725  68.283  1.00  0.00    -0.096 Cl 
HETATM   16  C   UNL     1     -10.055  11.799  67.337  1.00  0.00    -0.195 A  
HETATM   17  N   UNL     1     -10.052  10.422  67.105  1.00  0.00    -0.198 NA 
HETATM   18  N   UNL     1     -11.206  12.436  67.031  1.00  0.00    -0.285 NA 
HETATM   19  C   UNL     1     -11.258  13.766  67.282  1.00  0.00    -0.311 A  
HETATM   20  H2  UNL     1      -9.844   9.967  67.993  1.00  0.00     0.000 HD 
HETATM   21  H1  UNL     1     -10.833   9.918  66.684  1.00  0.00     0.000 HD 
HETATM   22  N   UNL     1     -12.496  14.363  67.057  1.00  0.00    -0.514 NA 
HETATM   23  H1  UNL     1     -13.291  13.879  66.643  1.00  0.00     0.000 HD 
HETATM   24  H2  UNL     1     -12.329  15.200  66.497  1.00  0.00     0.000 HD 
ENDBRANCH   9  12
TORSDOF 1
ENDMDL
MODEL      156
REMARK 921   NORMALIZED FREE ENERGY PREDICTED BY IDOCK:   -4.10 KCAL/MOL
REMARK 922        TOTAL FREE ENERGY PREDICTED BY IDOCK:   -4.72 KCAL/MOL
REMARK 923 INTER-LIGAND FREE ENERGY PREDICTED BY IDOCK:   -4.33 KCAL/MOL
REMARK 924 INTRA-LIGAND FREE ENERGY PREDICTED BY IDOCK:   -0.39 KCAL/MOL
REMARK 927      BINDING AFFINITY PREDICTED BY RF-SCORE:    0.00 PKD
ROOT
HETATM    1  N   UNL     1     -11.422   9.130  70.948  1.00  0.00    -0.282 NA 
HETATM    2  H2  UNL     1     -11.618   8.320  71.537  1.00  0.00     0.000 HD 
HETATM    3  C   UNL     1     -12.417  10.007  70.709  1.00  0.00    -0.295 C  
HETATM    4  H1  UNL     1     -10.481   9.235  70.567  1.00  0.00     0.000 HD 
HETATM    5  N   UNL     1     -13.599   9.874  71.187  1.00  0.00    -0.380 NA 
HETATM    6  N   UNL     1     -12.208  11.104  69.929  1.00  0.00    -0.321 N  
HETATM    7  H   UNL     1     -13.016  11.703  69.759  1.00  0.00     0.000 HD 
HETATM    8  H2  UNL     1     -13.796   9.064  71.777  1.00  0.00     0.000 HD 
HETATM    9  C   UNL     1     -11.016  11.492  69.344  1.00  0.00    -0.176 C  
HETATM   10  H1  UNL     1     -14.353  10.538  71.008  1.00  0.00     0.000 HD 
HETATM   11  O   UNL     1      -9.999  10.796  69.313  1.00  0.00    -0.214 OA 
ENDROOT
BRANCH   9  12
HETATM   12  C   UNL     1     -11.047  12.823  68.676  1.00  0.00    -0.266 A  
HETATM   13  N   UNL     1     -10.745  12.832  67.348  1.00  0.00    -0.228 NA 
HETATM   14  C   UNL     1     -10.701  14.072  66.808  1.00  0.00    -0.285 A  
HETATM   15 CL   UNL     1     -10.253  14.093  65.148  1.00  0.00    -0.414 Cl 
HETATM   16  C   UNL     1     -10.944  15.253  67.533  1.00  0.00    -0.315 A  
HETATM   17  N   UNL     1     -10.950  16.526  66.959  1.00  0.00    -0.102 NA 
HETATM   18  N   UNL     1     -11.263  15.207  68.845  1.00  0.00    -0.267 NA 
HETATM   19  C   UNL     1     -11.307  13.984  69.425  1.00  0.00    -0.268 A  
HETATM   20  H2  UNL     1     -11.615  16.505  66.186  1.00  0.00     0.000 HD 
HETATM   21  H1  UNL     1     -11.127  17.382  67.485  1.00  0.00     0.000 HD 
HETATM   22  N   UNL     1     -11.746  13.971  70.747  1.00  0.00    -0.514 NA 
HETATM   23  H1  UNL     1     -11.934  14.813  71.290  1.00  0.00     0.000 HD 
HETATM   24  H2  UNL     1     -11.079  13.413  71.280  1.00  0.00     0.000 HD 
ENDBRANCH   9  12
TORSDOF 1
ENDMDL
MODEL      157
REMARK 921   NORMALIZED FREE ENERGY PREDICTED BY IDOCK:   -4.08 KCAL/MOL
REMARK 922        TOTAL FREE ENERGY PREDICTED BY IDOCK:   -4.69 KCAL/MOL
REMARK 923 INTER-LIGAND FREE ENERGY PREDICTED BY IDOCK:   -4.31 KCAL/MOL
REMARK 924 INTRA-LIGAND FREE ENERGY PREDICTED BY IDOCK:   -0.38 KCAL/MOL
REMARK 927      BINDING AFFINITY PREDICTED BY RF-SCORE:    0.00 PKD
ROOT
HETATM    1  N   UNL     1     -10.446  19.021  65.400  1.00  0.00    -0.386 NA 
HETATM    2  H2  UNL     1     -10.503  20.008  65.148  1.00  0.00     0.000 HD 
HETATM    3  C   UNL     1      -9.719  18.674  66.481  1.00  0.00    -0.351 C  
HETATM    4  H1  UNL     1     -10.944  18.344  64.820  1.00  0.00     0.000 HD 
HETATM    5  N   UNL     1      -9.094  19.525  67.209  1.00  0.00    -0.296 NA 
HETATM    6  N   UNL     1      -9.611  17.370  66.860  1.00  0.00    -0.267 N  
HETATM    7  H   UNL     1      -9.013  17.177  67.663  1.00  0.00     0.000 HD 
HETATM    8  H2  UNL     1      -9.150  20.513  66.958  1.00  0.00     0.000 HD 
HETATM    9  C   UNL     1     -10.228  16.281  66.271  1.00  0.00    -0.327 C  
HETATM   10  H1  UNL     1      -8.545  19.263  68.027  1.00  0.00     0.000 HD 
HETATM   11  O   UNL     1     -10.840  16.323  65.202  1.00  0.00    -0.477 OA 
ENDROOT
BRANCH   9  12
HETATM   12  C   UNL     1     -10.055  14.992  66.997  1.00  0.00    -0.244 A  
HETATM   13  N   UNL     1      -9.176  14.108  66.446  1.00  0.00    -0.229 NA 
HETATM   14  C   UNL     1      -9.119  12.922  67.091  1.00  0.00    -0.220 A  
HETATM   15 CL   UNL     1      -8.063  11.780  66.359  1.00  0.00    -0.040 Cl 
HETATM   16  C   UNL     1      -9.886  12.609  68.230  1.00  0.00    -0.227 A  
HETATM   17  N   UNL     1      -9.784  11.402  68.924  1.00  0.00    -0.376 NA 
HETATM   18  N   UNL     1     -10.732  13.516  68.765  1.00  0.00    -0.250 NA 
HETATM   19  C   UNL     1     -10.825  14.714  68.140  1.00  0.00    -0.252 A  
HETATM   20  H2  UNL     1      -8.804  11.283  69.179  1.00  0.00     0.000 HD 
HETATM   21  H1  UNL     1     -10.339  11.176  69.749  1.00  0.00     0.000 HD 
HETATM   22  N   UNL     1     -11.622  15.658  68.784  1.00  0.00    -0.370 NA 
HETATM   23  H1  UNL     1     -12.181  15.456  69.612  1.00  0.00     0.000 HD 
HETATM   24  H2  UNL     1     -12.253  16.047  68.084  1.00  0.00     0.000 HD 
ENDBRANCH   9  12
TORSDOF 1
ENDMDL
MODEL      158
REMARK 921   NORMALIZED FREE ENERGY PREDICTED BY IDOCK:   -4.07 KCAL/MOL
REMARK 922        TOTAL FREE ENERGY PREDICTED BY IDOCK:   -4.68 KCAL/MOL
REMARK 923 INTER-LIGAND FREE ENERGY PREDICTED BY IDOCK:   -4.28 KCAL/MOL
REMARK 924 INTRA-LIGAND FREE ENERGY PREDICTED BY IDOCK:   -0.40 KCAL/MOL
REMARK 927      BINDING AFFINITY PREDICTED BY RF-SCORE:    0.00 PKD
ROOT
HETATM    1  N   UNL     1      -9.837   7.704  66.064  1.00  0.00    -0.422 NA 
HETATM    2  H2  UNL     1      -9.744   6.712  66.283  1.00  0.00     0.000 HD 
HETATM    3  C   UNL     1     -10.262   8.538  67.034  1.00  0.00    -0.301 C  
HETATM    4  H1  UNL     1      -9.604   8.016  65.121  1.00  0.00     0.000 HD 
HETATM    5  N   UNL     1     -10.556   8.146  68.219  1.00  0.00    -0.381 NA 
HETATM    6  N   UNL     1     -10.404   9.872  66.794  1.00  0.00    -0.229 N  
HETATM    7  H   UNL     1     -10.768  10.436  67.562  1.00  0.00     0.000 HD 
HETATM    8  H2  UNL     1     -10.463   7.153  68.439  1.00  0.00     0.000 HD 
HETATM    9  C   UNL     1     -10.105  10.541  65.621  1.00  0.00    -0.268 C  
HETATM   10  H1  UNL     1     -10.877   8.777  68.953  1.00  0.00     0.000 HD 
HETATM   11  O   UNL     1      -9.821   9.985  64.558  1.00  0.00    -0.305 OA 
ENDROOT
BRANCH   9  12
HETATM   12  C   UNL     1     -10.209  12.024  65.698  1.00  0.00    -0.252 A  
HETATM   13  N   UNL     1     -11.126  12.604  64.873  1.00  0.00    -0.287 NA 
HETATM   14  C   UNL     1     -11.120  13.955  64.917  1.00  0.00    -0.369 A  
HETATM   15 CL   UNL     1     -12.227  14.692  63.828  1.00  0.00    -0.108 Cl 
HETATM   16  C   UNL     1     -10.259  14.711  65.734  1.00  0.00    -0.340 A  
HETATM   17  N   UNL     1     -10.295  16.105  65.816  1.00  0.00    -0.362 NA 
HETATM   18  N   UNL     1      -9.377  14.105  66.558  1.00  0.00    -0.281 NA 
HETATM   19  C   UNL     1      -9.344  12.751  66.535  1.00  0.00    -0.221 A  
HETATM   20  H2  UNL     1     -11.249  16.368  66.060  1.00  0.00     0.000 HD 
HETATM   21  H1  UNL     1      -9.671  16.652  66.408  1.00  0.00     0.000 HD 
HETATM   22  N   UNL     1      -8.502  12.163  67.475  1.00  0.00    -0.159 NA 
HETATM   23  H1  UNL     1      -7.874  12.690  68.082  1.00  0.00     0.000 HD 
HETATM   24  H2  UNL     1      -7.934  11.474  66.982  1.00  0.00     0.000 HD 
ENDBRANCH   9  12
TORSDOF 1
ENDMDL
MODEL      159
REMARK 921   NORMALIZED FREE ENERGY PREDICTED BY IDOCK:   -4.07 KCAL/MOL
REMARK 922        TOTAL FREE ENERGY PREDICTED BY IDOCK:   -4.68 KCAL/MOL
REMARK 923 INTER-LIGAND FREE ENERGY PREDICTED BY IDOCK:   -4.34 KCAL/MOL
REMARK 924 INTRA-LIGAND FREE ENERGY PREDICTED BY IDOCK:   -0.34 KCAL/MOL
REMARK 927      BINDING AFFINITY PREDICTED BY RF-SCORE:    0.00 PKD
ROOT
HETATM    1  N   UNL     1     -11.724  15.822  68.627  1.00  0.00    -0.419 NA 
HETATM    2  H2  UNL     1     -11.805  16.806  68.882  1.00  0.00     0.000 HD 
HETATM    3  C   UNL     1     -10.935  15.492  67.585  1.00  0.00    -0.315 C  
HETATM    4  H1  UNL     1     -12.245  15.135  69.172  1.00  0.00     0.000 HD 
HETATM    5  N   UNL     1     -10.279  16.355  66.899  1.00  0.00    -0.285 NA 
HETATM    6  N   UNL     1     -10.792  14.192  67.201  1.00  0.00    -0.287 N  
HETATM    7  H   UNL     1     -10.212  14.020  66.381  1.00  0.00     0.000 HD 
HETATM    8  H2  UNL     1     -10.359  17.340  67.155  1.00  0.00     0.000 HD 
HETATM    9  C   UNL     1     -11.352  13.082  67.808  1.00  0.00    -0.292 C  
HETATM   10  H1  UNL     1      -9.682  16.106  66.111  1.00  0.00     0.000 HD 
HETATM   11  O   UNL     1     -12.205  13.131  68.697  1.00  0.00    -0.252 OA 
ENDROOT
BRANCH   9  12
HETATM   12  C   UNL     1     -10.894  11.772  67.266  1.00  0.00    -0.253 A  
HETATM   13  N   UNL     1     -10.521  11.764  65.956  1.00  0.00    -0.238 NA 
HETATM   14  C   UNL     1     -10.198  10.536  65.489  1.00  0.00    -0.256 A  
HETATM   15 CL   UNL     1      -9.792  10.511  63.819  1.00  0.00    -0.377 Cl 
HETATM   16  C   UNL     1     -10.235   9.365  66.268  1.00  0.00    -0.214 A  
HETATM   17  N   UNL     1      -9.849   8.109  65.796  1.00  0.00    -0.341 NA 
HETATM   18  N   UNL     1     -10.588   9.411  67.571  1.00  0.00    -0.277 NA 
HETATM   19  C   UNL     1     -10.929  10.621  68.074  1.00  0.00    -0.282 A  
HETATM   20  H2  UNL     1      -8.899   8.201  65.436  1.00  0.00     0.000 HD 
HETATM   21  H1  UNL     1      -9.875   7.260  66.361  1.00  0.00     0.000 HD 
HETATM   22  N   UNL     1     -11.180  10.645  69.444  1.00  0.00    -0.250 NA 
HETATM   23  H1  UNL     1     -11.206   9.810  70.029  1.00  0.00     0.000 HD 
HETATM   24  H2  UNL     1     -12.064  11.134  69.580  1.00  0.00     0.000 HD 
ENDBRANCH   9  12
TORSDOF 1
ENDMDL
MODEL      160
REMARK 921   NORMALIZED FREE ENERGY PREDICTED BY IDOCK:   -4.06 KCAL/MOL
REMARK 922        TOTAL FREE ENERGY PREDICTED BY IDOCK:   -4.67 KCAL/MOL
REMARK 923 INTER-LIGAND FREE ENERGY PREDICTED BY IDOCK:   -4.28 KCAL/MOL
REMARK 924 INTRA-LIGAND FREE ENERGY PREDICTED BY IDOCK:   -0.39 KCAL/MOL
REMARK 927      BINDING AFFINITY PREDICTED BY RF-SCORE:    0.00 PKD
ROOT
HETATM    1  N   UNL     1      -6.390   9.809  68.298  1.00  0.00    -0.055 NA 
HETATM    2  H2  UNL     1      -5.664   9.839  67.582  1.00  0.00     0.000 HD 
HETATM    3  C   UNL     1      -7.663   9.586  67.914  1.00  0.00    -0.087 C  
HETATM    4  H1  UNL     1      -6.116   9.949  69.271  1.00  0.00     0.000 HD 
HETATM    5  N   UNL     1      -8.007   9.410  66.692  1.00  0.00    -0.108 NA 
HETATM    6  N   UNL     1      -8.669   9.537  68.831  1.00  0.00    -0.129 N  
HETATM    7  H   UNL     1      -9.612   9.405  68.466  1.00  0.00     0.000 HD 
HETATM    8  H2  UNL     1      -7.281   9.440  65.974  1.00  0.00     0.000 HD 
HETATM    9  C   UNL     1      -8.547   9.646  70.205  1.00  0.00    -0.214 C  
HETATM   10  H1  UNL     1      -8.970   9.241  66.401  1.00  0.00     0.000 HD 
HETATM   11  O   UNL     1      -7.511   9.974  70.786  1.00  0.00    -0.298 OA 
ENDROOT
BRANCH   9  12
HETATM   12  C   UNL     1      -9.801   9.395  70.969  1.00  0.00    -0.247 A  
HETATM   13  N   UNL     1      -9.733   8.429  71.929  1.00  0.00    -0.233 NA 
HETATM   14  C   UNL     1     -10.916   8.178  72.533  1.00  0.00    -0.369 A  
HETATM   15 CL   UNL     1     -10.850   6.914  73.696  1.00  0.00    -0.293 Cl 
HETATM   16  C   UNL     1     -12.116   8.842  72.217  1.00  0.00    -0.353 A  
HETATM   17  N   UNL     1     -13.323   8.616  72.881  1.00  0.00    -0.782 NA 
HETATM   18  N   UNL     1     -12.145   9.810  71.275  1.00  0.00    -0.353 NA 
HETATM   19  C   UNL     1     -10.981  10.084  70.639  1.00  0.00    -0.322 A  
HETATM   20  H2  UNL     1     -13.152   8.761  73.875  1.00  0.00     0.000 HD 
HETATM   21  H1  UNL     1     -14.193   9.098  72.652  1.00  0.00     0.000 HD 
HETATM   22  N   UNL     1     -11.027  11.161  69.757  1.00  0.00    -0.440 NA 
HETATM   23  H1  UNL     1     -11.883  11.660  69.518  1.00  0.00     0.000 HD 
HETATM   24  H2  UNL     1     -10.605  10.851  68.881  1.00  0.00     0.000 HD 
ENDBRANCH   9  12
TORSDOF 1
ENDMDL
MODEL      161
REMARK 921   NORMALIZED FREE ENERGY PREDICTED BY IDOCK:   -4.03 KCAL/MOL
REMARK 922        TOTAL FREE ENERGY PREDICTED BY IDOCK:   -4.64 KCAL/MOL
REMARK 923 INTER-LIGAND FREE ENERGY PREDICTED BY IDOCK:   -4.28 KCAL/MOL
REMARK 924 INTRA-LIGAND FREE ENERGY PREDICTED BY IDOCK:   -0.36 KCAL/MOL
REMARK 927      BINDING AFFINITY PREDICTED BY RF-SCORE:    0.00 PKD
ROOT
HETATM    1  N   UNL     1     -10.000  11.362  69.293  1.00  0.00    -0.424 NA 
HETATM    2  H2  UNL     1     -10.026  12.188  68.695  1.00  0.00     0.000 HD 
HETATM    3  C   UNL     1     -11.102  10.589  69.366  1.00  0.00    -0.258 C  
HETATM    4  H1  UNL     1      -9.142  11.162  69.806  1.00  0.00     0.000 HD 
HETATM    5  N   UNL     1     -12.181  10.840  68.721  1.00  0.00    -0.814 NA 
HETATM    6  N   UNL     1     -11.121   9.474  70.149  1.00  0.00    -0.247 N  
HETATM    7  H   UNL     1     -12.000   8.959  70.188  1.00  0.00     0.000 HD 
HETATM    8  H2  UNL     1     -12.207  11.667  68.122  1.00  0.00     0.000 HD 
HETATM    9  C   UNL     1     -10.073   8.967  70.898  1.00  0.00    -0.262 C  
HETATM   10  H1  UNL     1     -13.015  10.255  68.775  1.00  0.00     0.000 HD 
HETATM   11  O   UNL     1      -9.008   9.557  71.091  1.00  0.00    -0.249 OA 
ENDROOT
BRANCH   9  12
HETATM   12  C   UNL     1     -10.335   7.645  71.531  1.00  0.00    -0.196 A  
HETATM   13  N   UNL     1      -9.362   6.703  71.374  1.00  0.00    -0.152 NA 
HETATM   14  C   UNL     1      -9.685   5.496  71.890  1.00  0.00    -0.162 A  
HETATM   15 CL   UNL     1      -8.489   4.287  71.634  1.00  0.00    -0.103 Cl 
HETATM   16  C   UNL     1     -10.904   5.218  72.536  1.00  0.00    -0.245 A  
HETATM   17  N   UNL     1     -11.210   3.985  73.114  1.00  0.00    -0.155 NA 
HETATM   18  N   UNL     1     -11.839   6.180  72.694  1.00  0.00    -0.162 NA 
HETATM   19  C   UNL     1     -11.557   7.402  72.181  1.00  0.00    -0.293 A  
HETATM   20  H2  UNL     1     -10.463   3.768  73.774  1.00  0.00     0.000 HD 
HETATM   21  H1  UNL     1     -12.093   3.783  73.582  1.00  0.00     0.000 HD 
HETATM   22  N   UNL     1     -12.495   8.392  72.461  1.00  0.00    -0.555 NA 
HETATM   23  H1  UNL     1     -13.382   8.216  72.933  1.00  0.00     0.000 HD 
HETATM   24  H2  UNL     1     -12.711   8.860  71.581  1.00  0.00     0.000 HD 
ENDBRANCH   9  12
TORSDOF 1
ENDMDL
MODEL      162
REMARK 921   NORMALIZED FREE ENERGY PREDICTED BY IDOCK:   -4.01 KCAL/MOL
REMARK 922        TOTAL FREE ENERGY PREDICTED BY IDOCK:   -4.62 KCAL/MOL
REMARK 923 INTER-LIGAND FREE ENERGY PREDICTED BY IDOCK:   -4.27 KCAL/MOL
REMARK 924 INTRA-LIGAND FREE ENERGY PREDICTED BY IDOCK:   -0.35 KCAL/MOL
REMARK 927      BINDING AFFINITY PREDICTED BY RF-SCORE:    0.00 PKD
ROOT
HETATM    1  N   UNL     1     -10.700  10.322  67.481  1.00  0.00    -0.276 NA 
HETATM    2  H2  UNL     1     -10.548  10.842  66.616  1.00  0.00     0.000 HD 
HETATM    3  C   UNL     1     -10.533   8.985  67.463  1.00  0.00    -0.272 C  
HETATM    4  H1  UNL     1     -10.972  10.840  68.317  1.00  0.00     0.000 HD 
HETATM    5  N   UNL     1     -10.192   8.334  66.412  1.00  0.00    -0.453 NA 
HETATM    6  N   UNL     1     -10.723   8.243  68.589  1.00  0.00    -0.410 N  
HETATM    7  H   UNL     1     -10.619   7.233  68.493  1.00  0.00     0.000 HD 
HETATM    8  H2  UNL     1     -10.039   8.854  65.547  1.00  0.00     0.000 HD 
HETATM    9  C   UNL     1     -11.043   8.715  69.850  1.00  0.00    -0.116 C  
HETATM   10  H1  UNL     1     -10.065   7.322  66.398  1.00  0.00     0.000 HD 
HETATM   11  O   UNL     1     -11.367   9.878  70.095  1.00  0.00    -0.253 OA 
ENDROOT
BRANCH   9  12
HETATM   12  C   UNL     1     -11.033   7.686  70.928  1.00  0.00    -0.250 A  
HETATM   13  N   UNL     1      -9.805   7.322  71.394  1.00  0.00    -0.185 NA 
HETATM   14  C   UNL     1      -9.844   6.324  72.307  1.00  0.00    -0.161 A  
HETATM   15 CL   UNL     1      -8.294   5.814  72.848  1.00  0.00    -0.119 Cl 
HETATM   16  C   UNL     1     -11.031   5.710  72.749  1.00  0.00    -0.276 A  
HETATM   17  N   UNL     1     -11.069   4.718  73.731  1.00  0.00    -0.298 NA 
HETATM   18  N   UNL     1     -12.233   6.111  72.282  1.00  0.00    -0.229 NA 
HETATM   19  C   UNL     1     -12.236   7.101  71.358  1.00  0.00    -0.362 A  
HETATM   20  H2  UNL     1     -10.598   5.091  74.555  1.00  0.00     0.000 HD 
HETATM   21  H1  UNL     1     -11.929   4.273  74.051  1.00  0.00     0.000 HD 
HETATM   22  N   UNL     1     -13.497   7.560  70.985  1.00  0.00    -0.609 NA 
HETATM   23  H1  UNL     1     -14.370   7.135  71.297  1.00  0.00     0.000 HD 
HETATM   24  H2  UNL     1     -13.521   7.580  69.966  1.00  0.00     0.000 HD 
ENDBRANCH   9  12
TORSDOF 1
ENDMDL
MODEL      163
REMARK 921   NORMALIZED FREE ENERGY PREDICTED BY IDOCK:   -4.01 KCAL/MOL
REMARK 922        TOTAL FREE ENERGY PREDICTED BY IDOCK:   -4.62 KCAL/MOL
REMARK 923 INTER-LIGAND FREE ENERGY PREDICTED BY IDOCK:   -4.25 KCAL/MOL
REMARK 924 INTRA-LIGAND FREE ENERGY PREDICTED BY IDOCK:   -0.36 KCAL/MOL
REMARK 927      BINDING AFFINITY PREDICTED BY RF-SCORE:    0.00 PKD
ROOT
HETATM    1  N   UNL     1     -11.583  14.254  68.125  1.00  0.00    -0.313 NA 
HETATM    2  H2  UNL     1     -11.931  15.202  68.272  1.00  0.00     0.000 HD 
HETATM    3  C   UNL     1     -11.925  13.614  66.989  1.00  0.00    -0.406 C  
HETATM    4  H1  UNL     1     -10.994  13.837  68.846  1.00  0.00     0.000 HD 
HETATM    5  N   UNL     1     -12.666  14.138  66.083  1.00  0.00    -0.491 NA 
HETATM    6  N   UNL     1     -11.488  12.347  66.744  1.00  0.00    -0.341 N  
HETATM    7  H   UNL     1     -11.819  11.909  65.884  1.00  0.00     0.000 HD 
HETATM    8  H2  UNL     1     -13.013  15.087  66.229  1.00  0.00     0.000 HD 
HETATM    9  C   UNL     1     -10.644  11.592  67.539  1.00  0.00    -0.206 C  
HETATM   10  H1  UNL     1     -12.924  13.654  65.223  1.00  0.00     0.000 HD 
HETATM   11  O   UNL     1     -10.297  11.906  68.679  1.00  0.00    -0.214 OA 
ENDROOT
BRANCH   9  12
HETATM   12  C   UNL     1     -10.208  10.298  66.941  1.00  0.00    -0.230 A  
HETATM   13  N   UNL     1     -10.858   9.186  67.385  1.00  0.00    -0.174 NA 
HETATM   14  C   UNL     1     -10.367   8.031  66.880  1.00  0.00    -0.338 A  
HETATM   15 CL   UNL     1     -11.139   6.621  67.489  1.00  0.00    -0.398 Cl 
HETATM   16  C   UNL     1      -9.291   7.964  65.976  1.00  0.00    -0.063 A  
HETATM   17  N   UNL     1      -8.824   6.773  65.416  1.00  0.00    -0.364 NA 
HETATM   18  N   UNL     1      -8.683   9.088  65.538  1.00  0.00    -0.170 NA 
HETATM   19  C   UNL     1      -9.138  10.265  66.030  1.00  0.00    -0.161 A  
HETATM   20  H2  UNL     1      -9.620   6.317  64.970  1.00  0.00     0.000 HD 
HETATM   21  H1  UNL     1      -8.044   6.725  64.760  1.00  0.00     0.000 HD 
HETATM   22  N   UNL     1      -8.561  11.403  65.472  1.00  0.00    -0.386 NA 
HETATM   23  H1  UNL     1      -7.785  11.379  64.811  1.00  0.00     0.000 HD 
HETATM   24  H2  UNL     1      -8.280  12.008  66.244  1.00  0.00     0.000 HD 
ENDBRANCH   9  12
TORSDOF 1
ENDMDL
MODEL      164
REMARK 921   NORMALIZED FREE ENERGY PREDICTED BY IDOCK:   -4.00 KCAL/MOL
REMARK 922        TOTAL FREE ENERGY PREDICTED BY IDOCK:   -4.61 KCAL/MOL
REMARK 923 INTER-LIGAND FREE ENERGY PREDICTED BY IDOCK:   -4.22 KCAL/MOL
REMARK 924 INTRA-LIGAND FREE ENERGY PREDICTED BY IDOCK:   -0.39 KCAL/MOL
REMARK 927      BINDING AFFINITY PREDICTED BY RF-SCORE:    0.00 PKD
ROOT
HETATM    1  N   UNL     1     -11.033   5.334  72.281  1.00  0.00    -0.214 NA 
HETATM    2  H2  UNL     1     -10.777   4.472  72.763  1.00  0.00     0.000 HD 
HETATM    3  C   UNL     1     -10.822   6.507  72.911  1.00  0.00    -0.258 C  
HETATM    4  H1  UNL     1     -11.436   5.267  71.347  1.00  0.00     0.000 HD 
HETATM    5  N   UNL     1     -10.315   6.593  74.086  1.00  0.00    -0.387 NA 
HETATM    6  N   UNL     1     -11.145   7.688  72.314  1.00  0.00    -0.265 N  
HETATM    7  H   UNL     1     -10.996   8.534  72.864  1.00  0.00     0.000 HD 
HETATM    8  H2  UNL     1     -10.058   5.730  74.568  1.00  0.00     0.000 HD 
HETATM    9  C   UNL     1     -11.655   7.861  71.039  1.00  0.00    -0.282 C  
HETATM   10  H1  UNL     1     -10.154   7.480  74.563  1.00  0.00     0.000 HD 
HETATM   11  O   UNL     1     -12.048   6.942  70.317  1.00  0.00    -0.278 OA 
ENDROOT
BRANCH   9  12
HETATM   12  C   UNL     1     -11.764   9.278  70.592  1.00  0.00    -0.222 A  
HETATM   13  N   UNL     1     -12.279  10.153  71.500  1.00  0.00    -0.386 NA 
HETATM   14  C   UNL     1     -12.439  11.407  71.018  1.00  0.00    -0.383 A  
HETATM   15 CL   UNL     1     -13.152  12.498  72.138  1.00  0.00    -0.493 Cl 
HETATM   16  C   UNL     1     -12.108  11.791  69.705  1.00  0.00    -0.269 A  
HETATM   17  N   UNL     1     -12.225  13.099  69.230  1.00  0.00    -0.198 NA 
HETATM   18  N   UNL     1     -11.578  10.903  68.836  1.00  0.00    -0.294 NA 
HETATM   19  C   UNL     1     -11.412   9.634  69.278  1.00  0.00     0.136 A  
HETATM   20  H2  UNL     1     -11.695  13.698  69.862  1.00  0.00     0.000 HD 
HETATM   21  H1  UNL     1     -11.984  13.378  68.278  1.00  0.00     0.000 HD 
HETATM   22  N   UNL     1     -10.763   8.778  68.392  1.00  0.00    -0.425 NA 
HETATM   23  H1  UNL     1     -10.508   9.037  67.439  1.00  0.00     0.000 HD 
HETATM   24  H2  UNL     1     -11.321   7.926  68.333  1.00  0.00     0.000 HD 
ENDBRANCH   9  12
TORSDOF 1
ENDMDL
MODEL      165
REMARK 921   NORMALIZED FREE ENERGY PREDICTED BY IDOCK:   -3.98 KCAL/MOL
REMARK 922        TOTAL FREE ENERGY PREDICTED BY IDOCK:   -4.59 KCAL/MOL
REMARK 923 INTER-LIGAND FREE ENERGY PREDICTED BY IDOCK:   -4.23 KCAL/MOL
REMARK 924 INTRA-LIGAND FREE ENERGY PREDICTED BY IDOCK:   -0.36 KCAL/MOL
REMARK 927      BINDING AFFINITY PREDICTED BY RF-SCORE:    0.00 PKD
ROOT
HETATM    1  N   UNL     1     -11.881  10.783  68.320  1.00  0.00    -0.765 NA 
HETATM    2  H2  UNL     1     -12.311  11.531  67.774  1.00  0.00     0.000 HD 
HETATM    3  C   UNL     1     -11.631  11.005  69.626  1.00  0.00    -0.318 C  
HETATM    4  H1  UNL     1     -11.660   9.905  67.850  1.00  0.00     0.000 HD 
HETATM    5  N   UNL     1     -11.908  12.108  70.217  1.00  0.00    -0.515 NA 
HETATM    6  N   UNL     1     -11.058  10.041  70.399  1.00  0.00    -0.305 N  
HETATM    7  H   UNL     1     -10.861  10.291  71.368  1.00  0.00     0.000 HD 
HETATM    8  H2  UNL     1     -12.339  12.856  69.672  1.00  0.00     0.000 HD 
HETATM    9  C   UNL     1     -10.715   8.758  70.009  1.00  0.00    -0.228 C  
HETATM   10  H1  UNL     1     -11.720  12.276  71.206  1.00  0.00     0.000 HD 
HETATM   11  O   UNL     1     -10.730   8.359  68.843  1.00  0.00    -0.179 OA 
ENDROOT
BRANCH   9  12
HETATM   12  C   UNL     1     -10.250   7.869  71.111  1.00  0.00    -0.195 A  
HETATM   13  N   UNL     1      -9.577   8.478  72.127  1.00  0.00    -0.290 NA 
HETATM   14  C   UNL     1      -9.100   7.618  73.056  1.00  0.00    -0.186 A  
HETATM   15 CL   UNL     1      -8.191   8.374  74.303  1.00  0.00    -0.255 Cl 
HETATM   16  C   UNL     1      -9.276   6.223  72.998  1.00  0.00    -0.132 A  
HETATM   17  N   UNL     1      -8.829   5.345  73.988  1.00  0.00    -0.120 NA 
HETATM   18  N   UNL     1      -9.969   5.653  71.988  1.00  0.00    -0.174 NA 
HETATM   19  C   UNL     1     -10.453   6.480  71.031  1.00  0.00    -0.222 A  
HETATM   20  H2  UNL     1      -9.224   5.662  74.873  1.00  0.00     0.000 HD 
HETATM   21  H1  UNL     1      -8.957   4.334  73.946  1.00  0.00     0.000 HD 
HETATM   22  N   UNL     1     -11.253   5.868  70.069  1.00  0.00    -0.346 NA 
HETATM   23  H1  UNL     1     -11.400   4.861  70.012  1.00  0.00     0.000 HD 
HETATM   24  H2  UNL     1     -10.915   6.175  69.157  1.00  0.00     0.000 HD 
ENDBRANCH   9  12
TORSDOF 1
ENDMDL
MODEL      166
REMARK 921   NORMALIZED FREE ENERGY PREDICTED BY IDOCK:   -3.97 KCAL/MOL
REMARK 922        TOTAL FREE ENERGY PREDICTED BY IDOCK:   -4.58 KCAL/MOL
REMARK 923 INTER-LIGAND FREE ENERGY PREDICTED BY IDOCK:   -4.28 KCAL/MOL
REMARK 924 INTRA-LIGAND FREE ENERGY PREDICTED BY IDOCK:   -0.30 KCAL/MOL
REMARK 927      BINDING AFFINITY PREDICTED BY RF-SCORE:    0.00 PKD
ROOT
HETATM    1  N   UNL     1     -12.485  13.514  70.462  1.00  0.00    -0.325 NA 
HETATM    2  H2  UNL     1     -13.275  13.008  70.862  1.00  0.00     0.000 HD 
HETATM    3  C   UNL     1     -12.521  14.861  70.458  1.00  0.00    -0.363 C  
HETATM    4  H1  UNL     1     -11.705  12.975  70.083  1.00  0.00     0.000 HD 
HETATM    5  N   UNL     1     -13.501  15.539  70.934  1.00  0.00    -0.782 NA 
HETATM    6  N   UNL     1     -11.492  15.585  69.936  1.00  0.00    -0.298 N  
HETATM    7  H   UNL     1     -11.605  16.599  69.930  1.00  0.00     0.000 HD 
HETATM    8  H2  UNL     1     -14.292  15.033  71.335  1.00  0.00     0.000 HD 
HETATM    9  C   UNL     1     -10.311  15.091  69.412  1.00  0.00    -0.235 C  
HETATM   10  H1  UNL     1     -13.528  16.558  70.932  1.00  0.00     0.000 HD 
HETATM   11  O   UNL     1     -10.094  13.898  69.193  1.00  0.00    -0.084 OA 
ENDROOT
BRANCH   9  12
HETATM   12  C   UNL     1      -9.299  16.125  69.059  1.00  0.00    -0.248 A  
HETATM   13  N   UNL     1      -8.015  15.858  69.432  1.00  0.00    -0.226 NA 
HETATM   14  C   UNL     1      -7.151  16.864  69.167  1.00  0.00    -0.224 A  
HETATM   15 CL   UNL     1      -5.544  16.559  69.697  1.00  0.00    -0.154 Cl 
HETATM   16  C   UNL     1      -7.522  18.079  68.562  1.00  0.00    -0.279 A  
HETATM   17  N   UNL     1      -6.616  19.092  68.243  1.00  0.00    -0.239 NA 
HETATM   18  N   UNL     1      -8.799  18.304  68.185  1.00  0.00    -0.287 NA 
HETATM   19  C   UNL     1      -9.698  17.324  68.442  1.00  0.00    -0.293 A  
HETATM   20  H2  UNL     1      -5.890  18.675  67.661  1.00  0.00     0.000 HD 
HETATM   21  H1  UNL     1      -6.884  19.973  67.804  1.00  0.00     0.000 HD 
HETATM   22  N   UNL     1     -10.978  17.547  67.940  1.00  0.00    -0.243 NA 
HETATM   23  H1  UNL     1     -11.267  18.416  67.492  1.00  0.00     0.000 HD 
HETATM   24  H2  UNL     1     -11.635  17.366  68.698  1.00  0.00     0.000 HD 
ENDBRANCH   9  12
TORSDOF 1
ENDMDL
MODEL      167
REMARK 921   NORMALIZED FREE ENERGY PREDICTED BY IDOCK:   -3.97 KCAL/MOL
REMARK 922        TOTAL FREE ENERGY PREDICTED BY IDOCK:   -4.57 KCAL/MOL
REMARK 923 INTER-LIGAND FREE ENERGY PREDICTED BY IDOCK:   -4.18 KCAL/MOL
REMARK 924 INTRA-LIGAND FREE ENERGY PREDICTED BY IDOCK:   -0.39 KCAL/MOL
REMARK 927      BINDING AFFINITY PREDICTED BY RF-SCORE:    0.00 PKD
ROOT
HETATM    1  N   UNL     1     -12.486  14.676  66.573  1.00  0.00    -0.329 NA 
HETATM    2  H2  UNL     1     -12.881  15.533  66.960  1.00  0.00     0.000 HD 
HETATM    3  C   UNL     1     -11.431  14.116  67.199  1.00  0.00    -0.353 C  
HETATM    4  H1  UNL     1     -12.910  14.283  65.732  1.00  0.00     0.000 HD 
HETATM    5  N   UNL     1     -10.899  14.608  68.256  1.00  0.00    -0.239 NA 
HETATM    6  N   UNL     1     -10.867  12.970  66.724  1.00  0.00    -0.266 N  
HETATM    7  H   UNL     1     -10.047  12.625  67.224  1.00  0.00     0.000 HD 
HETATM    8  H2  UNL     1     -11.293  15.467  68.643  1.00  0.00     0.000 HD 
HETATM    9  C   UNL     1     -11.288  12.226  65.636  1.00  0.00    -0.350 C  
HETATM   10  H1  UNL     1     -10.101  14.185  68.730  1.00  0.00     0.000 HD 
HETATM   11  O   UNL     1     -12.148  12.593  64.834  1.00  0.00    -0.389 OA 
ENDROOT
BRANCH   9  12
HETATM   12  C   UNL     1     -10.575  10.932  65.446  1.00  0.00    -0.173 A  
HETATM   13  N   UNL     1     -10.518  10.114  66.534  1.00  0.00    -0.199 NA 
HETATM   14  C   UNL     1      -9.786   8.994  66.337  1.00  0.00    -0.286 A  
HETATM   15 CL   UNL     1      -9.656   7.993  67.728  1.00  0.00    -0.169 Cl 
HETATM   16  C   UNL     1      -9.138   8.683  65.127  1.00  0.00     0.017 A  
HETATM   17  N   UNL     1      -8.429   7.500  64.911  1.00  0.00    -0.348 NA 
HETATM   18  N   UNL     1      -9.233   9.505  64.059  1.00  0.00    -0.158 NA 
HETATM   19  C   UNL     1      -9.949  10.644  64.220  1.00  0.00    -0.349 A  
HETATM   20  H2  UNL     1      -9.060   6.727  65.122  1.00  0.00     0.000 HD 
HETATM   21  H1  UNL     1      -7.960   7.274  64.034  1.00  0.00     0.000 HD 
HETATM   22  N   UNL     1     -10.114  11.408  63.068  1.00  0.00    -0.595 NA 
HETATM   23  H1  UNL     1      -9.660  11.198  62.180  1.00  0.00     0.000 HD 
HETATM   24  H2  UNL     1      -9.875  12.370  63.308  1.00  0.00     0.000 HD 
ENDBRANCH   9  12
TORSDOF 1
ENDMDL
MODEL      168
REMARK 921   NORMALIZED FREE ENERGY PREDICTED BY IDOCK:   -3.96 KCAL/MOL
REMARK 922        TOTAL FREE ENERGY PREDICTED BY IDOCK:   -4.57 KCAL/MOL
REMARK 923 INTER-LIGAND FREE ENERGY PREDICTED BY IDOCK:   -4.20 KCAL/MOL
REMARK 924 INTRA-LIGAND FREE ENERGY PREDICTED BY IDOCK:   -0.37 KCAL/MOL
REMARK 927      BINDING AFFINITY PREDICTED BY RF-SCORE:    0.00 PKD
ROOT
HETATM    1  N   UNL     1     -13.223  12.678  71.474  1.00  0.00    -0.302 NA 
HETATM    2  H2  UNL     1     -13.667  13.596  71.471  1.00  0.00     0.000 HD 
HETATM    3  C   UNL     1     -12.187  12.464  70.639  1.00  0.00    -0.278 C  
HETATM    4  H1  UNL     1     -13.587  11.966  72.108  1.00  0.00     0.000 HD 
HETATM    5  N   UNL     1     -11.730  13.359  69.842  1.00  0.00    -0.442 NA 
HETATM    6  N   UNL     1     -11.559  11.255  70.603  1.00  0.00    -0.425 N  
HETATM    7  H   UNL     1     -10.809  11.152  69.919  1.00  0.00     0.000 HD 
HETATM    8  H2  UNL     1     -12.174  14.278  69.840  1.00  0.00     0.000 HD 
HETATM    9  C   UNL     1     -11.831  10.154  71.395  1.00  0.00    -0.328 C  
HETATM   10  H1  UNL     1     -10.945  13.197  69.211  1.00  0.00     0.000 HD 
HETATM   11  O   UNL     1     -12.806  10.060  72.143  1.00  0.00    -0.389 OA 
ENDROOT
BRANCH   9  12
HETATM   12  C   UNL     1     -10.877   9.020  71.244  1.00  0.00    -0.315 A  
HETATM   13  N   UNL     1     -10.360   8.515  72.399  1.00  0.00    -0.324 NA 
HETATM   14  C   UNL     1      -9.434   7.548  72.204  1.00  0.00    -0.147 A  
HETATM   15 CL   UNL     1      -8.729   6.957  73.656  1.00  0.00    -0.151 Cl 
HETATM   16  C   UNL     1      -9.032   7.090  70.936  1.00  0.00    -0.152 A  
HETATM   17  N   UNL     1      -8.117   6.054  70.743  1.00  0.00    -0.117 NA 
HETATM   18  N   UNL     1      -9.582   7.596  69.811  1.00  0.00    -0.164 NA 
HETATM   19  C   UNL     1     -10.505   8.575  69.963  1.00  0.00    -0.223 A  
HETATM   20  H2  UNL     1      -8.462   5.245  71.260  1.00  0.00     0.000 HD 
HETATM   21  H1  UNL     1      -7.825   5.721  69.823  1.00  0.00     0.000 HD 
HETATM   22  N   UNL     1     -11.126   8.991  68.788  1.00  0.00    -0.442 NA 
HETATM   23  H1  UNL     1     -10.856   8.668  67.860  1.00  0.00     0.000 HD 
HETATM   24  H2  UNL     1     -11.091  10.010  68.774  1.00  0.00     0.000 HD 
ENDBRANCH   9  12
TORSDOF 1
ENDMDL
MODEL      169
REMARK 921   NORMALIZED FREE ENERGY PREDICTED BY IDOCK:   -3.95 KCAL/MOL
REMARK 922        TOTAL FREE ENERGY PREDICTED BY IDOCK:   -4.55 KCAL/MOL
REMARK 923 INTER-LIGAND FREE ENERGY PREDICTED BY IDOCK:   -4.15 KCAL/MOL
REMARK 924 INTRA-LIGAND FREE ENERGY PREDICTED BY IDOCK:   -0.40 KCAL/MOL
REMARK 927      BINDING AFFINITY PREDICTED BY RF-SCORE:    0.00 PKD
ROOT
HETATM    1  N   UNL     1      -9.706   7.772  73.509  1.00  0.00    -0.293 NA 
HETATM    2  H2  UNL     1      -9.334   7.199  74.266  1.00  0.00     0.000 HD 
HETATM    3  C   UNL     1      -8.858   8.196  72.550  1.00  0.00    -0.208 C  
HETATM    4  H1  UNL     1     -10.701   7.997  73.515  1.00  0.00     0.000 HD 
HETATM    5  N   UNL     1      -7.608   7.913  72.542  1.00  0.00    -0.098 NA 
HETATM    6  N   UNL     1      -9.303   8.965  71.517  1.00  0.00    -0.266 N  
HETATM    7  H   UNL     1      -8.600   9.283  70.850  1.00  0.00     0.000 HD 
HETATM    8  H2  UNL     1      -7.236   7.339  73.300  1.00  0.00     0.000 HD 
HETATM    9  C   UNL     1     -10.608   9.359  71.276  1.00  0.00    -0.330 C  
HETATM   10  H1  UNL     1      -6.967   8.233  71.816  1.00  0.00     0.000 HD 
HETATM   11  O   UNL     1     -11.538   9.204  72.070  1.00  0.00    -0.361 OA 
ENDROOT
BRANCH   9  12
HETATM   12  C   UNL     1     -10.823  10.064  69.982  1.00  0.00    -0.302 A  
HETATM   13  N   UNL     1     -11.263  11.351  70.068  1.00  0.00    -0.160 NA 
HETATM   14  C   UNL     1     -11.527  11.917  68.868  1.00  0.00    -0.301 A  
HETATM   15 CL   UNL     1     -12.146  13.517  68.974  1.00  0.00    -0.366 Cl 
HETATM   16  C   UNL     1     -11.366  11.256  67.636  1.00  0.00    -0.282 A  
HETATM   17  N   UNL     1     -11.589  11.863  66.398  1.00  0.00    -0.501 NA 
HETATM   18  N   UNL     1     -10.908   9.987  67.585  1.00  0.00    -0.287 NA 
HETATM   19  C   UNL     1     -10.641   9.381  68.767  1.00  0.00    -0.208 A  
HETATM   20  H2  UNL     1     -11.013  12.704  66.366  1.00  0.00     0.000 HD 
HETATM   21  H1  UNL     1     -11.473  11.385  65.505  1.00  0.00     0.000 HD 
HETATM   22  N   UNL     1     -10.067   8.116  68.667  1.00  0.00    -0.191 NA 
HETATM   23  H1  UNL     1      -9.935   7.622  67.786  1.00  0.00     0.000 HD 
HETATM   24  H2  UNL     1     -10.594   7.497  69.284  1.00  0.00     0.000 HD 
ENDBRANCH   9  12
TORSDOF 1
ENDMDL
MODEL      170
REMARK 921   NORMALIZED FREE ENERGY PREDICTED BY IDOCK:   -3.91 KCAL/MOL
REMARK 922        TOTAL FREE ENERGY PREDICTED BY IDOCK:   -4.51 KCAL/MOL
REMARK 923 INTER-LIGAND FREE ENERGY PREDICTED BY IDOCK:   -4.11 KCAL/MOL
REMARK 924 INTRA-LIGAND FREE ENERGY PREDICTED BY IDOCK:   -0.40 KCAL/MOL
REMARK 927      BINDING AFFINITY PREDICTED BY RF-SCORE:    0.00 PKD
ROOT
HETATM    1  N   UNL     1     -10.702  11.641  69.700  1.00  0.00    -0.447 NA 
HETATM    2  H2  UNL     1     -10.913  12.617  69.494  1.00  0.00     0.000 HD 
HETATM    3  C   UNL     1     -11.253  10.687  68.924  1.00  0.00    -0.275 C  
HETATM    4  H1  UNL     1     -10.083  11.434  70.485  1.00  0.00     0.000 HD 
HETATM    5  N   UNL     1     -12.031  10.947  67.938  1.00  0.00    -0.735 NA 
HETATM    6  N   UNL     1     -11.004   9.368  69.157  1.00  0.00    -0.403 N  
HETATM    7  H   UNL     1     -11.487   8.700  68.555  1.00  0.00     0.000 HD 
HETATM    8  H2  UNL     1     -12.242  11.924  67.731  1.00  0.00     0.000 HD 
HETATM    9  C   UNL     1     -10.166   8.839  70.122  1.00  0.00    -0.190 C  
HETATM   10  H1  UNL     1     -12.448  10.225  67.350  1.00  0.00     0.000 HD 
HETATM   11  O   UNL     1      -9.647   9.495  71.027  1.00  0.00    -0.238 OA 
ENDROOT
BRANCH   9  12
HETATM   12  C   UNL     1      -9.964   7.365  70.040  1.00  0.00    -0.185 A  
HETATM   13  N   UNL     1      -8.687   6.948  69.815  1.00  0.00    -0.141 NA 
HETATM   14  C   UNL     1      -8.570   5.609  69.662  1.00  0.00    -0.110 A  
HETATM   15 CL   UNL     1      -6.972   5.085  69.311  1.00  0.00    -0.053 Cl 
HETATM   16  C   UNL     1      -9.654   4.714  69.729  1.00  0.00    -0.188 A  
HETATM   17  N   UNL     1      -9.520   3.328  69.623  1.00  0.00    -0.163 NA 
HETATM   18  N   UNL     1     -10.906   5.158  69.975  1.00  0.00    -0.034 NA 
HETATM   19  C   UNL     1     -11.066   6.495  70.124  1.00  0.00    -0.351 A  
HETATM   20  H2  UNL     1      -8.845   3.036  70.329  1.00  0.00     0.000 HD 
HETATM   21  H1  UNL     1     -10.306   2.679  69.672  1.00  0.00     0.000 HD 
HETATM   22  N   UNL     1     -12.348   6.902  70.485  1.00  0.00    -0.601 NA 
HETATM   23  H1  UNL     1     -13.146   6.271  70.546  1.00  0.00     0.000 HD 
HETATM   24  H2  UNL     1     -12.611   7.660  69.857  1.00  0.00     0.000 HD 
ENDBRANCH   9  12
TORSDOF 1
ENDMDL
MODEL      171
REMARK 921   NORMALIZED FREE ENERGY PREDICTED BY IDOCK:   -3.87 KCAL/MOL
REMARK 922        TOTAL FREE ENERGY PREDICTED BY IDOCK:   -4.47 KCAL/MOL
REMARK 923 INTER-LIGAND FREE ENERGY PREDICTED BY IDOCK:   -4.11 KCAL/MOL
REMARK 924 INTRA-LIGAND FREE ENERGY PREDICTED BY IDOCK:   -0.37 KCAL/MOL
REMARK 927      BINDING AFFINITY PREDICTED BY RF-SCORE:    0.00 PKD
ROOT
HETATM    1  N   UNL     1      -7.179   6.021  73.713  1.00  0.00    -0.084 NA 
HETATM    2  H2  UNL     1      -6.578   5.284  74.082  1.00  0.00     0.000 HD 
HETATM    3  C   UNL     1      -8.095   5.694  72.779  1.00  0.00    -0.105 C  
HETATM    4  H1  UNL     1      -7.058   6.969  74.070  1.00  0.00     0.000 HD 
HETATM    5  N   UNL     1      -8.246   4.503  72.331  1.00  0.00    -0.107 NA 
HETATM    6  N   UNL     1      -8.922   6.640  72.254  1.00  0.00    -0.134 N  
HETATM    7  H   UNL     1      -9.562   6.330  71.522  1.00  0.00     0.000 HD 
HETATM    8  H2  UNL     1      -7.645   3.765  72.700  1.00  0.00     0.000 HD 
HETATM    9  C   UNL     1      -8.987   7.976  72.607  1.00  0.00    -0.218 C  
HETATM   10  H1  UNL     1      -8.939   4.255  71.624  1.00  0.00     0.000 HD 
HETATM   11  O   UNL     1      -8.175   8.540  73.344  1.00  0.00    -0.379 OA 
ENDROOT
BRANCH   9  12
HETATM   12  C   UNL     1     -10.099   8.740  71.977  1.00  0.00    -0.327 A  
HETATM   13  N   UNL     1     -11.345   8.504  72.476  1.00  0.00    -0.346 NA 
HETATM   14  C   UNL     1     -12.329   9.154  71.813  1.00  0.00    -0.372 A  
HETATM   15 CL   UNL     1     -13.908   8.806  72.396  1.00  0.00    -0.472 Cl 
HETATM   16  C   UNL     1     -12.107  10.002  70.712  1.00  0.00    -0.327 A  
HETATM   17  N   UNL     1     -13.121  10.712  70.066  1.00  0.00    -0.361 NA 
HETATM   18  N   UNL     1     -10.857  10.232  70.256  1.00  0.00    -0.298 NA 
HETATM   19  C   UNL     1      -9.844   9.591  70.887  1.00  0.00    -0.209 A  
HETATM   20  H2  UNL     1     -13.604  11.262  70.776  1.00  0.00     0.000 HD 
HETATM   21  H1  UNL     1     -12.960  11.327  69.268  1.00  0.00     0.000 HD 
HETATM   22  N   UNL     1      -8.565   9.939  70.459  1.00  0.00    -0.367 NA 
HETATM   23  H1  UNL     1      -8.380  10.555  69.669  1.00  0.00     0.000 HD 
HETATM   24  H2  UNL     1      -8.058   9.071  70.288  1.00  0.00     0.000 HD 
ENDBRANCH   9  12
TORSDOF 1
ENDMDL
MODEL      172
REMARK 921   NORMALIZED FREE ENERGY PREDICTED BY IDOCK:   -3.87 KCAL/MOL
REMARK 922        TOTAL FREE ENERGY PREDICTED BY IDOCK:   -4.47 KCAL/MOL
REMARK 923 INTER-LIGAND FREE ENERGY PREDICTED BY IDOCK:   -4.08 KCAL/MOL
REMARK 924 INTRA-LIGAND FREE ENERGY PREDICTED BY IDOCK:   -0.39 KCAL/MOL
REMARK 927      BINDING AFFINITY PREDICTED BY RF-SCORE:    0.00 PKD
ROOT
HETATM    1  N   UNL     1     -12.170  10.819  68.865  1.00  0.00    -0.795 NA 
HETATM    2  H2  UNL     1     -12.427  11.478  68.129  1.00  0.00     0.000 HD 
HETATM    3  C   UNL     1     -11.260   9.865  68.583  1.00  0.00    -0.068 C  
HETATM    4  H1  UNL     1     -12.616  10.914  69.778  1.00  0.00     0.000 HD 
HETATM    5  N   UNL     1     -10.700   9.745  67.436  1.00  0.00    -0.269 NA 
HETATM    6  N   UNL     1     -10.883   8.961  69.529  1.00  0.00    -0.362 N  
HETATM    7  H   UNL     1     -10.220   8.243  69.235  1.00  0.00     0.000 HD 
HETATM    8  H2  UNL     1     -10.957  10.405  66.700  1.00  0.00     0.000 HD 
HETATM    9  C   UNL     1     -11.302   8.913  70.847  1.00  0.00    -0.283 C  
HETATM   10  H1  UNL     1     -10.011   9.024  67.223  1.00  0.00     0.000 HD 
HETATM   11  O   UNL     1     -12.219   9.595  71.309  1.00  0.00    -0.316 OA 
ENDROOT
BRANCH   9  12
HETATM   12  C   UNL     1     -10.600   7.909  71.695  1.00  0.00    -0.221 A  
HETATM   13  N   UNL     1     -11.324   6.809  72.042  1.00  0.00    -0.261 NA 
HETATM   14  C   UNL     1     -10.674   5.972  72.883  1.00  0.00    -0.247 A  
HETATM   15 CL   UNL     1     -11.608   4.617  73.378  1.00  0.00    -0.353 Cl 
HETATM   16  C   UNL     1      -9.370   6.198  73.362  1.00  0.00    -0.134 A  
HETATM   17  N   UNL     1      -8.683   5.304  74.186  1.00  0.00    -0.117 NA 
HETATM   18  N   UNL     1      -8.671   7.288  72.980  1.00  0.00    -0.124 NA 
HETATM   19  C   UNL     1      -9.292   8.157  72.146  1.00  0.00    -0.206 A  
HETATM   20  H2  UNL     1      -8.678   4.401  73.713  1.00  0.00     0.000 HD 
HETATM   21  H1  UNL     1      -7.738   5.467  74.533  1.00  0.00     0.000 HD 
HETATM   22  N   UNL     1      -8.501   9.208  71.689  1.00  0.00    -0.322 NA 
HETATM   23  H1  UNL     1      -7.553   9.387  72.017  1.00  0.00     0.000 HD 
HETATM   24  H2  UNL     1      -9.034  10.067  71.826  1.00  0.00     0.000 HD 
ENDBRANCH   9  12
TORSDOF 1
ENDMDL
MODEL      173
REMARK 921   NORMALIZED FREE ENERGY PREDICTED BY IDOCK:   -3.84 KCAL/MOL
REMARK 922        TOTAL FREE ENERGY PREDICTED BY IDOCK:   -4.43 KCAL/MOL
REMARK 923 INTER-LIGAND FREE ENERGY PREDICTED BY IDOCK:   -4.04 KCAL/MOL
REMARK 924 INTRA-LIGAND FREE ENERGY PREDICTED BY IDOCK:   -0.39 KCAL/MOL
REMARK 927      BINDING AFFINITY PREDICTED BY RF-SCORE:    0.00 PKD
ROOT
HETATM    1  N   UNL     1     -12.147  11.920  67.948  1.00  0.00    -0.522 NA 
HETATM    2  H2  UNL     1     -12.720  11.078  68.007  1.00  0.00     0.000 HD 
HETATM    3  C   UNL     1     -11.143  12.076  68.834  1.00  0.00    -0.247 C  
HETATM    4  H1  UNL     1     -12.363  12.603  67.221  1.00  0.00     0.000 HD 
HETATM    5  N   UNL     1     -10.873  11.218  69.747  1.00  0.00    -0.465 NA 
HETATM    6  N   UNL     1     -10.349  13.183  68.799  1.00  0.00    -0.393 N  
HETATM    7  H   UNL     1      -9.635  13.254  69.524  1.00  0.00     0.000 HD 
HETATM    8  H2  UNL     1     -11.445  10.375  69.806  1.00  0.00     0.000 HD 
HETATM    9  C   UNL     1     -10.408  14.219  67.884  1.00  0.00    -0.233 C  
HETATM   10  H1  UNL     1     -10.112  11.336  70.417  1.00  0.00     0.000 HD 
HETATM   11  O   UNL     1     -11.311  14.366  67.059  1.00  0.00    -0.319 OA 
ENDROOT
BRANCH   9  12
HETATM   12  C   UNL     1      -9.310  15.219  67.995  1.00  0.00    -0.197 A  
HETATM   13  N   UNL     1      -8.046  14.741  67.821  1.00  0.00    -0.140 NA 
HETATM   14  C   UNL     1      -7.081  15.668  68.018  1.00  0.00    -0.122 A  
HETATM   15 CL   UNL     1      -5.483  15.053  67.866  1.00  0.00    -0.137 Cl 
HETATM   16  C   UNL     1      -7.338  17.007  68.368  1.00  0.00    -0.213 A  
HETATM   17  N   UNL     1      -6.340  17.972  68.518  1.00  0.00    -0.192 NA 
HETATM   18  N   UNL     1      -8.604  17.454  68.512  1.00  0.00    -0.266 NA 
HETATM   19  C   UNL     1      -9.599  16.553  68.333  1.00  0.00    -0.233 A  
HETATM   20  H2  UNL     1      -5.801  17.985  67.652  1.00  0.00     0.000 HD 
HETATM   21  H1  UNL     1      -6.527  18.943  68.771  1.00  0.00     0.000 HD 
HETATM   22  N   UNL     1     -10.889  17.077  68.380  1.00  0.00    -0.361 NA 
HETATM   23  H1  UNL     1     -11.098  18.044  68.625  1.00  0.00     0.000 HD 
HETATM   24  H2  UNL     1     -11.432  16.484  69.007  1.00  0.00     0.000 HD 
ENDBRANCH   9  12
TORSDOF 1
ENDMDL
MODEL      174
REMARK 921   NORMALIZED FREE ENERGY PREDICTED BY IDOCK:   -3.83 KCAL/MOL
REMARK 922        TOTAL FREE ENERGY PREDICTED BY IDOCK:   -4.43 KCAL/MOL
REMARK 923 INTER-LIGAND FREE ENERGY PREDICTED BY IDOCK:   -4.04 KCAL/MOL
REMARK 924 INTRA-LIGAND FREE ENERGY PREDICTED BY IDOCK:   -0.39 KCAL/MOL
REMARK 927      BINDING AFFINITY PREDICTED BY RF-SCORE:    0.00 PKD
ROOT
HETATM    1  N   UNL     1      -5.362  13.225  68.647  1.00  0.00    -0.070 NA 
HETATM    2  H2  UNL     1      -4.739  12.445  68.858  1.00  0.00     0.000 HD 
HETATM    3  C   UNL     1      -6.170  13.684  69.624  1.00  0.00    -0.122 C  
HETATM    4  H1  UNL     1      -5.343  13.619  67.706  1.00  0.00     0.000 HD 
HETATM    5  N   UNL     1      -6.194  13.189  70.806  1.00  0.00    -0.505 NA 
HETATM    6  N   UNL     1      -7.020  14.723  69.394  1.00  0.00    -0.156 N  
HETATM    7  H   UNL     1      -7.631  14.992  70.166  1.00  0.00     0.000 HD 
HETATM    8  H2  UNL     1      -5.570  12.409  71.018  1.00  0.00     0.000 HD 
HETATM    9  C   UNL     1      -7.144  15.452  68.224  1.00  0.00    -0.114 C  
HETATM   10  H1  UNL     1      -6.805  13.537  71.545  1.00  0.00     0.000 HD 
HETATM   11  O   UNL     1      -6.607  15.150  67.157  1.00  0.00    -0.285 OA 
ENDROOT
BRANCH   9  12
HETATM   12  C   UNL     1      -8.044  16.636  68.313  1.00  0.00    -0.198 A  
HETATM   13  N   UNL     1      -7.491  17.835  67.978  1.00  0.00    -0.220 NA 
HETATM   14  C   UNL     1      -8.321  18.887  68.159  1.00  0.00    -0.309 A  
HETATM   15 CL   UNL     1      -7.605  20.408  67.802  1.00  0.00    -0.316 Cl 
HETATM   16  C   UNL     1      -9.637  18.775  68.645  1.00  0.00    -0.387 A  
HETATM   17  N   UNL     1     -10.507  19.858  68.778  1.00  0.00    -0.535 NA 
HETATM   18  N   UNL     1     -10.163  17.568  68.947  1.00  0.00    -0.358 NA 
HETATM   19  C   UNL     1      -9.359  16.489  68.789  1.00  0.00    -0.247 A  
HETATM   20  H2  UNL     1     -10.560  20.317  67.869  1.00  0.00     0.000 HD 
HETATM   21  H1  UNL     1     -11.462  19.777  69.130  1.00  0.00     0.000 HD 
HETATM   22  N   UNL     1      -9.972  15.257  69.005  1.00  0.00    -0.218 NA 
HETATM   23  H1  UNL     1     -10.925  15.151  69.350  1.00  0.00     0.000 HD 
HETATM   24  H2  UNL     1      -9.366  14.725  69.629  1.00  0.00     0.000 HD 
ENDBRANCH   9  12
TORSDOF 1
ENDMDL
MODEL      175
REMARK 921   NORMALIZED FREE ENERGY PREDICTED BY IDOCK:   -3.82 KCAL/MOL
REMARK 922        TOTAL FREE ENERGY PREDICTED BY IDOCK:   -4.42 KCAL/MOL
REMARK 923 INTER-LIGAND FREE ENERGY PREDICTED BY IDOCK:   -4.04 KCAL/MOL
REMARK 924 INTRA-LIGAND FREE ENERGY PREDICTED BY IDOCK:   -0.37 KCAL/MOL
REMARK 927      BINDING AFFINITY PREDICTED BY RF-SCORE:    0.00 PKD
ROOT
HETATM    1  N   UNL     1      -6.484   6.104  73.642  1.00  0.00    -0.069 NA 
HETATM    2  H2  UNL     1      -5.757   5.465  73.964  1.00  0.00     0.000 HD 
HETATM    3  C   UNL     1      -7.350   5.670  72.704  1.00  0.00    -0.095 C  
HETATM    4  H1  UNL     1      -6.520   7.040  74.046  1.00  0.00     0.000 HD 
HETATM    5  N   UNL     1      -7.305   4.494  72.196  1.00  0.00    -0.069 NA 
HETATM    6  N   UNL     1      -8.339   6.484  72.239  1.00  0.00    -0.106 N  
HETATM    7  H   UNL     1      -8.933   6.104  71.501  1.00  0.00     0.000 HD 
HETATM    8  H2  UNL     1      -6.578   3.854  72.518  1.00  0.00     0.000 HD 
HETATM    9  C   UNL     1      -8.624   7.770  72.663  1.00  0.00    -0.140 C  
HETATM   10  H1  UNL     1      -7.961   4.166  71.487  1.00  0.00     0.000 HD 
HETATM   11  O   UNL     1      -7.906   8.428  73.417  1.00  0.00    -0.292 OA 
ENDROOT
BRANCH   9  12
HETATM   12  C   UNL     1      -9.865   8.361  72.088  1.00  0.00    -0.302 A  
HETATM   13  N   UNL     1      -9.687   9.268  71.086  1.00  0.00    -0.282 NA 
HETATM   14  C   UNL     1     -10.836   9.839  70.659  1.00  0.00    -0.329 A  
HETATM   15 CL   UNL     1     -10.609  11.033  69.443  1.00  0.00    -0.239 Cl 
HETATM   16  C   UNL     1     -12.106   9.537  71.184  1.00  0.00    -0.347 A  
HETATM   17  N   UNL     1     -13.294  10.091  70.702  1.00  0.00    -0.585 NA 
HETATM   18  N   UNL     1     -12.250   8.617  72.162  1.00  0.00    -0.367 NA 
HETATM   19  C   UNL     1     -11.121   8.029  72.625  1.00  0.00    -0.387 A  
HETATM   20  H2  UNL     1     -13.330   9.903  69.700  1.00  0.00     0.000 HD 
HETATM   21  H1  UNL     1     -14.215   9.871  71.082  1.00  0.00     0.000 HD 
HETATM   22  N   UNL     1     -11.322   7.009  73.552  1.00  0.00    -0.436 NA 
HETATM   23  H1  UNL     1     -12.233   6.768  73.941  1.00  0.00     0.000 HD 
HETATM   24  H2  UNL     1     -10.697   7.189  74.338  1.00  0.00     0.000 HD 
ENDBRANCH   9  12
TORSDOF 1
ENDMDL
MODEL      176
REMARK 921   NORMALIZED FREE ENERGY PREDICTED BY IDOCK:   -3.79 KCAL/MOL
REMARK 922        TOTAL FREE ENERGY PREDICTED BY IDOCK:   -4.38 KCAL/MOL
REMARK 923 INTER-LIGAND FREE ENERGY PREDICTED BY IDOCK:   -4.00 KCAL/MOL
REMARK 924 INTRA-LIGAND FREE ENERGY PREDICTED BY IDOCK:   -0.38 KCAL/MOL
REMARK 927      BINDING AFFINITY PREDICTED BY RF-SCORE:    0.00 PKD
ROOT
HETATM    1  N   UNL     1      -6.683   7.474  63.122  1.00  0.00    -0.058 NA 
HETATM    2  H2  UNL     1      -6.167   6.670  62.763  1.00  0.00     0.000 HD 
HETATM    3  C   UNL     1      -8.025   7.483  62.997  1.00  0.00    -0.111 C  
HETATM    4  H1  UNL     1      -6.157   8.232  63.558  1.00  0.00     0.000 HD 
HETATM    5  N   UNL     1      -8.686   6.530  62.449  1.00  0.00    -0.340 NA 
HETATM    6  N   UNL     1      -8.761   8.532  63.460  1.00  0.00    -0.417 N  
HETATM    7  H   UNL     1      -9.767   8.490  63.295  1.00  0.00     0.000 HD 
HETATM    8  H2  UNL     1      -8.170   5.726  62.090  1.00  0.00     0.000 HD 
HETATM    9  C   UNL     1      -8.289   9.647  64.128  1.00  0.00    -0.170 C  
HETATM   10  H1  UNL     1      -9.702   6.537  62.356  1.00  0.00     0.000 HD 
HETATM   11  O   UNL     1      -7.095   9.928  64.254  1.00  0.00    -0.122 OA 
ENDROOT
BRANCH   9  12
HETATM   12  C   UNL     1      -9.343  10.557  64.656  1.00  0.00    -0.248 A  
HETATM   13  N   UNL     1     -10.390  10.808  63.821  1.00  0.00    -0.299 NA 
HETATM   14  C   UNL     1     -11.274  11.707  64.310  1.00  0.00    -0.319 A  
HETATM   15 CL   UNL     1     -12.560  12.078  63.231  1.00  0.00    -0.640 Cl 
HETATM   16  C   UNL     1     -11.145  12.333  65.564  1.00  0.00    -0.307 A  
HETATM   17  N   UNL     1     -12.088  13.219  66.087  1.00  0.00    -0.418 NA 
HETATM   18  N   UNL     1     -10.106  12.045  66.378  1.00  0.00    -0.214 NA 
HETATM   19  C   UNL     1      -9.192  11.157  65.919  1.00  0.00    -0.206 A  
HETATM   20  H2  UNL     1     -12.988  12.739  66.081  1.00  0.00     0.000 HD 
HETATM   21  H1  UNL     1     -11.995  13.673  66.996  1.00  0.00     0.000 HD 
HETATM   22  N   UNL     1      -8.199  10.804  66.830  1.00  0.00    -0.130 NA 
HETATM   23  H1  UNL     1      -8.090  11.239  67.745  1.00  0.00     0.000 HD 
HETATM   24  H2  UNL     1      -7.305  10.890  66.348  1.00  0.00     0.000 HD 
ENDBRANCH   9  12
TORSDOF 1
ENDMDL
MODEL      177
REMARK 921   NORMALIZED FREE ENERGY PREDICTED BY IDOCK:   -3.77 KCAL/MOL
REMARK 922        TOTAL FREE ENERGY PREDICTED BY IDOCK:   -4.36 KCAL/MOL
REMARK 923 INTER-LIGAND FREE ENERGY PREDICTED BY IDOCK:   -3.99 KCAL/MOL
REMARK 924 INTRA-LIGAND FREE ENERGY PREDICTED BY IDOCK:   -0.38 KCAL/MOL
REMARK 927      BINDING AFFINITY PREDICTED BY RF-SCORE:    0.00 PKD
ROOT
HETATM    1  N   UNL     1      -6.157   7.803  70.576  1.00  0.00    -0.033 NA 
HETATM    2  H2  UNL     1      -5.148   7.909  70.470  1.00  0.00     0.000 HD 
HETATM    3  C   UNL     1      -6.789   8.565  71.491  1.00  0.00    -0.079 C  
HETATM    4  H1  UNL     1      -6.637   7.124  69.985  1.00  0.00     0.000 HD 
HETATM    5  N   UNL     1      -6.185   9.417  72.234  1.00  0.00    -0.295 NA 
HETATM    6  N   UNL     1      -8.136   8.461  71.673  1.00  0.00    -0.133 N  
HETATM    7  H   UNL     1      -8.541   9.038  72.410  1.00  0.00     0.000 HD 
HETATM    8  H2  UNL     1      -5.176   9.525  72.127  1.00  0.00     0.000 HD 
HETATM    9  C   UNL     1      -9.010   7.656  70.965  1.00  0.00    -0.146 C  
HETATM   10  H1  UNL     1      -6.664   9.995  72.925  1.00  0.00     0.000 HD 
HETATM   11  O   UNL     1      -8.660   6.783  70.168  1.00  0.00    -0.138 OA 
ENDROOT
BRANCH   9  12
HETATM   12  C   UNL     1     -10.451   7.868  71.276  1.00  0.00    -0.203 A  
HETATM   13  N   UNL     1     -10.872   9.163  71.310  1.00  0.00    -0.303 NA 
HETATM   14  C   UNL     1     -12.164   9.307  71.682  1.00  0.00    -0.370 A  
HETATM   15 CL   UNL     1     -12.679  10.943  71.793  1.00  0.00    -0.487 Cl 
HETATM   16  C   UNL     1     -13.013   8.231  72.004  1.00  0.00    -0.330 A  
HETATM   17  N   UNL     1     -14.361   8.382  72.335  1.00  0.00    -0.698 NA 
HETATM   18  N   UNL     1     -12.571   6.957  71.939  1.00  0.00    -0.328 NA 
HETATM   19  C   UNL     1     -11.277   6.771  71.580  1.00  0.00    -0.255 A  
HETATM   20  H2  UNL     1     -14.803   8.896  71.574  1.00  0.00     0.000 HD 
HETATM   21  H1  UNL     1     -14.976   7.602  72.569  1.00  0.00     0.000 HD 
HETATM   22  N   UNL     1     -10.892   5.443  71.418  1.00  0.00    -0.189 NA 
HETATM   23  H1  UNL     1     -11.492   4.648  71.639  1.00  0.00     0.000 HD 
HETATM   24  H2  UNL     1     -10.022   5.316  71.935  1.00  0.00     0.000 HD 
ENDBRANCH   9  12
TORSDOF 1
ENDMDL
MODEL      178
REMARK 921   NORMALIZED FREE ENERGY PREDICTED BY IDOCK:   -3.77 KCAL/MOL
REMARK 922        TOTAL FREE ENERGY PREDICTED BY IDOCK:   -4.36 KCAL/MOL
REMARK 923 INTER-LIGAND FREE ENERGY PREDICTED BY IDOCK:   -3.98 KCAL/MOL
REMARK 924 INTRA-LIGAND FREE ENERGY PREDICTED BY IDOCK:   -0.38 KCAL/MOL
REMARK 927      BINDING AFFINITY PREDICTED BY RF-SCORE:    0.00 PKD
ROOT
HETATM    1  N   UNL     1      -6.701   9.068  68.723  1.00  0.00    -0.053 NA 
HETATM    2  H2  UNL     1      -6.094   8.307  69.029  1.00  0.00     0.000 HD 
HETATM    3  C   UNL     1      -7.675   8.793  67.832  1.00  0.00    -0.102 C  
HETATM    4  H1  UNL     1      -6.540  10.000  69.106  1.00  0.00     0.000 HD 
HETATM    5  N   UNL     1      -7.876   7.622  67.351  1.00  0.00    -0.116 NA 
HETATM    6  N   UNL     1      -8.512   9.773  67.391  1.00  0.00    -0.121 N  
HETATM    7  H   UNL     1      -9.200   9.502  66.687  1.00  0.00     0.000 HD 
HETATM    8  H2  UNL     1      -7.270   6.860  67.658  1.00  0.00     0.000 HD 
HETATM    9  C   UNL     1      -8.529  11.096  67.795  1.00  0.00    -0.124 C  
HETATM   10  H1  UNL     1      -8.614   7.414  66.678  1.00  0.00     0.000 HD 
HETATM   11  O   UNL     1      -7.665  11.617  68.503  1.00  0.00    -0.122 OA 
ENDROOT
BRANCH   9  12
HETATM   12  C   UNL     1      -9.660  11.903  67.259  1.00  0.00    -0.177 A  
HETATM   13  N   UNL     1      -9.321  13.058  66.621  1.00  0.00    -0.250 NA 
HETATM   14  C   UNL     1     -10.384  13.797  66.231  1.00  0.00    -0.294 A  
HETATM   15 CL   UNL     1      -9.961  15.288  65.487  1.00  0.00    -0.382 Cl 
HETATM   16  C   UNL     1     -11.723  13.424  66.451  1.00  0.00    -0.368 A  
HETATM   17  N   UNL     1     -12.817  14.164  65.998  1.00  0.00    -0.463 NA 
HETATM   18  N   UNL     1     -12.026  12.260  67.066  1.00  0.00    -0.590 NA 
HETATM   19  C   UNL     1     -10.988  11.496  67.482  1.00  0.00    -0.255 A  
HETATM   20  H2  UNL     1     -12.701  14.290  64.993  1.00  0.00     0.000 HD 
HETATM   21  H1  UNL     1     -13.788  13.893  66.156  1.00  0.00     0.000 HD 
HETATM   22  N   UNL     1     -11.339  10.257  68.012  1.00  0.00    -0.566 NA 
HETATM   23  H1  UNL     1     -12.301   9.963  68.174  1.00  0.00     0.000 HD 
HETATM   24  H2  UNL     1     -10.841  10.155  68.896  1.00  0.00     0.000 HD 
ENDBRANCH   9  12
TORSDOF 1
ENDMDL
MODEL      179
REMARK 921   NORMALIZED FREE ENERGY PREDICTED BY IDOCK:   -3.76 KCAL/MOL
REMARK 922        TOTAL FREE ENERGY PREDICTED BY IDOCK:   -4.35 KCAL/MOL
REMARK 923 INTER-LIGAND FREE ENERGY PREDICTED BY IDOCK:   -4.13 KCAL/MOL
REMARK 924 INTRA-LIGAND FREE ENERGY PREDICTED BY IDOCK:   -0.22 KCAL/MOL
REMARK 927      BINDING AFFINITY PREDICTED BY RF-SCORE:    0.00 PKD
ROOT
HETATM    1  N   UNL     1      -6.941   7.442  69.126  1.00  0.00    -0.074 NA 
HETATM    2  H2  UNL     1      -6.103   7.343  68.552  1.00  0.00     0.000 HD 
HETATM    3  C   UNL     1      -7.703   8.542  68.965  1.00  0.00    -0.096 C  
HETATM    4  H1  UNL     1      -7.160   6.704  69.795  1.00  0.00     0.000 HD 
HETATM    5  N   UNL     1      -7.428   9.471  68.124  1.00  0.00    -0.078 NA 
HETATM    6  N   UNL     1      -8.832   8.723  69.706  1.00  0.00    -0.138 N  
HETATM    7  H   UNL     1      -9.338   9.597  69.560  1.00  0.00     0.000 HD 
HETATM    8  H2  UNL     1      -6.590   9.372  67.549  1.00  0.00     0.000 HD 
HETATM    9  C   UNL     1      -9.364   7.848  70.636  1.00  0.00    -0.158 C  
HETATM   10  H1  UNL     1      -8.005  10.302  68.001  1.00  0.00     0.000 HD 
HETATM   11  O   UNL     1      -8.789   6.838  71.048  1.00  0.00    -0.140 OA 
ENDROOT
BRANCH   9  12
HETATM   12  C   UNL     1     -10.695   8.239  71.178  1.00  0.00    -0.226 A  
HETATM   13  N   UNL     1     -11.073   9.530  70.962  1.00  0.00    -0.333 NA 
HETATM   14  C   UNL     1     -12.246   9.859  71.548  1.00  0.00    -0.416 A  
HETATM   15 CL   UNL     1     -12.693  11.505  71.336  1.00  0.00    -0.498 Cl 
HETATM   16  C   UNL     1     -13.021   8.965  72.311  1.00  0.00    -0.419 A  
HETATM   17  N   UNL     1     -14.258   9.295  72.868  1.00  0.00    -1.017 NA 
HETATM   18  N   UNL     1     -12.629   7.685  72.487  1.00  0.00    -0.008 NA 
HETATM   19  C   UNL     1     -11.452   7.319  71.925  1.00  0.00    -0.267 A  
HETATM   20  H2  UNL     1     -14.850   9.635  72.110  1.00  0.00     0.000 HD 
HETATM   21  H1  UNL     1     -14.820   8.648  73.421  1.00  0.00     0.000 HD 
HETATM   22  N   UNL     1     -11.138   5.967  72.035  1.00  0.00    -0.265 NA 
HETATM   23  H1  UNL     1     -11.688   5.300  72.577  1.00  0.00     0.000 HD 
HETATM   24  H2  UNL     1     -10.177   5.907  72.372  1.00  0.00     0.000 HD 
ENDBRANCH   9  12
TORSDOF 1
ENDMDL
MODEL      180
REMARK 921   NORMALIZED FREE ENERGY PREDICTED BY IDOCK:   -3.75 KCAL/MOL
REMARK 922        TOTAL FREE ENERGY PREDICTED BY IDOCK:   -4.35 KCAL/MOL
REMARK 923 INTER-LIGAND FREE ENERGY PREDICTED BY IDOCK:   -4.03 KCAL/MOL
REMARK 924 INTRA-LIGAND FREE ENERGY PREDICTED BY IDOCK:   -0.31 KCAL/MOL
REMARK 927      BINDING AFFINITY PREDICTED BY RF-SCORE:    0.00 PKD
ROOT
HETATM    1  N   UNL     1      -9.883  14.004  64.968  1.00  0.00    -0.588 NA 
HETATM    2  H2  UNL     1      -9.963  14.817  64.358  1.00  0.00     0.000 HD 
HETATM    3  C   UNL     1     -10.229  12.797  64.477  1.00  0.00    -0.308 C  
HETATM    4  H1  UNL     1      -9.546  14.144  65.921  1.00  0.00     0.000 HD 
HETATM    5  N   UNL     1     -10.653  12.621  63.280  1.00  0.00    -0.551 NA 
HETATM    6  N   UNL     1     -10.141  11.679  65.251  1.00  0.00    -0.254 N  
HETATM    7  H   UNL     1     -10.457  10.806  64.828  1.00  0.00     0.000 HD 
HETATM    8  H2  UNL     1     -10.732  13.434  62.669  1.00  0.00     0.000 HD 
HETATM    9  C   UNL     1      -9.669  11.602  66.549  1.00  0.00    -0.206 C  
HETATM   10  H1  UNL     1     -10.913  11.707  62.908  1.00  0.00     0.000 HD 
HETATM   11  O   UNL     1      -9.412  12.579  67.254  1.00  0.00    -0.185 OA 
ENDROOT
BRANCH   9  12
HETATM   12  C   UNL     1      -9.540  10.220  67.090  1.00  0.00    -0.168 A  
HETATM   13  N   UNL     1      -8.393   9.557  66.772  1.00  0.00    -0.116 NA 
HETATM   14  C   UNL     1      -8.363   8.279  67.212  1.00  0.00    -0.124 A  
HETATM   15 CL   UNL     1      -6.947   7.418  66.755  1.00  0.00    -0.075 Cl 
HETATM   16  C   UNL     1      -9.407   7.672  67.935  1.00  0.00    -0.139 A  
HETATM   17  N   UNL     1      -9.348   6.369  68.433  1.00  0.00    -0.122 NA 
HETATM   18  N   UNL     1     -10.522   8.364  68.253  1.00  0.00    -0.193 NA 
HETATM   19  C   UNL     1     -10.595   9.646  67.821  1.00  0.00    -0.264 A  
HETATM   20  H2  UNL     1      -8.507   6.303  69.006  1.00  0.00     0.000 HD 
HETATM   21  H1  UNL     1     -10.104   5.929  68.958  1.00  0.00     0.000 HD 
HETATM   22  N   UNL     1     -11.708  10.357  68.263  1.00  0.00    -0.741 NA 
HETATM   23  H1  UNL     1     -12.473   9.941  68.792  1.00  0.00     0.000 HD 
HETATM   24  H2  UNL     1     -12.120  10.810  67.446  1.00  0.00     0.000 HD 
ENDBRANCH   9  12
TORSDOF 1
ENDMDL
MODEL      181
REMARK 921   NORMALIZED FREE ENERGY PREDICTED BY IDOCK:   -3.70 KCAL/MOL
REMARK 922        TOTAL FREE ENERGY PREDICTED BY IDOCK:   -4.29 KCAL/MOL
REMARK 923 INTER-LIGAND FREE ENERGY PREDICTED BY IDOCK:   -3.91 KCAL/MOL
REMARK 924 INTRA-LIGAND FREE ENERGY PREDICTED BY IDOCK:   -0.38 KCAL/MOL
REMARK 927      BINDING AFFINITY PREDICTED BY RF-SCORE:    0.00 PKD
ROOT
HETATM    1  N   UNL     1     -12.721  14.940  69.683  1.00  0.00    -0.593 NA 
HETATM    2  H2  UNL     1     -13.282  15.681  70.104  1.00  0.00     0.000 HD 
HETATM    3  C   UNL     1     -11.839  14.282  70.461  1.00  0.00    -0.294 C  
HETATM    4  H1  UNL     1     -12.856  14.733  68.693  1.00  0.00     0.000 HD 
HETATM    5  N   UNL     1     -11.669  14.541  71.705  1.00  0.00    -0.394 NA 
HETATM    6  N   UNL     1     -11.065  13.284  69.948  1.00  0.00    -0.458 N  
HETATM    7  H   UNL     1     -10.391  12.858  70.584  1.00  0.00     0.000 HD 
HETATM    8  H2  UNL     1     -12.230  15.283  72.127  1.00  0.00     0.000 HD 
HETATM    9  C   UNL     1     -11.098  12.789  68.657  1.00  0.00    -0.266 C  
HETATM   10  H1  UNL     1     -11.001  14.043  72.294  1.00  0.00     0.000 HD 
HETATM   11  O   UNL     1     -11.728  13.303  67.731  1.00  0.00    -0.319 OA 
ENDROOT
BRANCH   9  12
HETATM   12  C   UNL     1     -10.249  11.587  68.423  1.00  0.00    -0.205 A  
HETATM   13  N   UNL     1     -10.690  10.425  68.980  1.00  0.00    -0.213 NA 
HETATM   14  C   UNL     1      -9.842   9.385  68.814  1.00  0.00    -0.163 A  
HETATM   15 CL   UNL     1     -10.363   7.934  69.575  1.00  0.00    -0.213 Cl 
HETATM   16  C   UNL     1      -8.616   9.473  68.130  1.00  0.00    -0.120 A  
HETATM   17  N   UNL     1      -7.769   8.384  67.915  1.00  0.00    -0.102 NA 
HETATM   18  N   UNL     1      -8.217  10.636  67.570  1.00  0.00    -0.111 NA 
HETATM   19  C   UNL     1      -9.035  11.705  67.723  1.00  0.00    -0.170 A  
HETATM   20  H2  UNL     1      -8.320   7.661  67.454  1.00  0.00     0.000 HD 
HETATM   21  H1  UNL     1      -6.880   8.448  67.419  1.00  0.00     0.000 HD 
HETATM   22  N   UNL     1      -8.644  12.853  67.039  1.00  0.00    -0.291 NA 
HETATM   23  H1  UNL     1      -7.764  12.938  66.532  1.00  0.00     0.000 HD 
HETATM   24  H2  UNL     1      -8.685  13.627  67.702  1.00  0.00     0.000 HD 
ENDBRANCH   9  12
TORSDOF 1
ENDMDL
MODEL      182
REMARK 921   NORMALIZED FREE ENERGY PREDICTED BY IDOCK:   -3.66 KCAL/MOL
REMARK 922        TOTAL FREE ENERGY PREDICTED BY IDOCK:   -4.25 KCAL/MOL
REMARK 923 INTER-LIGAND FREE ENERGY PREDICTED BY IDOCK:   -3.86 KCAL/MOL
REMARK 924 INTRA-LIGAND FREE ENERGY PREDICTED BY IDOCK:   -0.39 KCAL/MOL
REMARK 927      BINDING AFFINITY PREDICTED BY RF-SCORE:    0.00 PKD
ROOT
HETATM    1  N   UNL     1     -11.375   8.014  70.016  1.00  0.00    -0.453 NA 
HETATM    2  H2  UNL     1     -11.683   7.755  70.953  1.00  0.00     0.000 HD 
HETATM    3  C   UNL     1     -10.850   9.242  69.830  1.00  0.00    -0.234 C  
HETATM    4  H1  UNL     1     -11.479   7.331  69.265  1.00  0.00     0.000 HD 
HETATM    5  N   UNL     1     -10.720  10.101  70.774  1.00  0.00    -0.388 NA 
HETATM    6  N   UNL     1     -10.423   9.639  68.599  1.00  0.00    -0.204 N  
HETATM    7  H   UNL     1     -10.075  10.595  68.523  1.00  0.00     0.000 HD 
HETATM    8  H2  UNL     1     -11.028   9.841  71.712  1.00  0.00     0.000 HD 
HETATM    9  C   UNL     1     -10.412   8.883  67.440  1.00  0.00    -0.277 C  
HETATM   10  H1  UNL     1     -10.322  11.030  70.634  1.00  0.00     0.000 HD 
HETATM   11  O   UNL     1     -10.950   7.780  67.326  1.00  0.00    -0.221 OA 
ENDROOT
BRANCH   9  12
HETATM   12  C   UNL     1      -9.741   9.525  66.277  1.00  0.00    -0.245 A  
HETATM   13  N   UNL     1     -10.191  10.765  65.936  1.00  0.00    -0.257 NA 
HETATM   14  C   UNL     1      -9.612  11.268  64.822  1.00  0.00    -0.235 A  
HETATM   15 CL   UNL     1     -10.226  12.802  64.349  1.00  0.00    -0.362 Cl 
HETATM   16  C   UNL     1      -8.631  10.591  64.073  1.00  0.00    -0.147 A  
HETATM   17  N   UNL     1      -7.998  11.137  62.955  1.00  0.00    -0.394 NA 
HETATM   18  N   UNL     1      -8.191   9.372  64.450  1.00  0.00    -0.137 NA 
HETATM   19  C   UNL     1      -8.754   8.829  65.556  1.00  0.00    -0.185 A  
HETATM   20  H2  UNL     1      -7.595  12.029  63.242  1.00  0.00     0.000 HD 
HETATM   21  H1  UNL     1      -7.287  10.647  62.412  1.00  0.00     0.000 HD 
HETATM   22  N   UNL     1      -8.196   7.623  65.975  1.00  0.00    -0.121 NA 
HETATM   23  H1  UNL     1      -7.481   7.119  65.452  1.00  0.00     0.000 HD 
HETATM   24  H2  UNL     1      -8.966   6.974  66.134  1.00  0.00     0.000 HD 
ENDBRANCH   9  12
TORSDOF 1
ENDMDL
MODEL      183
REMARK 921   NORMALIZED FREE ENERGY PREDICTED BY IDOCK:   -3.62 KCAL/MOL
REMARK 922        TOTAL FREE ENERGY PREDICTED BY IDOCK:   -4.20 KCAL/MOL
REMARK 923 INTER-LIGAND FREE ENERGY PREDICTED BY IDOCK:   -3.90 KCAL/MOL
REMARK 924 INTRA-LIGAND FREE ENERGY PREDICTED BY IDOCK:   -0.31 KCAL/MOL
REMARK 927      BINDING AFFINITY PREDICTED BY RF-SCORE:    0.00 PKD
ROOT
HETATM    1  N   UNL     1      -8.012   7.249  67.459  1.00  0.00    -0.112 NA 
HETATM    2  H2  UNL     1      -7.654   6.312  67.277  1.00  0.00     0.000 HD 
HETATM    3  C   UNL     1      -8.791   7.831  66.525  1.00  0.00    -0.153 C  
HETATM    4  H1  UNL     1      -7.763   7.700  68.340  1.00  0.00     0.000 HD 
HETATM    5  N   UNL     1      -9.104   7.264  65.419  1.00  0.00    -0.361 NA 
HETATM    6  N   UNL     1      -9.295   9.082  66.719  1.00  0.00    -0.154 N  
HETATM    7  H   UNL     1      -9.842   9.476  65.954  1.00  0.00     0.000 HD 
HETATM    8  H2  UNL     1      -8.745   6.326  65.236  1.00  0.00     0.000 HD 
HETATM    9  C   UNL     1      -9.143   9.874  67.843  1.00  0.00    -0.131 C  
HETATM   10  H1  UNL     1      -9.693   7.704  64.712  1.00  0.00     0.000 HD 
HETATM   11  O   UNL     1      -8.379   9.617  68.776  1.00  0.00    -0.106 OA 
ENDROOT
BRANCH   9  12
HETATM   12  C   UNL     1      -9.939  11.133  67.838  1.00  0.00    -0.173 A  
HETATM   13  N   UNL     1     -10.588  11.434  68.998  1.00  0.00    -0.208 NA 
HETATM   14  C   UNL     1     -11.366  12.537  68.915  1.00  0.00    -0.297 A  
HETATM   15 CL   UNL     1     -12.240  12.883  70.355  1.00  0.00    -0.419 Cl 
HETATM   16  C   UNL     1     -11.504  13.316  67.751  1.00  0.00    -0.317 A  
HETATM   17  N   UNL     1     -12.266  14.484  67.687  1.00  0.00    -0.614 NA 
HETATM   18  N   UNL     1     -10.829  13.002  66.624  1.00  0.00    -0.273 NA 
HETATM   19  C   UNL     1     -10.047  11.897  66.663  1.00  0.00    -0.200 A  
HETATM   20  H2  UNL     1     -11.932  15.103  68.425  1.00  0.00     0.000 HD 
HETATM   21  H1  UNL     1     -12.365  15.049  66.843  1.00  0.00     0.000 HD 
HETATM   22  N   UNL     1      -9.284  11.670  65.520  1.00  0.00    -0.378 NA 
HETATM   23  H1  UNL     1      -9.362  12.224  64.668  1.00  0.00     0.000 HD 
HETATM   24  H2  UNL     1      -9.419  10.694  65.257  1.00  0.00     0.000 HD 
ENDBRANCH   9  12
TORSDOF 1
ENDMDL
MODEL      184
REMARK 921   NORMALIZED FREE ENERGY PREDICTED BY IDOCK:   -3.61 KCAL/MOL
REMARK 922        TOTAL FREE ENERGY PREDICTED BY IDOCK:   -4.19 KCAL/MOL
REMARK 923 INTER-LIGAND FREE ENERGY PREDICTED BY IDOCK:   -3.80 KCAL/MOL
REMARK 924 INTRA-LIGAND FREE ENERGY PREDICTED BY IDOCK:   -0.39 KCAL/MOL
REMARK 927      BINDING AFFINITY PREDICTED BY RF-SCORE:    0.00 PKD
ROOT
HETATM    1  N   UNL     1     -12.108  10.909  69.033  1.00  0.00    -0.670 NA 
HETATM    2  H2  UNL     1     -12.515  11.473  68.287  1.00  0.00     0.000 HD 
HETATM    3  C   UNL     1     -11.272   9.907  68.697  1.00  0.00    -0.068 C  
HETATM    4  H1  UNL     1     -12.356  11.131  69.998  1.00  0.00     0.000 HD 
HETATM    5  N   UNL     1     -10.961   9.627  67.485  1.00  0.00    -0.421 NA 
HETATM    6  N   UNL     1     -10.702   9.123  69.655  1.00  0.00    -0.230 N  
HETATM    7  H   UNL     1     -10.112   8.359  69.328  1.00  0.00     0.000 HD 
HETATM    8  H2  UNL     1     -11.367  10.192  66.738  1.00  0.00     0.000 HD 
HETATM    9  C   UNL     1     -10.840   9.255  71.026  1.00  0.00    -0.314 C  
HETATM   10  H1  UNL     1     -10.328   8.869  67.231  1.00  0.00     0.000 HD 
HETATM   11  O   UNL     1     -11.644  10.012  71.574  1.00  0.00    -0.353 OA 
ENDROOT
BRANCH   9  12
HETATM   12  C   UNL     1      -9.973   8.353  71.834  1.00  0.00    -0.261 A  
HETATM   13  N   UNL     1      -8.629   8.528  71.690  1.00  0.00    -0.172 NA 
HETATM   14  C   UNL     1      -7.887   7.629  72.376  1.00  0.00    -0.103 A  
HETATM   15 CL   UNL     1      -6.193   7.804  72.143  1.00  0.00    -0.039 Cl 
HETATM   16  C   UNL     1      -8.432   6.605  73.172  1.00  0.00    -0.116 A  
HETATM   17  N   UNL     1      -7.660   5.713  73.920  1.00  0.00    -0.096 NA 
HETATM   18  N   UNL     1      -9.768   6.472  73.311  1.00  0.00    -0.160 NA 
HETATM   19  C   UNL     1     -10.547   7.347  72.631  1.00  0.00    -0.275 A  
HETATM   20  H2  UNL     1      -7.053   6.271  74.521  1.00  0.00     0.000 HD 
HETATM   21  H1  UNL     1      -8.055   4.971  74.498  1.00  0.00     0.000 HD 
HETATM   22  N   UNL     1     -11.913   7.248  72.888  1.00  0.00    -0.520 NA 
HETATM   23  H1  UNL     1     -12.329   6.519  73.465  1.00  0.00     0.000 HD 
HETATM   24  H2  UNL     1     -12.388   7.224  71.985  1.00  0.00     0.000 HD 
ENDBRANCH   9  12
TORSDOF 1
ENDMDL
MODEL      185
REMARK 921   NORMALIZED FREE ENERGY PREDICTED BY IDOCK:   -3.60 KCAL/MOL
REMARK 922        TOTAL FREE ENERGY PREDICTED BY IDOCK:   -4.18 KCAL/MOL
REMARK 923 INTER-LIGAND FREE ENERGY PREDICTED BY IDOCK:   -3.80 KCAL/MOL
REMARK 924 INTRA-LIGAND FREE ENERGY PREDICTED BY IDOCK:   -0.38 KCAL/MOL
REMARK 927      BINDING AFFINITY PREDICTED BY RF-SCORE:    0.00 PKD
ROOT
HETATM    1  N   UNL     1     -11.710  10.588  68.011  1.00  0.00    -0.750 NA 
HETATM    2  H2  UNL     1     -12.198  11.289  67.453  1.00  0.00     0.000 HD 
HETATM    3  C   UNL     1     -11.292  10.929  69.247  1.00  0.00    -0.277 C  
HETATM    4  H1  UNL     1     -11.562   9.663  67.606  1.00  0.00     0.000 HD 
HETATM    5  N   UNL     1     -11.479  12.091  69.756  1.00  0.00    -0.476 NA 
HETATM    6  N   UNL     1     -10.635  10.031  70.033  1.00  0.00    -0.276 N  
HETATM    7  H   UNL     1     -10.313  10.370  70.939  1.00  0.00     0.000 HD 
HETATM    8  H2  UNL     1     -11.968  12.792  69.198  1.00  0.00     0.000 HD 
HETATM    9  C   UNL     1     -10.359   8.709  69.732  1.00  0.00    -0.212 C  
HETATM   10  H1  UNL     1     -11.163  12.349  70.691  1.00  0.00     0.000 HD 
HETATM   11  O   UNL     1     -10.529   8.199  68.622  1.00  0.00    -0.207 OA 
ENDROOT
BRANCH   9  12
HETATM   12  C   UNL     1      -9.767   7.920  70.848  1.00  0.00    -0.164 A  
HETATM   13  N   UNL     1     -10.394   6.750  71.152  1.00  0.00    -0.204 NA 
HETATM   14  C   UNL     1      -9.873   6.115  72.226  1.00  0.00    -0.159 A  
HETATM   15 CL   UNL     1     -10.704   4.673  72.654  1.00  0.00    -0.263 Cl 
HETATM   16  C   UNL     1      -8.783   6.601  72.972  1.00  0.00    -0.120 A  
HETATM   17  N   UNL     1      -8.215   5.915  74.047  1.00  0.00    -0.108 NA 
HETATM   18  N   UNL     1      -8.169   7.755  72.631  1.00  0.00    -0.119 NA 
HETATM   19  C   UNL     1      -8.669   8.426  71.566  1.00  0.00    -0.176 A  
HETATM   20  H2  UNL     1      -7.960   4.986  73.712  1.00  0.00     0.000 HD 
HETATM   21  H1  UNL     1      -7.424   6.267  74.588  1.00  0.00     0.000 HD 
HETATM   22  N   UNL     1      -7.943   9.549  71.180  1.00  0.00    -0.292 NA 
HETATM   23  H1  UNL     1      -7.146   9.916  71.700  1.00  0.00     0.000 HD 
HETATM   24  H2  UNL     1      -8.608  10.315  71.070  1.00  0.00     0.000 HD 
ENDBRANCH   9  12
TORSDOF 1
ENDMDL
MODEL      186
REMARK 921   NORMALIZED FREE ENERGY PREDICTED BY IDOCK:   -3.59 KCAL/MOL
REMARK 922        TOTAL FREE ENERGY PREDICTED BY IDOCK:   -4.18 KCAL/MOL
REMARK 923 INTER-LIGAND FREE ENERGY PREDICTED BY IDOCK:   -3.98 KCAL/MOL
REMARK 924 INTRA-LIGAND FREE ENERGY PREDICTED BY IDOCK:   -0.19 KCAL/MOL
REMARK 927      BINDING AFFINITY PREDICTED BY RF-SCORE:    0.00 PKD
ROOT
HETATM    1  N   UNL     1      -6.417  10.042  70.711  1.00  0.00    -0.256 NA 
HETATM    2  H2  UNL     1      -5.562  10.434  70.317  1.00  0.00     0.000 HD 
HETATM    3  C   UNL     1      -7.547  10.102  69.978  1.00  0.00    -0.152 C  
HETATM    4  H1  UNL     1      -6.375   9.622  71.640  1.00  0.00     0.000 HD 
HETATM    5  N   UNL     1      -7.600  10.629  68.810  1.00  0.00    -0.101 NA 
HETATM    6  N   UNL     1      -8.717   9.593  70.457  1.00  0.00    -0.286 N  
HETATM    7  H   UNL     1      -9.540   9.710  69.866  1.00  0.00     0.000 HD 
HETATM    8  H2  UNL     1      -6.744  11.022  68.416  1.00  0.00     0.000 HD 
HETATM    9  C   UNL     1      -8.905   8.935  71.659  1.00  0.00    -0.144 C  
HETATM   10  H1  UNL     1      -8.455  10.674  68.256  1.00  0.00     0.000 HD 
HETATM   11  O   UNL     1      -8.059   8.863  72.552  1.00  0.00    -0.381 OA 
ENDROOT
BRANCH   9  12
HETATM   12  C   UNL     1     -10.261   8.347  71.848  1.00  0.00    -0.270 A  
HETATM   13  N   UNL     1     -10.307   7.142  72.482  1.00  0.00    -0.199 NA 
HETATM   14  C   UNL     1     -11.548   6.609  72.551  1.00  0.00    -0.205 A  
HETATM   15 CL   UNL     1     -11.601   5.058  73.290  1.00  0.00    -0.355 Cl 
HETATM   16  C   UNL     1     -12.698   7.228  72.025  1.00  0.00    -0.197 A  
HETATM   17  N   UNL     1     -13.984   6.699  72.147  1.00  0.00    -0.475 NA 
HETATM   18  N   UNL     1     -12.621   8.434  71.422  1.00  0.00    -0.300 NA 
HETATM   19  C   UNL     1     -11.392   8.995  71.323  1.00  0.00    -0.319 A  
HETATM   20  H2  UNL     1     -14.154   6.543  73.140  1.00  0.00     0.000 HD 
HETATM   21  H1  UNL     1     -14.818   7.148  71.766  1.00  0.00     0.000 HD 
HETATM   22  N   UNL     1     -11.371  10.284  70.795  1.00  0.00    -0.345 NA 
HETATM   23  H1  UNL     1     -12.191  10.754  70.415  1.00  0.00     0.000 HD 
HETATM   24  H2  UNL     1     -10.652  10.301  70.071  1.00  0.00     0.000 HD 
ENDBRANCH   9  12
TORSDOF 1
ENDMDL
MODEL      187
REMARK 921   NORMALIZED FREE ENERGY PREDICTED BY IDOCK:   -3.59 KCAL/MOL
REMARK 922        TOTAL FREE ENERGY PREDICTED BY IDOCK:   -4.18 KCAL/MOL
REMARK 923 INTER-LIGAND FREE ENERGY PREDICTED BY IDOCK:   -3.80 KCAL/MOL
REMARK 924 INTRA-LIGAND FREE ENERGY PREDICTED BY IDOCK:   -0.38 KCAL/MOL
REMARK 927      BINDING AFFINITY PREDICTED BY RF-SCORE:    0.00 PKD
ROOT
HETATM    1  N   UNL     1      -8.114  10.330  65.590  1.00  0.00    -0.149 NA 
HETATM    2  H2  UNL     1      -7.372  10.248  64.895  1.00  0.00     0.000 HD 
HETATM    3  C   UNL     1      -7.821  10.060  66.877  1.00  0.00    -0.106 C  
HETATM    4  H1  UNL     1      -9.043  10.612  65.275  1.00  0.00     0.000 HD 
HETATM    5  N   UNL     1      -6.654   9.705  67.272  1.00  0.00    -0.070 NA 
HETATM    6  N   UNL     1      -8.776  10.153  67.844  1.00  0.00    -0.122 N  
HETATM    7  H   UNL     1      -8.494   9.896  68.790  1.00  0.00     0.000 HD 
HETATM    8  H2  UNL     1      -5.910   9.624  66.578  1.00  0.00     0.000 HD 
HETATM    9  C   UNL     1     -10.088  10.561  67.679  1.00  0.00    -0.179 C  
HETATM   10  H1  UNL     1      -6.431   9.502  68.247  1.00  0.00     0.000 HD 
HETATM   11  O   UNL     1     -10.627  10.741  66.586  1.00  0.00    -0.245 OA 
ENDROOT
BRANCH   9  12
HETATM   12  C   UNL     1     -10.861  10.719  68.943  1.00  0.00    -0.227 A  
HETATM   13  N   UNL     1     -10.986   9.600  69.711  1.00  0.00    -0.240 NA 
HETATM   14  C   UNL     1     -11.769   9.772  70.800  1.00  0.00    -0.328 A  
HETATM   15 CL   UNL     1     -11.985   8.346  71.735  1.00  0.00    -0.352 Cl 
HETATM   16  C   UNL     1     -12.401  10.986  71.129  1.00  0.00    -0.359 A  
HETATM   17  N   UNL     1     -13.164  11.173  72.283  1.00  0.00    -0.534 NA 
HETATM   18  N   UNL     1     -12.239  12.083  70.358  1.00  0.00    -0.325 NA 
HETATM   19  C   UNL     1     -11.470  11.948  69.251  1.00  0.00    -0.306 A  
HETATM   20  H2  UNL     1     -12.579  10.914  73.077  1.00  0.00     0.000 HD 
HETATM   21  H1  UNL     1     -13.622  12.052  72.522  1.00  0.00     0.000 HD 
HETATM   22  N   UNL     1     -11.237  13.126  68.544  1.00  0.00    -0.255 NA 
HETATM   23  H1  UNL     1     -11.679  14.017  68.768  1.00  0.00     0.000 HD 
HETATM   24  H2  UNL     1     -11.433  12.931  67.562  1.00  0.00     0.000 HD 
ENDBRANCH   9  12
TORSDOF 1
ENDMDL
MODEL      188
REMARK 921   NORMALIZED FREE ENERGY PREDICTED BY IDOCK:   -3.59 KCAL/MOL
REMARK 922        TOTAL FREE ENERGY PREDICTED BY IDOCK:   -4.17 KCAL/MOL
REMARK 923 INTER-LIGAND FREE ENERGY PREDICTED BY IDOCK:   -3.78 KCAL/MOL
REMARK 924 INTRA-LIGAND FREE ENERGY PREDICTED BY IDOCK:   -0.39 KCAL/MOL
REMARK 927      BINDING AFFINITY PREDICTED BY RF-SCORE:    0.00 PKD
ROOT
HETATM    1  N   UNL     1     -11.039   4.601  65.278  1.00  0.00    -0.943 NA 
HETATM    2  H2  UNL     1     -11.178   3.971  64.488  1.00  0.00     0.000 HD 
HETATM    3  C   UNL     1     -10.154   4.249  66.232  1.00  0.00    -0.172 C  
HETATM    4  H1  UNL     1     -11.577   5.468  65.307  1.00  0.00     0.000 HD 
HETATM    5  N   UNL     1      -9.478   3.161  66.195  1.00  0.00    -0.360 NA 
HETATM    6  N   UNL     1      -9.931   5.055  67.307  1.00  0.00    -0.179 N  
HETATM    7  H   UNL     1      -9.278   4.707  68.010  1.00  0.00     0.000 HD 
HETATM    8  H2  UNL     1      -9.616   2.530  65.405  1.00  0.00     0.000 HD 
HETATM    9  C   UNL     1     -10.495   6.295  67.547  1.00  0.00    -0.236 C  
HETATM   10  H1  UNL     1      -8.807   2.894  66.917  1.00  0.00     0.000 HD 
HETATM   11  O   UNL     1     -11.420   6.776  66.890  1.00  0.00    -0.176 OA 
ENDROOT
BRANCH   9  12
HETATM   12  C   UNL     1      -9.944   7.020  68.727  1.00  0.00    -0.160 A  
HETATM   13  N   UNL     1      -9.467   8.274  68.489  1.00  0.00    -0.146 NA 
HETATM   14  C   UNL     1      -8.899   8.854  69.570  1.00  0.00    -0.144 A  
HETATM   15 CL   UNL     1      -8.235  10.409  69.258  1.00  0.00    -0.156 Cl 
HETATM   16  C   UNL     1      -8.802   8.238  70.832  1.00  0.00    -0.150 A  
HETATM   17  N   UNL     1      -8.262   8.863  71.958  1.00  0.00    -0.370 NA 
HETATM   18  N   UNL     1      -9.305   7.002  71.040  1.00  0.00    -0.159 NA 
HETATM   19  C   UNL     1      -9.873   6.383  69.978  1.00  0.00    -0.168 A  
HETATM   20  H2  UNL     1      -8.768   9.739  72.088  1.00  0.00     0.000 HD 
HETATM   21  H1  UNL     1      -8.192   8.417  72.873  1.00  0.00     0.000 HD 
HETATM   22  N   UNL     1     -10.477   5.159  70.259  1.00  0.00    -0.262 NA 
HETATM   23  H1  UNL     1     -10.425   4.698  71.167  1.00  0.00     0.000 HD 
HETATM   24  H2  UNL     1     -10.143   4.492  69.563  1.00  0.00     0.000 HD 
ENDBRANCH   9  12
TORSDOF 1
ENDMDL
MODEL      189
REMARK 921   NORMALIZED FREE ENERGY PREDICTED BY IDOCK:   -3.58 KCAL/MOL
REMARK 922        TOTAL FREE ENERGY PREDICTED BY IDOCK:   -4.17 KCAL/MOL
REMARK 923 INTER-LIGAND FREE ENERGY PREDICTED BY IDOCK:   -3.80 KCAL/MOL
REMARK 924 INTRA-LIGAND FREE ENERGY PREDICTED BY IDOCK:   -0.37 KCAL/MOL
REMARK 927      BINDING AFFINITY PREDICTED BY RF-SCORE:    0.00 PKD
ROOT
HETATM    1  N   UNL     1     -11.044   4.588  65.279  1.00  0.00    -0.949 NA 
HETATM    2  H2  UNL     1     -11.202   3.992  64.466  1.00  0.00     0.000 HD 
HETATM    3  C   UNL     1     -10.159   4.181  66.211  1.00  0.00    -0.104 C  
HETATM    4  H1  UNL     1     -11.563   5.464  65.346  1.00  0.00     0.000 HD 
HETATM    5  N   UNL     1      -9.506   3.081  66.126  1.00  0.00    -0.371 NA 
HETATM    6  N   UNL     1      -9.910   4.940  67.315  1.00  0.00    -0.173 N  
HETATM    7  H   UNL     1      -9.260   4.552  67.997  1.00  0.00     0.000 HD 
HETATM    8  H2  UNL     1      -9.664   2.484  65.313  1.00  0.00     0.000 HD 
HETATM    9  C   UNL     1     -10.447   6.181  67.607  1.00  0.00    -0.234 C  
HETATM   10  H1  UNL     1      -8.835   2.773  66.831  1.00  0.00     0.000 HD 
HETATM   11  O   UNL     1     -11.367   6.706  66.977  1.00  0.00    -0.348 OA 
ENDROOT
BRANCH   9  12
HETATM   12  C   UNL     1      -9.872   6.847  68.809  1.00  0.00    -0.149 A  
HETATM   13  N   UNL     1      -9.529   6.027  69.841  1.00  0.00    -0.150 NA 
HETATM   14  C   UNL     1      -9.095   6.686  70.939  1.00  0.00    -0.154 A  
HETATM   15 CL   UNL     1      -8.725   5.659  72.267  1.00  0.00    -0.132 Cl 
HETATM   16  C   UNL     1      -8.996   8.087  71.026  1.00  0.00    -0.144 A  
HETATM   17  N   UNL     1      -8.496   8.760  72.143  1.00  0.00    -0.385 NA 
HETATM   18  N   UNL     1      -9.324   8.871  69.977  1.00  0.00    -0.166 NA 
HETATM   19  C   UNL     1      -9.774   8.249  68.861  1.00  0.00    -0.164 A  
HETATM   20  H2  UNL     1      -7.569   8.380  72.334  1.00  0.00     0.000 HD 
HETATM   21  H1  UNL     1      -8.425   9.775  72.207  1.00  0.00     0.000 HD 
HETATM   22  N   UNL     1      -9.995   9.082  67.767  1.00  0.00    -0.176 NA 
HETATM   23  H1  UNL     1      -9.924  10.098  67.805  1.00  0.00     0.000 HD 
HETATM   24  H2  UNL     1     -10.921   8.859  67.401  1.00  0.00     0.000 HD 
ENDBRANCH   9  12
TORSDOF 1
ENDMDL
MODEL      190
REMARK 921   NORMALIZED FREE ENERGY PREDICTED BY IDOCK:   -3.57 KCAL/MOL
REMARK 922        TOTAL FREE ENERGY PREDICTED BY IDOCK:   -4.15 KCAL/MOL
REMARK 923 INTER-LIGAND FREE ENERGY PREDICTED BY IDOCK:   -3.77 KCAL/MOL
REMARK 924 INTRA-LIGAND FREE ENERGY PREDICTED BY IDOCK:   -0.38 KCAL/MOL
REMARK 927      BINDING AFFINITY PREDICTED BY RF-SCORE:    0.00 PKD
ROOT
HETATM    1  N   UNL     1      -9.470  20.276  66.858  1.00  0.00    -0.468 NA 
HETATM    2  H2  UNL     1      -9.404  21.278  66.679  1.00  0.00     0.000 HD 
HETATM    3  C   UNL     1      -8.477  19.478  66.416  1.00  0.00    -0.352 C  
HETATM    4  H1  UNL     1     -10.285  19.927  67.364  1.00  0.00     0.000 HD 
HETATM    5  N   UNL     1      -7.453  19.917  65.782  1.00  0.00    -0.330 NA 
HETATM    6  N   UNL     1      -8.516  18.133  66.630  1.00  0.00    -0.256 N  
HETATM    7  H   UNL     1      -7.752  17.587  66.233  1.00  0.00     0.000 HD 
HETATM    8  H2  UNL     1      -7.387  20.920  65.602  1.00  0.00     0.000 HD 
HETATM    9  C   UNL     1      -9.483  17.431  67.327  1.00  0.00    -0.251 C  
HETATM   10  H1  UNL     1      -6.702  19.314  65.448  1.00  0.00     0.000 HD 
HETATM   11  O   UNL     1     -10.547  17.915  67.718  1.00  0.00    -0.392 OA 
ENDROOT
BRANCH   9  12
HETATM   12  C   UNL     1      -9.182  15.987  67.536  1.00  0.00    -0.211 A  
HETATM   13  N   UNL     1     -10.140  15.111  67.122  1.00  0.00    -0.238 NA 
HETATM   14  C   UNL     1      -9.860  13.820  67.413  1.00  0.00    -0.238 A  
HETATM   15 CL   UNL     1     -11.097  12.718  66.953  1.00  0.00    -0.291 Cl 
HETATM   16  C   UNL     1      -8.693  13.400  68.077  1.00  0.00    -0.178 A  
HETATM   17  N   UNL     1      -8.384  12.062  68.327  1.00  0.00    -0.159 NA 
HETATM   18  N   UNL     1      -7.752  14.293  68.455  1.00  0.00    -0.131 NA 
HETATM   19  C   UNL     1      -8.001  15.598  68.191  1.00  0.00    -0.128 A  
HETATM   20  H2  UNL     1      -8.413  11.574  67.432  1.00  0.00     0.000 HD 
HETATM   21  H1  UNL     1      -7.537  11.757  68.808  1.00  0.00     0.000 HD 
HETATM   22  N   UNL     1      -6.960  16.472  68.496  1.00  0.00    -0.147 NA 
HETATM   23  H1  UNL     1      -6.104  16.190  68.971  1.00  0.00     0.000 HD 
HETATM   24  H2  UNL     1      -7.361  17.242  69.031  1.00  0.00     0.000 HD 
ENDBRANCH   9  12
TORSDOF 1
ENDMDL
MODEL      191
REMARK 921   NORMALIZED FREE ENERGY PREDICTED BY IDOCK:   -3.56 KCAL/MOL
REMARK 922        TOTAL FREE ENERGY PREDICTED BY IDOCK:   -4.15 KCAL/MOL
REMARK 923 INTER-LIGAND FREE ENERGY PREDICTED BY IDOCK:   -3.78 KCAL/MOL
REMARK 924 INTRA-LIGAND FREE ENERGY PREDICTED BY IDOCK:   -0.37 KCAL/MOL
REMARK 927      BINDING AFFINITY PREDICTED BY RF-SCORE:    0.00 PKD
ROOT
HETATM    1  N   UNL     1      -6.217  12.045  68.475  1.00  0.00    -0.051 NA 
HETATM    2  H2  UNL     1      -5.823  11.183  68.854  1.00  0.00     0.000 HD 
HETATM    3  C   UNL     1      -7.556  12.202  68.495  1.00  0.00    -0.124 C  
HETATM    4  H1  UNL     1      -5.577  12.745  68.099  1.00  0.00     0.000 HD 
HETATM    5  N   UNL     1      -8.359  11.321  68.968  1.00  0.00    -0.355 NA 
HETATM    6  N   UNL     1      -8.132  13.333  68.002  1.00  0.00    -0.145 N  
HETATM    7  H   UNL     1      -9.151  13.367  68.012  1.00  0.00     0.000 HD 
HETATM    8  H2  UNL     1      -7.966  10.459  69.347  1.00  0.00     0.000 HD 
HETATM    9  C   UNL     1      -7.481  14.441  67.488  1.00  0.00    -0.186 C  
HETATM   10  H1  UNL     1      -9.372  11.441  68.984  1.00  0.00     0.000 HD 
HETATM   11  O   UNL     1      -6.273  14.488  67.250  1.00  0.00    -0.302 OA 
ENDROOT
BRANCH   9  12
HETATM   12  C   UNL     1      -8.364  15.597  67.168  1.00  0.00    -0.208 A  
HETATM   13  N   UNL     1      -9.267  15.401  66.166  1.00  0.00    -0.320 NA 
HETATM   14  C   UNL     1      -9.983  16.506  65.855  1.00  0.00    -0.317 A  
HETATM   15 CL   UNL     1     -11.075  16.282  64.546  1.00  0.00    -0.348 Cl 
HETATM   16  C   UNL     1      -9.828  17.749  66.497  1.00  0.00    -0.329 A  
HETATM   17  N   UNL     1     -10.608  18.870  66.209  1.00  0.00    -0.424 NA 
HETATM   18  N   UNL     1      -8.939  17.903  67.502  1.00  0.00    -0.247 NA 
HETATM   19  C   UNL     1      -8.194  16.822  67.836  1.00  0.00    -0.187 A  
HETATM   20  H2  UNL     1     -11.583  18.595  66.317  1.00  0.00     0.000 HD 
HETATM   21  H1  UNL     1     -10.496  19.771  66.674  1.00  0.00     0.000 HD 
HETATM   22  N   UNL     1      -7.371  16.991  68.947  1.00  0.00    -0.240 NA 
HETATM   23  H1  UNL     1      -7.248  17.879  69.431  1.00  0.00     0.000 HD 
HETATM   24  H2  UNL     1      -6.442  16.659  68.686  1.00  0.00     0.000 HD 
ENDBRANCH   9  12
TORSDOF 1
ENDMDL
MODEL      192
REMARK 921   NORMALIZED FREE ENERGY PREDICTED BY IDOCK:   -3.54 KCAL/MOL
REMARK 922        TOTAL FREE ENERGY PREDICTED BY IDOCK:   -4.12 KCAL/MOL
REMARK 923 INTER-LIGAND FREE ENERGY PREDICTED BY IDOCK:   -3.73 KCAL/MOL
REMARK 924 INTRA-LIGAND FREE ENERGY PREDICTED BY IDOCK:   -0.39 KCAL/MOL
REMARK 927      BINDING AFFINITY PREDICTED BY RF-SCORE:    0.00 PKD
ROOT
HETATM    1  N   UNL     1     -11.667   9.474  69.929  1.00  0.00    -0.448 NA 
HETATM    2  H2  UNL     1     -12.255   8.810  70.432  1.00  0.00     0.000 HD 
HETATM    3  C   UNL     1     -11.761  10.782  70.242  1.00  0.00    -0.352 C  
HETATM    4  H1  UNL     1     -11.036   9.116  69.211  1.00  0.00     0.000 HD 
HETATM    5  N   UNL     1     -12.554  11.232  71.144  1.00  0.00    -0.403 NA 
HETATM    6  N   UNL     1     -10.999  11.710  69.599  1.00  0.00    -0.466 N  
HETATM    7  H   UNL     1     -11.152  12.684  69.859  1.00  0.00     0.000 HD 
HETATM    8  H2  UNL     1     -13.143  10.568  71.648  1.00  0.00     0.000 HD 
HETATM    9  C   UNL     1     -10.040  11.471  68.632  1.00  0.00    -0.207 C  
HETATM   10  H1  UNL     1     -12.626  12.222  71.382  1.00  0.00     0.000 HD 
HETATM   11  O   UNL     1      -9.856  10.379  68.090  1.00  0.00    -0.148 OA 
ENDROOT
BRANCH   9  12
HETATM   12  C   UNL     1      -9.250  12.665  68.220  1.00  0.00    -0.184 A  
HETATM   13  N   UNL     1      -9.970  13.778  67.904  1.00  0.00    -0.234 NA 
HETATM   14  C   UNL     1      -9.214  14.805  67.453  1.00  0.00    -0.196 A  
HETATM   15 CL   UNL     1     -10.124  16.188  66.989  1.00  0.00    -0.264 Cl 
HETATM   16  C   UNL     1      -7.814  14.750  67.318  1.00  0.00    -0.194 A  
HETATM   17  N   UNL     1      -7.034  15.831  66.903  1.00  0.00    -0.238 NA 
HETATM   18  N   UNL     1      -7.129  13.638  67.661  1.00  0.00    -0.162 NA 
HETATM   19  C   UNL     1      -7.851  12.583  68.108  1.00  0.00    -0.151 A  
HETATM   20  H2  UNL     1      -7.246  16.612  67.524  1.00  0.00     0.000 HD 
HETATM   21  H1  UNL     1      -6.019  15.791  66.806  1.00  0.00     0.000 HD 
HETATM   22  N   UNL     1      -7.101  11.498  68.554  1.00  0.00    -0.081 NA 
HETATM   23  H1  UNL     1      -6.086  11.439  68.472  1.00  0.00     0.000 HD 
HETATM   24  H2  UNL     1      -7.487  10.663  68.113  1.00  0.00     0.000 HD 
ENDBRANCH   9  12
TORSDOF 1
ENDMDL
MODEL      193
REMARK 921   NORMALIZED FREE ENERGY PREDICTED BY IDOCK:   -3.53 KCAL/MOL
REMARK 922        TOTAL FREE ENERGY PREDICTED BY IDOCK:   -4.11 KCAL/MOL
REMARK 923 INTER-LIGAND FREE ENERGY PREDICTED BY IDOCK:   -3.85 KCAL/MOL
REMARK 924 INTRA-LIGAND FREE ENERGY PREDICTED BY IDOCK:   -0.26 KCAL/MOL
REMARK 927      BINDING AFFINITY PREDICTED BY RF-SCORE:    0.00 PKD
ROOT
HETATM    1  N   UNL     1      -8.296  20.347  66.715  1.00  0.00    -0.505 NA 
HETATM    2  H2  UNL     1      -7.996  21.273  66.411  1.00  0.00     0.000 HD 
HETATM    3  C   UNL     1      -7.645  19.270  66.232  1.00  0.00    -0.277 C  
HETATM    4  H1  UNL     1      -9.076  20.281  67.371  1.00  0.00     0.000 HD 
HETATM    5  N   UNL     1      -6.665  19.353  65.409  1.00  0.00    -0.322 NA 
HETATM    6  N   UNL     1      -8.005  18.011  66.607  1.00  0.00    -0.240 N  
HETATM    7  H   UNL     1      -7.495  17.242  66.172  1.00  0.00     0.000 HD 
HETATM    8  H2  UNL     1      -6.364  20.279  65.104  1.00  0.00     0.000 HD 
HETATM    9  C   UNL     1      -8.990  17.665  67.515  1.00  0.00    -0.235 C  
HETATM   10  H1  UNL     1      -6.172  18.538  65.044  1.00  0.00     0.000 HD 
HETATM   11  O   UNL     1      -9.802  18.458  67.996  1.00  0.00    -0.307 OA 
ENDROOT
BRANCH   9  12
HETATM   12  C   UNL     1      -9.056  16.214  67.848  1.00  0.00    -0.192 A  
HETATM   13  N   UNL     1      -7.882  15.528  67.768  1.00  0.00    -0.134 NA 
HETATM   14  C   UNL     1      -8.011  14.201  67.993  1.00  0.00    -0.149 A  
HETATM   15 CL   UNL     1      -6.544  13.320  67.825  1.00  0.00    -0.141 Cl 
HETATM   16  C   UNL     1      -9.234  13.569  68.288  1.00  0.00    -0.195 A  
HETATM   17  N   UNL     1      -9.352  12.207  68.572  1.00  0.00    -0.345 NA 
HETATM   18  N   UNL     1     -10.377  14.282  68.382  1.00  0.00    -0.241 NA 
HETATM   19  C   UNL     1     -10.291  15.615  68.152  1.00  0.00    -0.246 A  
HETATM   20  H2  UNL     1      -8.715  12.003  69.342  1.00  0.00     0.000 HD 
HETATM   21  H1  UNL     1     -10.238  11.749  68.786  1.00  0.00     0.000 HD 
HETATM   22  N   UNL     1     -11.467  16.329  68.367  1.00  0.00    -0.318 NA 
HETATM   23  H1  UNL     1     -12.362  15.894  68.587  1.00  0.00     0.000 HD 
HETATM   24  H2  UNL     1     -11.614  16.921  67.549  1.00  0.00     0.000 HD 
ENDBRANCH   9  12
TORSDOF 1
ENDMDL
MODEL      194
REMARK 921   NORMALIZED FREE ENERGY PREDICTED BY IDOCK:   -3.52 KCAL/MOL
REMARK 922        TOTAL FREE ENERGY PREDICTED BY IDOCK:   -4.10 KCAL/MOL
REMARK 923 INTER-LIGAND FREE ENERGY PREDICTED BY IDOCK:   -3.73 KCAL/MOL
REMARK 924 INTRA-LIGAND FREE ENERGY PREDICTED BY IDOCK:   -0.37 KCAL/MOL
REMARK 927      BINDING AFFINITY PREDICTED BY RF-SCORE:    0.00 PKD
ROOT
HETATM    1  N   UNL     1      -9.836   3.480  66.443  1.00  0.00    -0.416 NA 
HETATM    2  H2  UNL     1     -10.138   2.507  66.385  1.00  0.00     0.000 HD 
HETATM    3  C   UNL     1     -10.341   4.363  65.558  1.00  0.00    -0.224 C  
HETATM    4  H1  UNL     1      -9.165   3.737  67.168  1.00  0.00     0.000 HD 
HETATM    5  N   UNL     1     -11.184   4.040  64.648  1.00  0.00    -0.819 NA 
HETATM    6  N   UNL     1      -9.971   5.673  65.592  1.00  0.00    -0.367 N  
HETATM    7  H   UNL     1     -10.362   6.276  64.868  1.00  0.00     0.000 HD 
HETATM    8  H2  UNL     1     -11.487   3.067  64.590  1.00  0.00     0.000 HD 
HETATM    9  C   UNL     1      -9.121   6.273  66.504  1.00  0.00    -0.153 C  
HETATM   10  H1  UNL     1     -11.568   4.708  63.979  1.00  0.00     0.000 HD 
HETATM   11  O   UNL     1      -8.440   5.658  67.328  1.00  0.00    -0.108 OA 
ENDROOT
BRANCH   9  12
HETATM   12  C   UNL     1      -9.023   7.755  66.393  1.00  0.00    -0.163 A  
HETATM   13  N   UNL     1      -9.671   8.471  67.354  1.00  0.00    -0.159 NA 
HETATM   14  C   UNL     1      -9.626   9.809  67.159  1.00  0.00    -0.169 A  
HETATM   15 CL   UNL     1     -10.500  10.713  68.332  1.00  0.00    -0.198 Cl 
HETATM   16  C   UNL     1      -8.975  10.423  66.074  1.00  0.00    -0.159 A  
HETATM   17  N   UNL     1      -8.886  11.807  65.907  1.00  0.00    -0.397 NA 
HETATM   18  N   UNL     1      -8.323   9.685  65.150  1.00  0.00    -0.130 NA 
HETATM   19  C   UNL     1      -8.353   8.340  65.303  1.00  0.00    -0.166 A  
HETATM   20  H2  UNL     1      -8.475  12.187  66.759  1.00  0.00     0.000 HD 
HETATM   21  H1  UNL     1      -8.413  12.252  65.120  1.00  0.00     0.000 HD 
HETATM   22  N   UNL     1      -7.579   7.622  64.395  1.00  0.00    -0.100 NA 
HETATM   23  H1  UNL     1      -7.093   8.046  63.606  1.00  0.00     0.000 HD 
HETATM   24  H2  UNL     1      -8.166   6.877  64.021  1.00  0.00     0.000 HD 
ENDBRANCH   9  12
TORSDOF 1
ENDMDL
MODEL      195
REMARK 921   NORMALIZED FREE ENERGY PREDICTED BY IDOCK:   -3.51 KCAL/MOL
REMARK 922        TOTAL FREE ENERGY PREDICTED BY IDOCK:   -4.09 KCAL/MOL
REMARK 923 INTER-LIGAND FREE ENERGY PREDICTED BY IDOCK:   -3.71 KCAL/MOL
REMARK 924 INTRA-LIGAND FREE ENERGY PREDICTED BY IDOCK:   -0.38 KCAL/MOL
REMARK 927      BINDING AFFINITY PREDICTED BY RF-SCORE:    0.00 PKD
ROOT
HETATM    1  N   UNL     1      -6.077  21.086  66.471  1.00  0.00    -0.256 NA 
HETATM    2  H2  UNL     1      -5.427  21.812  66.169  1.00  0.00     0.000 HD 
HETATM    3  C   UNL     1      -6.542  20.218  65.551  1.00  0.00    -0.265 C  
HETATM    4  H1  UNL     1      -6.344  21.054  67.455  1.00  0.00     0.000 HD 
HETATM    5  N   UNL     1      -6.206  20.258  64.314  1.00  0.00    -0.270 NA 
HETATM    6  N   UNL     1      -7.412  19.230  65.901  1.00  0.00    -0.282 N  
HETATM    7  H   UNL     1      -7.754  18.635  65.146  1.00  0.00     0.000 HD 
HETATM    8  H2  UNL     1      -5.555  20.984  64.011  1.00  0.00     0.000 HD 
HETATM    9  C   UNL     1      -7.882  18.949  67.172  1.00  0.00    -0.240 C  
HETATM   10  H1  UNL     1      -6.557  19.601  63.617  1.00  0.00     0.000 HD 
HETATM   11  O   UNL     1      -7.702  19.671  68.154  1.00  0.00    -0.295 OA 
ENDROOT
BRANCH   9  12
HETATM   12  C   UNL     1      -8.701  17.710  67.280  1.00  0.00    -0.235 A  
HETATM   13  N   UNL     1      -8.321  16.824  68.243  1.00  0.00    -0.205 NA 
HETATM   14  C   UNL     1      -9.039  15.678  68.243  1.00  0.00    -0.187 A  
HETATM   15 CL   UNL     1      -8.519  14.530  69.412  1.00  0.00     0.093 Cl 
HETATM   16  C   UNL     1     -10.086  15.408  67.343  1.00  0.00    -0.233 A  
HETATM   17  N   UNL     1     -10.860  14.246  67.382  1.00  0.00    -0.282 NA 
HETATM   18  N   UNL     1     -10.453  16.317  66.413  1.00  0.00    -0.306 NA 
HETATM   19  C   UNL     1      -9.750  17.474  66.374  1.00  0.00    -0.288 A  
HETATM   20  H2  UNL     1     -11.245  14.172  68.323  1.00  0.00     0.000 HD 
HETATM   21  H1  UNL     1     -11.619  14.050  66.729  1.00  0.00     0.000 HD 
HETATM   22  N   UNL     1     -10.228  18.427  65.478  1.00  0.00    -0.462 NA 
HETATM   23  H1  UNL     1     -10.989  18.256  64.821  1.00  0.00     0.000 HD 
HETATM   24  H2  UNL     1      -9.430  18.756  64.934  1.00  0.00     0.000 HD 
ENDBRANCH   9  12
TORSDOF 1
ENDMDL
MODEL      196
REMARK 921   NORMALIZED FREE ENERGY PREDICTED BY IDOCK:   -3.49 KCAL/MOL
REMARK 922        TOTAL FREE ENERGY PREDICTED BY IDOCK:   -4.06 KCAL/MOL
REMARK 923 INTER-LIGAND FREE ENERGY PREDICTED BY IDOCK:   -3.67 KCAL/MOL
REMARK 924 INTRA-LIGAND FREE ENERGY PREDICTED BY IDOCK:   -0.39 KCAL/MOL
REMARK 927      BINDING AFFINITY PREDICTED BY RF-SCORE:    0.00 PKD
ROOT
HETATM    1  N   UNL     1      -9.839  11.575  68.384  1.00  0.00    -0.199 NA 
HETATM    2  H2  UNL     1     -10.032  12.551  68.611  1.00  0.00     0.000 HD 
HETATM    3  C   UNL     1     -10.845  10.817  67.903  1.00  0.00    -0.264 C  
HETATM    4  H1  UNL     1      -8.893  11.221  68.532  1.00  0.00     0.000 HD 
HETATM    5  N   UNL     1     -12.033  11.261  67.717  1.00  0.00    -0.635 NA 
HETATM    6  N   UNL     1     -10.640   9.508  67.584  1.00  0.00    -0.265 N  
HETATM    7  H   UNL     1     -11.454   8.984  67.264  1.00  0.00     0.000 HD 
HETATM    8  H2  UNL     1     -12.227  12.237  67.944  1.00  0.00     0.000 HD 
HETATM    9  C   UNL     1      -9.444   8.815  67.648  1.00  0.00    -0.141 C  
HETATM   10  H1  UNL     1     -12.794  10.688  67.353  1.00  0.00     0.000 HD 
HETATM   11  O   UNL     1      -8.415   9.251  68.168  1.00  0.00    -0.119 OA 
ENDROOT
BRANCH   9  12
HETATM   12  C   UNL     1      -9.485   7.437  67.085  1.00  0.00    -0.149 A  
HETATM   13  N   UNL     1      -8.585   7.166  66.098  1.00  0.00    -0.141 NA 
HETATM   14  C   UNL     1      -8.721   5.933  65.561  1.00  0.00    -0.129 A  
HETATM   15 CL   UNL     1      -7.632   5.612  64.270  1.00  0.00    -0.074 Cl 
HETATM   16  C   UNL     1      -9.693   5.000  65.969  1.00  0.00    -0.180 A  
HETATM   17  N   UNL     1      -9.793   3.709  65.448  1.00  0.00    -0.347 NA 
HETATM   18  N   UNL     1     -10.556   5.292  66.966  1.00  0.00    -0.231 NA 
HETATM   19  C   UNL     1     -10.459   6.523  67.524  1.00  0.00    -0.240 A  
HETATM   20  H2  UNL     1      -8.883   3.265  65.563  1.00  0.00     0.000 HD 
HETATM   21  H1  UNL     1     -10.498   3.033  65.744  1.00  0.00     0.000 HD 
HETATM   22  N   UNL     1     -11.291   6.744  68.618  1.00  0.00    -0.560 NA 
HETATM   23  H1  UNL     1     -11.997   6.081  68.936  1.00  0.00     0.000 HD 
HETATM   24  H2  UNL     1     -11.764   7.634  68.462  1.00  0.00     0.000 HD 
ENDBRANCH   9  12
TORSDOF 1
ENDMDL
MODEL      197
REMARK 921   NORMALIZED FREE ENERGY PREDICTED BY IDOCK:   -3.48 KCAL/MOL
REMARK 922        TOTAL FREE ENERGY PREDICTED BY IDOCK:   -4.06 KCAL/MOL
REMARK 923 INTER-LIGAND FREE ENERGY PREDICTED BY IDOCK:   -3.66 KCAL/MOL
REMARK 924 INTRA-LIGAND FREE ENERGY PREDICTED BY IDOCK:   -0.39 KCAL/MOL
REMARK 927      BINDING AFFINITY PREDICTED BY RF-SCORE:    0.00 PKD
ROOT
HETATM    1  N   UNL     1     -10.097  12.881  67.175  1.00  0.00    -0.240 NA 
HETATM    2  H2  UNL     1     -10.232  13.788  66.727  1.00  0.00     0.000 HD 
HETATM    3  C   UNL     1     -11.046  11.938  67.014  1.00  0.00    -0.302 C  
HETATM    4  H1  UNL     1      -9.250  12.734  67.725  1.00  0.00     0.000 HD 
HETATM    5  N   UNL     1     -12.111  12.123  66.324  1.00  0.00    -0.589 NA 
HETATM    6  N   UNL     1     -10.915  10.711  67.592  1.00  0.00    -0.292 N  
HETATM    7  H   UNL     1     -11.690  10.061  67.462  1.00  0.00     0.000 HD 
HETATM    8  H2  UNL     1     -12.246  13.030  65.874  1.00  0.00     0.000 HD 
HETATM    9  C   UNL     1      -9.843  10.255  68.337  1.00  0.00    -0.156 C  
HETATM   10  H1  UNL     1     -12.829  11.409  66.201  1.00  0.00     0.000 HD 
HETATM   11  O   UNL     1      -8.914  10.966  68.726  1.00  0.00    -0.162 OA 
ENDROOT
BRANCH   9  12
HETATM   12  C   UNL     1      -9.904   8.814  68.711  1.00  0.00    -0.171 A  
HETATM   13  N   UNL     1     -10.046   7.935  67.679  1.00  0.00    -0.187 NA 
HETATM   14  C   UNL     1     -10.185   6.649  68.076  1.00  0.00    -0.167 A  
HETATM   15 CL   UNL     1     -10.433   5.545  66.782  1.00  0.00    -0.318 Cl 
HETATM   16  C   UNL     1     -10.183   6.237  69.421  1.00  0.00    -0.193 A  
HETATM   17  N   UNL     1     -10.273   4.903  69.822  1.00  0.00    -0.253 NA 
HETATM   18  N   UNL     1     -10.018   7.132  70.419  1.00  0.00    -0.187 NA 
HETATM   19  C   UNL     1      -9.886   8.433  70.064  1.00  0.00    -0.182 A  
HETATM   20  H2  UNL     1      -9.525   4.395  69.351  1.00  0.00     0.000 HD 
HETATM   21  H1  UNL     1     -10.271   4.604  70.797  1.00  0.00     0.000 HD 
HETATM   22  N   UNL     1      -9.608   9.307  71.111  1.00  0.00    -0.266 NA 
HETATM   23  H1  UNL     1      -9.595   9.031  72.092  1.00  0.00     0.000 HD 
HETATM   24  H2  UNL     1     -10.255  10.091  71.029  1.00  0.00     0.000 HD 
ENDBRANCH   9  12
TORSDOF 1
ENDMDL
MODEL      198
REMARK 921   NORMALIZED FREE ENERGY PREDICTED BY IDOCK:   -3.48 KCAL/MOL
REMARK 922        TOTAL FREE ENERGY PREDICTED BY IDOCK:   -4.05 KCAL/MOL
REMARK 923 INTER-LIGAND FREE ENERGY PREDICTED BY IDOCK:   -3.91 KCAL/MOL
REMARK 924 INTRA-LIGAND FREE ENERGY PREDICTED BY IDOCK:   -0.14 KCAL/MOL
REMARK 927      BINDING AFFINITY PREDICTED BY RF-SCORE:    0.00 PKD
ROOT
HETATM    1  N   UNL     1     -10.182  10.950  62.991  1.00  0.00    -0.711 NA 
HETATM    2  H2  UNL     1     -10.010  10.966  61.985  1.00  0.00     0.000 HD 
HETATM    3  C   UNL     1      -9.750   9.888  63.699  1.00  0.00     0.212 C  
HETATM    4  H1  UNL     1     -10.674  11.740  63.410  1.00  0.00     0.000 HD 
HETATM    5  N   UNL     1      -9.132   8.896  63.172  1.00  0.00    -0.392 NA 
HETATM    6  N   UNL     1      -9.955   9.817  65.044  1.00  0.00    -0.403 N  
HETATM    7  H   UNL     1      -9.637   8.967  65.509  1.00  0.00     0.000 HD 
HETATM    8  H2  UNL     1      -8.959   8.912  62.166  1.00  0.00     0.000 HD 
HETATM    9  C   UNL     1     -10.548  10.776  65.846  1.00  0.00    -0.147 C  
HETATM   10  H1  UNL     1      -8.804   8.093  63.708  1.00  0.00     0.000 HD 
HETATM   11  O   UNL     1     -11.131  11.775  65.418  1.00  0.00    -0.306 OA 
ENDROOT
BRANCH   9  12
HETATM   12  C   UNL     1     -10.493  10.496  67.307  1.00  0.00    -0.250 A  
HETATM   13  N   UNL     1      -9.815   9.373  67.676  1.00  0.00    -0.166 NA 
HETATM   14  C   UNL     1      -9.869   9.115  69.002  1.00  0.00    -0.174 A  
HETATM   15 CL   UNL     1      -9.072   7.663  69.463  1.00  0.00    -0.147 Cl 
HETATM   16  C   UNL     1     -10.554   9.920  69.932  1.00  0.00    -0.273 A  
HETATM   17  N   UNL     1     -10.561   9.678  71.307  1.00  0.00    -0.281 NA 
HETATM   18  N   UNL     1     -11.199  11.039  69.536  1.00  0.00    -0.258 NA 
HETATM   19  C   UNL     1     -11.177  11.326  68.213  1.00  0.00    -0.267 A  
HETATM   20  H2  UNL     1      -9.589   9.630  71.610  1.00  0.00     0.000 HD 
HETATM   21  H1  UNL     1     -11.058  10.262  71.981  1.00  0.00     0.000 HD 
HETATM   22  N   UNL     1     -11.757  12.543  67.861  1.00  0.00    -0.352 NA 
HETATM   23  H1  UNL     1     -12.253  13.145  68.518  1.00  0.00     0.000 HD 
HETATM   24  H2  UNL     1     -12.391  12.360  67.084  1.00  0.00     0.000 HD 
ENDBRANCH   9  12
TORSDOF 1
ENDMDL
MODEL      199
REMARK 921   NORMALIZED FREE ENERGY PREDICTED BY IDOCK:   -3.47 KCAL/MOL
REMARK 922        TOTAL FREE ENERGY PREDICTED BY IDOCK:   -4.05 KCAL/MOL
REMARK 923 INTER-LIGAND FREE ENERGY PREDICTED BY IDOCK:   -3.81 KCAL/MOL
REMARK 924 INTRA-LIGAND FREE ENERGY PREDICTED BY IDOCK:   -0.24 KCAL/MOL
REMARK 927      BINDING AFFINITY PREDICTED BY RF-SCORE:    0.00 PKD
ROOT
HETATM    1  N   UNL     1     -10.702  11.641  69.700  1.00  0.00    -0.447 NA 
HETATM    2  H2  UNL     1     -10.913  12.617  69.494  1.00  0.00     0.000 HD 
HETATM    3  C   UNL     1     -11.253  10.687  68.924  1.00  0.00    -0.275 C  
HETATM    4  H1  UNL     1     -10.083  11.434  70.485  1.00  0.00     0.000 HD 
HETATM    5  N   UNL     1     -12.031  10.947  67.938  1.00  0.00    -0.735 NA 
HETATM    6  N   UNL     1     -11.004   9.368  69.157  1.00  0.00    -0.403 N  
HETATM    7  H   UNL     1     -11.487   8.700  68.555  1.00  0.00     0.000 HD 
HETATM    8  H2  UNL     1     -12.242  11.924  67.731  1.00  0.00     0.000 HD 
HETATM    9  C   UNL     1     -10.166   8.839  70.122  1.00  0.00    -0.190 C  
HETATM   10  H1  UNL     1     -12.448  10.225  67.350  1.00  0.00     0.000 HD 
HETATM   11  O   UNL     1      -9.647   9.495  71.027  1.00  0.00    -0.238 OA 
ENDROOT
BRANCH   9  12
HETATM   12  C   UNL     1      -9.964   7.365  70.040  1.00  0.00    -0.185 A  
HETATM   13  N   UNL     1     -10.121   6.807  68.807  1.00  0.00    -0.154 NA 
HETATM   14  C   UNL     1     -10.015   5.459  68.802  1.00  0.00    -0.170 A  
HETATM   15 CL   UNL     1     -10.280   4.745  67.261  1.00  0.00    -0.189 Cl 
HETATM   16  C   UNL     1      -9.763   4.687  69.951  1.00  0.00    -0.209 A  
HETATM   17  N   UNL     1      -9.601   3.300  69.931  1.00  0.00    -0.149 NA 
HETATM   18  N   UNL     1      -9.590   5.273  71.156  1.00  0.00    -0.157 NA 
HETATM   19  C   UNL     1      -9.700   6.622  71.204  1.00  0.00    -0.174 A  
HETATM   20  H2  UNL     1      -8.861   3.093  69.261  1.00  0.00     0.000 HD 
HETATM   21  H1  UNL     1      -9.418   2.740  70.764  1.00  0.00     0.000 HD 
HETATM   22  N   UNL     1      -9.406   7.196  72.439  1.00  0.00    -0.135 NA 
HETATM   23  H1  UNL     1      -9.215   6.657  73.283  1.00  0.00     0.000 HD 
HETATM   24  H2  UNL     1     -10.166   7.840  72.660  1.00  0.00     0.000 HD 
ENDBRANCH   9  12
TORSDOF 1
ENDMDL
MODEL      200
REMARK 921   NORMALIZED FREE ENERGY PREDICTED BY IDOCK:   -3.44 KCAL/MOL
REMARK 922        TOTAL FREE ENERGY PREDICTED BY IDOCK:   -4.02 KCAL/MOL
REMARK 923 INTER-LIGAND FREE ENERGY PREDICTED BY IDOCK:   -3.66 KCAL/MOL
REMARK 924 INTRA-LIGAND FREE ENERGY PREDICTED BY IDOCK:   -0.36 KCAL/MOL
REMARK 927      BINDING AFFINITY PREDICTED BY RF-SCORE:    0.00 PKD
ROOT
HETATM    1  N   UNL     1     -11.916  16.153  69.683  1.00  0.00    -0.274 NA 
HETATM    2  H2  UNL     1     -12.169  17.007  70.179  1.00  0.00     0.000 HD 
HETATM    3  C   UNL     1     -10.848  16.180  68.861  1.00  0.00    -0.305 C  
HETATM    4  H1  UNL     1     -12.485  15.319  69.833  1.00  0.00     0.000 HD 
HETATM    5  N   UNL     1     -10.133  17.228  68.673  1.00  0.00    -0.321 NA 
HETATM    6  N   UNL     1     -10.468  15.067  68.174  1.00  0.00    -0.241 N  
HETATM    7  H   UNL     1      -9.675  15.170  67.540  1.00  0.00     0.000 HD 
HETATM    8  H2  UNL     1     -10.385  18.083  69.169  1.00  0.00     0.000 HD 
HETATM    9  C   UNL     1     -11.042  13.810  68.246  1.00  0.00    -0.255 C  
HETATM   10  H1  UNL     1      -9.324  17.249  68.051  1.00  0.00     0.000 HD 
HETATM   11  O   UNL     1     -12.100  13.562  68.828  1.00  0.00    -0.344 OA 
ENDROOT
BRANCH   9  12
HETATM   12  C   UNL     1     -10.317  12.743  67.501  1.00  0.00    -0.219 A  
HETATM   13  N   UNL     1      -9.169  12.287  68.077  1.00  0.00    -0.190 NA 
HETATM   14  C   UNL     1      -8.503  11.384  67.322  1.00  0.00    -0.148 A  
HETATM   15 CL   UNL     1      -7.020  10.857  68.013  1.00  0.00    -0.071 Cl 
HETATM   16  C   UNL     1      -8.939  10.943  66.059  1.00  0.00    -0.186 A  
HETATM   17  N   UNL     1      -8.275   9.971  65.308  1.00  0.00    -0.141 NA 
HETATM   18  N   UNL     1     -10.093  11.399  65.526  1.00  0.00    -0.236 NA 
HETATM   19  C   UNL     1     -10.785  12.313  66.247  1.00  0.00    -0.259 A  
HETATM   20  H2  UNL     1      -8.180   9.146  65.899  1.00  0.00     0.000 HD 
HETATM   21  H1  UNL     1      -8.591   9.650  64.392  1.00  0.00     0.000 HD 
HETATM   22  N   UNL     1     -12.021  12.674  65.717  1.00  0.00    -0.466 NA 
HETATM   23  H1  UNL     1     -12.360  12.362  64.807  1.00  0.00     0.000 HD 
HETATM   24  H2  UNL     1     -12.063  13.693  65.719  1.00  0.00     0.000 HD 
ENDBRANCH   9  12
TORSDOF 1
ENDMDL
MODEL      201
REMARK 921   NORMALIZED FREE ENERGY PREDICTED BY IDOCK:   -3.44 KCAL/MOL
REMARK 922        TOTAL FREE ENERGY PREDICTED BY IDOCK:   -4.02 KCAL/MOL
REMARK 923 INTER-LIGAND FREE ENERGY PREDICTED BY IDOCK:   -3.62 KCAL/MOL
REMARK 924 INTRA-LIGAND FREE ENERGY PREDICTED BY IDOCK:   -0.40 KCAL/MOL
REMARK 927      BINDING AFFINITY PREDICTED BY RF-SCORE:    0.00 PKD
ROOT
HETATM    1  N   UNL     1     -14.263   8.961  70.983  1.00  0.00    -0.536 NA 
HETATM    2  H2  UNL     1     -15.271   9.096  71.071  1.00  0.00     0.000 HD 
HETATM    3  C   UNL     1     -13.718   7.846  71.508  1.00  0.00    -0.322 C  
HETATM    4  H1  UNL     1     -13.718   9.678  70.503  1.00  0.00     0.000 HD 
HETATM    5  N   UNL     1     -14.403   6.945  72.111  1.00  0.00    -0.634 NA 
HETATM    6  N   UNL     1     -12.377   7.617  71.419  1.00  0.00    -0.325 N  
HETATM    7  H   UNL     1     -12.028   6.773  71.873  1.00  0.00     0.000 HD 
HETATM    8  H2  UNL     1     -15.411   7.080  72.198  1.00  0.00     0.000 HD 
HETATM    9  C   UNL     1     -11.441   8.409  70.778  1.00  0.00    -0.255 C  
HETATM   10  H1  UNL     1     -13.990   6.101  72.507  1.00  0.00     0.000 HD 
HETATM   11  O   UNL     1     -11.671   9.535  70.332  1.00  0.00    -0.247 OA 
ENDROOT
BRANCH   9  12
HETATM   12  C   UNL     1     -10.071   7.828  70.706  1.00  0.00    -0.192 A  
HETATM   13  N   UNL     1      -9.107   8.480  71.415  1.00  0.00    -0.185 NA 
HETATM   14  C   UNL     1      -7.867   7.968  71.248  1.00  0.00    -0.091 A  
HETATM   15 CL   UNL     1      -6.638   8.829  72.086  1.00  0.00    -0.071 Cl 
HETATM   16  C   UNL     1      -7.579   6.863  70.425  1.00  0.00    -0.088 A  
HETATM   17  N   UNL     1      -6.305   6.305  70.298  1.00  0.00    -0.035 NA 
HETATM   18  N   UNL     1      -8.561   6.225  69.752  1.00  0.00    -0.135 NA 
HETATM   19  C   UNL     1      -9.816   6.715  69.886  1.00  0.00    -0.167 A  
HETATM   20  H2  UNL     1      -5.982   6.073  71.237  1.00  0.00     0.000 HD 
HETATM   21  H1  UNL     1      -6.096   5.503  69.702  1.00  0.00     0.000 HD 
HETATM   22  N   UNL     1     -10.814   5.966  69.267  1.00  0.00    -0.335 NA 
HETATM   23  H1  UNL     1     -10.629   5.159  68.672  1.00  0.00     0.000 HD 
HETATM   24  H2  UNL     1     -11.385   6.614  68.725  1.00  0.00     0.000 HD 
ENDBRANCH   9  12
TORSDOF 1
ENDMDL
MODEL      202
REMARK 921   NORMALIZED FREE ENERGY PREDICTED BY IDOCK:   -3.37 KCAL/MOL
REMARK 922        TOTAL FREE ENERGY PREDICTED BY IDOCK:   -3.94 KCAL/MOL
REMARK 923 INTER-LIGAND FREE ENERGY PREDICTED BY IDOCK:   -3.57 KCAL/MOL
REMARK 924 INTRA-LIGAND FREE ENERGY PREDICTED BY IDOCK:   -0.37 KCAL/MOL
REMARK 927      BINDING AFFINITY PREDICTED BY RF-SCORE:    0.00 PKD
ROOT
HETATM    1  N   UNL     1     -14.277   9.079  70.900  1.00  0.00    -0.484 NA 
HETATM    2  H2  UNL     1     -15.262   8.843  71.024  1.00  0.00     0.000 HD 
HETATM    3  C   UNL     1     -13.349   8.205  71.339  1.00  0.00    -0.210 C  
HETATM    4  H1  UNL     1     -14.043   9.964  70.451  1.00  0.00     0.000 HD 
HETATM    5  N   UNL     1     -13.643   7.092  71.904  1.00  0.00    -0.549 NA 
HETATM    6  N   UNL     1     -12.020   8.472  71.200  1.00  0.00    -0.308 N  
HETATM    7  H   UNL     1     -11.374   7.786  71.591  1.00  0.00     0.000 HD 
HETATM    8  H2  UNL     1     -14.628   6.856  72.027  1.00  0.00     0.000 HD 
HETATM    9  C   UNL     1     -11.454   9.574  70.584  1.00  0.00    -0.297 C  
HETATM   10  H1  UNL     1     -12.940   6.431  72.236  1.00  0.00     0.000 HD 
HETATM   11  O   UNL     1     -12.087  10.565  70.215  1.00  0.00    -0.282 OA 
ENDROOT
BRANCH   9  12
HETATM   12  C   UNL     1      -9.973   9.522  70.439  1.00  0.00    -0.267 A  
HETATM   13  N   UNL     1      -9.295   8.901  71.444  1.00  0.00    -0.258 NA 
HETATM   14  C   UNL     1      -7.950   8.957  71.310  1.00  0.00    -0.129 A  
HETATM   15 CL   UNL     1      -7.090   8.235  72.611  1.00  0.00    -0.119 Cl 
HETATM   16  C   UNL     1      -7.293   9.590  70.238  1.00  0.00    -0.133 A  
HETATM   17  N   UNL     1      -5.906   9.598  70.077  1.00  0.00    -0.040 NA 
HETATM   18  N   UNL     1      -7.996  10.177  69.245  1.00  0.00    -0.125 NA 
HETATM   19  C   UNL     1      -9.346  10.152  69.349  1.00  0.00    -0.219 A  
HETATM   20  H2  UNL     1      -5.596   8.627  70.089  1.00  0.00     0.000 HD 
HETATM   21  H1  UNL     1      -5.430  10.056  69.300  1.00  0.00     0.000 HD 
HETATM   22  N   UNL     1     -10.034  10.669  68.254  1.00  0.00    -0.154 NA 
HETATM   23  H1  UNL     1      -9.579  11.125  67.464  1.00  0.00     0.000 HD 
HETATM   24  H2  UNL     1     -10.732  11.319  68.616  1.00  0.00     0.000 HD 
ENDBRANCH   9  12
TORSDOF 1
ENDMDL
MODEL      203
REMARK 921   NORMALIZED FREE ENERGY PREDICTED BY IDOCK:   -3.35 KCAL/MOL
REMARK 922        TOTAL FREE ENERGY PREDICTED BY IDOCK:   -3.92 KCAL/MOL
REMARK 923 INTER-LIGAND FREE ENERGY PREDICTED BY IDOCK:   -3.53 KCAL/MOL
REMARK 924 INTRA-LIGAND FREE ENERGY PREDICTED BY IDOCK:   -0.39 KCAL/MOL
REMARK 927      BINDING AFFINITY PREDICTED BY RF-SCORE:    0.00 PKD
ROOT
HETATM    1  N   UNL     1      -5.607  11.881  68.307  1.00  0.00    -0.049 NA 
HETATM    2  H2  UNL     1      -5.037  11.039  68.395  1.00  0.00     0.000 HD 
HETATM    3  C   UNL     1      -6.322  12.286  69.376  1.00  0.00    -0.118 C  
HETATM    4  H1  UNL     1      -5.608  12.375  67.415  1.00  0.00     0.000 HD 
HETATM    5  N   UNL     1      -6.321  11.665  70.498  1.00  0.00    -0.523 NA 
HETATM    6  N   UNL     1      -7.099  13.403  69.312  1.00  0.00    -0.296 N  
HETATM    7  H   UNL     1      -7.643  13.628  70.145  1.00  0.00     0.000 HD 
HETATM    8  H2  UNL     1      -5.751  10.823  70.586  1.00  0.00     0.000 HD 
HETATM    9  C   UNL     1      -7.227  14.265  68.238  1.00  0.00    -0.117 C  
HETATM   10  H1  UNL     1      -6.861  11.972  71.307  1.00  0.00     0.000 HD 
HETATM   11  O   UNL     1      -6.774  14.045  67.112  1.00  0.00    -0.168 OA 
ENDROOT
BRANCH   9  12
HETATM   12  C   UNL     1      -8.025  15.494  68.509  1.00  0.00    -0.137 A  
HETATM   13  N   UNL     1      -9.262  15.297  69.044  1.00  0.00    -0.210 NA 
HETATM   14  C   UNL     1      -9.979  16.435  69.189  1.00  0.00    -0.273 A  
HETATM   15 CL   UNL     1     -11.567  16.184  69.800  1.00  0.00    -0.291 Cl 
HETATM   16  C   UNL     1      -9.508  17.711  68.830  1.00  0.00    -0.250 A  
HETATM   17  N   UNL     1     -10.232  18.888  69.032  1.00  0.00    -0.513 NA 
HETATM   18  N   UNL     1      -8.267  17.874  68.322  1.00  0.00    -0.282 NA 
HETATM   19  C   UNL     1      -7.521  16.757  68.151  1.00  0.00    -0.171 A  
HETATM   20  H2  UNL     1     -10.478  18.925  70.021  1.00  0.00     0.000 HD 
HETATM   21  H1  UNL     1      -9.891  19.813  68.772  1.00  0.00     0.000 HD 
HETATM   22  N   UNL     1      -6.212  16.977  67.731  1.00  0.00    -0.134 NA 
HETATM   23  H1  UNL     1      -5.847  17.893  67.472  1.00  0.00     0.000 HD 
HETATM   24  H2  UNL     1      -6.039  16.352  66.944  1.00  0.00     0.000 HD 
ENDBRANCH   9  12
TORSDOF 1
ENDMDL
MODEL      204
REMARK 921   NORMALIZED FREE ENERGY PREDICTED BY IDOCK:   -3.30 KCAL/MOL
REMARK 922        TOTAL FREE ENERGY PREDICTED BY IDOCK:   -3.87 KCAL/MOL
REMARK 923 INTER-LIGAND FREE ENERGY PREDICTED BY IDOCK:   -3.66 KCAL/MOL
REMARK 924 INTRA-LIGAND FREE ENERGY PREDICTED BY IDOCK:   -0.21 KCAL/MOL
REMARK 927      BINDING AFFINITY PREDICTED BY RF-SCORE:    0.00 PKD
ROOT
HETATM    1  N   UNL     1      -9.967   9.600  65.687  1.00  0.00    -0.314 NA 
HETATM    2  H2  UNL     1      -9.937  10.145  64.825  1.00  0.00     0.000 HD 
HETATM    3  C   UNL     1     -10.405  10.201  66.811  1.00  0.00    -0.222 C  
HETATM    4  H1  UNL     1      -9.663   8.626  65.656  1.00  0.00     0.000 HD 
HETATM    5  N   UNL     1     -10.786  11.424  66.851  1.00  0.00    -0.272 NA 
HETATM    6  N   UNL     1     -10.464   9.519  67.989  1.00  0.00    -0.219 N  
HETATM    7  H   UNL     1     -10.767  10.047  68.807  1.00  0.00     0.000 HD 
HETATM    8  H2  UNL     1     -10.757  11.970  65.988  1.00  0.00     0.000 HD 
HETATM    9  C   UNL     1     -10.157   8.185  68.192  1.00  0.00    -0.198 C  
HETATM   10  H1  UNL     1     -11.119  11.879  67.701  1.00  0.00     0.000 HD 
HETATM   11  O   UNL     1      -9.620   7.460  67.353  1.00  0.00    -0.138 OA 
ENDROOT
BRANCH   9  12
HETATM   12  C   UNL     1     -10.468   7.669  69.555  1.00  0.00    -0.227 A  
HETATM   13  N   UNL     1     -11.399   8.369  70.262  1.00  0.00    -0.190 NA 
HETATM   14  C   UNL     1     -11.581   7.914  71.522  1.00  0.00    -0.270 A  
HETATM   15 CL   UNL     1     -12.705   8.835  72.440  1.00  0.00    -0.454 Cl 
HETATM   16  C   UNL     1     -10.885   6.820  72.070  1.00  0.00    -0.227 A  
HETATM   17  N   UNL     1     -11.116   6.321  73.354  1.00  0.00    -0.462 NA 
HETATM   18  N   UNL     1      -9.984   6.134  71.335  1.00  0.00    -0.185 NA 
HETATM   19  C   UNL     1      -9.765   6.565  70.070  1.00  0.00    -0.165 A  
HETATM   20  H2  UNL     1     -12.111   6.110  73.421  1.00  0.00     0.000 HD 
HETATM   21  H1  UNL     1     -10.612   5.528  73.751  1.00  0.00     0.000 HD 
HETATM   22  N   UNL     1      -8.913   5.767  69.311  1.00  0.00    -0.118 NA 
HETATM   23  H1  UNL     1      -8.404   4.967  69.684  1.00  0.00     0.000 HD 
HETATM   24  H2  UNL     1      -8.226   6.385  68.879  1.00  0.00     0.000 HD 
ENDBRANCH   9  12
TORSDOF 1
ENDMDL
MODEL      205
REMARK 921   NORMALIZED FREE ENERGY PREDICTED BY IDOCK:   -3.29 KCAL/MOL
REMARK 922        TOTAL FREE ENERGY PREDICTED BY IDOCK:   -3.86 KCAL/MOL
REMARK 923 INTER-LIGAND FREE ENERGY PREDICTED BY IDOCK:   -3.53 KCAL/MOL
REMARK 924 INTRA-LIGAND FREE ENERGY PREDICTED BY IDOCK:   -0.33 KCAL/MOL
REMARK 927      BINDING AFFINITY PREDICTED BY RF-SCORE:    0.00 PKD
ROOT
HETATM    1  N   UNL     1     -13.526  12.255  72.358  1.00  0.00    -0.557 NA 
HETATM    2  H2  UNL     1     -14.136  11.534  72.745  1.00  0.00     0.000 HD 
HETATM    3  C   UNL     1     -12.830  11.973  71.238  1.00  0.00    -0.265 C  
HETATM    4  H1  UNL     1     -13.474  13.154  72.838  1.00  0.00     0.000 HD 
HETATM    5  N   UNL     1     -12.896  10.844  70.636  1.00  0.00    -0.293 NA 
HETATM    6  N   UNL     1     -12.001  12.900  70.681  1.00  0.00    -0.524 N  
HETATM    7  H   UNL     1     -11.475  12.605  69.859  1.00  0.00     0.000 HD 
HETATM    8  H2  UNL     1     -13.507  10.122  71.022  1.00  0.00     0.000 HD 
HETATM    9  C   UNL     1     -11.798  14.199  71.113  1.00  0.00    -0.135 C  
HETATM   10  H1  UNL     1     -12.370  10.630  69.788  1.00  0.00     0.000 HD 
HETATM   11  O   UNL     1     -12.223  14.651  72.178  1.00  0.00    -0.330 OA 
ENDROOT
BRANCH   9  12
HETATM   12  C   UNL     1     -10.955  15.035  70.214  1.00  0.00    -0.209 A  
HETATM   13  N   UNL     1      -9.626  14.735  70.190  1.00  0.00     0.434 NA 
HETATM   14  C   UNL     1      -8.891  15.577  69.428  1.00  0.00    -0.257 A  
HETATM   15 CL   UNL     1      -7.205  15.244  69.450  1.00  0.00    -0.186 Cl 
HETATM   16  C   UNL     1      -9.430  16.665  68.717  1.00  0.00    -0.258 A  
HETATM   17  N   UNL     1      -8.675  17.499  67.889  1.00  0.00    -0.241 NA 
HETATM   18  N   UNL     1     -10.756  16.922  68.744  1.00  0.00    -0.341 NA 
HETATM   19  C   UNL     1     -11.525  16.107  69.505  1.00  0.00    -0.292 A  
HETATM   20  H2  UNL     1      -8.200  16.902  67.213  1.00  0.00     0.000 HD 
HETATM   21  H1  UNL     1      -9.066  18.287  67.373  1.00  0.00     0.000 HD 
HETATM   22  N   UNL     1     -12.896  16.337  69.419  1.00  0.00    -0.075 NA 
HETATM   23  H1  UNL     1     -13.309  17.114  68.905  1.00  0.00     0.000 HD 
HETATM   24  H2  UNL     1     -13.254  16.383  70.373  1.00  0.00     0.000 HD 
ENDBRANCH   9  12
TORSDOF 1
ENDMDL
MODEL      206
REMARK 921   NORMALIZED FREE ENERGY PREDICTED BY IDOCK:   -3.28 KCAL/MOL
REMARK 922        TOTAL FREE ENERGY PREDICTED BY IDOCK:   -3.85 KCAL/MOL
REMARK 923 INTER-LIGAND FREE ENERGY PREDICTED BY IDOCK:   -3.70 KCAL/MOL
REMARK 924 INTRA-LIGAND FREE ENERGY PREDICTED BY IDOCK:   -0.15 KCAL/MOL
REMARK 927      BINDING AFFINITY PREDICTED BY RF-SCORE:    0.00 PKD
ROOT
HETATM    1  N   UNL     1      -9.505   7.320  74.346  1.00  0.00    -0.428 NA 
HETATM    2  H2  UNL     1      -9.295   6.787  75.190  1.00  0.00     0.000 HD 
HETATM    3  C   UNL     1      -8.501   7.987  73.742  1.00  0.00    -0.257 C  
HETATM    4  H1  UNL     1     -10.465   7.321  74.000  1.00  0.00     0.000 HD 
HETATM    5  N   UNL     1      -7.295   7.986  74.177  1.00  0.00    -0.151 NA 
HETATM    6  N   UNL     1      -8.728   8.714  72.612  1.00  0.00    -0.130 N  
HETATM    7  H   UNL     1      -7.932   9.226  72.233  1.00  0.00     0.000 HD 
HETATM    8  H2  UNL     1      -7.085   7.453  75.022  1.00  0.00     0.000 HD 
HETATM    9  C   UNL     1      -9.924   8.831  71.926  1.00  0.00    -0.331 C  
HETATM   10  H1  UNL     1      -6.536   8.490  73.720  1.00  0.00     0.000 HD 
HETATM   11  O   UNL     1     -11.008   8.418  72.343  1.00  0.00    -0.339 OA 
ENDROOT
BRANCH   9  12
HETATM   12  C   UNL     1      -9.837   9.565  70.633  1.00  0.00    -0.262 A  
HETATM   13  N   UNL     1      -8.580   9.816  70.170  1.00  0.00    -0.208 NA 
HETATM   14  C   UNL     1      -8.554  10.559  69.041  1.00  0.00    -0.157 A  
HETATM   15 CL   UNL     1      -6.969  10.936  68.492  1.00  0.00    -0.069 Cl 
HETATM   16  C   UNL     1      -9.705  11.036  68.387  1.00  0.00    -0.180 A  
HETATM   17  N   UNL     1      -9.674  11.757  67.192  1.00  0.00    -0.182 NA 
HETATM   18  N   UNL     1     -10.938  10.750  68.860  1.00  0.00    -0.222 NA 
HETATM   19  C   UNL     1     -11.007  10.016  69.996  1.00  0.00    -0.300 A  
HETATM   20  H2  UNL     1      -9.154  11.198  66.516  1.00  0.00     0.000 HD 
HETATM   21  H1  UNL     1     -10.509  12.102  66.718  1.00  0.00     0.000 HD 
HETATM   22  N   UNL     1     -12.292   9.651  70.389  1.00  0.00    -0.482 NA 
HETATM   23  H1  UNL     1     -13.140   9.979  69.927  1.00  0.00     0.000 HD 
HETATM   24  H2  UNL     1     -12.381   9.880  71.379  1.00  0.00     0.000 HD 
ENDBRANCH   9  12
TORSDOF 1
ENDMDL
MODEL      207
REMARK 921   NORMALIZED FREE ENERGY PREDICTED BY IDOCK:   -3.25 KCAL/MOL
REMARK 922        TOTAL FREE ENERGY PREDICTED BY IDOCK:   -3.82 KCAL/MOL
REMARK 923 INTER-LIGAND FREE ENERGY PREDICTED BY IDOCK:   -3.44 KCAL/MOL
REMARK 924 INTRA-LIGAND FREE ENERGY PREDICTED BY IDOCK:   -0.38 KCAL/MOL
REMARK 927      BINDING AFFINITY PREDICTED BY RF-SCORE:    0.00 PKD
ROOT
HETATM    1  N   UNL     1      -7.701   7.163  72.687  1.00  0.00    -0.087 NA 
HETATM    2  H2  UNL     1      -7.395   6.486  73.387  1.00  0.00     0.000 HD 
HETATM    3  C   UNL     1      -8.773   6.862  71.928  1.00  0.00    -0.126 C  
HETATM    4  H1  UNL     1      -7.178   8.035  72.596  1.00  0.00     0.000 HD 
HETATM    5  N   UNL     1      -9.429   5.767  72.042  1.00  0.00    -0.150 NA 
HETATM    6  N   UNL     1      -9.222   7.731  70.979  1.00  0.00    -0.150 N  
HETATM    7  H   UNL     1     -10.013   7.421  70.415  1.00  0.00     0.000 HD 
HETATM    8  H2  UNL     1      -9.124   5.089  72.743  1.00  0.00     0.000 HD 
HETATM    9  C   UNL     1      -8.718   8.989  70.701  1.00  0.00    -0.213 C  
HETATM   10  H1  UNL     1     -10.242   5.539  71.469  1.00  0.00     0.000 HD 
HETATM   11  O   UNL     1      -7.671   9.438  71.170  1.00  0.00    -0.318 OA 
ENDROOT
BRANCH   9  12
HETATM   12  C   UNL     1      -9.510   9.780  69.717  1.00  0.00    -0.228 A  
HETATM   13  N   UNL     1      -8.821  10.263  68.645  1.00  0.00    -0.130 NA 
HETATM   14  C   UNL     1      -9.563  11.046  67.830  1.00  0.00    -0.170 A  
HETATM   15 CL   UNL     1      -8.682  11.712  66.513  1.00  0.00    -0.187 Cl 
HETATM   16  C   UNL     1     -10.921  11.343  68.048  1.00  0.00    -0.237 A  
HETATM   17  N   UNL     1     -11.696  12.108  67.174  1.00  0.00    -0.538 NA 
HETATM   18  N   UNL     1     -11.581  10.830  69.109  1.00  0.00    -0.297 NA 
HETATM   19  C   UNL     1     -10.869  10.049  69.957  1.00  0.00    -0.302 A  
HETATM   20  H2  UNL     1     -11.627  11.676  66.253  1.00  0.00     0.000 HD 
HETATM   21  H1  UNL     1     -12.681  12.323  67.332  1.00  0.00     0.000 HD 
HETATM   22  N   UNL     1     -11.609   9.451  70.974  1.00  0.00    -0.305 NA 
HETATM   23  H1  UNL     1     -12.594   9.646  71.147  1.00  0.00     0.000 HD 
HETATM   24  H2  UNL     1     -11.111   9.620  71.848  1.00  0.00     0.000 HD 
ENDBRANCH   9  12
TORSDOF 1
ENDMDL
MODEL      208
REMARK 921   NORMALIZED FREE ENERGY PREDICTED BY IDOCK:   -3.23 KCAL/MOL
REMARK 922        TOTAL FREE ENERGY PREDICTED BY IDOCK:   -3.79 KCAL/MOL
REMARK 923 INTER-LIGAND FREE ENERGY PREDICTED BY IDOCK:   -3.88 KCAL/MOL
REMARK 924 INTRA-LIGAND FREE ENERGY PREDICTED BY IDOCK:    0.09 KCAL/MOL
REMARK 927      BINDING AFFINITY PREDICTED BY RF-SCORE:    0.00 PKD
ROOT
HETATM    1  N   UNL     1     -10.051  11.126  68.419  1.00  0.00    -0.178 NA 
HETATM    2  H2  UNL     1     -10.241  10.166  68.707  1.00  0.00     0.000 HD 
HETATM    3  C   UNL     1     -10.882  12.100  68.843  1.00  0.00    -0.200 C  
HETATM    4  H1  UNL     1      -9.241  11.302  67.823  1.00  0.00     0.000 HD 
HETATM    5  N   UNL     1     -11.899  11.878  69.591  1.00  0.00    -0.328 NA 
HETATM    6  N   UNL     1     -10.674  13.398  68.486  1.00  0.00    -0.257 N  
HETATM    7  H   UNL     1     -11.364  14.076  68.810  1.00  0.00     0.000 HD 
HETATM    8  H2  UNL     1     -12.089  10.918  69.880  1.00  0.00     0.000 HD 
HETATM    9  C   UNL     1      -9.625  13.894  67.733  1.00  0.00    -0.222 C  
HETATM   10  H1  UNL     1     -12.527  12.615  69.913  1.00  0.00     0.000 HD 
HETATM   11  O   UNL     1      -8.809  13.194  67.131  1.00  0.00    -0.207 OA 
ENDROOT
BRANCH   9  12
HETATM   12  C   UNL     1      -9.568  15.380  67.635  1.00  0.00    -0.210 A  
HETATM   13  N   UNL     1      -8.374  15.909  67.246  1.00  0.00    -0.173 NA 
HETATM   14  C   UNL     1      -8.348  17.261  67.258  1.00  0.00    -0.201 A  
HETATM   15 CL   UNL     1      -6.824  17.932  66.834  1.00  0.00    -0.198 Cl 
HETATM   16  C   UNL     1      -9.442  18.064  67.631  1.00  0.00    -0.264 A  
HETATM   17  N   UNL     1      -9.426  19.460  67.590  1.00  0.00    -0.305 NA 
HETATM   18  N   UNL     1     -10.619  17.508  67.991  1.00  0.00    -0.389 NA 
HETATM   19  C   UNL     1     -10.683  16.155  68.002  1.00  0.00    -0.321 A  
HETATM   20  H2  UNL     1      -9.163  19.731  66.643  1.00  0.00     0.000 HD 
HETATM   21  H1  UNL     1     -10.219  20.042  67.860  1.00  0.00     0.000 HD 
HETATM   22  N   UNL     1     -11.941  15.623  68.270  1.00  0.00    -0.428 NA 
HETATM   23  H1  UNL     1     -12.749  16.186  68.536  1.00  0.00     0.000 HD 
HETATM   24  H2  UNL     1     -11.821  14.912  68.991  1.00  0.00     0.000 HD 
ENDBRANCH   9  12
TORSDOF 1
ENDMDL
MODEL      209
REMARK 921   NORMALIZED FREE ENERGY PREDICTED BY IDOCK:   -3.23 KCAL/MOL
REMARK 922        TOTAL FREE ENERGY PREDICTED BY IDOCK:   -3.79 KCAL/MOL
REMARK 923 INTER-LIGAND FREE ENERGY PREDICTED BY IDOCK:   -3.39 KCAL/MOL
REMARK 924 INTRA-LIGAND FREE ENERGY PREDICTED BY IDOCK:   -0.40 KCAL/MOL
REMARK 927      BINDING AFFINITY PREDICTED BY RF-SCORE:    0.00 PKD
ROOT
HETATM    1  N   UNL     1     -10.432  11.703  64.911  1.00  0.00    -0.274 NA 
HETATM    2  H2  UNL     1     -10.518  12.342  64.121  1.00  0.00     0.000 HD 
HETATM    3  C   UNL     1     -10.090  10.422  64.667  1.00  0.00    -0.308 C  
HETATM    4  H1  UNL     1     -10.610  12.065  65.849  1.00  0.00     0.000 HD 
HETATM    5  N   UNL     1      -9.866   9.967  63.489  1.00  0.00    -0.500 NA 
HETATM    6  N   UNL     1      -9.962   9.528  65.687  1.00  0.00    -0.368 N  
HETATM    7  H   UNL     1      -9.740   8.567  65.425  1.00  0.00     0.000 HD 
HETATM    8  H2  UNL     1      -9.952  10.606  62.698  1.00  0.00     0.000 HD 
HETATM    9  C   UNL     1     -10.101   9.785  67.039  1.00  0.00    -0.218 C  
HETATM   10  H1  UNL     1      -9.607   8.998  63.304  1.00  0.00     0.000 HD 
HETATM   11  O   UNL     1     -10.529  10.843  67.505  1.00  0.00    -0.192 OA 
ENDROOT
BRANCH   9  12
HETATM   12  C   UNL     1      -9.747   8.648  67.935  1.00  0.00    -0.161 A  
HETATM   13  N   UNL     1     -10.770   8.121  68.664  1.00  0.00    -0.094 NA 
HETATM   14  C   UNL     1     -10.383   7.153  69.525  1.00  0.00    -0.215 A  
HETATM   15 CL   UNL     1     -11.659   6.532  70.495  1.00  0.00    -0.443 Cl 
HETATM   16  C   UNL     1      -9.053   6.714  69.666  1.00  0.00    -0.142 A  
HETATM   17  N   UNL     1      -8.668   5.677  70.518  1.00  0.00    -0.135 NA 
HETATM   18  N   UNL     1      -8.065   7.243  68.912  1.00  0.00    -0.126 NA 
HETATM   19  C   UNL     1      -8.411   8.224  68.045  1.00  0.00    -0.132 A  
HETATM   20  H2  UNL     1      -9.229   4.861  70.273  1.00  0.00     0.000 HD 
HETATM   21  H1  UNL     1      -7.704   5.359  70.620  1.00  0.00     0.000 HD 
HETATM   22  N   UNL     1      -7.388   8.664  67.209  1.00  0.00    -0.087 NA 
HETATM   23  H1  UNL     1      -6.419   8.356  67.290  1.00  0.00     0.000 HD 
HETATM   24  H2  UNL     1      -7.383   9.683  67.250  1.00  0.00     0.000 HD 
ENDBRANCH   9  12
TORSDOF 1
ENDMDL
MODEL      210
REMARK 921   NORMALIZED FREE ENERGY PREDICTED BY IDOCK:   -3.21 KCAL/MOL
REMARK 922        TOTAL FREE ENERGY PREDICTED BY IDOCK:   -3.77 KCAL/MOL
REMARK 923 INTER-LIGAND FREE ENERGY PREDICTED BY IDOCK:   -3.37 KCAL/MOL
REMARK 924 INTRA-LIGAND FREE ENERGY PREDICTED BY IDOCK:   -0.40 KCAL/MOL
REMARK 927      BINDING AFFINITY PREDICTED BY RF-SCORE:    0.00 PKD
ROOT
HETATM    1  N   UNL     1     -12.030  11.905  67.411  1.00  0.00    -0.601 NA 
HETATM    2  H2  UNL     1     -12.580  12.743  67.224  1.00  0.00     0.000 HD 
HETATM    3  C   UNL     1     -11.444  11.778  68.618  1.00  0.00    -0.288 C  
HETATM    4  H1  UNL     1     -11.949  11.203  66.674  1.00  0.00     0.000 HD 
HETATM    5  N   UNL     1     -11.545  12.659  69.544  1.00  0.00    -0.382 NA 
HETATM    6  N   UNL     1     -10.698  10.678  68.919  1.00  0.00    -0.203 N  
HETATM    7  H   UNL     1     -10.251  10.667  69.836  1.00  0.00     0.000 HD 
HETATM    8  H2  UNL     1     -12.096  13.498  69.358  1.00  0.00     0.000 HD 
HETATM    9  C   UNL     1     -10.482   9.575  68.112  1.00  0.00    -0.223 C  
HETATM   10  H1  UNL     1     -11.103  12.562  70.458  1.00  0.00     0.000 HD 
HETATM   11  O   UNL     1     -10.807   9.508  66.925  1.00  0.00    -0.161 OA 
ENDROOT
BRANCH   9  12
HETATM   12  C   UNL     1      -9.754   8.451  68.765  1.00  0.00    -0.164 A  
HETATM   13  N   UNL     1      -8.505   8.190  68.288  1.00  0.00    -0.129 NA 
HETATM   14  C   UNL     1      -7.922   7.108  68.851  1.00  0.00    -0.120 A  
HETATM   15 CL   UNL     1      -6.374   6.735  68.204  1.00  0.00    -0.036 Cl 
HETATM   16  C   UNL     1      -8.530   6.315  69.842  1.00  0.00    -0.130 A  
HETATM   17  N   UNL     1      -7.902   5.231  70.459  1.00  0.00    -0.082 NA 
HETATM   18  N   UNL     1      -9.761   6.614  70.310  1.00  0.00    -0.171 NA 
HETATM   19  C   UNL     1     -10.384   7.685  69.762  1.00  0.00    -0.223 A  
HETATM   20  H2  UNL     1      -7.022   5.572  70.845  1.00  0.00     0.000 HD 
HETATM   21  H1  UNL     1      -8.342   4.656  71.177  1.00  0.00     0.000 HD 
HETATM   22  N   UNL     1     -11.601   8.026  70.347  1.00  0.00    -0.459 NA 
HETATM   23  H1  UNL     1     -12.057   7.470  71.070  1.00  0.00     0.000 HD 
HETATM   24  H2  UNL     1     -12.275   8.147  69.591  1.00  0.00     0.000 HD 
ENDBRANCH   9  12
TORSDOF 1
ENDMDL
MODEL      211
REMARK 921   NORMALIZED FREE ENERGY PREDICTED BY IDOCK:   -3.20 KCAL/MOL
REMARK 922        TOTAL FREE ENERGY PREDICTED BY IDOCK:   -3.76 KCAL/MOL
REMARK 923 INTER-LIGAND FREE ENERGY PREDICTED BY IDOCK:   -3.46 KCAL/MOL
REMARK 924 INTRA-LIGAND FREE ENERGY PREDICTED BY IDOCK:   -0.30 KCAL/MOL
REMARK 927      BINDING AFFINITY PREDICTED BY RF-SCORE:    0.00 PKD
ROOT
HETATM    1  N   UNL     1      -5.366  14.266  68.719  1.00  0.00    -0.084 NA 
HETATM    2  H2  UNL     1      -4.849  13.592  69.284  1.00  0.00     0.000 HD 
HETATM    3  C   UNL     1      -6.596  14.636  69.128  1.00  0.00    -0.112 C  
HETATM    4  H1  UNL     1      -4.927  14.627  67.872  1.00  0.00     0.000 HD 
HETATM    5  N   UNL     1      -7.148  14.182  70.193  1.00  0.00    -0.371 NA 
HETATM    6  N   UNL     1      -7.329  15.532  68.411  1.00  0.00    -0.112 N  
HETATM    7  H   UNL     1      -8.267  15.736  68.758  1.00  0.00     0.000 HD 
HETATM    8  H2  UNL     1      -6.631  13.508  70.759  1.00  0.00     0.000 HD 
HETATM    9  C   UNL     1      -6.937  16.197  67.262  1.00  0.00    -0.199 C  
HETATM   10  H1  UNL     1      -8.079  14.463  70.503  1.00  0.00     0.000 HD 
HETATM   11  O   UNL     1      -5.912  15.939  66.627  1.00  0.00    -0.118 OA 
ENDROOT
BRANCH   9  12
HETATM   12  C   UNL     1      -7.886  17.239  66.783  1.00  0.00    -0.243 A  
HETATM   13  N   UNL     1      -7.640  18.511  67.205  1.00  0.00    -0.221 NA 
HETATM   14  C   UNL     1      -8.578  19.405  66.816  1.00  0.00    -0.311 A  
HETATM   15 CL   UNL     1      -8.308  20.998  67.403  1.00  0.00    -0.153 Cl 
HETATM   16  C   UNL     1      -9.707  19.073  66.045  1.00  0.00    -0.186 A  
HETATM   17  N   UNL     1     -10.644  20.009  65.601  1.00  0.00    -0.394 NA 
HETATM   18  N   UNL     1      -9.910  17.805  65.624  1.00  0.00    -0.473 NA 
HETATM   19  C   UNL     1      -8.998  16.878  66.002  1.00  0.00    -0.163 A  
HETATM   20  H2  UNL     1     -10.132  20.728  65.091  1.00  0.00     0.000 HD 
HETATM   21  H1  UNL     1     -11.462  19.768  65.042  1.00  0.00     0.000 HD 
HETATM   22  N   UNL     1      -9.182  15.610  65.458  1.00  0.00    -0.318 NA 
HETATM   23  H1  UNL     1      -9.989  15.348  64.892  1.00  0.00     0.000 HD 
HETATM   24  H2  UNL     1      -9.125  14.941  66.226  1.00  0.00     0.000 HD 
ENDBRANCH   9  12
TORSDOF 1
ENDMDL
MODEL      212
REMARK 921   NORMALIZED FREE ENERGY PREDICTED BY IDOCK:   -3.19 KCAL/MOL
REMARK 922        TOTAL FREE ENERGY PREDICTED BY IDOCK:   -3.75 KCAL/MOL
REMARK 923 INTER-LIGAND FREE ENERGY PREDICTED BY IDOCK:   -3.41 KCAL/MOL
REMARK 924 INTRA-LIGAND FREE ENERGY PREDICTED BY IDOCK:   -0.33 KCAL/MOL
REMARK 927      BINDING AFFINITY PREDICTED BY RF-SCORE:    0.00 PKD
ROOT
HETATM    1  N   UNL     1     -11.921  11.567  67.633  1.00  0.00    -0.634 NA 
HETATM    2  H2  UNL     1     -12.532  12.380  67.702  1.00  0.00     0.000 HD 
HETATM    3  C   UNL     1     -12.012  10.613  68.581  1.00  0.00     0.058 C  
HETATM    4  H1  UNL     1     -11.269  11.516  66.849  1.00  0.00     0.000 HD 
HETATM    5  N   UNL     1     -12.831  10.677  69.566  1.00  0.00    -0.560 NA 
HETATM    6  N   UNL     1     -11.218   9.506  68.536  1.00  0.00    -0.486 N  
HETATM    7  H   UNL     1     -11.313   8.846  69.307  1.00  0.00     0.000 HD 
HETATM    8  H2  UNL     1     -13.444  11.491  69.635  1.00  0.00     0.000 HD 
HETATM    9  C   UNL     1     -10.297   9.185  67.554  1.00  0.00    -0.261 C  
HETATM   10  H1  UNL     1     -12.901   9.955  70.283  1.00  0.00     0.000 HD 
HETATM   11  O   UNL     1      -9.945   9.950  66.655  1.00  0.00    -0.194 OA 
ENDROOT
BRANCH   9  12
HETATM   12  C   UNL     1      -9.687   7.832  67.684  1.00  0.00    -0.155 A  
HETATM   13  N   UNL     1      -8.480   7.779  68.313  1.00  0.00    -0.124 NA 
HETATM   14  C   UNL     1      -7.927   6.545  68.328  1.00  0.00    -0.110 A  
HETATM   15 CL   UNL     1      -6.373   6.486  69.061  1.00  0.00    -0.034 Cl 
HETATM   16  C   UNL     1      -8.528   5.409  67.755  1.00  0.00    -0.105 A  
HETATM   17  N   UNL     1      -7.978   4.127  67.820  1.00  0.00    -0.090 NA 
HETATM   18  N   UNL     1      -9.736   5.491  67.157  1.00  0.00    -0.132 NA 
HETATM   19  C   UNL     1     -10.318   6.714  67.113  1.00  0.00    -0.252 A  
HETATM   20  H2  UNL     1      -7.817   3.918  68.805  1.00  0.00     0.000 HD 
HETATM   21  H1  UNL     1      -8.414   3.303  67.405  1.00  0.00     0.000 HD 
HETATM   22  N   UNL     1     -11.608   6.737  66.588  1.00  0.00    -0.334 NA 
HETATM   23  H1  UNL     1     -12.066   5.925  66.174  1.00  0.00     0.000 HD 
HETATM   24  H2  UNL     1     -11.639   7.485  65.896  1.00  0.00     0.000 HD 
ENDBRANCH   9  12
TORSDOF 1
ENDMDL
MODEL      213
REMARK 921   NORMALIZED FREE ENERGY PREDICTED BY IDOCK:   -3.15 KCAL/MOL
REMARK 922        TOTAL FREE ENERGY PREDICTED BY IDOCK:   -3.71 KCAL/MOL
REMARK 923 INTER-LIGAND FREE ENERGY PREDICTED BY IDOCK:   -3.36 KCAL/MOL
REMARK 924 INTRA-LIGAND FREE ENERGY PREDICTED BY IDOCK:   -0.35 KCAL/MOL
REMARK 927      BINDING AFFINITY PREDICTED BY RF-SCORE:    0.00 PKD
ROOT
HETATM    1  N   UNL     1      -9.318  10.439  68.313  1.00  0.00    -0.145 NA 
HETATM    2  H2  UNL     1      -9.430  11.452  68.269  1.00  0.00     0.000 HD 
HETATM    3  C   UNL     1     -10.410   9.666  68.148  1.00  0.00    -0.209 C  
HETATM    4  H1  UNL     1      -8.385  10.061  68.479  1.00  0.00     0.000 HD 
HETATM    5  N   UNL     1     -11.583  10.141  67.939  1.00  0.00    -0.629 NA 
HETATM    6  N   UNL     1     -10.316   8.307  68.199  1.00  0.00    -0.234 N  
HETATM    7  H   UNL     1     -11.188   7.787  68.106  1.00  0.00     0.000 HD 
HETATM    8  H2  UNL     1     -11.695  11.154  67.894  1.00  0.00     0.000 HD 
HETATM    9  C   UNL     1      -9.163   7.560  68.361  1.00  0.00    -0.139 C  
HETATM   10  H1  UNL     1     -12.409   9.555  67.814  1.00  0.00     0.000 HD 
HETATM   11  O   UNL     1      -8.063   8.034  68.653  1.00  0.00    -0.121 OA 
ENDROOT
BRANCH   9  12
HETATM   12  C   UNL     1      -9.342   6.089  68.218  1.00  0.00    -0.116 A  
HETATM   13  N   UNL     1      -9.452   5.383  69.379  1.00  0.00    -0.126 NA 
HETATM   14  C   UNL     1      -9.525   4.045  69.198  1.00  0.00    -0.178 A  
HETATM   15 CL   UNL     1      -9.595   3.148  70.662  1.00  0.00    -0.237 Cl 
HETATM   16  C   UNL     1      -9.493   3.420  67.937  1.00  0.00    -0.165 A  
HETATM   17  N   UNL     1      -9.622   2.042  67.754  1.00  0.00    -0.403 NA 
HETATM   18  N   UNL     1      -9.405   4.150  66.804  1.00  0.00    -0.162 NA 
HETATM   19  C   UNL     1      -9.320   5.494  66.944  1.00  0.00    -0.127 A  
HETATM   20  H2  UNL     1     -10.489   1.757  68.210  1.00  0.00     0.000 HD 
HETATM   21  H1  UNL     1      -9.600   1.589  66.841  1.00  0.00     0.000 HD 
HETATM   22  N   UNL     1      -9.342   6.216  65.753  1.00  0.00    -0.369 NA 
HETATM   23  H1  UNL     1      -9.327   5.785  64.829  1.00  0.00     0.000 HD 
HETATM   24  H2  UNL     1      -8.569   6.879  65.788  1.00  0.00     0.000 HD 
ENDBRANCH   9  12
TORSDOF 1
ENDMDL
MODEL      214
REMARK 921   NORMALIZED FREE ENERGY PREDICTED BY IDOCK:   -3.12 KCAL/MOL
REMARK 922        TOTAL FREE ENERGY PREDICTED BY IDOCK:   -3.68 KCAL/MOL
REMARK 923 INTER-LIGAND FREE ENERGY PREDICTED BY IDOCK:   -3.29 KCAL/MOL
REMARK 924 INTRA-LIGAND FREE ENERGY PREDICTED BY IDOCK:   -0.39 KCAL/MOL
REMARK 927      BINDING AFFINITY PREDICTED BY RF-SCORE:    0.00 PKD
ROOT
HETATM    1  N   UNL     1     -10.916   7.415  73.868  1.00  0.00    -0.489 NA 
HETATM    2  H2  UNL     1     -11.297   7.796  74.734  1.00  0.00     0.000 HD 
HETATM    3  C   UNL     1     -11.577   7.653  72.717  1.00  0.00    -0.281 C  
HETATM    4  H1  UNL     1     -10.054   6.872  73.915  1.00  0.00     0.000 HD 
HETATM    5  N   UNL     1     -12.661   8.335  72.658  1.00  0.00    -0.607 NA 
HETATM    6  N   UNL     1     -11.112   7.167  71.533  1.00  0.00    -0.236 N  
HETATM    7  H   UNL     1     -11.683   7.351  70.708  1.00  0.00     0.000 HD 
HETATM    8  H2  UNL     1     -13.043   8.717  73.524  1.00  0.00     0.000 HD 
HETATM    9  C   UNL     1      -9.945   6.450  71.330  1.00  0.00    -0.182 C  
HETATM   10  H1  UNL     1     -13.161   8.515  71.787  1.00  0.00     0.000 HD 
HETATM   11  O   UNL     1      -9.238   6.003  72.235  1.00  0.00    -0.145 OA 
ENDROOT
BRANCH   9  12
HETATM   12  C   UNL     1      -9.610   6.186  69.903  1.00  0.00    -0.159 A  
HETATM   13  N   UNL     1      -9.754   4.898  69.483  1.00  0.00    -0.177 NA 
HETATM   14  C   UNL     1      -9.354   4.692  68.208  1.00  0.00    -0.136 A  
HETATM   15 CL   UNL     1      -9.471   3.056  67.696  1.00  0.00    -0.240 Cl 
HETATM   16  C   UNL     1      -8.837   5.702  67.375  1.00  0.00    -0.105 A  
HETATM   17  N   UNL     1      -8.476   5.496  66.042  1.00  0.00    -0.121 NA 
HETATM   18  N   UNL     1      -8.728   6.974  67.815  1.00  0.00    -0.122 NA 
HETATM   19  C   UNL     1      -9.108   7.219  69.092  1.00  0.00    -0.137 A  
HETATM   20  H2  UNL     1      -9.288   5.100  65.567  1.00  0.00     0.000 HD 
HETATM   21  H1  UNL     1      -8.102   6.228  65.438  1.00  0.00     0.000 HD 
HETATM   22  N   UNL     1      -9.084   8.559  69.471  1.00  0.00    -0.149 NA 
HETATM   23  H1  UNL     1      -8.720   9.307  68.882  1.00  0.00     0.000 HD 
HETATM   24  H2  UNL     1      -8.591   8.611  70.362  1.00  0.00     0.000 HD 
ENDBRANCH   9  12
TORSDOF 1
ENDMDL
MODEL      215
REMARK 921   NORMALIZED FREE ENERGY PREDICTED BY IDOCK:   -3.12 KCAL/MOL
REMARK 922        TOTAL FREE ENERGY PREDICTED BY IDOCK:   -3.67 KCAL/MOL
REMARK 923 INTER-LIGAND FREE ENERGY PREDICTED BY IDOCK:   -3.58 KCAL/MOL
REMARK 924 INTRA-LIGAND FREE ENERGY PREDICTED BY IDOCK:   -0.10 KCAL/MOL
REMARK 927      BINDING AFFINITY PREDICTED BY RF-SCORE:    0.00 PKD
ROOT
HETATM    1  N   UNL     1     -13.044  10.463  71.383  1.00  0.00    -0.406 NA 
HETATM    2  H2  UNL     1     -13.786  10.912  71.921  1.00  0.00     0.000 HD 
HETATM    3  C   UNL     1     -12.630   9.237  71.760  1.00  0.00    -0.382 C  
HETATM    4  H1  UNL     1     -12.652  10.966  70.586  1.00  0.00     0.000 HD 
HETATM    5  N   UNL     1     -13.122   8.606  72.761  1.00  0.00    -0.642 NA 
HETATM    6  N   UNL     1     -11.642   8.594  71.076  1.00  0.00    -0.278 N  
HETATM    7  H   UNL     1     -11.351   7.687  71.441  1.00  0.00     0.000 HD 
HETATM    8  H2  UNL     1     -13.865   9.054  73.300  1.00  0.00     0.000 HD 
HETATM    9  C   UNL     1     -10.993   9.042  69.939  1.00  0.00    -0.193 C  
HETATM   10  H1  UNL     1     -12.809   7.678  73.046  1.00  0.00     0.000 HD 
HETATM   11  O   UNL     1     -11.106  10.179  69.476  1.00  0.00    -0.230 OA 
ENDROOT
BRANCH   9  12
HETATM   12  C   UNL     1     -10.066   8.056  69.315  1.00  0.00    -0.198 A  
HETATM   13  N   UNL     1      -8.947   8.572  68.734  1.00  0.00    -0.139 NA 
HETATM   14  C   UNL     1      -8.184   7.649  68.107  1.00  0.00    -0.124 A  
HETATM   15 CL   UNL     1      -6.807   8.305  67.314  1.00  0.00    -0.069 Cl 
HETATM   16  C   UNL     1      -8.498   6.278  68.050  1.00  0.00    -0.117 A  
HETATM   17  N   UNL     1      -7.679   5.321  67.447  1.00  0.00    -0.095 NA 
HETATM   18  N   UNL     1      -9.604   5.795  68.656  1.00  0.00    -0.123 NA 
HETATM   19  C   UNL     1     -10.401   6.691  69.287  1.00  0.00    -0.200 A  
HETATM   20  H2  UNL     1      -6.757   5.401  67.874  1.00  0.00     0.000 HD 
HETATM   21  H1  UNL     1      -7.906   4.327  67.407  1.00  0.00     0.000 HD 
HETATM   22  N   UNL     1     -11.469   6.141  69.991  1.00  0.00    -0.382 NA 
HETATM   23  H1  UNL     1     -11.712   5.151  69.970  1.00  0.00     0.000 HD 
HETATM   24  H2  UNL     1     -12.305   6.661  69.724  1.00  0.00     0.000 HD 
ENDBRANCH   9  12
TORSDOF 1
ENDMDL
MODEL      216
REMARK 921   NORMALIZED FREE ENERGY PREDICTED BY IDOCK:   -3.11 KCAL/MOL
REMARK 922        TOTAL FREE ENERGY PREDICTED BY IDOCK:   -3.67 KCAL/MOL
REMARK 923 INTER-LIGAND FREE ENERGY PREDICTED BY IDOCK:   -3.34 KCAL/MOL
REMARK 924 INTRA-LIGAND FREE ENERGY PREDICTED BY IDOCK:   -0.32 KCAL/MOL
REMARK 927      BINDING AFFINITY PREDICTED BY RF-SCORE:    0.00 PKD
ROOT
HETATM    1  N   UNL     1      -7.753   8.655  73.068  1.00  0.00    -0.379 NA 
HETATM    2  H2  UNL     1      -7.155   9.041  73.799  1.00  0.00     0.000 HD 
HETATM    3  C   UNL     1      -7.218   8.435  71.850  1.00  0.00    -0.095 C  
HETATM    4  H1  UNL     1      -8.728   8.455  73.295  1.00  0.00     0.000 HD 
HETATM    5  N   UNL     1      -5.994   8.687  71.565  1.00  0.00    -0.045 NA 
HETATM    6  N   UNL     1      -7.974   7.922  70.839  1.00  0.00    -0.091 N  
HETATM    7  H   UNL     1      -7.515   7.820  69.934  1.00  0.00     0.000 HD 
HETATM    8  H2  UNL     1      -5.395   9.072  72.296  1.00  0.00     0.000 HD 
HETATM    9  C   UNL     1      -9.297   7.525  70.911  1.00  0.00    -0.154 C  
HETATM   10  H1  UNL     1      -5.589   8.520  70.644  1.00  0.00     0.000 HD 
HETATM   11  O   UNL     1     -10.036   7.739  71.874  1.00  0.00    -0.166 OA 
ENDROOT
BRANCH   9  12
HETATM   12  C   UNL     1      -9.819   6.852  69.688  1.00  0.00    -0.166 A  
HETATM   13  N   UNL     1      -9.530   5.526  69.566  1.00  0.00    -0.135 NA 
HETATM   14  C   UNL     1      -9.949   4.983  68.400  1.00  0.00    -0.136 A  
HETATM   15 CL   UNL     1      -9.527   3.328  68.212  1.00  0.00    -0.239 Cl 
HETATM   16  C   UNL     1     -10.624   5.703  67.396  1.00  0.00    -0.237 A  
HETATM   17  N   UNL     1     -11.101   5.125  66.218  1.00  0.00    -0.621 NA 
HETATM   18  N   UNL     1     -10.914   7.012  67.558  1.00  0.00    -0.254 NA 
HETATM   19  C   UNL     1     -10.502   7.595  68.709  1.00  0.00    -0.189 A  
HETATM   20  H2  UNL     1     -11.702   4.346  66.486  1.00  0.00     0.000 HD 
HETATM   21  H1  UNL     1     -11.590   5.646  65.491  1.00  0.00     0.000 HD 
HETATM   22  N   UNL     1     -10.916   8.913  68.886  1.00  0.00    -0.435 NA 
HETATM   23  H1  UNL     1     -11.411   9.452  68.176  1.00  0.00     0.000 HD 
HETATM   24  H2  UNL     1     -10.094   9.454  69.154  1.00  0.00     0.000 HD 
ENDBRANCH   9  12
TORSDOF 1
ENDMDL
MODEL      217
REMARK 921   NORMALIZED FREE ENERGY PREDICTED BY IDOCK:   -3.10 KCAL/MOL
REMARK 922        TOTAL FREE ENERGY PREDICTED BY IDOCK:   -3.65 KCAL/MOL
REMARK 923 INTER-LIGAND FREE ENERGY PREDICTED BY IDOCK:   -3.26 KCAL/MOL
REMARK 924 INTRA-LIGAND FREE ENERGY PREDICTED BY IDOCK:   -0.40 KCAL/MOL
REMARK 927      BINDING AFFINITY PREDICTED BY RF-SCORE:    0.00 PKD
ROOT
HETATM    1  N   UNL     1     -11.419  11.592  66.062  1.00  0.00    -0.328 NA 
HETATM    2  H2  UNL     1     -11.707  12.287  65.373  1.00  0.00     0.000 HD 
HETATM    3  C   UNL     1     -10.990  12.022  67.266  1.00  0.00    -0.262 C  
HETATM    4  H1  UNL     1     -11.470  10.606  65.806  1.00  0.00     0.000 HD 
HETATM    5  N   UNL     1     -10.926  13.261  67.587  1.00  0.00    -0.257 NA 
HETATM    6  N   UNL     1     -10.593  11.136  68.221  1.00  0.00    -0.180 N  
HETATM    7  H   UNL     1     -10.242  11.533  69.093  1.00  0.00     0.000 HD 
HETATM    8  H2  UNL     1     -11.215  13.957  66.898  1.00  0.00     0.000 HD 
HETATM    9  C   UNL     1     -10.617   9.755  68.135  1.00  0.00    -0.231 C  
HETATM   10  H1  UNL     1     -10.602  13.587  68.498  1.00  0.00     0.000 HD 
HETATM   11  O   UNL     1     -10.849   9.128  67.100  1.00  0.00    -0.212 OA 
ENDROOT
BRANCH   9  12
HETATM   12  C   UNL     1     -10.273   9.040  69.395  1.00  0.00    -0.204 A  
HETATM   13  N   UNL     1      -9.144   8.277  69.362  1.00  0.00    -0.153 NA 
HETATM   14  C   UNL     1      -8.924   7.581  70.500  1.00  0.00    -0.152 A  
HETATM   15 CL   UNL     1      -7.538   6.565  70.437  1.00  0.00    -0.094 Cl 
HETATM   16  C   UNL     1      -9.767   7.628  71.625  1.00  0.00    -0.161 A  
HETATM   17  N   UNL     1      -9.505   6.949  72.817  1.00  0.00    -0.141 NA 
HETATM   18  N   UNL     1     -10.867   8.412  71.634  1.00  0.00    -0.249 NA 
HETATM   19  C   UNL     1     -11.128   9.118  70.508  1.00  0.00    -0.260 A  
HETATM   20  H2  UNL     1      -8.575   7.229  73.126  1.00  0.00     0.000 HD 
HETATM   21  H1  UNL     1     -10.116   6.983  73.633  1.00  0.00     0.000 HD 
HETATM   22  N   UNL     1     -12.206   9.996  70.597  1.00  0.00    -0.370 NA 
HETATM   23  H1  UNL     1     -12.826  10.052  71.404  1.00  0.00     0.000 HD 
HETATM   24  H2  UNL     1     -12.792   9.836  69.778  1.00  0.00     0.000 HD 
ENDBRANCH   9  12
TORSDOF 1
ENDMDL
MODEL      218
REMARK 921   NORMALIZED FREE ENERGY PREDICTED BY IDOCK:   -3.08 KCAL/MOL
REMARK 922        TOTAL FREE ENERGY PREDICTED BY IDOCK:   -3.64 KCAL/MOL
REMARK 923 INTER-LIGAND FREE ENERGY PREDICTED BY IDOCK:   -3.24 KCAL/MOL
REMARK 924 INTRA-LIGAND FREE ENERGY PREDICTED BY IDOCK:   -0.40 KCAL/MOL
REMARK 927      BINDING AFFINITY PREDICTED BY RF-SCORE:    0.00 PKD
ROOT
HETATM    1  N   UNL     1     -13.363   8.862  71.165  1.00  0.00    -0.540 NA 
HETATM    2  H2  UNL     1     -14.018   9.427  71.706  1.00  0.00     0.000 HD 
HETATM    3  C   UNL     1     -13.423   7.520  71.285  1.00  0.00    -0.253 C  
HETATM    4  H1  UNL     1     -12.694   9.340  70.561  1.00  0.00     0.000 HD 
HETATM    5  N   UNL     1     -14.264   6.920  72.044  1.00  0.00    -0.569 NA 
HETATM    6  N   UNL     1     -12.571   6.719  70.586  1.00  0.00    -0.476 N  
HETATM    7  H   UNL     1     -12.646   5.716  70.755  1.00  0.00     0.000 HD 
HETATM    8  H2  UNL     1     -14.919   7.485  72.585  1.00  0.00     0.000 HD 
HETATM    9  C   UNL     1     -11.615   7.123  69.670  1.00  0.00     0.076 C  
HETATM   10  H1  UNL     1     -14.310   5.905  72.134  1.00  0.00     0.000 HD 
HETATM   11  O   UNL     1     -11.285   8.295  69.481  1.00  0.00    -0.032 OA 
ENDROOT
BRANCH   9  12
HETATM   12  C   UNL     1     -10.937   6.015  68.940  1.00  0.00    -0.325 A  
HETATM   13  N   UNL     1     -11.104   5.999  67.588  1.00  0.00    -0.232 NA 
HETATM   14  C   UNL     1     -10.544   4.928  66.983  1.00  0.00    -0.011 A  
HETATM   15 CL   UNL     1     -10.811   4.868  65.286  1.00  0.00    -0.001 Cl 
HETATM   16  C   UNL     1      -9.846   3.915  67.667  1.00  0.00    -0.010 A  
HETATM   17  N   UNL     1      -9.223   2.839  67.031  1.00  0.00    -0.287 NA 
HETATM   18  N   UNL     1      -9.679   3.972  69.006  1.00  0.00    -0.145 NA 
HETATM   19  C   UNL     1     -10.236   5.025  69.651  1.00  0.00    -0.236 A  
HETATM   20  H2  UNL     1      -8.586   3.227  66.337  1.00  0.00     0.000 HD 
HETATM   21  H1  UNL     1      -8.718   2.105  67.527  1.00  0.00     0.000 HD 
HETATM   22  N   UNL     1      -9.948   5.106  71.011  1.00  0.00    -0.195 NA 
HETATM   23  H1  UNL     1      -9.439   4.389  71.526  1.00  0.00     0.000 HD 
HETATM   24  H2  UNL     1     -10.832   5.256  71.498  1.00  0.00     0.000 HD 
ENDBRANCH   9  12
TORSDOF 1
ENDMDL
MODEL      219
REMARK 921   NORMALIZED FREE ENERGY PREDICTED BY IDOCK:   -3.07 KCAL/MOL
REMARK 922        TOTAL FREE ENERGY PREDICTED BY IDOCK:   -3.62 KCAL/MOL
REMARK 923 INTER-LIGAND FREE ENERGY PREDICTED BY IDOCK:   -3.25 KCAL/MOL
REMARK 924 INTRA-LIGAND FREE ENERGY PREDICTED BY IDOCK:   -0.37 KCAL/MOL
REMARK 927      BINDING AFFINITY PREDICTED BY RF-SCORE:    0.00 PKD
ROOT
HETATM    1  N   UNL     1     -12.849   8.615  70.986  1.00  0.00    -0.495 NA 
HETATM    2  H2  UNL     1     -13.673   9.003  71.447  1.00  0.00     0.000 HD 
HETATM    3  C   UNL     1     -12.469   7.361  71.299  1.00  0.00    -0.346 C  
HETATM    4  H1  UNL     1     -12.353   9.197  70.310  1.00  0.00     0.000 HD 
HETATM    5  N   UNL     1     -13.092   6.630  72.149  1.00  0.00    -0.534 NA 
HETATM    6  N   UNL     1     -11.377   6.796  70.713  1.00  0.00    -0.303 N  
HETATM    7  H   UNL     1     -11.124   5.859  71.027  1.00  0.00     0.000 HD 
HETATM    8  H2  UNL     1     -13.916   7.017  72.610  1.00  0.00     0.000 HD 
HETATM    9  C   UNL     1     -10.574   7.359  69.736  1.00  0.00    -0.236 C  
HETATM   10  H1  UNL     1     -12.805   5.680  72.385  1.00  0.00     0.000 HD 
HETATM   11  O   UNL     1     -10.642   8.535  69.374  1.00  0.00    -0.221 OA 
ENDROOT
BRANCH   9  12
HETATM   12  C   UNL     1      -9.544   6.447  69.166  1.00  0.00    -0.136 A  
HETATM   13  N   UNL     1      -9.967   5.192  68.847  1.00  0.00    -0.173 NA 
HETATM   14  C   UNL     1      -8.977   4.377  68.417  1.00  0.00    -0.115 A  
HETATM   15 CL   UNL     1      -9.494   2.773  68.077  1.00  0.00    -0.255 Cl 
HETATM   16  C   UNL     1      -7.631   4.770  68.300  1.00  0.00    -0.077 A  
HETATM   17  N   UNL     1      -6.623   3.940  67.804  1.00  0.00    -0.041 NA 
HETATM   18  N   UNL     1      -7.248   6.029  68.604  1.00  0.00    -0.081 NA 
HETATM   19  C   UNL     1      -8.209   6.873  69.049  1.00  0.00    -0.125 A  
HETATM   20  H2  UNL     1      -6.923   3.617  66.885  1.00  0.00     0.000 HD 
HETATM   21  H1  UNL     1      -5.647   4.225  67.719  1.00  0.00     0.000 HD 
HETATM   22  N   UNL     1      -7.797   8.189  69.246  1.00  0.00    -0.107 NA 
HETATM   23  H1  UNL     1      -6.829   8.498  69.161  1.00  0.00     0.000 HD 
HETATM   24  H2  UNL     1      -8.122   8.471  70.170  1.00  0.00     0.000 HD 
ENDBRANCH   9  12
TORSDOF 1
ENDMDL
MODEL      220
REMARK 921   NORMALIZED FREE ENERGY PREDICTED BY IDOCK:   -3.06 KCAL/MOL
REMARK 922        TOTAL FREE ENERGY PREDICTED BY IDOCK:   -3.61 KCAL/MOL
REMARK 923 INTER-LIGAND FREE ENERGY PREDICTED BY IDOCK:   -3.22 KCAL/MOL
REMARK 924 INTRA-LIGAND FREE ENERGY PREDICTED BY IDOCK:   -0.39 KCAL/MOL
REMARK 927      BINDING AFFINITY PREDICTED BY RF-SCORE:    0.00 PKD
ROOT
HETATM    1  N   UNL     1      -7.406  10.505  66.160  1.00  0.00    -0.131 NA 
HETATM    2  H2  UNL     1      -7.027  11.030  65.371  1.00  0.00     0.000 HD 
HETATM    3  C   UNL     1      -8.720  10.620  66.435  1.00  0.00    -0.149 C  
HETATM    4  H1  UNL     1      -6.770   9.918  66.702  1.00  0.00     0.000 HD 
HETATM    5  N   UNL     1      -9.518  11.357  65.755  1.00  0.00    -0.229 NA 
HETATM    6  N   UNL     1      -9.276   9.941  67.477  1.00  0.00    -0.134 N  
HETATM    7  H   UNL     1     -10.267  10.107  67.652  1.00  0.00     0.000 HD 
HETATM    8  H2  UNL     1      -9.140  11.882  64.965  1.00  0.00     0.000 HD 
HETATM    9  C   UNL     1      -8.639   9.050  68.323  1.00  0.00    -0.130 C  
HETATM   10  H1  UNL     1     -10.513  11.444  65.963  1.00  0.00     0.000 HD 
HETATM   11  O   UNL     1      -7.420   8.872  68.352  1.00  0.00    -0.084 OA 
ENDROOT
BRANCH   9  12
HETATM   12  C   UNL     1      -9.535   8.336  69.274  1.00  0.00    -0.155 A  
HETATM   13  N   UNL     1      -9.248   8.492  70.597  1.00  0.00    -0.155 NA 
HETATM   14  C   UNL     1     -10.034   7.755  71.415  1.00  0.00    -0.178 A  
HETATM   15 CL   UNL     1      -9.632   7.896  73.080  1.00  0.00    -0.336 Cl 
HETATM   16  C   UNL     1     -11.058   6.903  70.962  1.00  0.00    -0.266 A  
HETATM   17  N   UNL     1     -11.901   6.186  71.813  1.00  0.00    -0.274 NA 
HETATM   18  N   UNL     1     -11.331   6.788  69.644  1.00  0.00    -0.293 NA 
HETATM   19  C   UNL     1     -10.559   7.503  68.791  1.00  0.00    -0.156 A  
HETATM   20  H2  UNL     1     -12.328   6.857  72.451  1.00  0.00     0.000 HD 
HETATM   21  H1  UNL     1     -12.644   5.569  71.485  1.00  0.00     0.000 HD 
HETATM   22  N   UNL     1     -10.942   7.443  67.454  1.00  0.00    -0.555 NA 
HETATM   23  H1  UNL     1     -11.685   6.839  67.104  1.00  0.00     0.000 HD 
HETATM   24  H2  UNL     1     -10.105   7.236  66.909  1.00  0.00     0.000 HD 
ENDBRANCH   9  12
TORSDOF 1
ENDMDL
MODEL      221
REMARK 921   NORMALIZED FREE ENERGY PREDICTED BY IDOCK:   -3.05 KCAL/MOL
REMARK 922        TOTAL FREE ENERGY PREDICTED BY IDOCK:   -3.60 KCAL/MOL
REMARK 923 INTER-LIGAND FREE ENERGY PREDICTED BY IDOCK:   -3.21 KCAL/MOL
REMARK 924 INTRA-LIGAND FREE ENERGY PREDICTED BY IDOCK:   -0.40 KCAL/MOL
REMARK 927      BINDING AFFINITY PREDICTED BY RF-SCORE:    0.00 PKD
ROOT
HETATM    1  N   UNL     1     -11.506   6.598  69.393  1.00  0.00    -0.617 NA 
HETATM    2  H2  UNL     1     -11.932   6.155  70.208  1.00  0.00     0.000 HD 
HETATM    3  C   UNL     1     -10.525   7.501  69.592  1.00  0.00    -0.234 C  
HETATM    4  H1  UNL     1     -11.845   6.335  68.467  1.00  0.00     0.000 HD 
HETATM    5  N   UNL     1     -10.100   7.831  70.755  1.00  0.00    -0.192 NA 
HETATM    6  N   UNL     1      -9.925   8.121  68.538  1.00  0.00    -0.184 N  
HETATM    7  H   UNL     1      -9.219   8.822  68.763  1.00  0.00     0.000 HD 
HETATM    8  H2  UNL     1     -10.524   7.388  71.571  1.00  0.00     0.000 HD 
HETATM    9  C   UNL     1     -10.171   7.900  67.194  1.00  0.00    -0.290 C  
HETATM   10  H1  UNL     1      -9.357   8.513  70.906  1.00  0.00     0.000 HD 
HETATM   11  O   UNL     1     -11.102   7.218  66.761  1.00  0.00    -0.205 OA 
ENDROOT
BRANCH   9  12
HETATM   12  C   UNL     1      -9.250   8.609  66.262  1.00  0.00    -0.202 A  
HETATM   13  N   UNL     1      -8.515   7.818  65.431  1.00  0.00    -0.135 NA 
HETATM   14  C   UNL     1      -7.633   8.502  64.668  1.00  0.00    -0.102 A  
HETATM   15 CL   UNL     1      -6.656   7.502  63.668  1.00  0.00    -0.053 Cl 
HETATM   16  C   UNL     1      -7.476   9.899  64.710  1.00  0.00    -0.136 A  
HETATM   17  N   UNL     1      -6.601  10.605  63.881  1.00  0.00    -0.357 NA 
HETATM   18  N   UNL     1      -8.236  10.657  65.530  1.00  0.00    -0.159 NA 
HETATM   19  C   UNL     1      -9.125  10.008  66.319  1.00  0.00    -0.151 A  
HETATM   20  H2  UNL     1      -6.831  10.357  62.919  1.00  0.00     0.000 HD 
HETATM   21  H1  UNL     1      -6.488  11.618  63.912  1.00  0.00     0.000 HD 
HETATM   22  N   UNL     1      -9.965  10.830  67.066  1.00  0.00    -0.191 NA 
HETATM   23  H1  UNL     1      -9.874  11.845  67.107  1.00  0.00     0.000 HD 
HETATM   24  H2  UNL     1      -9.945  10.488  68.027  1.00  0.00     0.000 HD 
ENDBRANCH   9  12
TORSDOF 1
ENDMDL
MODEL      222
REMARK 921   NORMALIZED FREE ENERGY PREDICTED BY IDOCK:   -3.02 KCAL/MOL
REMARK 922        TOTAL FREE ENERGY PREDICTED BY IDOCK:   -3.57 KCAL/MOL
REMARK 923 INTER-LIGAND FREE ENERGY PREDICTED BY IDOCK:   -3.17 KCAL/MOL
REMARK 924 INTRA-LIGAND FREE ENERGY PREDICTED BY IDOCK:   -0.40 KCAL/MOL
REMARK 927      BINDING AFFINITY PREDICTED BY RF-SCORE:    0.00 PKD
ROOT
HETATM    1  N   UNL     1      -7.987   9.554  67.364  1.00  0.00    -0.106 NA 
HETATM    2  H2  UNL     1      -7.724   8.584  67.187  1.00  0.00     0.000 HD 
HETATM    3  C   UNL     1      -8.162  10.374  66.309  1.00  0.00    -0.144 C  
HETATM    4  H1  UNL     1      -8.104   9.855  68.332  1.00  0.00     0.000 HD 
HETATM    5  N   UNL     1      -8.015   9.996  65.093  1.00  0.00    -0.139 NA 
HETATM    6  N   UNL     1      -8.513  11.678  66.491  1.00  0.00    -0.243 N  
HETATM    7  H   UNL     1      -8.589  12.251  65.650  1.00  0.00     0.000 HD 
HETATM    8  H2  UNL     1      -7.752   9.026  64.915  1.00  0.00     0.000 HD 
HETATM    9  C   UNL     1      -8.778  12.307  67.694  1.00  0.00    -0.175 C  
HETATM   10  H1  UNL     1      -8.148  10.617  64.295  1.00  0.00     0.000 HD 
HETATM   11  O   UNL     1      -8.568  11.807  68.801  1.00  0.00    -0.101 OA 
ENDROOT
BRANCH   9  12
HETATM   12  C   UNL     1      -9.294  13.699  67.576  1.00  0.00    -0.223 A  
HETATM   13  N   UNL     1      -8.452  14.687  67.993  1.00  0.00    -0.147 NA 
HETATM   14  C   UNL     1      -8.999  15.923  67.948  1.00  0.00    -0.181 A  
HETATM   15 CL   UNL     1      -7.965  17.164  68.536  1.00  0.00    -0.249 Cl 
HETATM   16  C   UNL     1     -10.311  16.186  67.512  1.00  0.00    -0.286 A  
HETATM   17  N   UNL     1     -10.851  17.470  67.416  1.00  0.00    -0.243 NA 
HETATM   18  N   UNL     1     -11.112  15.187  67.084  1.00  0.00    -0.335 NA 
HETATM   19  C   UNL     1     -10.605  13.932  67.124  1.00  0.00    -0.277 A  
HETATM   20  H2  UNL     1     -10.223  18.019  66.830  1.00  0.00     0.000 HD 
HETATM   21  H1  UNL     1     -11.802  17.661  67.100  1.00  0.00     0.000 HD 
HETATM   22  N   UNL     1     -11.420  12.946  66.573  1.00  0.00    -0.323 NA 
HETATM   23  H1  UNL     1     -12.370  13.114  66.245  1.00  0.00     0.000 HD 
HETATM   24  H2  UNL     1     -11.465  12.181  67.247  1.00  0.00     0.000 HD 
ENDBRANCH   9  12
TORSDOF 1
ENDMDL
MODEL      223
REMARK 921   NORMALIZED FREE ENERGY PREDICTED BY IDOCK:   -3.02 KCAL/MOL
REMARK 922        TOTAL FREE ENERGY PREDICTED BY IDOCK:   -3.57 KCAL/MOL
REMARK 923 INTER-LIGAND FREE ENERGY PREDICTED BY IDOCK:   -3.59 KCAL/MOL
REMARK 924 INTRA-LIGAND FREE ENERGY PREDICTED BY IDOCK:    0.02 KCAL/MOL
REMARK 927      BINDING AFFINITY PREDICTED BY RF-SCORE:    0.00 PKD
ROOT
HETATM    1  N   UNL     1      -9.254   7.666  69.235  1.00  0.00    -0.145 NA 
HETATM    2  H2  UNL     1      -9.255   6.705  69.580  1.00  0.00     0.000 HD 
HETATM    3  C   UNL     1     -10.402   8.370  69.292  1.00  0.00    -0.214 C  
HETATM    4  H1  UNL     1      -8.382   8.046  68.865  1.00  0.00     0.000 HD 
HETATM    5  N   UNL     1     -11.496   7.892  69.758  1.00  0.00    -0.438 NA 
HETATM    6  N   UNL     1     -10.453   9.656  68.845  1.00  0.00    -0.209 N  
HETATM    7  H   UNL     1     -11.364  10.114  68.881  1.00  0.00     0.000 HD 
HETATM    8  H2  UNL     1     -11.499   6.931  70.103  1.00  0.00     0.000 HD 
HETATM    9  C   UNL     1      -9.402  10.405  68.348  1.00  0.00    -0.150 C  
HETATM   10  H1  UNL     1     -12.365   8.425  69.801  1.00  0.00     0.000 HD 
HETATM   11  O   UNL     1      -8.288   9.949  68.083  1.00  0.00    -0.109 OA 
ENDROOT
BRANCH   9  12
HETATM   12  C   UNL     1      -9.719  11.836  68.084  1.00  0.00    -0.192 A  
HETATM   13  N   UNL     1      -8.661  12.694  68.084  1.00  0.00    -0.184 NA 
HETATM   14  C   UNL     1      -9.011  13.991  67.927  1.00  0.00    -0.188 A  
HETATM   15 CL   UNL     1      -7.685  15.083  67.996  1.00  0.00    -0.118 Cl 
HETATM   16  C   UNL     1     -10.338  14.433  67.773  1.00  0.00    -0.238 A  
HETATM   17  N   UNL     1     -10.688  15.767  67.557  1.00  0.00    -0.313 NA 
HETATM   18  N   UNL     1     -11.363  13.554  67.755  1.00  0.00    -0.281 NA 
HETATM   19  C   UNL     1     -11.054  12.246  67.920  1.00  0.00    -0.243 A  
HETATM   20  H2  UNL     1     -10.167  16.088  66.742  1.00  0.00     0.000 HD 
HETATM   21  H1  UNL     1     -11.650  16.088  67.445  1.00  0.00     0.000 HD 
HETATM   22  N   UNL     1     -12.124  11.363  67.784  1.00  0.00    -0.564 NA 
HETATM   23  H1  UNL     1     -13.091  11.661  67.666  1.00  0.00     0.000 HD 
HETATM   24  H2  UNL     1     -12.099  10.735  68.587  1.00  0.00     0.000 HD 
ENDBRANCH   9  12
TORSDOF 1
ENDMDL
MODEL      224
REMARK 921   NORMALIZED FREE ENERGY PREDICTED BY IDOCK:   -3.01 KCAL/MOL
REMARK 922        TOTAL FREE ENERGY PREDICTED BY IDOCK:   -3.56 KCAL/MOL
REMARK 923 INTER-LIGAND FREE ENERGY PREDICTED BY IDOCK:   -3.19 KCAL/MOL
REMARK 924 INTRA-LIGAND FREE ENERGY PREDICTED BY IDOCK:   -0.37 KCAL/MOL
REMARK 927      BINDING AFFINITY PREDICTED BY RF-SCORE:    0.00 PKD
ROOT
HETATM    1  N   UNL     1      -6.968  10.877  70.266  1.00  0.00    -0.481 NA 
HETATM    2  H2  UNL     1      -6.605  11.682  69.755  1.00  0.00     0.000 HD 
HETATM    3  C   UNL     1      -8.024  10.215  69.754  1.00  0.00    -0.161 C  
HETATM    4  H1  UNL     1      -6.513  10.614  71.141  1.00  0.00     0.000 HD 
HETATM    5  N   UNL     1      -8.595  10.546  68.655  1.00  0.00    -0.131 NA 
HETATM    6  N   UNL     1      -8.547   9.134  70.397  1.00  0.00    -0.188 N  
HETATM    7  H   UNL     1      -9.371   8.706  69.973  1.00  0.00     0.000 HD 
HETATM    8  H2  UNL     1      -8.232  11.351  68.143  1.00  0.00     0.000 HD 
HETATM    9  C   UNL     1      -8.080   8.555  71.564  1.00  0.00    -0.151 C  
HETATM   10  H1  UNL     1      -9.394  10.044  68.267  1.00  0.00     0.000 HD 
HETATM   11  O   UNL     1      -7.209   9.047  72.283  1.00  0.00    -0.330 OA 
ENDROOT
BRANCH   9  12
HETATM   12  C   UNL     1      -8.756   7.285  71.949  1.00  0.00    -0.115 A  
HETATM   13  N   UNL     1      -8.958   6.386  70.946  1.00  0.00    -0.143 NA 
HETATM   14  C   UNL     1      -9.652   5.290  71.328  1.00  0.00    -0.159 A  
HETATM   15 CL   UNL     1      -9.969   4.185  70.050  1.00  0.00    -0.237 Cl 
HETATM   16  C   UNL     1     -10.127   5.077  72.636  1.00  0.00    -0.182 A  
HETATM   17  N   UNL     1     -10.796   3.919  73.037  1.00  0.00    -0.161 NA 
HETATM   18  N   UNL     1      -9.890   5.978  73.613  1.00  0.00    -0.167 NA 
HETATM   19  C   UNL     1      -9.207   7.096  73.268  1.00  0.00    -0.157 A  
HETATM   20  H2  UNL     1     -10.197   3.128  72.802  1.00  0.00     0.000 HD 
HETATM   21  H1  UNL     1     -11.140   3.765  73.985  1.00  0.00     0.000 HD 
HETATM   22  N   UNL     1      -8.888   7.946  74.324  1.00  0.00    -0.429 NA 
HETATM   23  H1  UNL     1      -9.215   7.808  75.280  1.00  0.00     0.000 HD 
HETATM   24  H2  UNL     1      -9.161   8.888  74.045  1.00  0.00     0.000 HD 
ENDBRANCH   9  12
TORSDOF 1
ENDMDL
MODEL      225
REMARK 921   NORMALIZED FREE ENERGY PREDICTED BY IDOCK:   -3.01 KCAL/MOL
REMARK 922        TOTAL FREE ENERGY PREDICTED BY IDOCK:   -3.56 KCAL/MOL
REMARK 923 INTER-LIGAND FREE ENERGY PREDICTED BY IDOCK:   -3.17 KCAL/MOL
REMARK 924 INTRA-LIGAND FREE ENERGY PREDICTED BY IDOCK:   -0.39 KCAL/MOL
REMARK 927      BINDING AFFINITY PREDICTED BY RF-SCORE:    0.00 PKD
ROOT
HETATM    1  N   UNL     1      -5.848   8.102  68.079  1.00  0.00    -0.041 NA 
HETATM    2  H2  UNL     1      -5.082   8.431  67.491  1.00  0.00     0.000 HD 
HETATM    3  C   UNL     1      -6.816   8.976  68.420  1.00  0.00    -0.064 C  
HETATM    4  H1  UNL     1      -5.843   7.127  68.380  1.00  0.00     0.000 HD 
HETATM    5  N   UNL     1      -6.822  10.201  68.042  1.00  0.00    -0.070 NA 
HETATM    6  N   UNL     1      -7.861   8.587  69.203  1.00  0.00    -0.098 N  
HETATM    7  H   UNL     1      -8.535   9.310  69.455  1.00  0.00     0.000 HD 
HETATM    8  H2  UNL     1      -6.056  10.531  67.453  1.00  0.00     0.000 HD 
HETATM    9  C   UNL     1      -8.105   7.316  69.692  1.00  0.00    -0.129 C  
HETATM   10  H1  UNL     1      -7.555  10.862  68.299  1.00  0.00     0.000 HD 
HETATM   11  O   UNL     1      -7.306   6.380  69.622  1.00  0.00    -0.076 OA 
ENDROOT
BRANCH   9  12
HETATM   12  C   UNL     1      -9.411   7.151  70.389  1.00  0.00    -0.159 A  
HETATM   13  N   UNL     1      -9.355   7.043  71.747  1.00  0.00    -0.145 NA 
HETATM   14  C   UNL     1     -10.554   6.806  72.324  1.00  0.00    -0.213 A  
HETATM   15 CL   UNL     1     -10.479   6.602  74.029  1.00  0.00    -0.362 Cl 
HETATM   16  C   UNL     1     -11.760   6.683  71.608  1.00  0.00    -0.316 A  
HETATM   17  N   UNL     1     -13.003   6.492  72.214  1.00  0.00    -0.531 NA 
HETATM   18  N   UNL     1     -11.784   6.817  70.264  1.00  0.00    -0.362 NA 
HETATM   19  C   UNL     1     -10.600   7.044  69.647  1.00  0.00    -0.234 A  
HETATM   20  H2  UNL     1     -13.129   7.247  72.887  1.00  0.00     0.000 HD 
HETATM   21  H1  UNL     1     -13.877   6.403  71.695  1.00  0.00     0.000 HD 
HETATM   22  N   UNL     1     -10.682   7.286  68.278  1.00  0.00    -0.370 NA 
HETATM   23  H1  UNL     1     -11.545   7.208  67.740  1.00  0.00     0.000 HD 
HETATM   24  H2  UNL     1      -9.991   6.688  67.825  1.00  0.00     0.000 HD 
ENDBRANCH   9  12
TORSDOF 1
ENDMDL
MODEL      226
REMARK 921   NORMALIZED FREE ENERGY PREDICTED BY IDOCK:   -2.97 KCAL/MOL
REMARK 922        TOTAL FREE ENERGY PREDICTED BY IDOCK:   -3.52 KCAL/MOL
REMARK 923 INTER-LIGAND FREE ENERGY PREDICTED BY IDOCK:   -3.16 KCAL/MOL
REMARK 924 INTRA-LIGAND FREE ENERGY PREDICTED BY IDOCK:   -0.36 KCAL/MOL
REMARK 927      BINDING AFFINITY PREDICTED BY RF-SCORE:    0.00 PKD
ROOT
HETATM    1  N   UNL     1      -7.703  10.582  70.561  1.00  0.00    -0.279 NA 
HETATM    2  H2  UNL     1      -7.234  11.382  70.988  1.00  0.00     0.000 HD 
HETATM    3  C   UNL     1      -7.937  10.608  69.234  1.00  0.00    -0.135 C  
HETATM    4  H1  UNL     1      -7.972   9.802  71.161  1.00  0.00     0.000 HD 
HETATM    5  N   UNL     1      -7.599  11.589  68.480  1.00  0.00    -0.123 NA 
HETATM    6  N   UNL     1      -8.559   9.566  68.615  1.00  0.00    -0.118 N  
HETATM    7  H   UNL     1      -8.739   9.670  67.617  1.00  0.00     0.000 HD 
HETATM    8  H2  UNL     1      -7.130  12.389  68.906  1.00  0.00     0.000 HD 
HETATM    9  C   UNL     1      -8.972   8.381  69.198  1.00  0.00    -0.147 C  
HETATM   10  H1  UNL     1      -7.775  11.608  67.476  1.00  0.00     0.000 HD 
HETATM   11  O   UNL     1      -8.982   8.170  70.413  1.00  0.00    -0.142 OA 
ENDROOT
BRANCH   9  12
HETATM   12  C   UNL     1      -9.481   7.355  68.245  1.00  0.00    -0.142 A  
HETATM   13  N   UNL     1      -8.797   7.236  67.073  1.00  0.00    -0.125 NA 
HETATM   14  C   UNL     1      -9.349   6.356  66.207  1.00  0.00    -0.118 A  
HETATM   15 CL   UNL     1      -8.528   6.253  64.701  1.00  0.00    -0.021 Cl 
HETATM   16  C   UNL     1     -10.518   5.620  66.474  1.00  0.00    -0.249 A  
HETATM   17  N   UNL     1     -11.053   4.674  65.599  1.00  0.00    -0.893 NA 
HETATM   18  N   UNL     1     -11.161   5.746  67.656  1.00  0.00    -0.035 NA 
HETATM   19  C   UNL     1     -10.644   6.626  68.547  1.00  0.00    -0.233 A  
HETATM   20  H2  UNL     1     -10.315   4.001  65.393  1.00  0.00     0.000 HD 
HETATM   21  H1  UNL     1     -11.901   4.140  65.792  1.00  0.00     0.000 HD 
HETATM   22  N   UNL     1     -11.269   6.645  69.791  1.00  0.00    -0.396 NA 
HETATM   23  H1  UNL     1     -12.113   6.116  70.009  1.00  0.00     0.000 HD 
HETATM   24  H2  UNL     1     -11.460   7.621  70.018  1.00  0.00     0.000 HD 
ENDBRANCH   9  12
TORSDOF 1
ENDMDL
MODEL      227
REMARK 921   NORMALIZED FREE ENERGY PREDICTED BY IDOCK:   -2.95 KCAL/MOL
REMARK 922        TOTAL FREE ENERGY PREDICTED BY IDOCK:   -3.49 KCAL/MOL
REMARK 923 INTER-LIGAND FREE ENERGY PREDICTED BY IDOCK:   -3.10 KCAL/MOL
REMARK 924 INTRA-LIGAND FREE ENERGY PREDICTED BY IDOCK:   -0.39 KCAL/MOL
REMARK 927      BINDING AFFINITY PREDICTED BY RF-SCORE:    0.00 PKD
ROOT
HETATM    1  N   UNL     1      -9.371   7.628  69.218  1.00  0.00    -0.148 NA 
HETATM    2  H2  UNL     1      -9.562   6.736  69.675  1.00  0.00     0.000 HD 
HETATM    3  C   UNL     1     -10.341   8.565  69.209  1.00  0.00    -0.221 C  
HETATM    4  H1  UNL     1      -8.456   7.767  68.789  1.00  0.00     0.000 HD 
HETATM    5  N   UNL     1     -11.491   8.390  69.747  1.00  0.00    -0.431 NA 
HETATM    6  N   UNL     1     -10.138   9.773  68.612  1.00  0.00    -0.163 N  
HETATM    7  H   UNL     1     -10.928  10.418  68.608  1.00  0.00     0.000 HD 
HETATM    8  H2  UNL     1     -11.682   7.498  70.205  1.00  0.00     0.000 HD 
HETATM    9  C   UNL     1      -8.973  10.216  68.010  1.00  0.00    -0.125 C  
HETATM   10  H1  UNL     1     -12.224   9.099  69.741  1.00  0.00     0.000 HD 
HETATM   11  O   UNL     1      -7.993   9.504  67.783  1.00  0.00    -0.098 OA 
ENDROOT
BRANCH   9  12
HETATM   12  C   UNL     1      -8.991  11.643  67.581  1.00  0.00    -0.166 A  
HETATM   13  N   UNL     1     -10.056  12.025  66.822  1.00  0.00    -0.202 NA 
HETATM   14  C   UNL     1      -9.982  13.303  66.385  1.00  0.00    -0.288 A  
HETATM   15 CL   UNL     1     -11.290  13.769  65.371  1.00  0.00    -0.306 Cl 
HETATM   16  C   UNL     1      -8.915  14.173  66.679  1.00  0.00    -0.169 A  
HETATM   17  N   UNL     1      -8.871  15.507  66.270  1.00  0.00    -0.367 NA 
HETATM   18  N   UNL     1      -7.885  13.769  67.453  1.00  0.00    -0.170 NA 
HETATM   19  C   UNL     1      -7.917  12.491  67.902  1.00  0.00    -0.157 A  
HETATM   20  H2  UNL     1      -9.724  15.954  66.604  1.00  0.00     0.000 HD 
HETATM   21  H1  UNL     1      -8.097  16.138  66.483  1.00  0.00     0.000 HD 
HETATM   22  N   UNL     1      -6.896  12.148  68.785  1.00  0.00    -0.090 NA 
HETATM   23  H1  UNL     1      -6.117  12.763  69.017  1.00  0.00     0.000 HD 
HETATM   24  H2  UNL     1      -6.497  11.269  68.456  1.00  0.00     0.000 HD 
ENDBRANCH   9  12
TORSDOF 1
ENDMDL
MODEL      228
REMARK 921   NORMALIZED FREE ENERGY PREDICTED BY IDOCK:   -2.94 KCAL/MOL
REMARK 922        TOTAL FREE ENERGY PREDICTED BY IDOCK:   -3.49 KCAL/MOL
REMARK 923 INTER-LIGAND FREE ENERGY PREDICTED BY IDOCK:   -3.10 KCAL/MOL
REMARK 924 INTRA-LIGAND FREE ENERGY PREDICTED BY IDOCK:   -0.39 KCAL/MOL
REMARK 927      BINDING AFFINITY PREDICTED BY RF-SCORE:    0.00 PKD
ROOT
HETATM    1  N   UNL     1     -11.371   6.410  68.779  1.00  0.00    -0.571 NA 
HETATM    2  H2  UNL     1     -11.930   5.781  69.356  1.00  0.00     0.000 HD 
HETATM    3  C   UNL     1     -10.118   6.705  69.180  1.00  0.00    -0.169 C  
HETATM    4  H1  UNL     1     -11.788   6.785  67.927  1.00  0.00     0.000 HD 
HETATM    5  N   UNL     1      -9.594   6.234  70.251  1.00  0.00    -0.163 NA 
HETATM    6  N   UNL     1      -9.330   7.540  68.447  1.00  0.00    -0.142 N  
HETATM    7  H   UNL     1      -8.409   7.751  68.831  1.00  0.00     0.000 HD 
HETATM    8  H2  UNL     1     -10.153   5.604  70.828  1.00  0.00     0.000 HD 
HETATM    9  C   UNL     1      -9.647   8.132  67.237  1.00  0.00    -0.163 C  
HETATM   10  H1  UNL     1      -8.646   6.457  70.554  1.00  0.00     0.000 HD 
HETATM   11  O   UNL     1     -10.770   8.115  66.729  1.00  0.00    -0.278 OA 
ENDROOT
BRANCH   9  12
HETATM   12  C   UNL     1      -8.529   8.870  66.586  1.00  0.00    -0.119 A  
HETATM   13  N   UNL     1      -7.953   9.858  67.327  1.00  0.00    -0.109 NA 
HETATM   14  C   UNL     1      -7.005  10.555  66.661  1.00  0.00    -0.113 A  
HETATM   15 CL   UNL     1      -6.323  11.846  67.569  1.00  0.00    -0.090 Cl 
HETATM   16  C   UNL     1      -6.631  10.298  65.329  1.00  0.00    -0.119 A  
HETATM   17  N   UNL     1      -5.613  10.986  64.665  1.00  0.00    -0.460 NA 
HETATM   18  N   UNL     1      -7.206   9.296  64.629  1.00  0.00    -0.098 NA 
HETATM   19  C   UNL     1      -8.170   8.581  65.258  1.00  0.00    -0.149 A  
HETATM   20  H2  UNL     1      -4.772  10.904  65.235  1.00  0.00     0.000 HD 
HETATM   21  H1  UNL     1      -5.342  10.799  63.699  1.00  0.00     0.000 HD 
HETATM   22  N   UNL     1      -8.659   7.490  64.543  1.00  0.00    -0.362 NA 
HETATM   23  H1  UNL     1      -8.398   7.281  63.580  1.00  0.00     0.000 HD 
HETATM   24  H2  UNL     1      -9.677   7.542  64.574  1.00  0.00     0.000 HD 
ENDBRANCH   9  12
TORSDOF 1
ENDMDL
MODEL      229
REMARK 921   NORMALIZED FREE ENERGY PREDICTED BY IDOCK:   -2.93 KCAL/MOL
REMARK 922        TOTAL FREE ENERGY PREDICTED BY IDOCK:   -3.47 KCAL/MOL
REMARK 923 INTER-LIGAND FREE ENERGY PREDICTED BY IDOCK:   -3.09 KCAL/MOL
REMARK 924 INTRA-LIGAND FREE ENERGY PREDICTED BY IDOCK:   -0.38 KCAL/MOL
REMARK 927      BINDING AFFINITY PREDICTED BY RF-SCORE:    0.00 PKD
ROOT
HETATM    1  N   UNL     1      -7.623   9.460  65.948  1.00  0.00    -0.098 NA 
HETATM    2  H2  UNL     1      -7.040   8.635  65.803  1.00  0.00     0.000 HD 
HETATM    3  C   UNL     1      -7.377  10.239  67.020  1.00  0.00    -0.092 C  
HETATM    4  H1  UNL     1      -8.364   9.654  65.274  1.00  0.00     0.000 HD 
HETATM    5  N   UNL     1      -6.446   9.995  67.868  1.00  0.00    -0.059 NA 
HETATM    6  N   UNL     1      -8.126  11.352  67.260  1.00  0.00    -0.141 N  
HETATM    7  H   UNL     1      -7.911  11.871  68.110  1.00  0.00     0.000 HD 
HETATM    8  H2  UNL     1      -5.863   9.170  67.723  1.00  0.00     0.000 HD 
HETATM    9  C   UNL     1      -9.147  11.851  66.471  1.00  0.00    -0.211 C  
HETATM   10  H1  UNL     1      -6.260  10.585  68.679  1.00  0.00     0.000 HD 
HETATM   11  O   UNL     1      -9.638  11.254  65.511  1.00  0.00    -0.214 OA 
ENDROOT
BRANCH   9  12
HETATM   12  C   UNL     1      -9.683  13.173  66.899  1.00  0.00    -0.243 A  
HETATM   13  N   UNL     1      -9.875  13.336  68.238  1.00  0.00    -0.230 NA 
HETATM   14  C   UNL     1     -10.444  14.518  68.566  1.00  0.00    -0.250 A  
HETATM   15 CL   UNL     1     -10.751  14.700  70.248  1.00  0.00    -0.011 Cl 
HETATM   16  C   UNL     1     -10.808  15.502  67.629  1.00  0.00    -0.306 A  
HETATM   17  N   UNL     1     -11.345  16.743  67.978  1.00  0.00    -0.123 NA 
HETATM   18  N   UNL     1     -10.583  15.319  66.310  1.00  0.00    -0.302 NA 
HETATM   19  C   UNL     1     -10.024  14.142  65.938  1.00  0.00    -0.311 A  
HETATM   20  H2  UNL     1     -10.698  17.178  68.635  1.00  0.00     0.000 HD 
HETATM   21  H1  UNL     1     -11.609  17.456  67.298  1.00  0.00     0.000 HD 
HETATM   22  N   UNL     1      -9.708  14.037  64.586  1.00  0.00    -0.497 NA 
HETATM   23  H1  UNL     1      -9.956  14.739  63.890  1.00  0.00     0.000 HD 
HETATM   24  H2  UNL     1     -10.080  13.145  64.259  1.00  0.00     0.000 HD 
ENDBRANCH   9  12
TORSDOF 1
ENDMDL
MODEL      230
REMARK 921   NORMALIZED FREE ENERGY PREDICTED BY IDOCK:   -2.90 KCAL/MOL
REMARK 922        TOTAL FREE ENERGY PREDICTED BY IDOCK:   -3.44 KCAL/MOL
REMARK 923 INTER-LIGAND FREE ENERGY PREDICTED BY IDOCK:   -3.07 KCAL/MOL
REMARK 924 INTRA-LIGAND FREE ENERGY PREDICTED BY IDOCK:   -0.37 KCAL/MOL
REMARK 927      BINDING AFFINITY PREDICTED BY RF-SCORE:    0.00 PKD
ROOT
HETATM    1  N   UNL     1      -5.620   7.930  64.608  1.00  0.00    -0.043 NA 
HETATM    2  H2  UNL     1      -4.959   7.440  64.004  1.00  0.00     0.000 HD 
HETATM    3  C   UNL     1      -6.926   7.916  64.275  1.00  0.00    -0.068 C  
HETATM    4  H1  UNL     1      -5.258   8.408  65.434  1.00  0.00     0.000 HD 
HETATM    5  N   UNL     1      -7.380   7.316  63.237  1.00  0.00    -0.079 NA 
HETATM    6  N   UNL     1      -7.849   8.555  65.047  1.00  0.00    -0.105 N  
HETATM    7  H   UNL     1      -8.813   8.537  64.714  1.00  0.00     0.000 HD 
HETATM    8  H2  UNL     1      -6.720   6.824  62.633  1.00  0.00     0.000 HD 
HETATM    9  C   UNL     1      -7.617   9.226  66.235  1.00  0.00    -0.096 C  
HETATM   10  H1  UNL     1      -8.369   7.304  62.986  1.00  0.00     0.000 HD 
HETATM   11  O   UNL     1      -6.497   9.483  66.680  1.00  0.00    -0.065 OA 
ENDROOT
BRANCH   9  12
HETATM   12  C   UNL     1      -8.841   9.693  66.943  1.00  0.00    -0.131 A  
HETATM   13  N   UNL     1      -9.210   8.971  68.039  1.00  0.00    -0.135 NA 
HETATM   14  C   UNL     1     -10.374   9.380  68.593  1.00  0.00    -0.203 A  
HETATM   15 CL   UNL     1     -10.878   8.430  69.934  1.00  0.00    -0.233 Cl 
HETATM   16  C   UNL     1     -11.145  10.450  68.102  1.00  0.00    -0.285 A  
HETATM   17  N   UNL     1     -12.317  10.902  68.710  1.00  0.00    -0.772 NA 
HETATM   18  N   UNL     1     -10.739  11.159  67.026  1.00  0.00    -0.255 NA 
HETATM   19  C   UNL     1      -9.583  10.774  66.435  1.00  0.00    -0.189 A  
HETATM   20  H2  UNL     1     -12.091  11.115  69.681  1.00  0.00     0.000 HD 
HETATM   21  H1  UNL     1     -12.876  11.678  68.354  1.00  0.00     0.000 HD 
HETATM   22  N   UNL     1      -9.144  11.596  65.400  1.00  0.00    -0.413 NA 
HETATM   23  H1  UNL     1      -9.682  12.380  65.032  1.00  0.00     0.000 HD 
HETATM   24  H2  UNL     1      -8.916  10.991  64.611  1.00  0.00     0.000 HD 
ENDBRANCH   9  12
TORSDOF 1
ENDMDL
MODEL      231
REMARK 921   NORMALIZED FREE ENERGY PREDICTED BY IDOCK:   -2.89 KCAL/MOL
REMARK 922        TOTAL FREE ENERGY PREDICTED BY IDOCK:   -3.43 KCAL/MOL
REMARK 923 INTER-LIGAND FREE ENERGY PREDICTED BY IDOCK:   -3.27 KCAL/MOL
REMARK 924 INTRA-LIGAND FREE ENERGY PREDICTED BY IDOCK:   -0.16 KCAL/MOL
REMARK 927      BINDING AFFINITY PREDICTED BY RF-SCORE:    0.00 PKD
ROOT
HETATM    1  N   UNL     1      -7.782   8.562  74.066  1.00  0.00    -0.400 NA 
HETATM    2  H2  UNL     1      -7.233   8.798  74.893  1.00  0.00     0.000 HD 
HETATM    3  C   UNL     1      -7.147   8.467  72.880  1.00  0.00    -0.067 C  
HETATM    4  H1  UNL     1      -8.785   8.412  74.177  1.00  0.00     0.000 HD 
HETATM    5  N   UNL     1      -5.886   8.656  72.741  1.00  0.00    -0.077 NA 
HETATM    6  N   UNL     1      -7.833   8.156  71.745  1.00  0.00    -0.102 N  
HETATM    7  H   UNL     1      -7.296   8.140  70.878  1.00  0.00     0.000 HD 
HETATM    8  H2  UNL     1      -5.337   8.891  73.569  1.00  0.00     0.000 HD 
HETATM    9  C   UNL     1      -9.181   7.859  71.644  1.00  0.00    -0.141 C  
HETATM   10  H1  UNL     1      -5.406   8.583  71.845  1.00  0.00     0.000 HD 
HETATM   11  O   UNL     1      -9.993   7.999  72.560  1.00  0.00    -0.219 OA 
ENDROOT
BRANCH   9  12
HETATM   12  C   UNL     1      -9.624   7.400  70.299  1.00  0.00    -0.165 A  
HETATM   13  N   UNL     1      -8.688   7.451  69.310  1.00  0.00    -0.137 NA 
HETATM   14  C   UNL     1      -9.163   7.108  68.091  1.00  0.00    -0.131 A  
HETATM   15 CL   UNL     1      -8.002   7.236  66.830  1.00  0.00    -0.110 Cl 
HETATM   16  C   UNL     1     -10.496   6.729  67.846  1.00  0.00    -0.218 A  
HETATM   17  N   UNL     1     -10.968   6.325  66.596  1.00  0.00    -0.697 NA 
HETATM   18  N   UNL     1     -11.395   6.668  68.853  1.00  0.00    -0.192 NA 
HETATM   19  C   UNL     1     -10.960   7.014  70.088  1.00  0.00    -0.272 A  
HETATM   20  H2  UNL     1     -10.374   5.557  66.284  1.00  0.00     0.000 HD 
HETATM   21  H1  UNL     1     -11.934   6.050  66.418  1.00  0.00     0.000 HD 
HETATM   22  N   UNL     1     -11.884   6.832  71.114  1.00  0.00    -0.343 NA 
HETATM   23  H1  UNL     1     -12.852   6.553  70.961  1.00  0.00     0.000 HD 
HETATM   24  H2  UNL     1     -11.903   7.695  71.658  1.00  0.00     0.000 HD 
ENDBRANCH   9  12
TORSDOF 1
ENDMDL
MODEL      232
REMARK 921   NORMALIZED FREE ENERGY PREDICTED BY IDOCK:   -2.87 KCAL/MOL
REMARK 922        TOTAL FREE ENERGY PREDICTED BY IDOCK:   -3.41 KCAL/MOL
REMARK 923 INTER-LIGAND FREE ENERGY PREDICTED BY IDOCK:   -3.27 KCAL/MOL
REMARK 924 INTRA-LIGAND FREE ENERGY PREDICTED BY IDOCK:   -0.15 KCAL/MOL
REMARK 927      BINDING AFFINITY PREDICTED BY RF-SCORE:    0.00 PKD
ROOT
HETATM    1  N   UNL     1     -10.039  10.827  63.142  1.00  0.00    -0.589 NA 
HETATM    2  H2  UNL     1     -10.036  11.280  62.228  1.00  0.00     0.000 HD 
HETATM    3  C   UNL     1      -9.239   9.758  63.331  1.00  0.00    -0.176 C  
HETATM    4  H1  UNL     1     -10.647  11.205  63.869  1.00  0.00     0.000 HD 
HETATM    5  N   UNL     1      -8.474   9.283  62.417  1.00  0.00    -0.184 NA 
HETATM    6  N   UNL     1      -9.205   9.117  64.532  1.00  0.00    -0.422 N  
HETATM    7  H   UNL     1      -8.608   8.292  64.591  1.00  0.00     0.000 HD 
HETATM    8  H2  UNL     1      -8.471   9.737  61.503  1.00  0.00     0.000 HD 
HETATM    9  C   UNL     1      -9.894   9.465  65.680  1.00  0.00    -0.223 C  
HETATM   10  H1  UNL     1      -7.869   8.475  62.560  1.00  0.00     0.000 HD 
HETATM   11  O   UNL     1     -10.777  10.324  65.726  1.00  0.00    -0.065 OA 
ENDROOT
BRANCH   9  12
HETATM   12  C   UNL     1      -9.540   8.674  66.891  1.00  0.00    -0.194 A  
HETATM   13  N   UNL     1      -8.611   7.694  66.714  1.00  0.00    -0.125 NA 
HETATM   14  C   UNL     1      -8.389   6.948  67.820  1.00  0.00    -0.120 A  
HETATM   15 CL   UNL     1      -7.267   5.667  67.583  1.00  0.00    -0.074 Cl 
HETATM   16  C   UNL     1      -9.044   7.151  69.049  1.00  0.00    -0.132 A  
HETATM   17  N   UNL     1      -8.772   6.412  70.202  1.00  0.00    -0.138 NA 
HETATM   18  N   UNL     1      -9.945   8.146  69.197  1.00  0.00    -0.187 NA 
HETATM   19  C   UNL     1     -10.203   8.910  68.108  1.00  0.00    -0.201 A  
HETATM   20  H2  UNL     1      -7.771   6.487  70.379  1.00  0.00     0.000 HD 
HETATM   21  H1  UNL     1      -9.247   6.560  71.093  1.00  0.00     0.000 HD 
HETATM   22  N   UNL     1     -11.052   9.991  68.331  1.00  0.00    -0.438 NA 
HETATM   23  H1  UNL     1     -11.533  10.162  69.213  1.00  0.00     0.000 HD 
HETATM   24  H2  UNL     1     -11.764   9.970  67.600  1.00  0.00     0.000 HD 
ENDBRANCH   9  12
TORSDOF 1
ENDMDL
MODEL      233
REMARK 921   NORMALIZED FREE ENERGY PREDICTED BY IDOCK:   -2.87 KCAL/MOL
REMARK 922        TOTAL FREE ENERGY PREDICTED BY IDOCK:   -3.41 KCAL/MOL
REMARK 923 INTER-LIGAND FREE ENERGY PREDICTED BY IDOCK:   -3.14 KCAL/MOL
REMARK 924 INTRA-LIGAND FREE ENERGY PREDICTED BY IDOCK:   -0.27 KCAL/MOL
REMARK 927      BINDING AFFINITY PREDICTED BY RF-SCORE:    0.00 PKD
ROOT
HETATM    1  N   UNL     1     -11.790   8.537  70.814  1.00  0.00    -0.441 NA 
HETATM    2  H2  UNL     1     -12.230   8.812  71.693  1.00  0.00     0.000 HD 
HETATM    3  C   UNL     1     -11.259   9.499  70.033  1.00  0.00    -0.209 C  
HETATM    4  H1  UNL     1     -11.775   7.547  70.570  1.00  0.00     0.000 HD 
HETATM    5  N   UNL     1     -11.279  10.744  70.341  1.00  0.00    -0.448 NA 
HETATM    6  N   UNL     1     -10.661   9.185  68.850  1.00  0.00    -0.363 N  
HETATM    7  H   UNL     1     -10.317   9.967  68.292  1.00  0.00     0.000 HD 
HETATM    8  H2  UNL     1     -11.718  11.020  71.220  1.00  0.00     0.000 HD 
HETATM    9  C   UNL     1     -10.471   7.919  68.326  1.00  0.00    -0.164 C  
HETATM   10  H1  UNL     1     -10.877  11.472  69.750  1.00  0.00     0.000 HD 
HETATM   11  O   UNL     1     -10.973   6.893  68.789  1.00  0.00    -0.213 OA 
ENDROOT
BRANCH   9  12
HETATM   12  C   UNL     1      -9.644   7.869  67.088  1.00  0.00    -0.171 A  
HETATM   13  N   UNL     1      -9.557   9.029  66.379  1.00  0.00    -0.222 NA 
HETATM   14  C   UNL     1      -8.869   8.910  65.221  1.00  0.00    -0.184 A  
HETATM   15 CL   UNL     1      -8.816  10.354  64.290  1.00  0.00    -0.207 Cl 
HETATM   16  C   UNL     1      -8.287   7.709  64.773  1.00  0.00    -0.027 A  
HETATM   17  N   UNL     1      -7.533   7.604  63.603  1.00  0.00    -0.094 NA 
HETATM   18  N   UNL     1      -8.373   6.581  65.511  1.00  0.00    -0.145 NA 
HETATM   19  C   UNL     1      -9.063   6.657  66.674  1.00  0.00    -0.145 A  
HETATM   20  H2  UNL     1      -6.787   8.296  63.662  1.00  0.00     0.000 HD 
HETATM   21  H1  UNL     1      -7.111   6.734  63.279  1.00  0.00     0.000 HD 
HETATM   22  N   UNL     1      -9.035   5.505  67.457  1.00  0.00    -0.109 NA 
HETATM   23  H1  UNL     1      -8.614   4.627  67.156  1.00  0.00     0.000 HD 
HETATM   24  H2  UNL     1      -9.997   5.301  67.727  1.00  0.00     0.000 HD 
ENDBRANCH   9  12
TORSDOF 1
ENDMDL
MODEL      234
REMARK 921   NORMALIZED FREE ENERGY PREDICTED BY IDOCK:   -2.87 KCAL/MOL
REMARK 922        TOTAL FREE ENERGY PREDICTED BY IDOCK:   -3.41 KCAL/MOL
REMARK 923 INTER-LIGAND FREE ENERGY PREDICTED BY IDOCK:   -3.03 KCAL/MOL
REMARK 924 INTRA-LIGAND FREE ENERGY PREDICTED BY IDOCK:   -0.38 KCAL/MOL
REMARK 927      BINDING AFFINITY PREDICTED BY RF-SCORE:    0.00 PKD
ROOT
HETATM    1  N   UNL     1      -5.737  12.603  71.316  1.00  0.00    -0.507 NA 
HETATM    2  H2  UNL     1      -5.162  13.037  72.038  1.00  0.00     0.000 HD 
HETATM    3  C   UNL     1      -6.396  13.401  70.453  1.00  0.00     0.094 C  
HETATM    4  H1  UNL     1      -5.785  11.584  71.283  1.00  0.00     0.000 HD 
HETATM    5  N   UNL     1      -6.336  14.681  70.495  1.00  0.00    -0.201 NA 
HETATM    6  N   UNL     1      -7.177  12.871  69.471  1.00  0.00    -0.304 N  
HETATM    7  H   UNL     1      -7.678  13.535  68.880  1.00  0.00     0.000 HD 
HETATM    8  H2  UNL     1      -5.761  15.117  71.217  1.00  0.00     0.000 HD 
HETATM    9  C   UNL     1      -7.363  11.529  69.190  1.00  0.00    -0.057 C  
HETATM   10  H1  UNL     1      -6.834  15.286  69.841  1.00  0.00     0.000 HD 
HETATM   11  O   UNL     1      -6.969  10.608  69.909  1.00  0.00    -0.143 OA 
ENDROOT
BRANCH   9  12
HETATM   12  C   UNL     1      -8.147  11.248  67.956  1.00  0.00    -0.128 A  
HETATM   13  N   UNL     1      -7.437  10.793  66.886  1.00  0.00    -0.113 NA 
HETATM   14  C   UNL     1      -8.179  10.636  65.766  1.00  0.00    -0.161 A  
HETATM   15 CL   UNL     1      -7.273  10.128  64.396  1.00  0.00    -0.135 Cl 
HETATM   16  C   UNL     1      -9.557  10.909  65.693  1.00  0.00    -0.224 A  
HETATM   17  N   UNL     1     -10.329  10.694  64.549  1.00  0.00    -0.339 NA 
HETATM   18  N   UNL     1     -10.237  11.338  66.779  1.00  0.00    -0.218 NA 
HETATM   19  C   UNL     1      -9.527  11.517  67.918  1.00  0.00    -0.178 A  
HETATM   20  H2  UNL     1     -10.200   9.720  64.277  1.00  0.00     0.000 HD 
HETATM   21  H1  UNL     1     -11.328  10.891  64.496  1.00  0.00     0.000 HD 
HETATM   22  N   UNL     1     -10.281  11.853  69.040  1.00  0.00    -0.417 NA 
HETATM   23  H1  UNL     1     -11.281  12.048  69.012  1.00  0.00     0.000 HD 
HETATM   24  H2  UNL     1      -9.830  12.656  69.477  1.00  0.00     0.000 HD 
ENDBRANCH   9  12
TORSDOF 1
ENDMDL
MODEL      235
REMARK 921   NORMALIZED FREE ENERGY PREDICTED BY IDOCK:   -2.83 KCAL/MOL
REMARK 922        TOTAL FREE ENERGY PREDICTED BY IDOCK:   -3.37 KCAL/MOL
REMARK 923 INTER-LIGAND FREE ENERGY PREDICTED BY IDOCK:   -2.99 KCAL/MOL
REMARK 924 INTRA-LIGAND FREE ENERGY PREDICTED BY IDOCK:   -0.38 KCAL/MOL
REMARK 927      BINDING AFFINITY PREDICTED BY RF-SCORE:    0.00 PKD
ROOT
HETATM    1  N   UNL     1      -5.605  12.965  71.438  1.00  0.00    -0.446 NA 
HETATM    2  H2  UNL     1      -5.100  13.574  72.082  1.00  0.00     0.000 HD 
HETATM    3  C   UNL     1      -6.376  13.532  70.489  1.00  0.00     0.112 C  
HETATM    4  H1  UNL     1      -5.501  11.955  71.545  1.00  0.00     0.000 HD 
HETATM    5  N   UNL     1      -6.506  14.800  70.356  1.00  0.00    -0.177 NA 
HETATM    6  N   UNL     1      -7.072  12.764  69.605  1.00  0.00    -0.308 N  
HETATM    7  H   UNL     1      -7.666  13.259  68.940  1.00  0.00     0.000 HD 
HETATM    8  H2  UNL     1      -6.001  15.411  70.999  1.00  0.00     0.000 HD 
HETATM    9  C   UNL     1      -7.057  11.383  69.513  1.00  0.00    -0.019 C  
HETATM   10  H1  UNL     1      -7.089  15.230  69.637  1.00  0.00     0.000 HD 
HETATM   11  O   UNL     1      -6.530  10.637  70.341  1.00  0.00    -0.182 OA 
ENDROOT
BRANCH   9  12
HETATM   12  C   UNL     1      -7.793  10.822  68.346  1.00  0.00    -0.120 A  
HETATM   13  N   UNL     1      -8.745   9.890  68.631  1.00  0.00    -0.120 NA 
HETATM   14  C   UNL     1      -9.322   9.349  67.534  1.00  0.00    -0.127 A  
HETATM   15 CL   UNL     1     -10.475   8.124  67.887  1.00  0.00    -0.276 Cl 
HETATM   16  C   UNL     1      -8.987   9.704  66.214  1.00  0.00    -0.155 A  
HETATM   17  N   UNL     1      -9.624   9.180  65.087  1.00  0.00    -0.446 NA 
HETATM   18  N   UNL     1      -8.053  10.648  65.967  1.00  0.00    -0.156 NA 
HETATM   19  C   UNL     1      -7.444  11.207  67.039  1.00  0.00    -0.132 A  
HETATM   20  H2  UNL     1     -10.623   9.349  65.200  1.00  0.00     0.000 HD 
HETATM   21  H1  UNL     1      -9.381   9.438  64.130  1.00  0.00     0.000 HD 
HETATM   22  N   UNL     1      -6.570  12.251  66.747  1.00  0.00    -0.434 NA 
HETATM   23  H1  UNL     1      -6.318  12.530  65.799  1.00  0.00     0.000 HD 
HETATM   24  H2  UNL     1      -5.701  12.066  67.247  1.00  0.00     0.000 HD 
ENDBRANCH   9  12
TORSDOF 1
ENDMDL
MODEL      236
REMARK 921   NORMALIZED FREE ENERGY PREDICTED BY IDOCK:   -2.83 KCAL/MOL
REMARK 922        TOTAL FREE ENERGY PREDICTED BY IDOCK:   -3.36 KCAL/MOL
REMARK 923 INTER-LIGAND FREE ENERGY PREDICTED BY IDOCK:   -2.99 KCAL/MOL
REMARK 924 INTRA-LIGAND FREE ENERGY PREDICTED BY IDOCK:   -0.38 KCAL/MOL
REMARK 927      BINDING AFFINITY PREDICTED BY RF-SCORE:    0.00 PKD
ROOT
HETATM    1  N   UNL     1     -10.081  16.701  68.235  1.00  0.00    -0.257 NA 
HETATM    2  H2  UNL     1     -10.178  17.707  68.371  1.00  0.00     0.000 HD 
HETATM    3  C   UNL     1      -8.943  16.104  68.643  1.00  0.00    -0.221 C  
HETATM    4  H1  UNL     1     -10.851  16.195  67.795  1.00  0.00     0.000 HD 
HETATM    5  N   UNL     1      -7.976  16.740  69.195  1.00  0.00    -0.185 NA 
HETATM    6  N   UNL     1      -8.763  14.763  68.484  1.00  0.00    -0.169 N  
HETATM    7  H   UNL     1      -7.862  14.387  68.779  1.00  0.00     0.000 HD 
HETATM    8  H2  UNL     1      -8.073  17.747  69.332  1.00  0.00     0.000 HD 
HETATM    9  C   UNL     1      -9.672  13.859  67.965  1.00  0.00    -0.226 C  
HETATM   10  H1  UNL     1      -7.115  16.289  69.505  1.00  0.00     0.000 HD 
HETATM   11  O   UNL     1     -10.728  14.174  67.413  1.00  0.00    -0.279 OA 
ENDROOT
BRANCH   9  12
HETATM   12  C   UNL     1      -9.262  12.430  68.060  1.00  0.00    -0.203 A  
HETATM   13  N   UNL     1     -10.164  11.585  68.633  1.00  0.00    -0.209 NA 
HETATM   14  C   UNL     1      -9.710  10.319  68.776  1.00  0.00    -0.177 A  
HETATM   15 CL   UNL     1     -10.820   9.266  69.560  1.00  0.00    -0.231 Cl 
HETATM   16  C   UNL     1      -8.431   9.893  68.373  1.00  0.00    -0.111 A  
HETATM   17  N   UNL     1      -7.988   8.573  68.473  1.00  0.00    -0.115 NA 
HETATM   18  N   UNL     1      -7.568  10.752  67.787  1.00  0.00    -0.094 NA 
HETATM   19  C   UNL     1      -7.981  12.033  67.636  1.00  0.00    -0.150 A  
HETATM   20  H2  UNL     1      -8.667   7.989  67.986  1.00  0.00     0.000 HD 
HETATM   21  H1  UNL     1      -7.061   8.264  68.181  1.00  0.00     0.000 HD 
HETATM   22  N   UNL     1      -7.109  12.857  66.931  1.00  0.00    -0.357 NA 
HETATM   23  H1  UNL     1      -6.181  12.569  66.624  1.00  0.00     0.000 HD 
HETATM   24  H2  UNL     1      -6.993  13.711  67.477  1.00  0.00     0.000 HD 
ENDBRANCH   9  12
TORSDOF 1
ENDMDL
MODEL      237
REMARK 921   NORMALIZED FREE ENERGY PREDICTED BY IDOCK:   -2.81 KCAL/MOL
REMARK 922        TOTAL FREE ENERGY PREDICTED BY IDOCK:   -3.35 KCAL/MOL
REMARK 923 INTER-LIGAND FREE ENERGY PREDICTED BY IDOCK:   -2.96 KCAL/MOL
REMARK 924 INTRA-LIGAND FREE ENERGY PREDICTED BY IDOCK:   -0.39 KCAL/MOL
REMARK 927      BINDING AFFINITY PREDICTED BY RF-SCORE:    0.00 PKD
ROOT
HETATM    1  N   UNL     1      -5.811  11.348  68.382  1.00  0.00    -0.045 NA 
HETATM    2  H2  UNL     1      -5.588  10.366  68.550  1.00  0.00     0.000 HD 
HETATM    3  C   UNL     1      -7.071  11.669  68.026  1.00  0.00    -0.080 C  
HETATM    4  H1  UNL     1      -5.067  12.039  68.490  1.00  0.00     0.000 HD 
HETATM    5  N   UNL     1      -8.004  10.801  67.890  1.00  0.00    -0.109 NA 
HETATM    6  N   UNL     1      -7.420  12.964  67.790  1.00  0.00    -0.121 N  
HETATM    7  H   UNL     1      -8.380  13.129  67.486  1.00  0.00     0.000 HD 
HETATM    8  H2  UNL     1      -7.783   9.819  68.058  1.00  0.00     0.000 HD 
HETATM    9  C   UNL     1      -6.611  14.079  67.919  1.00  0.00    -0.165 C  
HETATM   10  H1  UNL     1      -8.958  11.043  67.622  1.00  0.00     0.000 HD 
HETATM   11  O   UNL     1      -5.394  14.036  68.109  1.00  0.00    -0.105 OA 
ENDROOT
BRANCH   9  12
HETATM   12  C   UNL     1      -7.308  15.384  67.747  1.00  0.00    -0.161 A  
HETATM   13  N   UNL     1      -6.834  16.189  66.755  1.00  0.00    -0.253 NA 
HETATM   14  C   UNL     1      -7.441  17.397  66.697  1.00  0.00    -0.253 A  
HETATM   15 CL   UNL     1      -6.801  18.441  65.491  1.00  0.00    -0.277 Cl 
HETATM   16  C   UNL     1      -8.469  17.802  67.569  1.00  0.00    -0.227 A  
HETATM   17  N   UNL     1      -9.128  19.028  67.470  1.00  0.00    -0.286 NA 
HETATM   18  N   UNL     1      -8.930  16.971  68.529  1.00  0.00    -0.256 NA 
HETATM   19  C   UNL     1      -8.341  15.755  68.626  1.00  0.00    -0.183 A  
HETATM   20  H2  UNL     1      -9.493  19.099  66.521  1.00  0.00     0.000 HD 
HETATM   21  H1  UNL     1      -9.873  19.322  68.102  1.00  0.00     0.000 HD 
HETATM   22  N   UNL     1      -8.918  14.890  69.552  1.00  0.00    -0.440 NA 
HETATM   23  H1  UNL     1      -9.667  15.159  70.189  1.00  0.00     0.000 HD 
HETATM   24  H2  UNL     1      -8.161  14.510  70.121  1.00  0.00     0.000 HD 
ENDBRANCH   9  12
TORSDOF 1
ENDMDL
MODEL      238
REMARK 921   NORMALIZED FREE ENERGY PREDICTED BY IDOCK:   -2.78 KCAL/MOL
REMARK 922        TOTAL FREE ENERGY PREDICTED BY IDOCK:   -3.32 KCAL/MOL
REMARK 923 INTER-LIGAND FREE ENERGY PREDICTED BY IDOCK:   -2.97 KCAL/MOL
REMARK 924 INTRA-LIGAND FREE ENERGY PREDICTED BY IDOCK:   -0.36 KCAL/MOL
REMARK 927      BINDING AFFINITY PREDICTED BY RF-SCORE:    0.00 PKD
ROOT
HETATM    1  N   UNL     1     -11.910  11.591  67.643  1.00  0.00    -0.629 NA 
HETATM    2  H2  UNL     1     -12.657  12.284  67.578  1.00  0.00     0.000 HD 
HETATM    3  C   UNL     1     -11.898  10.759  68.704  1.00  0.00    -0.138 C  
HETATM    4  H1  UNL     1     -11.210  11.563  66.902  1.00  0.00     0.000 HD 
HETATM    5  N   UNL     1     -12.779  10.795  69.635  1.00  0.00    -0.528 NA 
HETATM    6  N   UNL     1     -10.924   9.816  68.839  1.00  0.00    -0.367 N  
HETATM    7  H   UNL     1     -10.954   9.248  69.685  1.00  0.00     0.000 HD 
HETATM    8  H2  UNL     1     -13.526  11.487  69.570  1.00  0.00     0.000 HD 
HETATM    9  C   UNL     1      -9.899   9.548  67.949  1.00  0.00    -0.156 C  
HETATM   10  H1  UNL     1     -12.770  10.165  70.437  1.00  0.00     0.000 HD 
HETATM   11  O   UNL     1      -9.625  10.249  66.973  1.00  0.00    -0.163 OA 
ENDROOT
BRANCH   9  12
HETATM   12  C   UNL     1      -9.074   8.353  68.282  1.00  0.00    -0.139 A  
HETATM   13  N   UNL     1      -9.636   7.143  68.007  1.00  0.00    -0.133 NA 
HETATM   14  C   UNL     1      -8.886   6.091  68.407  1.00  0.00    -0.112 A  
HETATM   15 CL   UNL     1      -9.622   4.563  68.123  1.00  0.00    -0.203 Cl 
HETATM   16  C   UNL     1      -7.639   6.214  69.047  1.00  0.00    -0.091 A  
HETATM   17  N   UNL     1      -6.845   5.124  69.410  1.00  0.00    -0.052 NA 
HETATM   18  N   UNL     1      -7.100   7.429  69.286  1.00  0.00    -0.072 NA 
HETATM   19  C   UNL     1      -7.825   8.509  68.909  1.00  0.00    -0.109 A  
HETATM   20  H2  UNL     1      -6.698   4.565  68.570  1.00  0.00     0.000 HD 
HETATM   21  H1  UNL     1      -5.941   5.213  69.874  1.00  0.00     0.000 HD 
HETATM   22  N   UNL     1      -7.188   9.736  69.071  1.00  0.00    -0.073 NA 
HETATM   23  H1  UNL     1      -6.283   9.849  69.526  1.00  0.00     0.000 HD 
HETATM   24  H2  UNL     1      -7.843  10.355  69.549  1.00  0.00     0.000 HD 
ENDBRANCH   9  12
TORSDOF 1
ENDMDL
MODEL      239
REMARK 921   NORMALIZED FREE ENERGY PREDICTED BY IDOCK:   -2.76 KCAL/MOL
REMARK 922        TOTAL FREE ENERGY PREDICTED BY IDOCK:   -3.30 KCAL/MOL
REMARK 923 INTER-LIGAND FREE ENERGY PREDICTED BY IDOCK:   -2.97 KCAL/MOL
REMARK 924 INTRA-LIGAND FREE ENERGY PREDICTED BY IDOCK:   -0.33 KCAL/MOL
REMARK 927      BINDING AFFINITY PREDICTED BY RF-SCORE:    0.00 PKD
ROOT
HETATM    1  N   UNL     1     -10.946  13.730  67.730  1.00  0.00    -0.252 NA 
HETATM    2  H2  UNL     1     -11.330  14.649  67.952  1.00  0.00     0.000 HD 
HETATM    3  C   UNL     1     -11.025  12.760  68.663  1.00  0.00    -0.260 C  
HETATM    4  H1  UNL     1     -10.521  13.591  66.813  1.00  0.00     0.000 HD 
HETATM    5  N   UNL     1     -11.559  12.934  69.815  1.00  0.00    -0.477 NA 
HETATM    6  N   UNL     1     -10.528  11.515  68.417  1.00  0.00    -0.199 N  
HETATM    7  H   UNL     1     -10.586  10.842  69.182  1.00  0.00     0.000 HD 
HETATM    8  H2  UNL     1     -11.943  13.854  70.037  1.00  0.00     0.000 HD 
HETATM    9  C   UNL     1      -9.954  11.067  67.240  1.00  0.00    -0.181 C  
HETATM   10  H1  UNL     1     -11.619  12.200  70.520  1.00  0.00     0.000 HD 
HETATM   11  O   UNL     1      -9.658  11.795  66.291  1.00  0.00    -0.214 OA 
ENDROOT
BRANCH   9  12
HETATM   12  C   UNL     1      -9.644   9.611  67.206  1.00  0.00    -0.164 A  
HETATM   13  N   UNL     1      -9.393   9.024  68.410  1.00  0.00    -0.139 NA 
HETATM   14  C   UNL     1      -9.032   7.724  68.318  1.00  0.00    -0.131 A  
HETATM   15 CL   UNL     1      -8.648   6.999  69.828  1.00  0.00    -0.140 Cl 
HETATM   16  C   UNL     1      -8.923   7.024  67.102  1.00  0.00    -0.121 A  
HETATM   17  N   UNL     1      -8.603   5.668  67.016  1.00  0.00    -0.110 NA 
HETATM   18  N   UNL     1      -9.201   7.629  65.927  1.00  0.00    -0.063 NA 
HETATM   19  C   UNL     1      -9.556   8.935  65.976  1.00  0.00    -0.250 A  
HETATM   20  H2  UNL     1      -9.272   5.162  67.596  1.00  0.00     0.000 HD 
HETATM   21  H1  UNL     1      -8.524   5.160  66.135  1.00  0.00     0.000 HD 
HETATM   22  N   UNL     1      -9.941   9.491  64.759  1.00  0.00    -0.266 NA 
HETATM   23  H1  UNL     1      -9.877   9.001  63.867  1.00  0.00     0.000 HD 
HETATM   24  H2  UNL     1      -9.434  10.370  64.655  1.00  0.00     0.000 HD 
ENDBRANCH   9  12
TORSDOF 1
ENDMDL
MODEL      240
REMARK 921   NORMALIZED FREE ENERGY PREDICTED BY IDOCK:   -2.76 KCAL/MOL
REMARK 922        TOTAL FREE ENERGY PREDICTED BY IDOCK:   -3.29 KCAL/MOL
REMARK 923 INTER-LIGAND FREE ENERGY PREDICTED BY IDOCK:   -2.92 KCAL/MOL
REMARK 924 INTRA-LIGAND FREE ENERGY PREDICTED BY IDOCK:   -0.37 KCAL/MOL
REMARK 927      BINDING AFFINITY PREDICTED BY RF-SCORE:    0.00 PKD
ROOT
HETATM    1  N   UNL     1      -6.844  13.105  69.543  1.00  0.00    -0.321 NA 
HETATM    2  H2  UNL     1      -6.366  13.991  69.710  1.00  0.00     0.000 HD 
HETATM    3  C   UNL     1      -7.586  12.975  68.425  1.00  0.00    -0.133 C  
HETATM    4  H1  UNL     1      -6.737  12.359  70.232  1.00  0.00     0.000 HD 
HETATM    5  N   UNL     1      -7.721  13.912  67.560  1.00  0.00    -0.175 NA 
HETATM    6  N   UNL     1      -8.245  11.814  68.156  1.00  0.00    -0.146 N  
HETATM    7  H   UNL     1      -8.819  11.800  67.313  1.00  0.00     0.000 HD 
HETATM    8  H2  UNL     1      -7.243  14.798  67.726  1.00  0.00     0.000 HD 
HETATM    9  C   UNL     1      -8.216  10.650  68.904  1.00  0.00    -0.145 C  
HETATM   10  H1  UNL     1      -8.282  13.814  66.713  1.00  0.00     0.000 HD 
HETATM   11  O   UNL     1      -7.713  10.557  70.025  1.00  0.00    -0.098 OA 
ENDROOT
BRANCH   9  12
HETATM   12  C   UNL     1      -8.907   9.486  68.282  1.00  0.00    -0.124 A  
HETATM   13  N   UNL     1      -8.271   8.908  67.224  1.00  0.00    -0.104 NA 
HETATM   14  C   UNL     1      -8.978   7.914  66.641  1.00  0.00    -0.151 A  
HETATM   15 CL   UNL     1      -8.211   7.228  65.265  1.00  0.00    -0.134 Cl 
HETATM   16  C   UNL     1     -10.251   7.498  67.073  1.00  0.00    -0.298 A  
HETATM   17  N   UNL     1     -10.953   6.435  66.501  1.00  0.00    -0.647 NA 
HETATM   18  N   UNL     1     -10.844   8.077  68.140  1.00  0.00    -0.009 NA 
HETATM   19  C   UNL     1     -10.172   9.085  68.745  1.00  0.00    -0.208 A  
HETATM   20  H2  UNL     1     -10.343   5.619  66.532  1.00  0.00     0.000 HD 
HETATM   21  H1  UNL     1     -11.876   6.133  66.814  1.00  0.00     0.000 HD 
HETATM   22  N   UNL     1     -10.765   9.580  69.904  1.00  0.00    -0.228 NA 
HETATM   23  H1  UNL     1     -11.683   9.289  70.240  1.00  0.00     0.000 HD 
HETATM   24  H2  UNL     1     -10.784  10.596  69.823  1.00  0.00     0.000 HD 
ENDBRANCH   9  12
TORSDOF 1
ENDMDL
MODEL      241
REMARK 921   NORMALIZED FREE ENERGY PREDICTED BY IDOCK:   -2.72 KCAL/MOL
REMARK 922        TOTAL FREE ENERGY PREDICTED BY IDOCK:   -3.25 KCAL/MOL
REMARK 923 INTER-LIGAND FREE ENERGY PREDICTED BY IDOCK:   -2.88 KCAL/MOL
REMARK 924 INTRA-LIGAND FREE ENERGY PREDICTED BY IDOCK:   -0.38 KCAL/MOL
REMARK 927      BINDING AFFINITY PREDICTED BY RF-SCORE:    0.00 PKD
ROOT
HETATM    1  N   UNL     1      -9.853   4.735  69.584  1.00  0.00    -0.206 NA 
HETATM    2  H2  UNL     1      -9.797   3.739  69.793  1.00  0.00     0.000 HD 
HETATM    3  C   UNL     1      -8.795   5.328  68.994  1.00  0.00    -0.099 C  
HETATM    4  H1  UNL     1     -10.707   5.236  69.831  1.00  0.00     0.000 HD 
HETATM    5  N   UNL     1      -7.721   4.699  68.683  1.00  0.00    -0.072 NA 
HETATM    6  N   UNL     1      -8.817   6.656  68.694  1.00  0.00    -0.123 N  
HETATM    7  H   UNL     1      -7.967   7.046  68.286  1.00  0.00     0.000 HD 
HETATM    8  H2  UNL     1      -7.665   3.701  68.892  1.00  0.00     0.000 HD 
HETATM    9  C   UNL     1      -9.871   7.533  68.883  1.00  0.00    -0.159 C  
HETATM   10  H1  UNL     1      -6.921   5.147  68.236  1.00  0.00     0.000 HD 
HETATM   11  O   UNL     1     -10.895   7.262  69.514  1.00  0.00    -0.240 OA 
ENDROOT
BRANCH   9  12
HETATM   12  C   UNL     1      -9.667   8.894  68.313  1.00  0.00    -0.157 A  
HETATM   13  N   UNL     1      -9.703   8.985  66.954  1.00  0.00    -0.182 NA 
HETATM   14  C   UNL     1      -9.425  10.222  66.484  1.00  0.00    -0.171 A  
HETATM   15 CL   UNL     1      -9.402  10.326  64.768  1.00  0.00    -0.281 Cl 
HETATM   16  C   UNL     1      -9.128  11.326  67.305  1.00  0.00    -0.156 A  
HETATM   17  N   UNL     1      -8.895  12.613  66.816  1.00  0.00    -0.317 NA 
HETATM   18  N   UNL     1      -9.122  11.207  68.650  1.00  0.00    -0.174 NA 
HETATM   19  C   UNL     1      -9.385   9.980  69.160  1.00  0.00    -0.193 A  
HETATM   20  H2  UNL     1      -9.701  12.869  66.247  1.00  0.00     0.000 HD 
HETATM   21  H1  UNL     1      -8.680  13.413  67.411  1.00  0.00     0.000 HD 
HETATM   22  N   UNL     1      -9.479   9.923  70.549  1.00  0.00    -0.345 NA 
HETATM   23  H1  UNL     1      -9.274  10.711  71.163  1.00  0.00     0.000 HD 
HETATM   24  H2  UNL     1      -8.899   9.143  70.858  1.00  0.00     0.000 HD 
ENDBRANCH   9  12
TORSDOF 1
ENDMDL
MODEL      242
REMARK 921   NORMALIZED FREE ENERGY PREDICTED BY IDOCK:   -2.69 KCAL/MOL
REMARK 922        TOTAL FREE ENERGY PREDICTED BY IDOCK:   -3.23 KCAL/MOL
REMARK 923 INTER-LIGAND FREE ENERGY PREDICTED BY IDOCK:   -2.88 KCAL/MOL
REMARK 924 INTRA-LIGAND FREE ENERGY PREDICTED BY IDOCK:   -0.35 KCAL/MOL
REMARK 927      BINDING AFFINITY PREDICTED BY RF-SCORE:    0.00 PKD
ROOT
HETATM    1  N   UNL     1     -10.807  11.299  67.347  1.00  0.00    -0.245 NA 
HETATM    2  H2  UNL     1     -11.073  12.220  66.998  1.00  0.00     0.000 HD 
HETATM    3  C   UNL     1     -11.051  11.007  68.640  1.00  0.00    -0.240 C  
HETATM    4  H1  UNL     1     -10.368  10.644  66.698  1.00  0.00     0.000 HD 
HETATM    5  N   UNL     1     -11.602  11.830  69.454  1.00  0.00    -0.297 NA 
HETATM    6  N   UNL     1     -10.714   9.791  69.155  1.00  0.00    -0.217 N  
HETATM    7  H   UNL     1     -10.891   9.653  70.150  1.00  0.00     0.000 HD 
HETATM    8  H2  UNL     1     -11.869  12.751  69.106  1.00  0.00     0.000 HD 
HETATM    9  C   UNL     1     -10.159   8.724  68.471  1.00  0.00    -0.189 C  
HETATM   10  H1  UNL     1     -11.787  11.608  70.433  1.00  0.00     0.000 HD 
HETATM   11  O   UNL     1      -9.732   8.786  67.317  1.00  0.00    -0.162 OA 
ENDROOT
BRANCH   9  12
HETATM   12  C   UNL     1     -10.045   7.464  69.258  1.00  0.00    -0.186 A  
HETATM   13  N   UNL     1     -11.076   7.193  70.106  1.00  0.00    -0.270 NA 
HETATM   14  C   UNL     1     -10.885   6.087  70.859  1.00  0.00    -0.285 A  
HETATM   15 CL   UNL     1     -12.153   5.779  71.979  1.00  0.00    -0.080 Cl 
HETATM   16  C   UNL     1      -9.737   5.276  70.787  1.00  0.00    -0.185 A  
HETATM   17  N   UNL     1      -9.569   4.105  71.529  1.00  0.00    -0.157 NA 
HETATM   18  N   UNL     1      -8.742   5.561  69.919  1.00  0.00    -0.122 NA 
HETATM   19  C   UNL     1      -8.891   6.668  69.154  1.00  0.00    -0.129 A  
HETATM   20  H2  UNL     1     -10.372   3.508  71.335  1.00  0.00     0.000 HD 
HETATM   21  H1  UNL     1      -8.737   3.518  71.477  1.00  0.00     0.000 HD 
HETATM   22  N   UNL     1      -7.898   6.865  68.197  1.00  0.00    -0.112 NA 
HETATM   23  H1  UNL     1      -7.061   6.287  68.122  1.00  0.00     0.000 HD 
HETATM   24  H2  UNL     1      -7.588   7.833  68.279  1.00  0.00     0.000 HD 
ENDBRANCH   9  12
TORSDOF 1
ENDMDL
MODEL      243
REMARK 921   NORMALIZED FREE ENERGY PREDICTED BY IDOCK:   -2.67 KCAL/MOL
REMARK 922        TOTAL FREE ENERGY PREDICTED BY IDOCK:   -3.20 KCAL/MOL
REMARK 923 INTER-LIGAND FREE ENERGY PREDICTED BY IDOCK:   -2.83 KCAL/MOL
REMARK 924 INTRA-LIGAND FREE ENERGY PREDICTED BY IDOCK:   -0.38 KCAL/MOL
REMARK 927      BINDING AFFINITY PREDICTED BY RF-SCORE:    0.00 PKD
ROOT
HETATM    1  N   UNL     1      -7.470   8.796  67.633  1.00  0.00    -0.092 NA 
HETATM    2  H2  UNL     1      -7.171   7.850  67.396  1.00  0.00     0.000 HD 
HETATM    3  C   UNL     1      -7.584   9.701  66.640  1.00  0.00    -0.098 C  
HETATM    4  H1  UNL     1      -7.669   9.010  68.611  1.00  0.00     0.000 HD 
HETATM    5  N   UNL     1      -7.334   9.431  65.412  1.00  0.00    -0.094 NA 
HETATM    6  N   UNL     1      -7.980  10.977  66.903  1.00  0.00    -0.136 N  
HETATM    7  H   UNL     1      -8.005  11.619  66.110  1.00  0.00     0.000 HD 
HETATM    8  H2  UNL     1      -7.034   8.484  65.174  1.00  0.00     0.000 HD 
HETATM    9  C   UNL     1      -8.352  11.496  68.131  1.00  0.00    -0.152 C  
HETATM   10  H1  UNL     1      -7.420  10.115  64.661  1.00  0.00     0.000 HD 
HETATM   11  O   UNL     1      -8.216  10.906  69.204  1.00  0.00    -0.146 OA 
ENDROOT
BRANCH   9  12
HETATM   12  C   UNL     1      -8.892  12.883  68.090  1.00  0.00    -0.194 A  
HETATM   13  N   UNL     1     -10.097  13.075  68.696  1.00  0.00    -0.186 NA 
HETATM   14  C   UNL     1     -10.584  14.328  68.556  1.00  0.00    -0.257 A  
HETATM   15 CL   UNL     1     -12.135  14.555  69.261  1.00  0.00    -0.348 Cl 
HETATM   16  C   UNL     1      -9.923  15.354  67.855  1.00  0.00    -0.221 A  
HETATM   17  N   UNL     1     -10.405  16.661  67.760  1.00  0.00    -0.296 NA 
HETATM   18  N   UNL     1      -8.719  15.138  67.284  1.00  0.00    -0.189 NA 
HETATM   19  C   UNL     1      -8.201  13.891  67.393  1.00  0.00    -0.187 A  
HETATM   20  H2  UNL     1     -10.559  16.996  68.710  1.00  0.00     0.000 HD 
HETATM   21  H1  UNL     1      -9.926  17.405  67.252  1.00  0.00     0.000 HD 
HETATM   22  N   UNL     1      -6.912  13.738  66.888  1.00  0.00    -0.231 NA 
HETATM   23  H1  UNL     1      -6.411  14.468  66.383  1.00  0.00     0.000 HD 
HETATM   24  H2  UNL     1      -6.919  12.911  66.292  1.00  0.00     0.000 HD 
ENDBRANCH   9  12
TORSDOF 1
ENDMDL
MODEL      244
REMARK 921   NORMALIZED FREE ENERGY PREDICTED BY IDOCK:   -2.64 KCAL/MOL
REMARK 922        TOTAL FREE ENERGY PREDICTED BY IDOCK:   -3.17 KCAL/MOL
REMARK 923 INTER-LIGAND FREE ENERGY PREDICTED BY IDOCK:   -2.77 KCAL/MOL
REMARK 924 INTRA-LIGAND FREE ENERGY PREDICTED BY IDOCK:   -0.40 KCAL/MOL
REMARK 927      BINDING AFFINITY PREDICTED BY RF-SCORE:    0.00 PKD
ROOT
HETATM    1  N   UNL     1      -9.943  12.165  64.557  1.00  0.00    -0.423 NA 
HETATM    2  H2  UNL     1     -10.320  12.860  63.913  1.00  0.00     0.000 HD 
HETATM    3  C   UNL     1     -10.215  12.293  65.871  1.00  0.00    -0.249 C  
HETATM    4  H1  UNL     1      -9.377  11.406  64.175  1.00  0.00     0.000 HD 
HETATM    5  N   UNL     1     -10.926  13.246  66.351  1.00  0.00    -0.287 NA 
HETATM    6  N   UNL     1      -9.735  11.392  66.773  1.00  0.00    -0.195 N  
HETATM    7  H   UNL     1      -9.947  11.573  67.755  1.00  0.00     0.000 HD 
HETATM    8  H2  UNL     1     -11.304  13.941  65.707  1.00  0.00     0.000 HD 
HETATM    9  C   UNL     1      -8.992  10.257  66.500  1.00  0.00    -0.144 C  
HETATM   10  H1  UNL     1     -11.132  13.342  67.346  1.00  0.00     0.000 HD 
HETATM   11  O   UNL     1      -8.513   9.990  65.396  1.00  0.00    -0.138 OA 
ENDROOT
BRANCH   9  12
HETATM   12  C   UNL     1      -8.741   9.372  67.671  1.00  0.00    -0.116 A  
HETATM   13  N   UNL     1      -7.438   9.225  68.042  1.00  0.00    -0.083 NA 
HETATM   14  C   UNL     1      -7.256   8.345  69.052  1.00  0.00    -0.070 A  
HETATM   15 CL   UNL     1      -5.607   8.106  69.477  1.00  0.00    -0.026 Cl 
HETATM   16  C   UNL     1      -8.300   7.639  69.677  1.00  0.00    -0.130 A  
HETATM   17  N   UNL     1      -8.111   6.772  70.755  1.00  0.00    -0.117 NA 
HETATM   18  N   UNL     1      -9.584   7.824  69.300  1.00  0.00    -0.159 NA 
HETATM   19  C   UNL     1      -9.808   8.690  68.283  1.00  0.00    -0.165 A  
HETATM   20  H2  UNL     1      -7.625   7.296  71.482  1.00  0.00     0.000 HD 
HETATM   21  H1  UNL     1      -8.868   6.260  71.208  1.00  0.00     0.000 HD 
HETATM   22  N   UNL     1     -11.149   8.936  67.999  1.00  0.00    -0.468 NA 
HETATM   23  H1  UNL     1     -11.922   8.442  68.443  1.00  0.00     0.000 HD 
HETATM   24  H2  UNL     1     -11.267   8.834  66.991  1.00  0.00     0.000 HD 
ENDBRANCH   9  12
TORSDOF 1
ENDMDL
MODEL      245
REMARK 921   NORMALIZED FREE ENERGY PREDICTED BY IDOCK:   -2.63 KCAL/MOL
REMARK 922        TOTAL FREE ENERGY PREDICTED BY IDOCK:   -3.16 KCAL/MOL
REMARK 923 INTER-LIGAND FREE ENERGY PREDICTED BY IDOCK:   -2.76 KCAL/MOL
REMARK 924 INTRA-LIGAND FREE ENERGY PREDICTED BY IDOCK:   -0.39 KCAL/MOL
REMARK 927      BINDING AFFINITY PREDICTED BY RF-SCORE:    0.00 PKD
ROOT
HETATM    1  N   UNL     1      -6.857  14.487  68.370  1.00  0.00    -0.096 NA 
HETATM    2  H2  UNL     1      -6.846  15.392  68.841  1.00  0.00     0.000 HD 
HETATM    3  C   UNL     1      -7.980  13.743  68.434  1.00  0.00    -0.144 C  
HETATM    4  H1  UNL     1      -6.017  14.188  67.873  1.00  0.00     0.000 HD 
HETATM    5  N   UNL     1      -9.036  14.118  69.058  1.00  0.00    -0.385 NA 
HETATM    6  N   UNL     1      -8.048  12.528  67.823  1.00  0.00    -0.151 N  
HETATM    7  H   UNL     1      -8.913  12.003  67.947  1.00  0.00     0.000 HD 
HETATM    8  H2  UNL     1      -9.025  15.024  69.530  1.00  0.00     0.000 HD 
HETATM    9  C   UNL     1      -7.066  11.930  67.052  1.00  0.00    -0.116 C  
HETATM   10  H1  UNL     1      -9.886  13.556  69.107  1.00  0.00     0.000 HD 
HETATM   11  O   UNL     1      -5.913  12.352  66.947  1.00  0.00    -0.273 OA 
ENDROOT
BRANCH   9  12
HETATM   12  C   UNL     1      -7.478  10.668  66.378  1.00  0.00    -0.138 A  
HETATM   13  N   UNL     1      -6.752   9.558  66.690  1.00  0.00    -0.071 NA 
HETATM   14  C   UNL     1      -7.107   8.459  65.988  1.00  0.00    -0.069 A  
HETATM   15 CL   UNL     1      -6.148   7.073  66.329  1.00  0.00    -0.035 Cl 
HETATM   16  C   UNL     1      -8.131   8.441  65.022  1.00  0.00    -0.147 A  
HETATM   17  N   UNL     1      -8.530   7.290  64.339  1.00  0.00    -0.359 NA 
HETATM   18  N   UNL     1      -8.848   9.553  64.752  1.00  0.00    -0.196 NA 
HETATM   19  C   UNL     1      -8.515  10.679  65.428  1.00  0.00    -0.160 A  
HETATM   20  H2  UNL     1      -8.766   6.589  65.041  1.00  0.00     0.000 HD 
HETATM   21  H1  UNL     1      -9.273   7.277  63.639  1.00  0.00     0.000 HD 
HETATM   22  N   UNL     1      -9.346  11.773  65.202  1.00  0.00    -0.424 NA 
HETATM   23  H1  UNL     1     -10.097  11.781  64.513  1.00  0.00     0.000 HD 
HETATM   24  H2  UNL     1      -8.745  12.572  65.001  1.00  0.00     0.000 HD 
ENDBRANCH   9  12
TORSDOF 1
ENDMDL
MODEL      246
REMARK 921   NORMALIZED FREE ENERGY PREDICTED BY IDOCK:   -2.61 KCAL/MOL
REMARK 922        TOTAL FREE ENERGY PREDICTED BY IDOCK:   -3.14 KCAL/MOL
REMARK 923 INTER-LIGAND FREE ENERGY PREDICTED BY IDOCK:   -2.76 KCAL/MOL
REMARK 924 INTRA-LIGAND FREE ENERGY PREDICTED BY IDOCK:   -0.38 KCAL/MOL
REMARK 927      BINDING AFFINITY PREDICTED BY RF-SCORE:    0.00 PKD
ROOT
HETATM    1  N   UNL     1      -9.446  13.639  65.606  1.00  0.00    -0.498 NA 
HETATM    2  H2  UNL     1      -9.824  14.411  65.057  1.00  0.00     0.000 HD 
HETATM    3  C   UNL     1     -10.078  12.448  65.559  1.00  0.00    -0.267 C  
HETATM    4  H1  UNL     1      -8.609  13.805  66.164  1.00  0.00     0.000 HD 
HETATM    5  N   UNL     1     -11.131  12.239  64.857  1.00  0.00    -0.302 NA 
HETATM    6  N   UNL     1      -9.615  11.385  66.273  1.00  0.00    -0.207 N  
HETATM    7  H   UNL     1     -10.165  10.527  66.222  1.00  0.00     0.000 HD 
HETATM    8  H2  UNL     1     -11.509  13.011  64.308  1.00  0.00     0.000 HD 
HETATM    9  C   UNL     1      -8.477  11.345  67.060  1.00  0.00    -0.159 C  
HETATM   10  H1  UNL     1     -11.608  11.338  64.821  1.00  0.00     0.000 HD 
HETATM   11  O   UNL     1      -7.805  12.333  67.360  1.00  0.00    -0.152 OA 
ENDROOT
BRANCH   9  12
HETATM   12  C   UNL     1      -8.131   9.999  67.596  1.00  0.00    -0.110 A  
HETATM   13  N   UNL     1      -8.120   8.979  66.692  1.00  0.00    -0.106 NA 
HETATM   14  C   UNL     1      -7.887   7.766  67.242  1.00  0.00    -0.117 A  
HETATM   15 CL   UNL     1      -7.941   6.469  66.116  1.00  0.00    -0.105 Cl 
HETATM   16  C   UNL     1      -7.670   7.556  68.617  1.00  0.00    -0.119 A  
HETATM   17  N   UNL     1      -7.376   6.309  69.171  1.00  0.00    -0.086 NA 
HETATM   18  N   UNL     1      -7.664   8.592  69.483  1.00  0.00    -0.089 NA 
HETATM   19  C   UNL     1      -7.905   9.823  68.973  1.00  0.00    -0.087 A  
HETATM   20  H2  UNL     1      -6.561   5.944  68.678  1.00  0.00     0.000 HD 
HETATM   21  H1  UNL     1      -7.218   6.156  70.167  1.00  0.00     0.000 HD 
HETATM   22  N   UNL     1      -7.782  10.874  69.878  1.00  0.00    -0.351 NA 
HETATM   23  H1  UNL     1      -7.619  10.746  70.876  1.00  0.00     0.000 HD 
HETATM   24  H2  UNL     1      -8.616  11.453  69.782  1.00  0.00     0.000 HD 
ENDBRANCH   9  12
TORSDOF 1
ENDMDL
MODEL      247
REMARK 921   NORMALIZED FREE ENERGY PREDICTED BY IDOCK:   -2.59 KCAL/MOL
REMARK 922        TOTAL FREE ENERGY PREDICTED BY IDOCK:   -3.11 KCAL/MOL
REMARK 923 INTER-LIGAND FREE ENERGY PREDICTED BY IDOCK:   -2.72 KCAL/MOL
REMARK 924 INTRA-LIGAND FREE ENERGY PREDICTED BY IDOCK:   -0.39 KCAL/MOL
REMARK 927      BINDING AFFINITY PREDICTED BY RF-SCORE:    0.00 PKD
ROOT
HETATM    1  N   UNL     1     -10.279   4.958  68.719  1.00  0.00    -0.103 NA 
HETATM    2  H2  UNL     1     -10.349   4.192  69.389  1.00  0.00     0.000 HD 
HETATM    3  C   UNL     1      -9.078   5.542  68.534  1.00  0.00    -0.114 C  
HETATM    4  H1  UNL     1     -11.122   5.245  68.221  1.00  0.00     0.000 HD 
HETATM    5  N   UNL     1      -8.018   5.182  69.160  1.00  0.00    -0.080 NA 
HETATM    6  N   UNL     1      -8.930   6.569  67.651  1.00  0.00    -0.115 N  
HETATM    7  H   UNL     1      -8.003   6.990  67.593  1.00  0.00     0.000 HD 
HETATM    8  H2  UNL     1      -8.087   4.415  69.830  1.00  0.00     0.000 HD 
HETATM    9  C   UNL     1      -9.905   7.102  66.826  1.00  0.00    -0.205 C  
HETATM   10  H1  UNL     1      -7.109   5.623  69.020  1.00  0.00     0.000 HD 
HETATM   11  O   UNL     1     -11.104   6.823  66.898  1.00  0.00    -0.397 OA 
ENDROOT
BRANCH   9  12
HETATM   12  C   UNL     1      -9.417   8.115  65.849  1.00  0.00    -0.012 A  
HETATM   13  N   UNL     1     -10.002   9.343  65.918  1.00  0.00    -0.301 NA 
HETATM   14  C   UNL     1      -9.589  10.198  64.956  1.00  0.00    -0.299 A  
HETATM   15 CL   UNL     1     -10.375  11.727  64.997  1.00  0.00    -0.309 Cl 
HETATM   16  C   UNL     1      -8.642   9.870  63.968  1.00  0.00    -0.190 A  
HETATM   17  N   UNL     1      -8.179  10.774  63.010  1.00  0.00    -0.336 NA 
HETATM   18  N   UNL     1      -8.064   8.650  63.941  1.00  0.00    -0.160 NA 
HETATM   19  C   UNL     1      -8.459   7.761  64.883  1.00  0.00    -0.003 A  
HETATM   20  H2  UNL     1      -7.823  11.588  63.510  1.00  0.00     0.000 HD 
HETATM   21  H1  UNL     1      -7.492  10.537  62.294  1.00  0.00     0.000 HD 
HETATM   22  N   UNL     1      -7.762   6.555  64.889  1.00  0.00    -0.098 NA 
HETATM   23  H1  UNL     1      -7.068   6.299  64.188  1.00  0.00     0.000 HD 
HETATM   24  H2  UNL     1      -8.454   5.807  64.914  1.00  0.00     0.000 HD 
ENDBRANCH   9  12
TORSDOF 1
ENDMDL
MODEL      248
REMARK 921   NORMALIZED FREE ENERGY PREDICTED BY IDOCK:   -2.54 KCAL/MOL
REMARK 922        TOTAL FREE ENERGY PREDICTED BY IDOCK:   -3.06 KCAL/MOL
REMARK 923 INTER-LIGAND FREE ENERGY PREDICTED BY IDOCK:   -2.67 KCAL/MOL
REMARK 924 INTRA-LIGAND FREE ENERGY PREDICTED BY IDOCK:   -0.39 KCAL/MOL
REMARK 927      BINDING AFFINITY PREDICTED BY RF-SCORE:    0.00 PKD
ROOT
HETATM    1  N   UNL     1      -5.438   9.915  67.869  1.00  0.00    -0.039 NA 
HETATM    2  H2  UNL     1      -4.660  10.569  67.962  1.00  0.00     0.000 HD 
HETATM    3  C   UNL     1      -5.985   9.738  66.649  1.00  0.00    -0.059 C  
HETATM    4  H1  UNL     1      -5.764   9.428  68.704  1.00  0.00     0.000 HD 
HETATM    5  N   UNL     1      -5.576  10.351  65.600  1.00  0.00    -0.085 NA 
HETATM    6  N   UNL     1      -7.026   8.878  66.471  1.00  0.00    -0.079 N  
HETATM    7  H   UNL     1      -7.416   8.824  65.530  1.00  0.00     0.000 HD 
HETATM    8  H2  UNL     1      -4.797  11.005  65.693  1.00  0.00     0.000 HD 
HETATM    9  C   UNL     1      -7.609   8.069  67.430  1.00  0.00    -0.097 C  
HETATM   10  H1  UNL     1      -5.989  10.216  64.677  1.00  0.00     0.000 HD 
HETATM   11  O   UNL     1      -7.370   8.140  68.637  1.00  0.00    -0.085 OA 
ENDROOT
BRANCH   9  12
HETATM   12  C   UNL     1      -8.626   7.112  66.912  1.00  0.00    -0.124 A  
HETATM   13  N   UNL     1      -8.168   6.158  66.055  1.00  0.00    -0.121 NA 
HETATM   14  C   UNL     1      -9.142   5.370  65.545  1.00  0.00    -0.118 A  
HETATM   15 CL   UNL     1      -8.576   4.209  64.411  1.00  0.00    -0.110 Cl 
HETATM   16  C   UNL     1     -10.506   5.505  65.860  1.00  0.00     0.118 A  
HETATM   17  N   UNL     1     -11.501   4.655  65.373  1.00  0.00    -1.028 NA 
HETATM   18  N   UNL     1     -10.926   6.448  66.732  1.00  0.00    -0.331 NA 
HETATM   19  C   UNL     1      -9.981   7.265  67.256  1.00  0.00    -0.192 A  
HETATM   20  H2  UNL     1     -11.229   3.703  65.615  1.00  0.00     0.000 HD 
HETATM   21  H1  UNL     1     -12.490   4.753  65.602  1.00  0.00     0.000 HD 
HETATM   22  N   UNL     1     -10.437   8.149  68.231  1.00  0.00    -0.318 NA 
HETATM   23  H1  UNL     1     -11.419   8.259  68.481  1.00  0.00     0.000 HD 
HETATM   24  H2  UNL     1     -10.082   9.074  67.989  1.00  0.00     0.000 HD 
ENDBRANCH   9  12
TORSDOF 1
ENDMDL
MODEL      249
REMARK 921   NORMALIZED FREE ENERGY PREDICTED BY IDOCK:   -2.52 KCAL/MOL
REMARK 922        TOTAL FREE ENERGY PREDICTED BY IDOCK:   -3.04 KCAL/MOL
REMARK 923 INTER-LIGAND FREE ENERGY PREDICTED BY IDOCK:   -2.66 KCAL/MOL
REMARK 924 INTRA-LIGAND FREE ENERGY PREDICTED BY IDOCK:   -0.39 KCAL/MOL
REMARK 927      BINDING AFFINITY PREDICTED BY RF-SCORE:    0.00 PKD
ROOT
HETATM    1  N   UNL     1      -9.464   7.496  74.339  1.00  0.00    -0.378 NA 
HETATM    2  H2  UNL     1      -9.502   7.238  75.326  1.00  0.00     0.000 HD 
HETATM    3  C   UNL     1      -8.293   7.933  73.834  1.00  0.00    -0.245 C  
HETATM    4  H1  UNL     1     -10.316   7.411  73.783  1.00  0.00     0.000 HD 
HETATM    5  N   UNL     1      -7.224   8.040  74.533  1.00  0.00    -0.156 NA 
HETATM    6  N   UNL     1      -8.189   8.291  72.524  1.00  0.00    -0.165 N  
HETATM    7  H   UNL     1      -7.284   8.650  72.220  1.00  0.00     0.000 HD 
HETATM    8  H2  UNL     1      -7.261   7.782  75.520  1.00  0.00     0.000 HD 
HETATM    9  C   UNL     1      -9.181   8.218  71.562  1.00  0.00    -0.177 C  
HETATM   10  H1  UNL     1      -6.337   8.370  74.151  1.00  0.00     0.000 HD 
HETATM   11  O   UNL     1     -10.364   7.969  71.801  1.00  0.00    -0.200 OA 
ENDROOT
BRANCH   9  12
HETATM   12  C   UNL     1      -8.735   8.527  70.175  1.00  0.00    -0.137 A  
HETATM   13  N   UNL     1      -7.886   7.627  69.604  1.00  0.00    -0.106 NA 
HETATM   14  C   UNL     1      -7.442   7.996  68.382  1.00  0.00    -0.103 A  
HETATM   15 CL   UNL     1      -6.318   6.896  67.687  1.00  0.00    -0.046 Cl 
HETATM   16  C   UNL     1      -7.813   9.192  67.740  1.00  0.00    -0.100 A  
HETATM   17  N   UNL     1      -7.393   9.543  66.455  1.00  0.00    -0.093 NA 
HETATM   18  N   UNL     1      -8.674  10.053  68.323  1.00  0.00    -0.118 NA 
HETATM   19  C   UNL     1      -9.133   9.724  69.554  1.00  0.00    -0.216 A  
HETATM   20  H2  UNL     1      -7.651   8.776  65.834  1.00  0.00     0.000 HD 
HETATM   21  H1  UNL     1      -7.662  10.410  65.989  1.00  0.00     0.000 HD 
HETATM   22  N   UNL     1     -10.102  10.580  70.074  1.00  0.00    -0.416 NA 
HETATM   23  H1  UNL     1     -10.390  11.448  69.624  1.00  0.00     0.000 HD 
HETATM   24  H2  UNL     1      -9.818  10.815  71.025  1.00  0.00     0.000 HD 
ENDBRANCH   9  12
TORSDOF 1
ENDMDL
MODEL      250
REMARK 921   NORMALIZED FREE ENERGY PREDICTED BY IDOCK:   -2.47 KCAL/MOL
REMARK 922        TOTAL FREE ENERGY PREDICTED BY IDOCK:   -2.99 KCAL/MOL
REMARK 923 INTER-LIGAND FREE ENERGY PREDICTED BY IDOCK:   -3.20 KCAL/MOL
REMARK 924 INTRA-LIGAND FREE ENERGY PREDICTED BY IDOCK:    0.21 KCAL/MOL
REMARK 927      BINDING AFFINITY PREDICTED BY RF-SCORE:    0.00 PKD
ROOT
HETATM    1  N   UNL     1     -11.610   7.767  69.970  1.00  0.00    -0.473 NA 
HETATM    2  H2  UNL     1     -12.241   7.348  70.653  1.00  0.00     0.000 HD 
HETATM    3  C   UNL     1     -10.849   8.812  70.355  1.00  0.00    -0.228 C  
HETATM    4  H1  UNL     1     -11.585   7.374  69.029  1.00  0.00     0.000 HD 
HETATM    5  N   UNL     1     -10.881   9.305  71.538  1.00  0.00    -0.363 NA 
HETATM    6  N   UNL     1      -9.990   9.408  69.481  1.00  0.00    -0.181 N  
HETATM    7  H   UNL     1      -9.476  10.217  69.829  1.00  0.00     0.000 HD 
HETATM    8  H2  UNL     1     -11.512   8.887  72.222  1.00  0.00     0.000 HD 
HETATM    9  C   UNL     1      -9.740   9.030  68.174  1.00  0.00    -0.152 C  
HETATM   10  H1  UNL     1     -10.305  10.096  71.829  1.00  0.00     0.000 HD 
HETATM   11  O   UNL     1     -10.396   8.188  67.557  1.00  0.00    -0.224 OA 
ENDROOT
BRANCH   9  12
HETATM   12  C   UNL     1      -8.632   9.768  67.507  1.00  0.00    -0.125 A  
HETATM   13  N   UNL     1      -8.374   9.420  66.215  1.00  0.00    -0.114 NA 
HETATM   14  C   UNL     1      -7.305  10.055  65.684  1.00  0.00    -0.127 A  
HETATM   15 CL   UNL     1      -6.934   9.569  64.077  1.00  0.00    -0.101 Cl 
HETATM   16  C   UNL     1      -6.521  10.993  66.382  1.00  0.00    -0.127 A  
HETATM   17  N   UNL     1      -5.451  11.685  65.811  1.00  0.00    -0.453 NA 
HETATM   18  N   UNL     1      -6.817  11.332  67.655  1.00  0.00    -0.074 NA 
HETATM   19  C   UNL     1      -7.876  10.710  68.227  1.00  0.00    -0.113 A  
HETATM   20  H2  UNL     1      -5.805  12.150  64.975  1.00  0.00     0.000 HD 
HETATM   21  H1  UNL     1      -4.883  12.365  66.317  1.00  0.00     0.000 HD 
HETATM   22  N   UNL     1      -8.215  11.166  69.498  1.00  0.00    -0.345 NA 
HETATM   23  H1  UNL     1      -7.666  11.849  70.020  1.00  0.00     0.000 HD 
HETATM   24  H2  UNL     1      -8.320  10.346  70.095  1.00  0.00     0.000 HD 
ENDBRANCH   9  12
TORSDOF 1
ENDMDL
MODEL      251
REMARK 921   NORMALIZED FREE ENERGY PREDICTED BY IDOCK:   -2.45 KCAL/MOL
REMARK 922        TOTAL FREE ENERGY PREDICTED BY IDOCK:   -2.97 KCAL/MOL
REMARK 923 INTER-LIGAND FREE ENERGY PREDICTED BY IDOCK:   -2.62 KCAL/MOL
REMARK 924 INTRA-LIGAND FREE ENERGY PREDICTED BY IDOCK:   -0.35 KCAL/MOL
REMARK 927      BINDING AFFINITY PREDICTED BY RF-SCORE:    0.00 PKD
ROOT
HETATM    1  N   UNL     1     -11.583   6.512  69.365  1.00  0.00    -0.653 NA 
HETATM    2  H2  UNL     1     -12.322   7.015  68.873  1.00  0.00     0.000 HD 
HETATM    3  C   UNL     1     -11.590   6.517  70.713  1.00  0.00    -0.377 C  
HETATM    4  H1  UNL     1     -10.874   6.030  68.811  1.00  0.00     0.000 HD 
HETATM    5  N   UNL     1     -12.481   7.122  71.408  1.00  0.00    -0.371 NA 
HETATM    6  N   UNL     1     -10.625   5.861  71.417  1.00  0.00    -0.243 N  
HETATM    7  H   UNL     1     -10.670   5.941  72.433  1.00  0.00     0.000 HD 
HETATM    8  H2  UNL     1     -13.221   7.625  70.917  1.00  0.00     0.000 HD 
HETATM    9  C   UNL     1      -9.593   5.099  70.901  1.00  0.00    -0.175 C  
HETATM   10  H1  UNL     1     -12.486   7.125  72.428  1.00  0.00     0.000 HD 
HETATM   11  O   UNL     1      -9.302   5.043  69.704  1.00  0.00    -0.111 OA 
ENDROOT
BRANCH   9  12
HETATM   12  C   UNL     1      -8.782   4.369  71.914  1.00  0.00    -0.116 A  
HETATM   13  N   UNL     1      -7.998   5.138  72.720  1.00  0.00    -0.098 NA 
HETATM   14  C   UNL     1      -7.217   4.424  73.563  1.00  0.00    -0.075 A  
HETATM   15 CL   UNL     1      -6.177   5.389  74.534  1.00  0.00    -0.066 Cl 
HETATM   16  C   UNL     1      -7.203   3.018  73.619  1.00  0.00    -0.046 A  
HETATM   17  N   UNL     1      -6.435   2.288  74.528  1.00  0.00    -0.016 NA 
HETATM   18  N   UNL     1      -8.009   2.285  72.821  1.00  0.00    -0.053 NA 
HETATM   19  C   UNL     1      -8.800   2.963  71.955  1.00  0.00    -0.075 A  
HETATM   20  H2  UNL     1      -6.670   2.624  75.461  1.00  0.00     0.000 HD 
HETATM   21  H1  UNL     1      -6.425   1.269  74.569  1.00  0.00     0.000 HD 
HETATM   22  N   UNL     1      -9.693   2.179  71.230  1.00  0.00    -0.148 NA 
HETATM   23  H1  UNL     1      -9.706   1.160  71.259  1.00  0.00     0.000 HD 
HETATM   24  H2  UNL     1      -9.606   2.450  70.250  1.00  0.00     0.000 HD 
ENDBRANCH   9  12
TORSDOF 1
ENDMDL
MODEL      252
REMARK 921   NORMALIZED FREE ENERGY PREDICTED BY IDOCK:   -2.44 KCAL/MOL
REMARK 922        TOTAL FREE ENERGY PREDICTED BY IDOCK:   -2.96 KCAL/MOL
REMARK 923 INTER-LIGAND FREE ENERGY PREDICTED BY IDOCK:   -3.16 KCAL/MOL
REMARK 924 INTRA-LIGAND FREE ENERGY PREDICTED BY IDOCK:    0.21 KCAL/MOL
REMARK 927      BINDING AFFINITY PREDICTED BY RF-SCORE:    0.00 PKD
ROOT
HETATM    1  N   UNL     1      -7.179   8.994  66.748  1.00  0.00    -0.085 NA 
HETATM    2  H2  UNL     1      -6.575   8.175  66.824  1.00  0.00     0.000 HD 
HETATM    3  C   UNL     1      -7.161   9.900  67.746  1.00  0.00    -0.088 C  
HETATM    4  H1  UNL     1      -7.768   9.086  65.920  1.00  0.00     0.000 HD 
HETATM    5  N   UNL     1      -6.422   9.783  68.787  1.00  0.00    -0.046 NA 
HETATM    6  N   UNL     1      -7.949  11.010  67.694  1.00  0.00    -0.113 N  
HETATM    7  H   UNL     1      -7.914  11.631  68.502  1.00  0.00     0.000 HD 
HETATM    8  H2  UNL     1      -5.816   8.965  68.863  1.00  0.00     0.000 HD 
HETATM    9  C   UNL     1      -8.791  11.383  66.661  1.00  0.00    -0.183 C  
HETATM   10  H1  UNL     1      -6.407  10.469  69.542  1.00  0.00     0.000 HD 
HETATM   11  O   UNL     1      -9.073  10.665  65.700  1.00  0.00    -0.169 OA 
ENDROOT
BRANCH   9  12
HETATM   12  C   UNL     1      -9.409  12.730  66.810  1.00  0.00    -0.241 A  
HETATM   13  N   UNL     1     -10.308  13.085  65.849  1.00  0.00    -0.283 NA 
HETATM   14  C   UNL     1     -10.774  14.348  65.979  1.00  0.00    -0.302 A  
HETATM   15 CL   UNL     1     -11.856  14.823  64.731  1.00  0.00    -0.423 Cl 
HETATM   16  C   UNL     1     -10.382  15.228  67.006  1.00  0.00    -0.277 A  
HETATM   17  N   UNL     1     -10.907  16.511  67.166  1.00  0.00    -0.210 NA 
HETATM   18  N   UNL     1      -9.506  14.837  67.956  1.00  0.00    -0.200 NA 
HETATM   19  C   UNL     1      -9.007  13.581  67.854  1.00  0.00    -0.200 A  
HETATM   20  H2  UNL     1     -11.921  16.418  67.220  1.00  0.00     0.000 HD 
HETATM   21  H1  UNL     1     -10.624  17.149  67.910  1.00  0.00     0.000 HD 
HETATM   22  N   UNL     1      -8.194  13.179  68.911  1.00  0.00    -0.344 NA 
HETATM   23  H1  UNL     1      -7.903  13.797  69.668  1.00  0.00     0.000 HD 
HETATM   24  H2  UNL     1      -7.347  12.782  68.505  1.00  0.00     0.000 HD 
ENDBRANCH   9  12
TORSDOF 1
ENDMDL
MODEL      253
REMARK 921   NORMALIZED FREE ENERGY PREDICTED BY IDOCK:   -2.39 KCAL/MOL
REMARK 922        TOTAL FREE ENERGY PREDICTED BY IDOCK:   -2.90 KCAL/MOL
REMARK 923 INTER-LIGAND FREE ENERGY PREDICTED BY IDOCK:   -2.52 KCAL/MOL
REMARK 924 INTRA-LIGAND FREE ENERGY PREDICTED BY IDOCK:   -0.39 KCAL/MOL
REMARK 927      BINDING AFFINITY PREDICTED BY RF-SCORE:    0.00 PKD
ROOT
HETATM    1  N   UNL     1     -11.360   6.277  68.410  1.00  0.00    -0.449 NA 
HETATM    2  H2  UNL     1     -12.138   6.596  67.832  1.00  0.00     0.000 HD 
HETATM    3  C   UNL     1     -11.419   6.491  69.740  1.00  0.00    -0.379 C  
HETATM    4  H1  UNL     1     -10.575   5.813  67.952  1.00  0.00     0.000 HD 
HETATM    5  N   UNL     1     -12.405   7.075  70.314  1.00  0.00    -0.610 NA 
HETATM    6  N   UNL     1     -10.407   6.086  70.556  1.00  0.00    -0.208 N  
HETATM    7  H   UNL     1     -10.499   6.316  71.546  1.00  0.00     0.000 HD 
HETATM    8  H2  UNL     1     -13.184   7.394  69.736  1.00  0.00     0.000 HD 
HETATM    9  C   UNL     1      -9.267   5.395  70.185  1.00  0.00    -0.140 C  
HETATM   10  H1  UNL     1     -12.450   7.236  71.321  1.00  0.00     0.000 HD 
HETATM   11  O   UNL     1      -8.926   5.192  69.018  1.00  0.00    -0.098 OA 
ENDROOT
BRANCH   9  12
HETATM   12  C   UNL     1      -8.409   4.944  71.317  1.00  0.00    -0.115 A  
HETATM   13  N   UNL     1      -8.114   3.614  71.351  1.00  0.00    -0.060 NA 
HETATM   14  C   UNL     1      -7.408   3.241  72.442  1.00  0.00    -0.051 A  
HETATM   15 CL   UNL     1      -7.093   1.553  72.523  1.00  0.00    -0.022 Cl 
HETATM   16  C   UNL     1      -7.004   4.127  73.457  1.00  0.00    -0.060 A  
HETATM   17  N   UNL     1      -6.229   3.746  74.554  1.00  0.00    -0.024 NA 
HETATM   18  N   UNL     1      -7.293   5.444  73.382  1.00  0.00    -0.093 NA 
HETATM   19  C   UNL     1      -8.009   5.857  72.308  1.00  0.00    -0.107 A  
HETATM   20  H2  UNL     1      -5.387   3.302  74.189  1.00  0.00     0.000 HD 
HETATM   21  H1  UNL     1      -5.935   4.389  75.290  1.00  0.00     0.000 HD 
HETATM   22  N   UNL     1      -8.192   7.234  72.211  1.00  0.00    -0.100 NA 
HETATM   23  H1  UNL     1      -7.901   7.896  72.931  1.00  0.00     0.000 HD 
HETATM   24  H2  UNL     1      -9.184   7.395  72.038  1.00  0.00     0.000 HD 
ENDBRANCH   9  12
TORSDOF 1
ENDMDL
MODEL      254
REMARK 921   NORMALIZED FREE ENERGY PREDICTED BY IDOCK:   -2.36 KCAL/MOL
REMARK 922        TOTAL FREE ENERGY PREDICTED BY IDOCK:   -2.87 KCAL/MOL
REMARK 923 INTER-LIGAND FREE ENERGY PREDICTED BY IDOCK:   -2.58 KCAL/MOL
REMARK 924 INTRA-LIGAND FREE ENERGY PREDICTED BY IDOCK:   -0.29 KCAL/MOL
REMARK 927      BINDING AFFINITY PREDICTED BY RF-SCORE:    0.00 PKD
ROOT
HETATM    1  N   UNL     1      -5.800   6.289  62.606  1.00  0.00    -0.026 NA 
HETATM    2  H2  UNL     1      -5.220   5.561  62.189  1.00  0.00     0.000 HD 
HETATM    3  C   UNL     1      -6.947   5.926  63.214  1.00  0.00    -0.044 C  
HETATM    4  H1  UNL     1      -5.484   7.257  62.542  1.00  0.00     0.000 HD 
HETATM    5  N   UNL     1      -7.345   4.709  63.294  1.00  0.00    -0.052 NA 
HETATM    6  N   UNL     1      -7.759   6.858  63.786  1.00  0.00    -0.115 N  
HETATM    7  H   UNL     1      -8.630   6.517  64.193  1.00  0.00     0.000 HD 
HETATM    8  H2  UNL     1      -6.765   3.981  62.877  1.00  0.00     0.000 HD 
HETATM    9  C   UNL     1      -7.526   8.219  63.875  1.00  0.00    -0.114 C  
HETATM   10  H1  UNL     1      -8.213   4.434  63.754  1.00  0.00     0.000 HD 
HETATM   11  O   UNL     1      -6.613   8.808  63.292  1.00  0.00    -0.090 OA 
ENDROOT
BRANCH   9  12
HETATM   12  C   UNL     1      -8.513   8.974  64.698  1.00  0.00    -0.177 A  
HETATM   13  N   UNL     1      -9.057   8.298  65.748  1.00  0.00    -0.154 NA 
HETATM   14  C   UNL     1     -10.010   8.994  66.409  1.00  0.00    -0.300 A  
HETATM   15 CL   UNL     1     -10.747   8.120  67.692  1.00  0.00    -0.256 Cl 
HETATM   16  C   UNL     1     -10.413  10.297  66.062  1.00  0.00    -0.111 A  
HETATM   17  N   UNL     1     -11.358  11.031  66.781  1.00  0.00    -0.307 NA 
HETATM   18  N   UNL     1      -9.837  10.948  65.028  1.00  0.00    -0.258 NA 
HETATM   19  C   UNL     1      -8.885  10.280  64.333  1.00  0.00    -0.209 A  
HETATM   20  H2  UNL     1     -11.043  11.062  67.750  1.00  0.00     0.000 HD 
HETATM   21  H1  UNL     1     -11.650  11.976  66.529  1.00  0.00     0.000 HD 
HETATM   22  N   UNL     1      -8.240  11.022  63.348  1.00  0.00    -0.366 NA 
HETATM   23  H1  UNL     1      -8.510  11.969  63.084  1.00  0.00     0.000 HD 
HETATM   24  H2  UNL     1      -8.244  10.461  62.497  1.00  0.00     0.000 HD 
ENDBRANCH   9  12
TORSDOF 1
ENDMDL
MODEL      255
REMARK 921   NORMALIZED FREE ENERGY PREDICTED BY IDOCK:   -2.25 KCAL/MOL
REMARK 922        TOTAL FREE ENERGY PREDICTED BY IDOCK:   -2.75 KCAL/MOL
REMARK 923 INTER-LIGAND FREE ENERGY PREDICTED BY IDOCK:   -2.41 KCAL/MOL
REMARK 924 INTRA-LIGAND FREE ENERGY PREDICTED BY IDOCK:   -0.34 KCAL/MOL
REMARK 927      BINDING AFFINITY PREDICTED BY RF-SCORE:    0.00 PKD
ROOT
HETATM    1  N   UNL     1      -8.420   7.535  74.323  1.00  0.00    -0.210 NA 
HETATM    2  H2  UNL     1      -8.150   7.308  75.280  1.00  0.00     0.000 HD 
HETATM    3  C   UNL     1      -7.450   7.822  73.433  1.00  0.00    -0.116 C  
HETATM    4  H1  UNL     1      -9.413   7.533  74.088  1.00  0.00     0.000 HD 
HETATM    5  N   UNL     1      -6.203   7.824  73.729  1.00  0.00    -0.073 NA 
HETATM    6  N   UNL     1      -7.758   8.132  72.142  1.00  0.00    -0.109 N  
HETATM    7  H   UNL     1      -6.977   8.377  71.534  1.00  0.00     0.000 HD 
HETATM    8  H2  UNL     1      -5.931   7.596  74.686  1.00  0.00     0.000 HD 
HETATM    9  C   UNL     1      -9.018   8.148  71.570  1.00  0.00    -0.158 C  
HETATM   10  H1  UNL     1      -5.468   8.040  73.055  1.00  0.00     0.000 HD 
HETATM   11  O   UNL     1     -10.070   8.043  72.203  1.00  0.00    -0.198 OA 
ENDROOT
BRANCH   9  12
HETATM   12  C   UNL     1      -9.036   8.369  70.097  1.00  0.00    -0.150 A  
HETATM   13  N   UNL     1      -9.889   9.332  69.647  1.00  0.00    -0.177 NA 
HETATM   14  C   UNL     1      -9.933   9.433  68.299  1.00  0.00    -0.174 A  
HETATM   15 CL   UNL     1     -11.058  10.599  67.725  1.00  0.00    -0.362 Cl 
HETATM   16  C   UNL     1      -9.176   8.631  67.426  1.00  0.00    -0.136 A  
HETATM   17  N   UNL     1      -9.185   8.776  66.037  1.00  0.00    -0.208 NA 
HETATM   18  N   UNL     1      -8.323   7.700  67.905  1.00  0.00    -0.122 NA 
HETATM   19  C   UNL     1      -8.257   7.560  69.251  1.00  0.00    -0.130 A  
HETATM   20  H2  UNL     1      -8.950   9.747  65.834  1.00  0.00     0.000 HD 
HETATM   21  H1  UNL     1      -8.636   8.195  65.404  1.00  0.00     0.000 HD 
HETATM   22  N   UNL     1      -7.288   6.670  69.707  1.00  0.00    -0.084 NA 
HETATM   23  H1  UNL     1      -6.724   6.083  69.094  1.00  0.00     0.000 HD 
HETATM   24  H2  UNL     1      -7.741   6.052  70.381  1.00  0.00     0.000 HD 
ENDBRANCH   9  12
TORSDOF 1
ENDMDL
MODEL      256
REMARK 921   NORMALIZED FREE ENERGY PREDICTED BY IDOCK:   -2.20 KCAL/MOL
REMARK 922        TOTAL FREE ENERGY PREDICTED BY IDOCK:   -2.71 KCAL/MOL
REMARK 923 INTER-LIGAND FREE ENERGY PREDICTED BY IDOCK:   -2.46 KCAL/MOL
REMARK 924 INTRA-LIGAND FREE ENERGY PREDICTED BY IDOCK:   -0.25 KCAL/MOL
REMARK 927      BINDING AFFINITY PREDICTED BY RF-SCORE:    0.00 PKD
ROOT
HETATM    1  N   UNL     1      -7.797   8.646  73.191  1.00  0.00    -0.399 NA 
HETATM    2  H2  UNL     1      -7.423   9.344  73.834  1.00  0.00     0.000 HD 
HETATM    3  C   UNL     1      -7.165   8.451  72.017  1.00  0.00    -0.094 C  
HETATM    4  H1  UNL     1      -8.633   8.130  73.469  1.00  0.00     0.000 HD 
HETATM    5  N   UNL     1      -6.116   9.099  71.668  1.00  0.00    -0.093 NA 
HETATM    6  N   UNL     1      -7.624   7.531  71.123  1.00  0.00    -0.080 N  
HETATM    7  H   UNL     1      -7.121   7.465  70.238  1.00  0.00     0.000 HD 
HETATM    8  H2  UNL     1      -5.740   9.797  72.311  1.00  0.00     0.000 HD 
HETATM    9  C   UNL     1      -8.701   6.677  71.288  1.00  0.00    -0.129 C  
HETATM   10  H1  UNL     1      -5.637   8.951  70.779  1.00  0.00     0.000 HD 
HETATM   11  O   UNL     1      -9.507   6.748  72.217  1.00  0.00    -0.144 OA 
ENDROOT
BRANCH   9  12
HETATM   12  C   UNL     1      -8.874   5.667  70.207  1.00  0.00    -0.139 A  
HETATM   13  N   UNL     1      -9.521   6.094  69.087  1.00  0.00    -0.132 NA 
HETATM   14  C   UNL     1      -9.730   5.119  68.174  1.00  0.00    -0.144 A  
HETATM   15 CL   UNL     1     -10.607   5.638  66.789  1.00  0.00    -0.350 Cl 
HETATM   16  C   UNL     1      -9.323   3.783  68.344  1.00  0.00    -0.166 A  
HETATM   17  N   UNL     1      -9.493   2.792  67.375  1.00  0.00    -0.383 NA 
HETATM   18  N   UNL     1      -8.663   3.397  69.458  1.00  0.00    -0.069 NA 
HETATM   19  C   UNL     1      -8.443   4.343  70.402  1.00  0.00    -0.077 A  
HETATM   20  H2  UNL     1      -9.060   3.132  66.517  1.00  0.00     0.000 HD 
HETATM   21  H1  UNL     1      -9.197   1.824  67.498  1.00  0.00     0.000 HD 
HETATM   22  N   UNL     1      -7.665   3.933  71.482  1.00  0.00    -0.059 NA 
HETATM   23  H1  UNL     1      -7.353   2.972  71.623  1.00  0.00     0.000 HD 
HETATM   24  H2  UNL     1      -8.154   4.217  72.330  1.00  0.00     0.000 HD 
ENDBRANCH   9  12
TORSDOF 1
ENDMDL
MODEL      257
REMARK 921   NORMALIZED FREE ENERGY PREDICTED BY IDOCK:   -1.67 KCAL/MOL
REMARK 922        TOTAL FREE ENERGY PREDICTED BY IDOCK:   -2.14 KCAL/MOL
REMARK 923 INTER-LIGAND FREE ENERGY PREDICTED BY IDOCK:   -1.78 KCAL/MOL
REMARK 924 INTRA-LIGAND FREE ENERGY PREDICTED BY IDOCK:   -0.36 KCAL/MOL
REMARK 927      BINDING AFFINITY PREDICTED BY RF-SCORE:    0.00 PKD
ROOT
HETATM    1  N   UNL     1     -11.482  10.039  70.293  1.00  0.00    -0.283 NA 
HETATM    2  H2  UNL     1     -11.883   9.182  70.674  1.00  0.00     0.000 HD 
HETATM    3  C   UNL     1     -10.155  10.077  70.056  1.00  0.00    -0.239 C  
HETATM    4  H1  UNL     1     -12.104  10.827  70.111  1.00  0.00     0.000 HD 
HETATM    5  N   UNL     1      -9.373   9.087  70.285  1.00  0.00    -0.182 NA 
HETATM    6  N   UNL     1      -9.569  11.197  69.548  1.00  0.00    -0.364 N  
HETATM    7  H   UNL     1      -8.556  11.168  69.432  1.00  0.00     0.000 HD 
HETATM    8  H2  UNL     1      -9.774   8.229  70.666  1.00  0.00     0.000 HD 
HETATM    9  C   UNL     1     -10.202  12.368  69.174  1.00  0.00     0.234 C  
HETATM   10  H1  UNL     1      -8.369   9.115  70.105  1.00  0.00     0.000 HD 
HETATM   11  O   UNL     1     -11.385  12.624  69.406  1.00  0.00    -0.254 OA 
ENDROOT
BRANCH   9  12
HETATM   12  C   UNL     1      -9.327  13.369  68.501  1.00  0.00    -0.097 A  
HETATM   13  N   UNL     1      -8.885  14.396  69.279  1.00  0.00     0.104 NA 
HETATM   14  C   UNL     1      -8.168  15.322  68.603  1.00  0.00    -0.159 A  
HETATM   15 CL   UNL     1      -7.666  16.654  69.567  1.00  0.00     0.022 Cl 
HETATM   16  C   UNL     1      -7.891  15.249  67.225  1.00  0.00    -0.209 A  
HETATM   17  N   UNL     1      -7.105  16.180  66.543  1.00  0.00    -0.148 NA 
HETATM   18  N   UNL     1      -8.326  14.205  66.486  1.00  0.00     0.248 NA 
HETATM   19  C   UNL     1      -9.057  13.261  67.126  1.00  0.00    -0.231 A  
HETATM   20  H2  UNL     1      -6.210  16.231  67.028  1.00  0.00     0.000 HD 
HETATM   21  H1  UNL     1      -6.904  16.126  65.545  1.00  0.00     0.000 HD 
HETATM   22  N   UNL     1      -9.391  12.149  66.356  1.00  0.00    -0.224 NA 
HETATM   23  H1  UNL     1      -9.196  12.071  65.359  1.00  0.00     0.000 HD 
HETATM   24  H2  UNL     1     -10.391  11.987  66.480  1.00  0.00     0.000 HD 
ENDBRANCH   9  12
TORSDOF 1
ENDMDL
MODEL      258
REMARK 921   NORMALIZED FREE ENERGY PREDICTED BY IDOCK:   -1.43 KCAL/MOL
REMARK 922        TOTAL FREE ENERGY PREDICTED BY IDOCK:   -1.89 KCAL/MOL
REMARK 923 INTER-LIGAND FREE ENERGY PREDICTED BY IDOCK:   -1.70 KCAL/MOL
REMARK 924 INTRA-LIGAND FREE ENERGY PREDICTED BY IDOCK:   -0.19 KCAL/MOL
REMARK 927      BINDING AFFINITY PREDICTED BY RF-SCORE:    0.00 PKD
ROOT
HETATM    1  N   UNL     1     -11.524   6.504  67.910  1.00  0.00    -0.641 NA 
HETATM    2  H2  UNL     1     -12.404   6.550  67.395  1.00  0.00     0.000 HD 
HETATM    3  C   UNL     1     -11.562   6.597  69.255  1.00  0.00    -0.076 C  
HETATM    4  H1  UNL     1     -10.659   6.391  67.382  1.00  0.00     0.000 HD 
HETATM    5  N   UNL     1     -12.649   6.740  69.919  1.00  0.00     0.102 NA 
HETATM    6  N   UNL     1     -10.416   6.542  69.989  1.00  0.00    -0.200 N  
HETATM    7  H   UNL     1     -10.515   6.659  70.998  1.00  0.00     0.000 HD 
HETATM    8  H2  UNL     1     -13.529   6.786  69.404  1.00  0.00     0.000 HD 
HETATM    9  C   UNL     1      -9.132   6.344  69.513  1.00  0.00    -0.138 C  
HETATM   10  H1  UNL     1     -12.678   6.810  70.936  1.00  0.00     0.000 HD 
HETATM   11  O   UNL     1      -8.825   6.354  68.319  1.00  0.00    -0.117 OA 
ENDROOT
BRANCH   9  12
HETATM   12  C   UNL     1      -8.091   6.170  70.564  1.00  0.00    -0.113 A  
HETATM   13  N   UNL     1      -8.541   5.808  71.798  1.00  0.00    -0.131 NA 
HETATM   14  C   UNL     1      -7.569   5.749  72.736  1.00  0.00    -0.097 A  
HETATM   15 CL   UNL     1      -8.143   5.361  74.309  1.00  0.00    -0.105 Cl 
HETATM   16  C   UNL     1      -6.214   6.028  72.481  1.00  0.00    -0.053 A  
HETATM   17  N   UNL     1      -5.207   5.913  73.442  1.00  0.00    -0.023 NA 
HETATM   18  N   UNL     1      -5.796   6.362  71.241  1.00  0.00    -0.027 NA 
HETATM   19  C   UNL     1      -6.742   6.442  70.275  1.00  0.00    -0.053 A  
HETATM   20  H2  UNL     1      -5.254   4.966  73.817  1.00  0.00     0.000 HD 
HETATM   21  H1  UNL     1      -4.224   6.115  73.257  1.00  0.00     0.000 HD 
HETATM   22  N   UNL     1      -6.258   6.680  68.991  1.00  0.00    -0.026 NA 
HETATM   23  H1  UNL     1      -5.280   6.878  68.782  1.00  0.00     0.000 HD 
HETATM   24  H2  UNL     1      -6.810   7.443  68.597  1.00  0.00     0.000 HD 
ENDBRANCH   9  12
TORSDOF 1
ENDMDL
MODEL      259
REMARK 921   NORMALIZED FREE ENERGY PREDICTED BY IDOCK:   -0.80 KCAL/MOL
REMARK 922        TOTAL FREE ENERGY PREDICTED BY IDOCK:   -1.22 KCAL/MOL
REMARK 923 INTER-LIGAND FREE ENERGY PREDICTED BY IDOCK:   -0.92 KCAL/MOL
REMARK 924 INTRA-LIGAND FREE ENERGY PREDICTED BY IDOCK:   -0.29 KCAL/MOL
REMARK 927      BINDING AFFINITY PREDICTED BY RF-SCORE:    0.00 PKD
ROOT
HETATM    1  N   UNL     1     -10.640   4.138  63.801  1.00  0.00    -0.456 NA 
HETATM    2  H2  UNL     1     -11.433   3.615  63.428  1.00  0.00     0.000 HD 
HETATM    3  C   UNL     1     -10.821   4.865  64.922  1.00  0.00     0.483 C  
HETATM    4  H1  UNL     1      -9.749   4.086  63.306  1.00  0.00     0.000 HD 
HETATM    5  N   UNL     1     -11.941   4.931  65.543  1.00  0.00     0.160 NA 
HETATM    6  N   UNL     1      -9.796   5.583  65.461  1.00  0.00    -0.361 N  
HETATM    7  H   UNL     1     -10.014   6.141  66.286  1.00  0.00     0.000 HD 
HETATM    8  H2  UNL     1     -12.734   4.407  65.171  1.00  0.00     0.000 HD 
HETATM    9  C   UNL     1      -8.490   5.633  65.007  1.00  0.00    -0.135 C  
HETATM   10  H1  UNL     1     -12.078   5.481  66.392  1.00  0.00     0.000 HD 
HETATM   11  O   UNL     1      -8.107   5.157  63.937  1.00  0.00    -0.105 OA 
ENDROOT
BRANCH   9  12
HETATM   12  C   UNL     1      -7.546   6.376  65.889  1.00  0.00    -0.084 A  
HETATM   13  N   UNL     1      -6.965   5.653  66.887  1.00  0.00    -0.064 NA 
HETATM   14  C   UNL     1      -6.188   6.391  67.712  1.00  0.00    -0.025 A  
HETATM   15 CL   UNL     1      -5.507   5.496  69.012  1.00  0.00    -0.007 Cl 
HETATM   16  C   UNL     1      -5.982   7.775  67.567  1.00  0.00    -0.045 A  
HETATM   17  N   UNL     1      -5.135   8.521  68.390  1.00  0.00    -0.033 NA 
HETATM   18  N   UNL     1      -6.556   8.459  66.553  1.00  0.00    -0.055 NA 
HETATM   19  C   UNL     1      -7.351   7.757  65.711  1.00  0.00    -0.076 A  
HETATM   20  H2  UNL     1      -4.218   8.077  68.361  1.00  0.00     0.000 HD 
HETATM   21  H1  UNL     1      -4.986   9.525  68.285  1.00  0.00     0.000 HD 
HETATM   22  N   UNL     1      -7.834   8.473  64.618  1.00  0.00    -0.123 NA 
HETATM   23  H1  UNL     1      -7.692   9.474  64.490  1.00  0.00     0.000 HD 
HETATM   24  H2  UNL     1      -8.838   8.302  64.566  1.00  0.00     0.000 HD 
ENDBRANCH   9  12
TORSDOF 1
ENDMDL
MODEL      260
REMARK 921   NORMALIZED FREE ENERGY PREDICTED BY IDOCK:   -0.09 KCAL/MOL
REMARK 922        TOTAL FREE ENERGY PREDICTED BY IDOCK:   -0.46 KCAL/MOL
REMARK 923 INTER-LIGAND FREE ENERGY PREDICTED BY IDOCK:   -0.08 KCAL/MOL
REMARK 924 INTRA-LIGAND FREE ENERGY PREDICTED BY IDOCK:   -0.39 KCAL/MOL
REMARK 927      BINDING AFFINITY PREDICTED BY RF-SCORE:    0.00 PKD
ROOT
HETATM    1  N   UNL     1     -10.682   4.186  63.787  1.00  0.00    -0.465 NA 
HETATM    2  H2  UNL     1     -11.439   3.613  63.412  1.00  0.00     0.000 HD 
HETATM    3  C   UNL     1     -10.940   4.974  64.850  1.00  0.00     0.800 C  
HETATM    4  H1  UNL     1      -9.767   4.133  63.340  1.00  0.00     0.000 HD 
HETATM    5  N   UNL     1     -12.091   5.040  65.413  1.00  0.00     0.481 NA 
HETATM    6  N   UNL     1      -9.965   5.758  65.390  1.00  0.00    -0.102 N  
HETATM    7  H   UNL     1     -10.242   6.359  66.166  1.00  0.00     0.000 HD 
HETATM    8  H2  UNL     1     -12.848   4.467  65.038  1.00  0.00     0.000 HD 
HETATM    9  C   UNL     1      -8.641   5.825  64.996  1.00  0.00    -0.088 C  
HETATM   10  H1  UNL     1     -12.286   5.636  66.217  1.00  0.00     0.000 HD 
HETATM   11  O   UNL     1      -8.191   5.297  63.977  1.00  0.00    -0.122 OA 
ENDROOT
BRANCH   9  12
HETATM   12  C   UNL     1      -7.766   6.653  65.872  1.00  0.00    -0.091 A  
HETATM   13  N   UNL     1      -7.091   7.665  65.258  1.00  0.00    -0.062 NA 
HETATM   14  C   UNL     1      -6.244   8.330  66.077  1.00  0.00    -0.049 A  
HETATM   15 CL   UNL     1      -5.341   9.564  65.291  1.00  0.00    -0.043 Cl 
HETATM   16  C   UNL     1      -6.065   8.023  67.439  1.00  0.00    -0.051 A  
HETATM   17  N   UNL     1      -5.231   8.748  68.292  1.00  0.00    -0.034 NA 
HETATM   18  N   UNL     1      -6.767   7.027  68.022  1.00  0.00    -0.062 NA 
HETATM   19  C   UNL     1      -7.618   6.329  67.232  1.00  0.00    -0.093 A  
HETATM   20  H2  UNL     1      -5.519   9.724  68.239  1.00  0.00     0.000 HD 
HETATM   21  H1  UNL     1      -5.101   8.525  69.279  1.00  0.00     0.000 HD 
HETATM   22  N   UNL     1      -8.401   5.386  67.893  1.00  0.00    -0.099 NA 
HETATM   23  H1  UNL     1      -8.293   5.152  68.879  1.00  0.00     0.000 HD 
HETATM   24  H2  UNL     1      -8.331   4.515  67.368  1.00  0.00     0.000 HD 
ENDBRANCH   9  12
TORSDOF 1
ENDMDL
MODEL      261
REMARK 921   NORMALIZED FREE ENERGY PREDICTED BY IDOCK:   -0.03 KCAL/MOL
REMARK 922        TOTAL FREE ENERGY PREDICTED BY IDOCK:   -0.41 KCAL/MOL
REMARK 923 INTER-LIGAND FREE ENERGY PREDICTED BY IDOCK:   -0.12 KCAL/MOL
REMARK 924 INTRA-LIGAND FREE ENERGY PREDICTED BY IDOCK:   -0.29 KCAL/MOL
REMARK 927      BINDING AFFINITY PREDICTED BY RF-SCORE:    0.00 PKD
ROOT
HETATM    1  N   UNL     1     -11.238   5.972  66.952  1.00  0.00    -0.604 NA 
HETATM    2  H2  UNL     1     -12.080   6.033  66.379  1.00  0.00     0.000 HD 
HETATM    3  C   UNL     1     -11.286   6.439  68.215  1.00  0.00    -0.176 C  
HETATM    4  H1  UNL     1     -10.400   5.561  66.539  1.00  0.00     0.000 HD 
HETATM    5  N   UNL     1     -12.339   6.956  68.734  1.00  0.00     1.521 NA 
HETATM    6  N   UNL     1     -10.189   6.382  69.022  1.00  0.00    -0.171 N  
HETATM    7  H   UNL     1     -10.286   6.790  69.952  1.00  0.00     0.000 HD 
HETATM    8  H2  UNL     1     -13.182   7.016  68.161  1.00  0.00     0.000 HD 
HETATM    9  C   UNL     1      -8.959   5.829  68.713  1.00  0.00    -0.116 C  
HETATM   10  H1  UNL     1     -12.375   7.308  69.690  1.00  0.00     0.000 HD 
HETATM   11  O   UNL     1      -8.630   5.453  67.587  1.00  0.00    -0.106 OA 
ENDROOT
BRANCH   9  12
HETATM   12  C   UNL     1      -7.995   5.767  69.847  1.00  0.00    -0.096 A  
HETATM   13  N   UNL     1      -7.173   6.844  69.994  1.00  0.00    -0.077 NA 
HETATM   14  C   UNL     1      -6.260   6.701  70.980  1.00  0.00    -0.040 A  
HETATM   15 CL   UNL     1      -5.177   8.029  71.124  1.00  0.00    -0.029 Cl 
HETATM   16  C   UNL     1      -6.153   5.557  71.793  1.00  0.00    -0.030 A  
HETATM   17  N   UNL     1      -5.243   5.437  72.845  1.00  0.00    -0.017 NA 
HETATM   18  N   UNL     1      -6.998   4.515  71.636  1.00  0.00    -0.038 NA 
HETATM   19  C   UNL     1      -7.922   4.615  70.650  1.00  0.00    -0.068 A  
HETATM   20  H2  UNL     1      -5.392   6.233  73.464  1.00  0.00     0.000 HD 
HETATM   21  H1  UNL     1      -5.166   4.608  73.434  1.00  0.00     0.000 HD 
HETATM   22  N   UNL     1      -8.842   3.571  70.593  1.00  0.00    -0.075 NA 
HETATM   23  H1  UNL     1      -8.789   2.736  71.175  1.00  0.00     0.000 HD 
HETATM   24  H2  UNL     1      -8.883   3.259  69.623  1.00  0.00     0.000 HD 
ENDBRANCH   9  12
TORSDOF 1
ENDMDL
MODEL      262
REMARK 921   NORMALIZED FREE ENERGY PREDICTED BY IDOCK:    0.13 KCAL/MOL
REMARK 922        TOTAL FREE ENERGY PREDICTED BY IDOCK:   -0.23 KCAL/MOL
REMARK 923 INTER-LIGAND FREE ENERGY PREDICTED BY IDOCK:    0.15 KCAL/MOL
REMARK 924 INTRA-LIGAND FREE ENERGY PREDICTED BY IDOCK:   -0.38 KCAL/MOL
REMARK 927      BINDING AFFINITY PREDICTED BY RF-SCORE:    0.00 PKD
ROOT
HETATM    1  N   UNL     1     -14.299  13.574  72.627  1.00  0.00    -0.600 NA 
HETATM    2  H2  UNL     1     -14.920  13.162  73.322  1.00  0.00     0.000 HD 
HETATM    3  C   UNL     1     -13.403  12.776  72.011  1.00  0.00    -0.466 C  
HETATM    4  H1  UNL     1     -14.385  14.572  72.431  1.00  0.00     0.000 HD 
HETATM    5  N   UNL     1     -13.295  11.522  72.257  1.00  0.00    -0.538 NA 
HETATM    6  N   UNL     1     -12.550  13.277  71.075  1.00  0.00    -0.354 N  
HETATM    7  H   UNL     1     -11.873  12.625  70.680  1.00  0.00     0.000 HD 
HETATM    8  H2  UNL     1     -13.918  11.108  72.952  1.00  0.00     0.000 HD 
HETATM    9  C   UNL     1     -12.504  14.577  70.604  1.00  0.00    -0.343 C  
HETATM   10  H1  UNL     1     -12.618  10.918  71.791  1.00  0.00     0.000 HD 
HETATM   11  O   UNL     1     -13.133  15.517  71.095  1.00  0.00    -0.472 OA 
ENDROOT
BRANCH   9  12
HETATM   12  C   UNL     1     -11.572  14.801  69.464  1.00  0.00    -0.304 A  
HETATM   13  N   UNL     1     -12.100  15.423  68.373  1.00  0.00    -0.125 NA 
HETATM   14  C   UNL     1     -11.239  15.523  67.334  1.00  0.00    -0.248 A  
HETATM   15 CL   UNL     1     -11.922  16.246  65.932  1.00  0.00     1.304 Cl 
HETATM   16  C   UNL     1      -9.918  15.040  67.360  1.00  0.00    -0.226 A  
HETATM   17  N   UNL     1      -9.017  15.194  66.304  1.00  0.00    -0.432 NA 
HETATM   18  N   UNL     1      -9.418  14.447  68.466  1.00  0.00    -0.210 NA 
HETATM   19  C   UNL     1     -10.253  14.318  69.525  1.00  0.00     0.176 A  
HETATM   20  H2  UNL     1      -8.969  16.190  66.092  1.00  0.00     0.000 HD 
HETATM   21  H1  UNL     1      -8.059  14.844  66.322  1.00  0.00     0.000 HD 
HETATM   22  N   UNL     1      -9.669  13.804  70.680  1.00  0.00     2.985 NA 
HETATM   23  H1  UNL     1      -8.713  13.454  70.723  1.00  0.00     0.000 HD 
HETATM   24  H2  UNL     1     -10.277  13.058  71.019  1.00  0.00     0.000 HD 
ENDBRANCH   9  12
TORSDOF 1
ENDMDL
MODEL      263
REMARK 921   NORMALIZED FREE ENERGY PREDICTED BY IDOCK:   10.37 KCAL/MOL
REMARK 922        TOTAL FREE ENERGY PREDICTED BY IDOCK:   10.60 KCAL/MOL
REMARK 923 INTER-LIGAND FREE ENERGY PREDICTED BY IDOCK:   10.48 KCAL/MOL
REMARK 924 INTRA-LIGAND FREE ENERGY PREDICTED BY IDOCK:    0.12 KCAL/MOL
REMARK 927      BINDING AFFINITY PREDICTED BY RF-SCORE:    0.00 PKD
ROOT
HETATM    1  N   UNL     1     -12.390   5.278  62.985  1.00  0.00     3.276 NA 
HETATM    2  H2  UNL     1     -13.353   5.575  62.825  1.00  0.00     0.000 HD 
HETATM    3  C   UNL     1     -12.115   4.557  64.090  1.00  0.00     3.083 C  
HETATM    4  H1  UNL     1     -11.681   5.544  62.300  1.00  0.00     0.000 HD 
HETATM    5  N   UNL     1     -13.006   4.223  64.950  1.00  0.00     5.403 NA 
HETATM    6  N   UNL     1     -10.846   4.137  64.351  1.00  0.00    -0.605 N  
HETATM    7  H   UNL     1     -10.704   3.630  65.224  1.00  0.00     0.000 HD 
HETATM    8  H2  UNL     1     -13.970   4.519  64.790  1.00  0.00     0.000 HD 
HETATM    9  C   UNL     1      -9.729   4.325  63.556  1.00  0.00    -0.056 C  
HETATM   10  H1  UNL     1     -12.798   3.677  65.786  1.00  0.00     0.000 HD 
HETATM   11  O   UNL     1      -9.697   5.055  62.563  1.00  0.00     0.101 OA 
ENDROOT
BRANCH   9  12
HETATM   12  C   UNL     1      -8.502   3.617  64.017  1.00  0.00    -0.091 A  
HETATM   13  N   UNL     1      -7.491   3.518  63.109  1.00  0.00    -0.053 NA 
HETATM   14  C   UNL     1      -6.437   2.792  63.545  1.00  0.00    -0.026 A  
HETATM   15 CL   UNL     1      -5.188   2.607  62.379  1.00  0.00    -0.004 Cl 
HETATM   16  C   UNL     1      -6.369   2.190  64.816  1.00  0.00    -0.019 A  
HETATM   17  N   UNL     1      -5.256   1.487  65.280  1.00  0.00    -0.005 NA 
HETATM   18  N   UNL     1      -7.380   2.326  65.701  1.00  0.00    -0.065 NA 
HETATM   19  C   UNL     1      -8.460   3.037  65.298  1.00  0.00    -0.099 A  
HETATM   20  H2  UNL     1      -4.452   2.108  65.199  1.00  0.00     0.000 HD 
HETATM   21  H1  UNL     1      -5.207   1.051  66.201  1.00  0.00     0.000 HD 
HETATM   22  N   UNL     1      -9.430   3.247  66.275  1.00  0.00    -0.358 NA 
HETATM   23  H1  UNL     1      -9.399   2.827  67.203  1.00  0.00     0.000 HD 
HETATM   24  H2  UNL     1     -10.330   3.001  65.864  1.00  0.00     0.000 HD 
ENDBRANCH   9  12
TORSDOF 1
ENDMDL
MODEL      264
REMARK 921   NORMALIZED FREE ENERGY PREDICTED BY IDOCK:   10.81 KCAL/MOL
REMARK 922        TOTAL FREE ENERGY PREDICTED BY IDOCK:   11.07 KCAL/MOL
REMARK 923 INTER-LIGAND FREE ENERGY PREDICTED BY IDOCK:   11.22 KCAL/MOL
REMARK 924 INTRA-LIGAND FREE ENERGY PREDICTED BY IDOCK:   -0.15 KCAL/MOL
REMARK 927      BINDING AFFINITY PREDICTED BY RF-SCORE:    0.00 PKD
ROOT
HETATM    1  N   UNL     1     -12.359   5.337  62.693  1.00  0.00     2.586 NA 
HETATM    2  H2  UNL     1     -13.315   5.558  62.414  1.00  0.00     0.000 HD 
HETATM    3  C   UNL     1     -12.158   4.766  63.898  1.00  0.00     3.628 C  
HETATM    4  H1  UNL     1     -11.602   5.561  62.047  1.00  0.00     0.000 HD 
HETATM    5  N   UNL     1     -13.109   4.485  64.710  1.00  0.00     5.593 NA 
HETATM    6  N   UNL     1     -10.901   4.452  64.319  1.00  0.00    -0.501 N  
HETATM    7  H   UNL     1     -10.819   4.059  65.256  1.00  0.00     0.000 HD 
HETATM    8  H2  UNL     1     -14.066   4.705  64.431  1.00  0.00     0.000 HD 
HETATM    9  C   UNL     1      -9.723   4.609  63.609  1.00  0.00     0.203 C  
HETATM   10  H1  UNL     1     -12.957   4.052  65.621  1.00  0.00     0.000 HD 
HETATM   11  O   UNL     1      -9.632   5.219  62.542  1.00  0.00     0.202 OA 
ENDROOT
BRANCH   9  12
HETATM   12  C   UNL     1      -8.515   4.030  64.259  1.00  0.00    -0.098 A  
HETATM   13  N   UNL     1      -8.741   3.235  65.342  1.00  0.00    -0.119 NA 
HETATM   14  C   UNL     1      -7.611   2.806  65.949  1.00  0.00    -0.073 A  
HETATM   15 CL   UNL     1      -7.892   1.859  67.356  1.00  0.00    -0.060 Cl 
HETATM   16  C   UNL     1      -6.314   3.137  65.516  1.00  0.00    -0.031 A  
HETATM   17  N   UNL     1      -5.151   2.648  66.114  1.00  0.00    -0.004 NA 
HETATM   18  N   UNL     1      -6.124   3.910  64.425  1.00  0.00    -0.022 NA 
HETATM   19  C   UNL     1      -7.232   4.369  63.795  1.00  0.00    -0.054 A  
HETATM   20  H2  UNL     1      -5.217   1.631  66.116  1.00  0.00     0.000 HD 
HETATM   21  H1  UNL     1      -4.210   2.888  65.801  1.00  0.00     0.000 HD 
HETATM   22  N   UNL     1      -6.995   5.068  62.615  1.00  0.00    -0.030 NA 
HETATM   23  H1  UNL     1      -6.064   5.313  62.278  1.00  0.00     0.000 HD 
HETATM   24  H2  UNL     1      -7.534   5.933  62.663  1.00  0.00     0.000 HD 
ENDBRANCH   9  12
TORSDOF 1
ENDMDL
MODEL      265
REMARK 921   NORMALIZED FREE ENERGY PREDICTED BY IDOCK:   10.92 KCAL/MOL
REMARK 922        TOTAL FREE ENERGY PREDICTED BY IDOCK:   11.19 KCAL/MOL
REMARK 923 INTER-LIGAND FREE ENERGY PREDICTED BY IDOCK:   11.49 KCAL/MOL
REMARK 924 INTRA-LIGAND FREE ENERGY PREDICTED BY IDOCK:   -0.30 KCAL/MOL
REMARK 927      BINDING AFFINITY PREDICTED BY RF-SCORE:    0.00 PKD
ROOT
HETATM    1  N   UNL     1     -12.371   4.513  62.741  1.00  0.00     2.031 NA 
HETATM    2  H2  UNL     1     -13.299   4.287  62.383  1.00  0.00     0.000 HD 
HETATM    3  C   UNL     1     -12.078   4.187  64.016  1.00  0.00     3.052 C  
HETATM    4  H1  UNL     1     -11.710   4.975  62.116  1.00  0.00     0.000 HD 
HETATM    5  N   UNL     1     -12.909   3.607  64.801  1.00  0.00     6.486 NA 
HETATM    6  N   UNL     1     -10.853   4.467  64.543  1.00  0.00    -0.546 N  
HETATM    7  H   UNL     1     -10.715   4.229  65.525  1.00  0.00     0.000 HD 
HETATM    8  H2  UNL     1     -13.838   3.380  64.444  1.00  0.00     0.000 HD 
HETATM    9  C   UNL     1      -9.777   5.039  63.887  1.00  0.00     0.585 C  
HETATM   10  H1  UNL     1     -12.687   3.360  65.766  1.00  0.00     0.000 HD 
HETATM   11  O   UNL     1      -9.835   5.534  62.760  1.00  0.00     0.812 OA 
ENDROOT
BRANCH   9  12
HETATM   12  C   UNL     1      -8.512   5.079  64.671  1.00  0.00    -0.145 A  
HETATM   13  N   UNL     1      -7.670   4.021  64.504  1.00  0.00    -0.080 NA 
HETATM   14  C   UNL     1      -6.579   4.062  65.301  1.00  0.00    -0.047 A  
HETATM   15 CL   UNL     1      -5.549   2.695  65.142  1.00  0.00    -0.013 Cl 
HETATM   16  C   UNL     1      -6.317   5.093  66.223  1.00  0.00    -0.039 A  
HETATM   17  N   UNL     1      -5.163   5.157  67.005  1.00  0.00    -0.008 NA 
HETATM   18  N   UNL     1      -7.162   6.139  66.349  1.00  0.00    -0.071 NA 
HETATM   19  C   UNL     1      -8.273   6.130  65.574  1.00  0.00    -0.144 A  
HETATM   20  H2  UNL     1      -4.366   5.111  66.371  1.00  0.00     0.000 HD 
HETATM   21  H1  UNL     1      -4.973   5.905  67.673  1.00  0.00     0.000 HD 
HETATM   22  N   UNL     1      -9.059   7.277  65.653  1.00  0.00    -0.385 NA 
HETATM   23  H1  UNL     1      -8.886   8.039  66.307  1.00  0.00     0.000 HD 
HETATM   24  H2  UNL     1     -10.022   6.973  65.795  1.00  0.00     0.000 HD 
ENDBRANCH   9  12
TORSDOF 1
ENDMDL
MODEL      266
REMARK 921   NORMALIZED FREE ENERGY PREDICTED BY IDOCK:   13.19 KCAL/MOL
REMARK 922        TOTAL FREE ENERGY PREDICTED BY IDOCK:   13.59 KCAL/MOL
REMARK 923 INTER-LIGAND FREE ENERGY PREDICTED BY IDOCK:   13.97 KCAL/MOL
REMARK 924 INTRA-LIGAND FREE ENERGY PREDICTED BY IDOCK:   -0.39 KCAL/MOL
REMARK 927      BINDING AFFINITY PREDICTED BY RF-SCORE:    0.00 PKD
ROOT
HETATM    1  N   UNL     1     -12.344   4.050  62.736  1.00  0.00     2.490 NA 
HETATM    2  H2  UNL     1     -13.253   3.814  62.336  1.00  0.00     0.000 HD 
HETATM    3  C   UNL     1     -12.121   3.767  64.035  1.00  0.00     3.390 C  
HETATM    4  H1  UNL     1     -11.649   4.491  62.132  1.00  0.00     0.000 HD 
HETATM    5  N   UNL     1     -12.994   3.213  64.793  1.00  0.00     8.892 NA 
HETATM    6  N   UNL     1     -10.925   4.062  64.617  1.00  0.00    -0.671 N  
HETATM    7  H   UNL     1     -10.840   3.857  65.613  1.00  0.00     0.000 HD 
HETATM    8  H2  UNL     1     -13.903   2.976  64.394  1.00  0.00     0.000 HD 
HETATM    9  C   UNL     1      -9.815   4.612  64.001  1.00  0.00     0.244 C  
HETATM   10  H1  UNL     1     -12.825   2.998  65.776  1.00  0.00     0.000 HD 
HETATM   11  O   UNL     1      -9.810   5.070  62.857  1.00  0.00     0.293 OA 
ENDROOT
BRANCH   9  12
HETATM   12  C   UNL     1      -8.593   4.677  64.851  1.00  0.00    -0.140 A  
HETATM   13  N   UNL     1      -8.057   5.917  65.032  1.00  0.00    -0.127 NA 
HETATM   14  C   UNL     1      -6.902   5.912  65.736  1.00  0.00    -0.056 A  
HETATM   15 CL   UNL     1      -6.186   7.466  65.910  1.00  0.00    -0.040 Cl 
HETATM   16  C   UNL     1      -6.296   4.748  66.244  1.00  0.00    -0.036 A  
HETATM   17  N   UNL     1      -5.132   4.755  67.015  1.00  0.00    -0.007 NA 
HETATM   18  N   UNL     1      -6.865   3.537  66.065  1.00  0.00    -0.058 NA 
HETATM   19  C   UNL     1      -8.018   3.497  65.355  1.00  0.00    -0.090 A  
HETATM   20  H2  UNL     1      -5.298   5.377  67.806  1.00  0.00     0.000 HD 
HETATM   21  H1  UNL     1      -4.693   3.911  67.384  1.00  0.00     0.000 HD 
HETATM   22  N   UNL     1      -8.630   2.248  65.287  1.00  0.00    -0.106 NA 
HETATM   23  H1  UNL     1      -8.213   1.393  65.653  1.00  0.00     0.000 HD 
HETATM   24  H2  UNL     1      -8.857   2.077  64.308  1.00  0.00     0.000 HD 
ENDBRANCH   9  12
TORSDOF 1
ENDMDL
MODEL      267
REMARK 921   NORMALIZED FREE ENERGY PREDICTED BY IDOCK:   13.80 KCAL/MOL
REMARK 922        TOTAL FREE ENERGY PREDICTED BY IDOCK:   14.23 KCAL/MOL
REMARK 923 INTER-LIGAND FREE ENERGY PREDICTED BY IDOCK:   14.63 KCAL/MOL
REMARK 924 INTRA-LIGAND FREE ENERGY PREDICTED BY IDOCK:   -0.40 KCAL/MOL
REMARK 927      BINDING AFFINITY PREDICTED BY RF-SCORE:    0.00 PKD
ROOT
HETATM    1  N   UNL     1     -12.163   5.801  64.398  1.00  0.00     4.600 NA 
HETATM    2  H2  UNL     1     -13.104   6.077  64.115  1.00  0.00     0.000 HD 
HETATM    3  C   UNL     1     -12.025   5.014  65.484  1.00  0.00     2.537 C  
HETATM    4  H1  UNL     1     -11.373   6.134  63.846  1.00  0.00     0.000 HD 
HETATM    5  N   UNL     1     -13.018   4.595  66.179  1.00  0.00     8.271 NA 
HETATM    6  N   UNL     1     -10.792   4.617  65.906  1.00  0.00    -0.699 N  
HETATM    7  H   UNL     1     -10.760   4.056  66.757  1.00  0.00     0.000 HD 
HETATM    8  H2  UNL     1     -13.960   4.870  65.895  1.00  0.00     0.000 HD 
HETATM    9  C   UNL     1      -9.579   4.894  65.301  1.00  0.00    -0.064 C  
HETATM   10  H1  UNL     1     -12.914   3.999  67.000  1.00  0.00     0.000 HD 
HETATM   11  O   UNL     1      -9.432   5.691  64.372  1.00  0.00     0.541 OA 
ENDROOT
BRANCH   9  12
HETATM   12  C   UNL     1      -8.406   4.195  65.896  1.00  0.00    -0.109 A  
HETATM   13  N   UNL     1      -7.739   3.339  65.072  1.00  0.00    -0.080 NA 
HETATM   14  C   UNL     1      -6.738   2.665  65.682  1.00  0.00    -0.039 A  
HETATM   15 CL   UNL     1      -5.938   1.534  64.665  1.00  0.00    -0.012 Cl 
HETATM   16  C   UNL     1      -6.399   2.821  67.039  1.00  0.00    -0.035 A  
HETATM   17  N   UNL     1      -5.331   2.162  67.651  1.00  0.00    -0.016 NA 
HETATM   18  N   UNL     1      -7.067   3.695  67.823  1.00  0.00    -0.054 NA 
HETATM   19  C   UNL     1      -8.084   4.383  67.251  1.00  0.00    -0.101 A  
HETATM   20  H2  UNL     1      -4.495   2.373  67.106  1.00  0.00     0.000 HD 
HETATM   21  H1  UNL     1      -5.085   2.276  68.634  1.00  0.00     0.000 HD 
HETATM   22  N   UNL     1      -8.673   5.351  68.060  1.00  0.00    -0.106 NA 
HETATM   23  H1  UNL     1      -8.440   5.487  69.043  1.00  0.00     0.000 HD 
HETATM   24  H2  UNL     1      -9.682   5.214  68.007  1.00  0.00     0.000 HD 
ENDBRANCH   9  12
TORSDOF 1
ENDMDL
MODEL      268
REMARK 921   NORMALIZED FREE ENERGY PREDICTED BY IDOCK:   15.47 KCAL/MOL
REMARK 922        TOTAL FREE ENERGY PREDICTED BY IDOCK:   16.00 KCAL/MOL
REMARK 923 INTER-LIGAND FREE ENERGY PREDICTED BY IDOCK:   16.28 KCAL/MOL
REMARK 924 INTRA-LIGAND FREE ENERGY PREDICTED BY IDOCK:   -0.28 KCAL/MOL
REMARK 927      BINDING AFFINITY PREDICTED BY RF-SCORE:    0.00 PKD
ROOT
HETATM    1  N   UNL     1     -12.305   4.986  64.096  1.00  0.00     2.336 NA 
HETATM    2  H2  UNL     1     -13.204   4.752  63.676  1.00  0.00     0.000 HD 
HETATM    3  C   UNL     1     -12.108   4.694  65.397  1.00  0.00     3.308 C  
HETATM    4  H1  UNL     1     -11.597   5.431  63.510  1.00  0.00     0.000 HD 
HETATM    5  N   UNL     1     -12.997   4.135  66.134  1.00  0.00    10.187 NA 
HETATM    6  N   UNL     1     -10.925   4.986  66.007  1.00  0.00    -0.744 N  
HETATM    7  H   UNL     1     -10.861   4.774  67.002  1.00  0.00     0.000 HD 
HETATM    8  H2  UNL     1     -13.897   3.900  65.714  1.00  0.00     0.000 HD 
HETATM    9  C   UNL     1      -9.802   5.540  65.418  1.00  0.00     0.355 C  
HETATM   10  H1  UNL     1     -12.848   3.913  67.118  1.00  0.00     0.000 HD 
HETATM   11  O   UNL     1      -9.774   6.006  64.277  1.00  0.00     1.473 OA 
ENDROOT
BRANCH   9  12
HETATM   12  C   UNL     1      -8.598   5.600  66.292  1.00  0.00    -0.127 A  
HETATM   13  N   UNL     1      -8.832   5.574  67.635  1.00  0.00    -0.107 NA 
HETATM   14  C   UNL     1      -7.716   5.720  68.385  1.00  0.00    -0.096 A  
HETATM   15 CL   UNL     1      -8.015   5.755  70.077  1.00  0.00    -0.098 Cl 
HETATM   16  C   UNL     1      -6.425   5.881  67.849  1.00  0.00    -0.047 A  
HETATM   17  N   UNL     1      -5.271   5.977  68.628  1.00  0.00    -0.006 NA 
HETATM   18  N   UNL     1      -6.225   5.881  66.513  1.00  0.00    -0.032 NA 
HETATM   19  C   UNL     1      -7.320   5.748  65.727  1.00  0.00    -0.076 A  
HETATM   20  H2  UNL     1      -5.245   5.156  69.232  1.00  0.00     0.000 HD 
HETATM   21  H1  UNL     1      -4.334   6.094  68.239  1.00  0.00     0.000 HD 
HETATM   22  N   UNL     1      -7.060   5.642  64.363  1.00  0.00    -0.051 NA 
HETATM   23  H1  UNL     1      -6.133   5.749  63.953  1.00  0.00     0.000 HD 
HETATM   24  H2  UNL     1      -7.677   6.299  63.886  1.00  0.00     0.000 HD 
ENDBRANCH   9  12
TORSDOF 1
ENDMDL
MODEL      269
REMARK 921   NORMALIZED FREE ENERGY PREDICTED BY IDOCK:   31.00 KCAL/MOL
REMARK 922        TOTAL FREE ENERGY PREDICTED BY IDOCK:   32.44 KCAL/MOL
REMARK 923 INTER-LIGAND FREE ENERGY PREDICTED BY IDOCK:   32.82 KCAL/MOL
REMARK 924 INTRA-LIGAND FREE ENERGY PREDICTED BY IDOCK:   -0.38 KCAL/MOL
REMARK 927      BINDING AFFINITY PREDICTED BY RF-SCORE:    0.00 PKD
ROOT
HETATM    1  N   UNL     1      -7.676  15.194  64.227  1.00  0.00    11.609 NA 
HETATM    2  H2  UNL     1      -7.682  14.957  63.234  1.00  0.00     0.000 HD 
HETATM    3  C   UNL     1      -8.856  15.409  64.842  1.00  0.00     3.483 C  
HETATM    4  H1  UNL     1      -6.777  15.256  64.705  1.00  0.00     0.000 HD 
HETATM    5  N   UNL     1      -9.986  15.331  64.242  1.00  0.00     0.195 NA 
HETATM    6  N   UNL     1      -8.904  15.729  66.166  1.00  0.00    -0.338 N  
HETATM    7  H   UNL     1      -9.827  15.918  66.556  1.00  0.00     0.000 HD 
HETATM    8  H2  UNL     1      -9.993  15.093  63.249  1.00  0.00     0.000 HD 
HETATM    9  C   UNL     1      -7.833  15.824  67.036  1.00  0.00    -0.236 C  
HETATM   10  H1  UNL     1     -10.879  15.493  64.707  1.00  0.00     0.000 HD 
HETATM   11  O   UNL     1      -6.650  15.794  66.689  1.00  0.00    -0.136 OA 
ENDROOT
BRANCH   9  12
HETATM   12  C   UNL     1      -8.200  16.035  68.464  1.00  0.00    -0.181 A  
HETATM   13  N   UNL     1      -9.169  15.216  68.960  1.00  0.00    -0.211 NA 
HETATM   14  C   UNL     1      -9.529  15.504  70.231  1.00  0.00     0.498 A  
HETATM   15 CL   UNL     1     -10.799  14.517  70.837  1.00  0.00     0.293 Cl 
HETATM   16  C   UNL     1      -8.964  16.546  70.990  1.00  0.00     4.954 A  
HETATM   17  N   UNL     1      -9.300  16.805  72.320  1.00  0.00     9.895 NA 
HETATM   18  N   UNL     1      -7.988  17.326  70.476  1.00  0.00     3.351 NA 
HETATM   19  C   UNL     1      -7.608  17.076  69.200  1.00  0.00    -0.140 A  
HETATM   20  H2  UNL     1      -9.155  15.940  72.841  1.00  0.00     0.000 HD 
HETATM   21  H1  UNL     1      -8.890  17.560  72.870  1.00  0.00     0.000 HD 
HETATM   22  N   UNL     1      -6.526  17.827  68.747  1.00  0.00    -0.215 NA 
HETATM   23  H1  UNL     1      -6.097  18.582  69.281  1.00  0.00     0.000 HD 
HETATM   24  H2  UNL     1      -6.787  18.212  67.839  1.00  0.00     0.000 HD 
ENDBRANCH   9  12
TORSDOF 1
ENDMDL
