MODEL        1
REMARK 921   NORMALIZED FREE ENERGY PREDICTED BY IDOCK:   -5.69 KCAL/MOL
REMARK 922        TOTAL FREE ENERGY PREDICTED BY IDOCK:   -8.47 KCAL/MOL
REMARK 923 INTER-LIGAND FREE ENERGY PREDICTED BY IDOCK:   -7.69 KCAL/MOL
REMARK 924 INTRA-LIGAND FREE ENERGY PREDICTED BY IDOCK:   -0.78 KCAL/MOL
REMARK 927      BINDING AFFINITY PREDICTED BY RF-SCORE:    0.00 PKD
ROOT
HETATM    1  C   UNL     1     -11.877   6.713  71.919  1.00  0.00    -0.332 C  
HETATM    2  O   UNL     1     -11.974   7.971  72.582  1.00  0.00    -0.356 OA 
ENDROOT
BRANCH   2   3
HETATM    3  C   UNL     1     -11.902   9.062  71.759  1.00  0.00    -0.372 A  
HETATM    4  C   UNL     1     -10.832   9.086  70.867  1.00  0.00    -0.323 A  
HETATM    5  C   UNL     1     -10.655  10.171  70.003  1.00  0.00    -0.338 A  
HETATM    6  C   UNL     1     -11.565  11.232  69.994  1.00  0.00    -0.404 A  
HETATM    7  C   UNL     1     -12.657  11.183  70.874  1.00  0.00    -0.483 A  
HETATM    8  C   UNL     1     -12.830  10.103  71.745  1.00  0.00    -0.554 A  
BRANCH   6   9
HETATM    9  C   UNL     1     -11.301  12.408  69.159  1.00  0.00    -0.327 C  
HETATM   10  C   UNL     1     -12.117  13.470  69.085  1.00  0.00    -0.331 C  
BRANCH  10  11
HETATM   11  C   UNL     1     -11.669  14.714  68.421  1.00  0.00    -0.320 C  
HETATM   12  O   UNL     1     -11.468  14.852  67.226  1.00  0.00    -0.346 OA 
BRANCH  11  13
HETATM   13  O   UNL     1     -11.314  15.577  69.409  1.00  0.00    -0.271 OA 
BRANCH  13  14
HETATM   14  C   UNL     1     -12.358  15.835  70.353  1.00  0.00    -0.333 C  
BRANCH  14  15
HETATM   15  C   UNL     1     -11.852  15.888  71.791  1.00  0.00    -0.579 C  
HETATM   16  C   UNL     1     -12.960  15.506  72.795  1.00  0.00    -0.559 C  
HETATM   17  C   UNL     1     -13.479  14.081  72.579  1.00  0.00    -0.661 C  
HETATM   18  C   UNL     1     -12.467  15.659  74.233  1.00  0.00    -0.804 C  
ENDBRANCH  14  15
ENDBRANCH  13  14
ENDBRANCH  11  13
ENDBRANCH  10  11
ENDBRANCH   6   9
ENDBRANCH   2   3
TORSDOF 6
ENDMDL
MODEL        2
REMARK 921   NORMALIZED FREE ENERGY PREDICTED BY IDOCK:   -5.54 KCAL/MOL
REMARK 922        TOTAL FREE ENERGY PREDICTED BY IDOCK:   -8.26 KCAL/MOL
REMARK 923 INTER-LIGAND FREE ENERGY PREDICTED BY IDOCK:   -7.39 KCAL/MOL
REMARK 924 INTRA-LIGAND FREE ENERGY PREDICTED BY IDOCK:   -0.88 KCAL/MOL
REMARK 927      BINDING AFFINITY PREDICTED BY RF-SCORE:    0.00 PKD
ROOT
HETATM    1  C   UNL     1     -13.545  15.482  72.729  1.00  0.00    -0.561 C  
HETATM    2  O   UNL     1     -12.841  14.289  72.396  1.00  0.00    -0.350 OA 
ENDROOT
BRANCH   2   3
HETATM    3  C   UNL     1     -12.464  14.189  71.085  1.00  0.00    -0.371 A  
HETATM    4  C   UNL     1     -12.266  15.394  70.412  1.00  0.00    -0.430 A  
HETATM    5  C   UNL     1     -11.906  15.399  69.060  1.00  0.00    -0.357 A  
HETATM    6  C   UNL     1     -11.706  14.199  68.371  1.00  0.00    -0.380 A  
HETATM    7  C   UNL     1     -11.877  12.992  69.066  1.00  0.00    -0.362 A  
HETATM    8  C   UNL     1     -12.245  12.986  70.415  1.00  0.00    -0.386 A  
BRANCH   6   9
HETATM    9  C   UNL     1     -11.435  14.227  66.930  1.00  0.00    -0.377 C  
HETATM   10  C   UNL     1     -12.376  14.054  65.990  1.00  0.00    -0.504 C  
BRANCH  10  11
HETATM   11  C   UNL     1     -12.078  14.340  64.569  1.00  0.00    -0.480 C  
HETATM   12  O   UNL     1     -12.737  15.054  63.832  1.00  0.00    -0.775 OA 
BRANCH  11  13
HETATM   13  O   UNL     1     -11.086  13.488  64.201  1.00  0.00    -0.367 OA 
BRANCH  13  14
HETATM   14  C   UNL     1     -11.559  12.239  63.686  1.00  0.00    -0.496 C  
BRANCH  14  15
HETATM   15  C   UNL     1     -10.469  11.174  63.631  1.00  0.00    -0.438 C  
HETATM   16  C   UNL     1      -9.663  11.121  64.945  1.00  0.00    -0.297 C  
HETATM   17  C   UNL     1     -10.536  10.771  66.154  1.00  0.00    -0.278 C  
HETATM   18  C   UNL     1      -8.513  10.119  64.837  1.00  0.00    -0.178 C  
ENDBRANCH  14  15
ENDBRANCH  13  14
ENDBRANCH  11  13
ENDBRANCH  10  11
ENDBRANCH   6   9
ENDBRANCH   2   3
TORSDOF 6
ENDMDL
MODEL        3
REMARK 921   NORMALIZED FREE ENERGY PREDICTED BY IDOCK:   -5.52 KCAL/MOL
REMARK 922        TOTAL FREE ENERGY PREDICTED BY IDOCK:   -8.24 KCAL/MOL
REMARK 923 INTER-LIGAND FREE ENERGY PREDICTED BY IDOCK:   -7.69 KCAL/MOL
REMARK 924 INTRA-LIGAND FREE ENERGY PREDICTED BY IDOCK:   -0.54 KCAL/MOL
REMARK 927      BINDING AFFINITY PREDICTED BY RF-SCORE:    0.00 PKD
ROOT
HETATM    1  C   UNL     1     -12.037  13.088  63.381  1.00  0.00    -0.515 C  
HETATM    2  O   UNL     1     -10.881  12.641  64.083  1.00  0.00    -0.341 OA 
ENDROOT
BRANCH   2   3
HETATM    3  C   UNL     1     -11.090  12.334  65.400  1.00  0.00    -0.311 A  
HETATM    4  C   UNL     1     -10.618  11.092  65.821  1.00  0.00    -0.289 A  
HETATM    5  C   UNL     1     -10.807  10.673  67.142  1.00  0.00    -0.328 A  
HETATM    6  C   UNL     1     -11.441  11.506  68.070  1.00  0.00    -0.381 A  
HETATM    7  C   UNL     1     -11.885  12.767  67.644  1.00  0.00    -0.396 A  
HETATM    8  C   UNL     1     -11.703  13.182  66.321  1.00  0.00    -0.424 A  
BRANCH   6   9
HETATM    9  C   UNL     1     -11.725  11.004  69.419  1.00  0.00    -0.394 C  
HETATM   10  C   UNL     1     -12.401  11.698  70.346  1.00  0.00    -0.373 C  
BRANCH  10  11
HETATM   11  C   UNL     1     -12.861  11.038  71.588  1.00  0.00    -0.435 C  
HETATM   12  O   UNL     1     -12.861   9.838  71.800  1.00  0.00    -0.370 OA 
BRANCH  11  13
HETATM   13  O   UNL     1     -13.482  11.993  72.329  1.00  0.00    -0.465 OA 
BRANCH  13  14
HETATM   14  C   UNL     1     -13.471  13.291  71.725  1.00  0.00    -0.354 C  
BRANCH  14  15
HETATM   15  C   UNL     1     -13.634  14.416  72.741  1.00  0.00    -0.531 C  
HETATM   16  C   UNL     1     -12.293  15.125  73.020  1.00  0.00    -0.510 C  
HETATM   17  C   UNL     1     -11.701  15.772  71.764  1.00  0.00    -0.562 C  
HETATM   18  C   UNL     1     -12.453  16.182  74.112  1.00  0.00    -0.711 C  
ENDBRANCH  14  15
ENDBRANCH  13  14
ENDBRANCH  11  13
ENDBRANCH  10  11
ENDBRANCH   6   9
ENDBRANCH   2   3
TORSDOF 6
ENDMDL
MODEL        4
REMARK 921   NORMALIZED FREE ENERGY PREDICTED BY IDOCK:   -5.41 KCAL/MOL
REMARK 922        TOTAL FREE ENERGY PREDICTED BY IDOCK:   -8.09 KCAL/MOL
REMARK 923 INTER-LIGAND FREE ENERGY PREDICTED BY IDOCK:   -7.39 KCAL/MOL
REMARK 924 INTRA-LIGAND FREE ENERGY PREDICTED BY IDOCK:   -0.70 KCAL/MOL
REMARK 927      BINDING AFFINITY PREDICTED BY RF-SCORE:    0.00 PKD
ROOT
HETATM    1  C   UNL     1     -12.939  10.001  71.686  1.00  0.00    -0.449 C  
HETATM    2  O   UNL     1     -11.682  10.378  71.129  1.00  0.00    -0.352 OA 
ENDROOT
BRANCH   2   3
HETATM    3  C   UNL     1     -11.758  11.225  70.057  1.00  0.00    -0.346 A  
HETATM    4  C   UNL     1     -12.116  12.541  70.341  1.00  0.00    -0.380 A  
HETATM    5  C   UNL     1     -12.248  13.478  69.310  1.00  0.00    -0.257 A  
HETATM    6  C   UNL     1     -11.989  13.119  67.984  1.00  0.00    -0.345 A  
HETATM    7  C   UNL     1     -11.598  11.799  67.712  1.00  0.00    -0.374 A  
HETATM    8  C   UNL     1     -11.475  10.860  68.741  1.00  0.00    -0.376 A  
BRANCH   6   9
HETATM    9  C   UNL     1     -12.237  14.086  66.909  1.00  0.00    -0.415 C  
HETATM   10  C   UNL     1     -11.343  14.391  65.959  1.00  0.00    -0.335 C  
BRANCH  10  11
HETATM   11  C   UNL     1     -11.748  15.181  64.774  1.00  0.00    -0.331 C  
HETATM   12  O   UNL     1     -12.549  14.832  63.924  1.00  0.00    -0.834 OA 
BRANCH  11  13
HETATM   13  O   UNL     1     -10.899  16.239  64.704  1.00  0.00    -0.687 OA 
BRANCH  13  14
HETATM   14  C   UNL     1      -9.949  16.290  65.773  1.00  0.00    -0.323 C  
BRANCH  14  15
HETATM   15  C   UNL     1      -9.717  17.706  66.289  1.00  0.00    -0.275 C  
HETATM   16  C   UNL     1     -10.627  18.025  67.494  1.00  0.00    -0.402 C  
HETATM   17  C   UNL     1     -10.371  17.093  68.683  1.00  0.00    -0.359 C  
HETATM   18  C   UNL     1     -10.454  19.478  67.936  1.00  0.00    -0.552 C  
ENDBRANCH  14  15
ENDBRANCH  13  14
ENDBRANCH  11  13
ENDBRANCH  10  11
ENDBRANCH   6   9
ENDBRANCH   2   3
TORSDOF 6
ENDMDL
MODEL        5
REMARK 921   NORMALIZED FREE ENERGY PREDICTED BY IDOCK:   -5.34 KCAL/MOL
REMARK 922        TOTAL FREE ENERGY PREDICTED BY IDOCK:   -8.00 KCAL/MOL
REMARK 923 INTER-LIGAND FREE ENERGY PREDICTED BY IDOCK:   -7.31 KCAL/MOL
REMARK 924 INTRA-LIGAND FREE ENERGY PREDICTED BY IDOCK:   -0.69 KCAL/MOL
REMARK 927      BINDING AFFINITY PREDICTED BY RF-SCORE:    0.00 PKD
ROOT
HETATM    1  C   UNL     1     -10.323  17.577  65.928  1.00  0.00    -0.259 C  
HETATM    2  O   UNL     1     -10.458  16.331  65.251  1.00  0.00    -0.541 OA 
ENDROOT
BRANCH   2   3
HETATM    3  C   UNL     1     -10.857  15.286  66.040  1.00  0.00    -0.330 A  
HETATM    4  C   UNL     1     -10.931  15.547  67.407  1.00  0.00    -0.306 A  
HETATM    5  C   UNL     1     -11.302  14.537  68.302  1.00  0.00    -0.319 A  
HETATM    6  C   UNL     1     -11.637  13.261  67.837  1.00  0.00    -0.370 A  
HETATM    7  C   UNL     1     -11.589  13.018  66.456  1.00  0.00    -0.407 A  
HETATM    8  C   UNL     1     -11.210  14.025  65.563  1.00  0.00    -0.311 A  
BRANCH   6   9
HETATM    9  C   UNL     1     -11.917  12.190  68.799  1.00  0.00    -0.292 C  
HETATM   10  C   UNL     1     -11.893  12.356  70.129  1.00  0.00    -0.341 C  
BRANCH  10  11
HETATM   11  C   UNL     1     -12.424  11.305  71.026  1.00  0.00    -0.400 C  
HETATM   12  O   UNL     1     -12.419  10.107  70.801  1.00  0.00    -0.309 OA 
BRANCH  11  13
HETATM   13  O   UNL     1     -13.108  11.944  72.011  1.00  0.00    -0.457 OA 
BRANCH  13  14
HETATM   14  C   UNL     1     -13.425  13.306  71.705  1.00  0.00    -0.354 C  
BRANCH  14  15
HETATM   15  C   UNL     1     -13.534  14.179  72.950  1.00  0.00    -0.466 C  
HETATM   16  C   UNL     1     -12.244  14.993  73.185  1.00  0.00    -0.473 C  
HETATM   17  C   UNL     1     -11.933  15.944  72.025  1.00  0.00    -0.602 C  
HETATM   18  C   UNL     1     -12.331  15.786  74.488  1.00  0.00    -0.776 C  
ENDBRANCH  14  15
ENDBRANCH  13  14
ENDBRANCH  11  13
ENDBRANCH  10  11
ENDBRANCH   6   9
ENDBRANCH   2   3
TORSDOF 6
ENDMDL
MODEL        6
REMARK 921   NORMALIZED FREE ENERGY PREDICTED BY IDOCK:   -5.34 KCAL/MOL
REMARK 922        TOTAL FREE ENERGY PREDICTED BY IDOCK:   -7.99 KCAL/MOL
REMARK 923 INTER-LIGAND FREE ENERGY PREDICTED BY IDOCK:   -7.14 KCAL/MOL
REMARK 924 INTRA-LIGAND FREE ENERGY PREDICTED BY IDOCK:   -0.85 KCAL/MOL
REMARK 927      BINDING AFFINITY PREDICTED BY RF-SCORE:    0.00 PKD
ROOT
HETATM    1  C   UNL     1     -12.533  15.816  74.090  1.00  0.00    -0.655 C  
HETATM    2  O   UNL     1     -13.276  14.759  73.489  1.00  0.00    -0.544 OA 
ENDROOT
BRANCH   2   3
HETATM    3  C   UNL     1     -12.915  14.459  72.204  1.00  0.00    -0.355 A  
HETATM    4  C   UNL     1     -12.558  15.540  71.400  1.00  0.00    -0.495 A  
HETATM    5  C   UNL     1     -12.199  15.340  70.063  1.00  0.00    -0.385 A  
HETATM    6  C   UNL     1     -12.159  14.052  69.520  1.00  0.00    -0.397 A  
HETATM    7  C   UNL     1     -12.489  12.967  70.347  1.00  0.00    -0.266 A  
HETATM    8  C   UNL     1     -12.856  13.167  71.681  1.00  0.00    -0.388 A  
BRANCH   6   9
HETATM    9  C   UNL     1     -11.886  13.876  68.090  1.00  0.00    -0.407 C  
HETATM   10  C   UNL     1     -11.786  12.681  67.491  1.00  0.00    -0.429 C  
BRANCH  10  11
HETATM   11  C   UNL     1     -11.757  12.582  66.014  1.00  0.00    -0.417 C  
HETATM   12  O   UNL     1     -11.282  11.662  65.370  1.00  0.00    -0.279 OA 
BRANCH  11  13
HETATM   13  O   UNL     1     -12.143  13.794  65.536  1.00  0.00    -0.364 OA 
BRANCH  13  14
HETATM   14  C   UNL     1     -11.264  14.330  64.542  1.00  0.00    -0.322 C  
BRANCH  14  15
HETATM   15  C   UNL     1     -11.062  15.835  64.685  1.00  0.00    -0.376 C  
HETATM   16  C   UNL     1     -10.451  16.197  66.055  1.00  0.00    -0.349 C  
HETATM   17  C   UNL     1      -9.074  15.562  66.267  1.00  0.00    -0.369 C  
HETATM   18  C   UNL     1     -10.347  17.713  66.220  1.00  0.00    -0.342 C  
ENDBRANCH  14  15
ENDBRANCH  13  14
ENDBRANCH  11  13
ENDBRANCH  10  11
ENDBRANCH   6   9
ENDBRANCH   2   3
TORSDOF 6
ENDMDL
MODEL        7
REMARK 921   NORMALIZED FREE ENERGY PREDICTED BY IDOCK:   -5.33 KCAL/MOL
REMARK 922        TOTAL FREE ENERGY PREDICTED BY IDOCK:   -7.98 KCAL/MOL
REMARK 923 INTER-LIGAND FREE ENERGY PREDICTED BY IDOCK:   -7.09 KCAL/MOL
REMARK 924 INTRA-LIGAND FREE ENERGY PREDICTED BY IDOCK:   -0.89 KCAL/MOL
REMARK 927      BINDING AFFINITY PREDICTED BY RF-SCORE:    0.00 PKD
ROOT
HETATM    1  C   UNL     1     -12.657  15.926  74.090  1.00  0.00    -0.604 C  
HETATM    2  O   UNL     1     -12.626  14.669  73.420  1.00  0.00    -0.454 OA 
ENDROOT
BRANCH   2   3
HETATM    3  C   UNL     1     -12.312  14.734  72.089  1.00  0.00    -0.328 A  
HETATM    4  C   UNL     1     -11.775  15.941  71.646  1.00  0.00    -0.563 A  
HETATM    5  C   UNL     1     -11.447  16.117  70.297  1.00  0.00    -0.319 A  
HETATM    6  C   UNL     1     -11.620  15.076  69.379  1.00  0.00    -0.337 A  
HETATM    7  C   UNL     1     -12.132  13.855  69.843  1.00  0.00    -0.406 A  
HETATM    8  C   UNL     1     -12.469  13.681  71.189  1.00  0.00    -0.442 A  
BRANCH   6   9
HETATM    9  C   UNL     1     -11.373  15.317  67.954  1.00  0.00    -0.339 C  
HETATM   10  C   UNL     1     -10.187  15.123  67.360  1.00  0.00    -0.235 C  
BRANCH  10  11
HETATM   11  C   UNL     1     -10.075  15.148  65.884  1.00  0.00    -0.325 C  
HETATM   12  O   UNL     1     -10.064  14.172  65.154  1.00  0.00    -0.364 OA 
BRANCH  11  13
HETATM   13  O   UNL     1      -9.762  16.424  65.539  1.00  0.00    -0.505 OA 
BRANCH  13  14
HETATM   14  C   UNL     1      -8.622  16.947  66.229  1.00  0.00    -0.284 C  
BRANCH  14  15
HETATM   15  C   UNL     1      -8.595  18.471  66.252  1.00  0.00    -0.223 C  
HETATM   16  C   UNL     1      -9.715  19.043  67.147  1.00  0.00    -0.372 C  
HETATM   17  C   UNL     1      -9.586  18.595  68.605  1.00  0.00    -0.407 C  
HETATM   18  C   UNL     1      -9.736  20.570  67.080  1.00  0.00    -0.581 C  
ENDBRANCH  14  15
ENDBRANCH  13  14
ENDBRANCH  11  13
ENDBRANCH  10  11
ENDBRANCH   6   9
ENDBRANCH   2   3
TORSDOF 6
ENDMDL
MODEL        8
REMARK 921   NORMALIZED FREE ENERGY PREDICTED BY IDOCK:   -5.31 KCAL/MOL
REMARK 922        TOTAL FREE ENERGY PREDICTED BY IDOCK:   -7.95 KCAL/MOL
REMARK 923 INTER-LIGAND FREE ENERGY PREDICTED BY IDOCK:   -7.19 KCAL/MOL
REMARK 924 INTRA-LIGAND FREE ENERGY PREDICTED BY IDOCK:   -0.77 KCAL/MOL
REMARK 927      BINDING AFFINITY PREDICTED BY RF-SCORE:    0.00 PKD
ROOT
HETATM    1  C   UNL     1     -11.306   7.711  72.875  1.00  0.00    -0.341 C  
HETATM    2  O   UNL     1     -12.336   8.647  72.569  1.00  0.00    -0.390 OA 
ENDROOT
BRANCH   2   3
HETATM    3  C   UNL     1     -12.054   9.496  71.534  1.00  0.00    -0.389 A  
HETATM    4  C   UNL     1     -12.727  10.716  71.543  1.00  0.00    -0.549 A  
HETATM    5  C   UNL     1     -12.528  11.643  70.514  1.00  0.00    -0.344 A  
HETATM    6  C   UNL     1     -11.626  11.376  69.479  1.00  0.00    -0.399 A  
HETATM    7  C   UNL     1     -10.929  10.158  69.496  1.00  0.00    -0.295 A  
HETATM    8  C   UNL     1     -11.135   9.227  70.520  1.00  0.00    -0.317 A  
BRANCH   6   9
HETATM    9  C   UNL     1     -11.513  12.312  68.355  1.00  0.00    -0.356 C  
HETATM   10  C   UNL     1     -11.883  13.598  68.416  1.00  0.00    -0.407 C  
BRANCH  10  11
HETATM   11  C   UNL     1     -11.514  14.537  67.333  1.00  0.00    -0.368 C  
HETATM   12  O   UNL     1     -10.762  15.490  67.442  1.00  0.00    -0.290 OA 
BRANCH  11  13
HETATM   13  O   UNL     1     -12.338  14.268  66.287  1.00  0.00    -0.443 OA 
BRANCH  13  14
HETATM   14  C   UNL     1     -11.750  14.521  65.007  1.00  0.00    -0.392 C  
BRANCH  14  15
HETATM   15  C   UNL     1     -10.737  13.455  64.604  1.00  0.00    -0.425 C  
HETATM   16  C   UNL     1     -11.390  12.060  64.510  1.00  0.00    -0.393 C  
HETATM   17  C   UNL     1     -12.505  12.005  63.461  1.00  0.00    -0.654 C  
HETATM   18  C   UNL     1     -10.344  10.989  64.202  1.00  0.00    -0.434 C  
ENDBRANCH  14  15
ENDBRANCH  13  14
ENDBRANCH  11  13
ENDBRANCH  10  11
ENDBRANCH   6   9
ENDBRANCH   2   3
TORSDOF 6
ENDMDL
MODEL        9
REMARK 921   NORMALIZED FREE ENERGY PREDICTED BY IDOCK:   -5.29 KCAL/MOL
REMARK 922        TOTAL FREE ENERGY PREDICTED BY IDOCK:   -7.93 KCAL/MOL
REMARK 923 INTER-LIGAND FREE ENERGY PREDICTED BY IDOCK:   -7.33 KCAL/MOL
REMARK 924 INTRA-LIGAND FREE ENERGY PREDICTED BY IDOCK:   -0.59 KCAL/MOL
REMARK 927      BINDING AFFINITY PREDICTED BY RF-SCORE:    0.00 PKD
ROOT
HETATM    1  C   UNL     1     -11.694   5.760  72.435  1.00  0.00    -0.223 C  
HETATM    2  O   UNL     1     -11.183   6.974  72.979  1.00  0.00    -0.270 OA 
ENDROOT
BRANCH   2   3
HETATM    3  C   UNL     1     -11.324   8.070  72.173  1.00  0.00    -0.328 A  
HETATM    4  C   UNL     1     -12.589   8.654  72.150  1.00  0.00    -0.451 A  
HETATM    5  C   UNL     1     -12.843   9.763  71.337  1.00  0.00    -0.489 A  
HETATM    6  C   UNL     1     -11.825  10.326  70.560  1.00  0.00    -0.419 A  
HETATM    7  C   UNL     1     -10.547   9.750  70.615  1.00  0.00    -0.382 A  
HETATM    8  C   UNL     1     -10.295   8.636  71.421  1.00  0.00    -0.331 A  
BRANCH   6   9
HETATM    9  C   UNL     1     -12.140  11.419  69.634  1.00  0.00    -0.373 C  
HETATM   10  C   UNL     1     -11.709  12.678  69.793  1.00  0.00    -0.354 C  
BRANCH  10  11
HETATM   11  C   UNL     1     -11.855  13.664  68.699  1.00  0.00    -0.374 C  
HETATM   12  O   UNL     1     -12.115  13.405  67.536  1.00  0.00    -0.347 OA 
BRANCH  11  13
HETATM   13  O   UNL     1     -11.425  14.856  69.189  1.00  0.00    -0.270 OA 
BRANCH  13  14
HETATM   14  C   UNL     1     -12.381  15.515  70.026  1.00  0.00    -0.317 C  
BRANCH  14  15
HETATM   15  C   UNL     1     -11.873  15.723  71.449  1.00  0.00    -0.503 C  
HETATM   16  C   UNL     1     -12.998  15.524  72.486  1.00  0.00    -0.520 C  
HETATM   17  C   UNL     1     -13.585  14.110  72.448  1.00  0.00    -0.632 C  
HETATM   18  C   UNL     1     -12.497  15.833  73.897  1.00  0.00    -0.751 C  
ENDBRANCH  14  15
ENDBRANCH  13  14
ENDBRANCH  11  13
ENDBRANCH  10  11
ENDBRANCH   6   9
ENDBRANCH   2   3
TORSDOF 6
ENDMDL
MODEL       10
REMARK 921   NORMALIZED FREE ENERGY PREDICTED BY IDOCK:   -5.29 KCAL/MOL
REMARK 922        TOTAL FREE ENERGY PREDICTED BY IDOCK:   -7.92 KCAL/MOL
REMARK 923 INTER-LIGAND FREE ENERGY PREDICTED BY IDOCK:   -7.38 KCAL/MOL
REMARK 924 INTRA-LIGAND FREE ENERGY PREDICTED BY IDOCK:   -0.55 KCAL/MOL
REMARK 927      BINDING AFFINITY PREDICTED BY RF-SCORE:    0.00 PKD
ROOT
HETATM    1  C   UNL     1     -10.774   7.716  73.094  1.00  0.00    -0.387 C  
HETATM    2  O   UNL     1     -11.930   7.888  72.278  1.00  0.00    -0.321 OA 
ENDROOT
BRANCH   2   3
HETATM    3  C   UNL     1     -12.009   9.096  71.640  1.00  0.00    -0.367 A  
HETATM    4  C   UNL     1     -11.077   9.316  70.628  1.00  0.00    -0.335 A  
HETATM    5  C   UNL     1     -11.057  10.531  69.934  1.00  0.00    -0.371 A  
HETATM    6  C   UNL     1     -11.992  11.530  70.220  1.00  0.00    -0.455 A  
HETATM    7  C   UNL     1     -12.947  11.286  71.219  1.00  0.00    -0.427 A  
HETATM    8  C   UNL     1     -12.961  10.076  71.919  1.00  0.00    -0.547 A  
BRANCH   6   9
HETATM    9  C   UNL     1     -11.886  12.834  69.557  1.00  0.00    -0.379 C  
HETATM   10  C   UNL     1     -11.616  12.989  68.253  1.00  0.00    -0.375 C  
BRANCH  10  11
HETATM   11  C   UNL     1     -11.769  14.312  67.608  1.00  0.00    -0.389 C  
HETATM   12  O   UNL     1     -11.619  15.392  68.153  1.00  0.00    -0.347 OA 
BRANCH  11  13
HETATM   13  O   UNL     1     -12.321  14.088  66.387  1.00  0.00    -0.460 OA 
BRANCH  13  14
HETATM   14  C   UNL     1     -11.485  14.480  65.294  1.00  0.00    -0.355 C  
BRANCH  14  15
HETATM   15  C   UNL     1     -10.489  13.396  64.895  1.00  0.00    -0.404 C  
HETATM   16  C   UNL     1     -11.187  12.036  64.685  1.00  0.00    -0.380 C  
HETATM   17  C   UNL     1     -12.234  12.082  63.568  1.00  0.00    -0.653 C  
HETATM   18  C   UNL     1     -10.164  10.941  64.383  1.00  0.00    -0.423 C  
ENDBRANCH  14  15
ENDBRANCH  13  14
ENDBRANCH  11  13
ENDBRANCH  10  11
ENDBRANCH   6   9
ENDBRANCH   2   3
TORSDOF 6
ENDMDL
MODEL       11
REMARK 921   NORMALIZED FREE ENERGY PREDICTED BY IDOCK:   -5.25 KCAL/MOL
REMARK 922        TOTAL FREE ENERGY PREDICTED BY IDOCK:   -7.88 KCAL/MOL
REMARK 923 INTER-LIGAND FREE ENERGY PREDICTED BY IDOCK:   -6.96 KCAL/MOL
REMARK 924 INTRA-LIGAND FREE ENERGY PREDICTED BY IDOCK:   -0.92 KCAL/MOL
REMARK 927      BINDING AFFINITY PREDICTED BY RF-SCORE:    0.00 PKD
ROOT
HETATM    1  C   UNL     1     -13.043   9.762  71.920  1.00  0.00    -0.446 C  
HETATM    2  O   UNL     1     -11.673   9.918  71.558  1.00  0.00    -0.380 OA 
ENDROOT
BRANCH   2   3
HETATM    3  C   UNL     1     -11.463  10.379  70.287  1.00  0.00    -0.325 A  
HETATM    4  C   UNL     1     -11.859  11.692  70.038  1.00  0.00    -0.435 A  
HETATM    5  C   UNL     1     -11.712  12.246  68.763  1.00  0.00    -0.390 A  
HETATM    6  C   UNL     1     -11.135  11.507  67.726  1.00  0.00    -0.319 A  
HETATM    7  C   UNL     1     -10.710  10.197  67.995  1.00  0.00    -0.305 A  
HETATM    8  C   UNL     1     -10.865   9.639  69.268  1.00  0.00    -0.227 A  
BRANCH   6   9
HETATM    9  C   UNL     1     -11.089  12.069  66.372  1.00  0.00    -0.365 C  
HETATM   10  C   UNL     1     -12.086  12.780  65.825  1.00  0.00    -0.505 C  
BRANCH  10  11
HETATM   11  C   UNL     1     -11.873  13.520  64.561  1.00  0.00    -0.405 C  
HETATM   12  O   UNL     1     -12.567  13.439  63.562  1.00  0.00    -0.733 OA 
BRANCH  11  13
HETATM   13  O   UNL     1     -10.654  14.111  64.657  1.00  0.00    -0.420 OA 
BRANCH  13  14
HETATM   14  C   UNL     1     -10.710  15.504  64.981  1.00  0.00    -0.441 C  
BRANCH  14  15
HETATM   15  C   UNL     1      -9.623  15.925  65.965  1.00  0.00    -0.385 C  
HETATM   16  C   UNL     1     -10.217  16.673  67.177  1.00  0.00    -0.290 C  
HETATM   17  C   UNL     1     -11.199  15.810  67.973  1.00  0.00    -0.338 C  
HETATM   18  C   UNL     1      -9.108  17.174  68.102  1.00  0.00    -0.247 C  
ENDBRANCH  14  15
ENDBRANCH  13  14
ENDBRANCH  11  13
ENDBRANCH  10  11
ENDBRANCH   6   9
ENDBRANCH   2   3
TORSDOF 6
ENDMDL
MODEL       12
REMARK 921   NORMALIZED FREE ENERGY PREDICTED BY IDOCK:   -5.24 KCAL/MOL
REMARK 922        TOTAL FREE ENERGY PREDICTED BY IDOCK:   -7.85 KCAL/MOL
REMARK 923 INTER-LIGAND FREE ENERGY PREDICTED BY IDOCK:   -6.97 KCAL/MOL
REMARK 924 INTRA-LIGAND FREE ENERGY PREDICTED BY IDOCK:   -0.88 KCAL/MOL
REMARK 927      BINDING AFFINITY PREDICTED BY RF-SCORE:    0.00 PKD
ROOT
HETATM    1  C   UNL     1     -11.879   9.053  71.815  1.00  0.00    -0.372 C  
HETATM    2  O   UNL     1     -12.973   9.958  71.932  1.00  0.00    -0.399 OA 
ENDROOT
BRANCH   2   3
HETATM    3  C   UNL     1     -12.751  11.200  71.401  1.00  0.00    -0.418 A  
HETATM    4  C   UNL     1     -12.080  11.234  70.181  1.00  0.00    -0.448 A  
HETATM    5  C   UNL     1     -11.782  12.456  69.570  1.00  0.00    -0.388 A  
HETATM    6  C   UNL     1     -12.180  13.662  70.155  1.00  0.00    -0.413 A  
HETATM    7  C   UNL     1     -12.883  13.616  71.368  1.00  0.00    -0.442 A  
HETATM    8  C   UNL     1     -13.175  12.395  71.984  1.00  0.00    -0.514 A  
BRANCH   6   9
HETATM    9  C   UNL     1     -11.763  14.933  69.554  1.00  0.00    -0.353 C  
HETATM   10  C   UNL     1     -10.740  15.052  68.696  1.00  0.00    -0.244 C  
BRANCH  10  11
HETATM   11  C   UNL     1     -10.534  16.310  67.944  1.00  0.00    -0.295 C  
HETATM   12  O   UNL     1     -10.670  17.437  68.390  1.00  0.00    -0.358 OA 
BRANCH  11  13
HETATM   13  O   UNL     1     -10.397  15.965  66.638  1.00  0.00    -0.287 OA 
BRANCH  13  14
HETATM   14  C   UNL     1      -9.986  14.609  66.438  1.00  0.00    -0.283 C  
BRANCH  14  15
HETATM   15  C   UNL     1     -10.458  14.039  65.105  1.00  0.00    -0.415 C  
HETATM   16  C   UNL     1     -11.705  13.148  65.280  1.00  0.00    -0.375 C  
HETATM   17  C   UNL     1     -12.897  13.916  65.859  1.00  0.00    -0.387 C  
HETATM   18  C   UNL     1     -12.106  12.507  63.951  1.00  0.00    -0.581 C  
ENDBRANCH  14  15
ENDBRANCH  13  14
ENDBRANCH  11  13
ENDBRANCH  10  11
ENDBRANCH   6   9
ENDBRANCH   2   3
TORSDOF 6
ENDMDL
MODEL       13
REMARK 921   NORMALIZED FREE ENERGY PREDICTED BY IDOCK:   -5.22 KCAL/MOL
REMARK 922        TOTAL FREE ENERGY PREDICTED BY IDOCK:   -7.83 KCAL/MOL
REMARK 923 INTER-LIGAND FREE ENERGY PREDICTED BY IDOCK:   -7.09 KCAL/MOL
REMARK 924 INTRA-LIGAND FREE ENERGY PREDICTED BY IDOCK:   -0.74 KCAL/MOL
REMARK 927      BINDING AFFINITY PREDICTED BY RF-SCORE:    0.00 PKD
ROOT
HETATM    1  C   UNL     1     -11.026   5.886  73.005  1.00  0.00    -0.268 C  
HETATM    2  O   UNL     1     -10.905   7.247  73.409  1.00  0.00    -0.374 OA 
ENDROOT
BRANCH   2   3
HETATM    3  C   UNL     1     -11.296   8.163  72.471  1.00  0.00    -0.401 A  
HETATM    4  C   UNL     1     -10.294   8.647  71.633  1.00  0.00    -0.366 A  
HETATM    5  C   UNL     1     -10.587   9.608  70.659  1.00  0.00    -0.386 A  
HETATM    6  C   UNL     1     -11.895  10.073  70.488  1.00  0.00    -0.387 A  
HETATM    7  C   UNL     1     -12.903   9.556  71.316  1.00  0.00    -0.414 A  
HETATM    8  C   UNL     1     -12.608   8.602  72.295  1.00  0.00    -0.457 A  
BRANCH   6   9
HETATM    9  C   UNL     1     -12.160  11.157  69.536  1.00  0.00    -0.396 C  
HETATM   10  C   UNL     1     -11.238  11.663  68.705  1.00  0.00    -0.304 C  
BRANCH  10  11
HETATM   11  C   UNL     1     -11.636  12.575  67.610  1.00  0.00    -0.355 C  
HETATM   12  O   UNL     1     -12.157  12.243  66.559  1.00  0.00    -0.616 OA 
BRANCH  11  13
HETATM   13  O   UNL     1     -11.105  13.791  67.904  1.00  0.00    -0.252 OA 
BRANCH  13  14
HETATM   14  C   UNL     1     -12.014  14.671  68.574  1.00  0.00    -0.263 C  
BRANCH  14  15
HETATM   15  C   UNL     1     -11.430  15.256  69.856  1.00  0.00    -0.325 C  
HETATM   16  C   UNL     1     -12.500  15.377  70.960  1.00  0.00    -0.469 C  
HETATM   17  C   UNL     1     -13.098  14.021  71.347  1.00  0.00    -0.423 C  
HETATM   18  C   UNL     1     -11.924  16.056  72.203  1.00  0.00    -0.629 C  
ENDBRANCH  14  15
ENDBRANCH  13  14
ENDBRANCH  11  13
ENDBRANCH  10  11
ENDBRANCH   6   9
ENDBRANCH   2   3
TORSDOF 6
ENDMDL
MODEL       14
REMARK 921   NORMALIZED FREE ENERGY PREDICTED BY IDOCK:   -5.20 KCAL/MOL
REMARK 922        TOTAL FREE ENERGY PREDICTED BY IDOCK:   -7.81 KCAL/MOL
REMARK 923 INTER-LIGAND FREE ENERGY PREDICTED BY IDOCK:   -7.18 KCAL/MOL
REMARK 924 INTRA-LIGAND FREE ENERGY PREDICTED BY IDOCK:   -0.64 KCAL/MOL
REMARK 927      BINDING AFFINITY PREDICTED BY RF-SCORE:    0.00 PKD
ROOT
HETATM    1  C   UNL     1     -11.810  13.493  64.127  1.00  0.00    -0.437 C  
HETATM    2  O   UNL     1     -10.913  14.404  64.756  1.00  0.00    -0.387 OA 
ENDROOT
BRANCH   2   3
HETATM    3  C   UNL     1     -11.205  14.692  66.062  1.00  0.00    -0.342 A  
HETATM    4  C   UNL     1     -10.618  15.843  66.581  1.00  0.00    -0.305 A  
HETATM    5  C   UNL     1     -10.832  16.209  67.914  1.00  0.00    -0.332 A  
HETATM    6  C   UNL     1     -11.665  15.445  68.737  1.00  0.00    -0.369 A  
HETATM    7  C   UNL     1     -12.277  14.304  68.196  1.00  0.00    -0.164 A  
HETATM    8  C   UNL     1     -12.056  13.934  66.865  1.00  0.00    -0.467 A  
BRANCH   6   9
HETATM    9  C   UNL     1     -11.789  15.785  70.159  1.00  0.00    -0.369 C  
HETATM   10  C   UNL     1     -12.854  15.471  70.911  1.00  0.00    -0.535 C  
BRANCH  10  11
HETATM   11  C   UNL     1     -12.804  15.624  72.382  1.00  0.00    -0.433 C  
HETATM   12  O   UNL     1     -12.043  16.351  72.998  1.00  0.00    -0.523 OA 
BRANCH  11  13
HETATM   13  O   UNL     1     -13.592  14.647  72.901  1.00  0.00    -0.511 OA 
BRANCH  13  14
HETATM   14  C   UNL     1     -13.891  13.594  71.980  1.00  0.00    -0.474 C  
BRANCH  14  15
HETATM   15  C   UNL     1     -13.359  12.241  72.438  1.00  0.00    -0.194 C  
HETATM   16  C   UNL     1     -13.021  11.330  71.239  1.00  0.00    -0.427 C  
HETATM   17  C   UNL     1     -11.938  11.928  70.337  1.00  0.00    -0.400 C  
HETATM   18  C   UNL     1     -12.583   9.945  71.715  1.00  0.00    -0.506 C  
ENDBRANCH  14  15
ENDBRANCH  13  14
ENDBRANCH  11  13
ENDBRANCH  10  11
ENDBRANCH   6   9
ENDBRANCH   2   3
TORSDOF 6
ENDMDL
MODEL       15
REMARK 921   NORMALIZED FREE ENERGY PREDICTED BY IDOCK:   -5.20 KCAL/MOL
REMARK 922        TOTAL FREE ENERGY PREDICTED BY IDOCK:   -7.81 KCAL/MOL
REMARK 923 INTER-LIGAND FREE ENERGY PREDICTED BY IDOCK:   -7.16 KCAL/MOL
REMARK 924 INTRA-LIGAND FREE ENERGY PREDICTED BY IDOCK:   -0.65 KCAL/MOL
REMARK 927      BINDING AFFINITY PREDICTED BY RF-SCORE:    0.00 PKD
ROOT
HETATM    1  C   UNL     1     -13.971  15.327  72.308  1.00  0.00    -0.546 C  
HETATM    2  O   UNL     1     -14.040  13.959  72.702  1.00  0.00    -0.679 OA 
ENDROOT
BRANCH   2   3
HETATM    3  C   UNL     1     -13.359  13.092  71.892  1.00  0.00    -0.446 A  
HETATM    4  C   UNL     1     -12.609  13.670  70.870  1.00  0.00    -0.421 A  
HETATM    5  C   UNL     1     -11.898  12.867  69.971  1.00  0.00    -0.356 A  
HETATM    6  C   UNL     1     -11.901  11.475  70.103  1.00  0.00    -0.440 A  
HETATM    7  C   UNL     1     -12.634  10.905  71.155  1.00  0.00    -0.532 A  
HETATM    8  C   UNL     1     -13.351  11.706  72.048  1.00  0.00    -0.405 A  
BRANCH   6   9
HETATM    9  C   UNL     1     -11.239  10.649  69.088  1.00  0.00    -0.324 C  
HETATM   10  C   UNL     1     -11.202  10.957  67.784  1.00  0.00    -0.384 C  
BRANCH  10  11
HETATM   11  C   UNL     1     -10.312  10.215  66.863  1.00  0.00    -0.236 C  
HETATM   12  O   UNL     1     -10.260   9.002  66.745  1.00  0.00    -0.256 OA 
BRANCH  11  13
HETATM   13  O   UNL     1      -9.429  11.118  66.362  1.00  0.00    -0.183 OA 
BRANCH  13  14
HETATM   14  C   UNL     1      -9.930  12.459  66.330  1.00  0.00    -0.246 C  
BRANCH  14  15
HETATM   15  C   UNL     1     -10.372  12.889  64.935  1.00  0.00    -0.329 C  
HETATM   16  C   UNL     1     -11.908  12.856  64.794  1.00  0.00    -0.409 C  
HETATM   17  C   UNL     1     -12.606  13.805  65.772  1.00  0.00    -0.525 C  
HETATM   18  C   UNL     1     -12.329  13.194  63.364  1.00  0.00    -0.443 C  
ENDBRANCH  14  15
ENDBRANCH  13  14
ENDBRANCH  11  13
ENDBRANCH  10  11
ENDBRANCH   6   9
ENDBRANCH   2   3
TORSDOF 6
ENDMDL
MODEL       16
REMARK 921   NORMALIZED FREE ENERGY PREDICTED BY IDOCK:   -5.18 KCAL/MOL
REMARK 922        TOTAL FREE ENERGY PREDICTED BY IDOCK:   -7.78 KCAL/MOL
REMARK 923 INTER-LIGAND FREE ENERGY PREDICTED BY IDOCK:   -6.95 KCAL/MOL
REMARK 924 INTRA-LIGAND FREE ENERGY PREDICTED BY IDOCK:   -0.82 KCAL/MOL
REMARK 927      BINDING AFFINITY PREDICTED BY RF-SCORE:    0.00 PKD
ROOT
HETATM    1  C   UNL     1     -12.639  12.000  63.605  1.00  0.00    -0.490 C  
HETATM    2  O   UNL     1     -13.104  12.560  64.829  1.00  0.00    -0.853 OA 
ENDROOT
BRANCH   2   3
HETATM    3  C   UNL     1     -12.320  13.559  65.340  1.00  0.00    -0.478 A  
HETATM    4  C   UNL     1     -12.173  13.574  66.725  1.00  0.00    -0.392 A  
HETATM    5  C   UNL     1     -11.414  14.571  67.346  1.00  0.00    -0.385 A  
HETATM    6  C   UNL     1     -10.763  15.549  66.587  1.00  0.00    -0.306 A  
HETATM    7  C   UNL     1     -10.892  15.506  65.190  1.00  0.00    -0.452 A  
HETATM    8  C   UNL     1     -11.658  14.514  64.569  1.00  0.00    -0.385 A  
BRANCH   6   9
HETATM    9  C   UNL     1     -10.064  16.646  67.263  1.00  0.00    -0.279 C  
HETATM   10  C   UNL     1     -10.609  17.849  67.494  1.00  0.00    -0.386 C  
BRANCH  10  11
HETATM   11  C   UNL     1      -9.940  18.815  68.393  1.00  0.00    -0.392 C  
HETATM   12  O   UNL     1     -10.323  19.947  68.636  1.00  0.00    -0.446 OA 
BRANCH  11  13
HETATM   13  O   UNL     1      -8.727  18.285  68.700  1.00  0.00    -0.311 OA 
BRANCH  13  14
HETATM   14  C   UNL     1      -7.683  19.258  68.814  1.00  0.00    -0.362 C  
BRANCH  14  15
HETATM   15  C   UNL     1      -6.446  18.893  68.000  1.00  0.00    -0.234 C  
HETATM   16  C   UNL     1      -6.802  18.610  66.526  1.00  0.00    -0.231 C  
HETATM   17  C   UNL     1      -7.424  19.825  65.831  1.00  0.00    -0.335 C  
HETATM   18  C   UNL     1      -5.570  18.150  65.748  1.00  0.00    -0.234 C  
ENDBRANCH  14  15
ENDBRANCH  13  14
ENDBRANCH  11  13
ENDBRANCH  10  11
ENDBRANCH   6   9
ENDBRANCH   2   3
TORSDOF 6
ENDMDL
MODEL       17
REMARK 921   NORMALIZED FREE ENERGY PREDICTED BY IDOCK:   -5.16 KCAL/MOL
REMARK 922        TOTAL FREE ENERGY PREDICTED BY IDOCK:   -7.76 KCAL/MOL
REMARK 923 INTER-LIGAND FREE ENERGY PREDICTED BY IDOCK:   -7.05 KCAL/MOL
REMARK 924 INTRA-LIGAND FREE ENERGY PREDICTED BY IDOCK:   -0.71 KCAL/MOL
REMARK 927      BINDING AFFINITY PREDICTED BY RF-SCORE:    0.00 PKD
ROOT
HETATM    1  C   UNL     1     -12.135  16.147  72.558  1.00  0.00    -0.550 C  
HETATM    2  O   UNL     1     -12.892  15.625  71.469  1.00  0.00    -0.425 OA 
ENDROOT
BRANCH   2   3
HETATM    3  C   UNL     1     -12.811  14.269  71.310  1.00  0.00    -0.352 A  
HETATM    4  C   UNL     1     -13.546  13.502  72.212  1.00  0.00    -0.690 A  
HETATM    5  C   UNL     1     -13.507  12.105  72.151  1.00  0.00    -0.383 A  
HETATM    6  C   UNL     1     -12.760  11.455  71.163  1.00  0.00    -0.479 A  
HETATM    7  C   UNL     1     -12.049  12.237  70.240  1.00  0.00    -0.376 A  
HETATM    8  C   UNL     1     -12.080  13.633  70.306  1.00  0.00    -0.427 A  
BRANCH   6   9
HETATM    9  C   UNL     1     -12.648   9.993  71.184  1.00  0.00    -0.480 C  
HETATM   10  C   UNL     1     -11.600   9.332  71.696  1.00  0.00    -0.463 C  
BRANCH  10  11
HETATM   11  C   UNL     1     -11.666   7.869  71.906  1.00  0.00    -0.297 C  
HETATM   12  O   UNL     1     -11.259   7.270  72.886  1.00  0.00    -0.310 OA 
BRANCH  11  13
HETATM   13  O   UNL     1     -12.047   7.323  70.721  1.00  0.00    -0.307 OA 
BRANCH  13  14
HETATM   14  C   UNL     1     -11.219   6.238  70.291  1.00  0.00    -0.388 C  
BRANCH  14  15
HETATM   15  C   UNL     1     -11.012   6.218  68.780  1.00  0.00    -0.424 C  
HETATM   16  C   UNL     1     -10.488   7.573  68.263  1.00  0.00    -0.223 C  
HETATM   17  C   UNL     1      -9.134   7.948  68.871  1.00  0.00    -0.141 C  
HETATM   18  C   UNL     1     -10.381   7.568  66.738  1.00  0.00    -0.332 C  
ENDBRANCH  14  15
ENDBRANCH  13  14
ENDBRANCH  11  13
ENDBRANCH  10  11
ENDBRANCH   6   9
ENDBRANCH   2   3
TORSDOF 6
ENDMDL
MODEL       18
REMARK 921   NORMALIZED FREE ENERGY PREDICTED BY IDOCK:   -5.16 KCAL/MOL
REMARK 922        TOTAL FREE ENERGY PREDICTED BY IDOCK:   -7.75 KCAL/MOL
REMARK 923 INTER-LIGAND FREE ENERGY PREDICTED BY IDOCK:   -7.01 KCAL/MOL
REMARK 924 INTRA-LIGAND FREE ENERGY PREDICTED BY IDOCK:   -0.74 KCAL/MOL
REMARK 927      BINDING AFFINITY PREDICTED BY RF-SCORE:    0.00 PKD
ROOT
HETATM    1  C   UNL     1     -12.759  11.887  63.509  1.00  0.00    -0.405 C  
HETATM    2  O   UNL     1     -13.219  12.512  64.703  1.00  0.00    -0.848 OA 
ENDROOT
BRANCH   2   3
HETATM    3  C   UNL     1     -12.322  13.360  65.293  1.00  0.00    -0.469 A  
HETATM    4  C   UNL     1     -11.736  14.308  64.456  1.00  0.00    -0.431 A  
HETATM    5  C   UNL     1     -10.785  15.204  64.957  1.00  0.00    -0.451 A  
HETATM    6  C   UNL     1     -10.431  15.186  66.310  1.00  0.00    -0.312 A  
HETATM    7  C   UNL     1     -11.051  14.248  67.150  1.00  0.00    -0.318 A  
HETATM    8  C   UNL     1     -11.995  13.347  66.648  1.00  0.00    -0.452 A  
BRANCH   6   9
HETATM    9  C   UNL     1      -9.355  16.059  66.790  1.00  0.00    -0.260 C  
HETATM   10  C   UNL     1      -8.051  15.795  66.627  1.00  0.00    -0.282 C  
BRANCH  10  11
HETATM   11  C   UNL     1      -7.035  16.831  66.914  1.00  0.00    -0.222 C  
HETATM   12  O   UNL     1      -5.868  16.802  66.562  1.00  0.00    -0.319 OA 
BRANCH  11  13
HETATM   13  O   UNL     1      -7.589  17.680  67.818  1.00  0.00    -0.199 OA 
BRANCH  13  14
HETATM   14  C   UNL     1      -7.336  19.062  67.545  1.00  0.00    -0.226 C  
BRANCH  14  15
HETATM   15  C   UNL     1      -8.297  19.646  66.515  1.00  0.00    -0.357 C  
HETATM   16  C   UNL     1      -9.762  19.289  66.842  1.00  0.00    -0.406 C  
HETATM   17  C   UNL     1     -10.209  19.841  68.199  1.00  0.00    -0.577 C  
HETATM   18  C   UNL     1     -10.702  19.796  65.749  1.00  0.00    -0.474 C  
ENDBRANCH  14  15
ENDBRANCH  13  14
ENDBRANCH  11  13
ENDBRANCH  10  11
ENDBRANCH   6   9
ENDBRANCH   2   3
TORSDOF 6
ENDMDL
MODEL       19
REMARK 921   NORMALIZED FREE ENERGY PREDICTED BY IDOCK:   -5.15 KCAL/MOL
REMARK 922        TOTAL FREE ENERGY PREDICTED BY IDOCK:   -7.74 KCAL/MOL
REMARK 923 INTER-LIGAND FREE ENERGY PREDICTED BY IDOCK:   -7.00 KCAL/MOL
REMARK 924 INTRA-LIGAND FREE ENERGY PREDICTED BY IDOCK:   -0.75 KCAL/MOL
REMARK 927      BINDING AFFINITY PREDICTED BY RF-SCORE:    0.00 PKD
ROOT
HETATM    1  C   UNL     1     -14.349   8.672  71.959  1.00  0.00    -0.422 C  
HETATM    2  O   UNL     1     -13.369   9.531  72.534  1.00  0.00    -0.418 OA 
ENDROOT
BRANCH   2   3
HETATM    3  C   UNL     1     -12.954  10.554  71.726  1.00  0.00    -0.476 A  
HETATM    4  C   UNL     1     -12.213  10.187  70.605  1.00  0.00    -0.394 A  
HETATM    5  C   UNL     1     -11.720  11.162  69.731  1.00  0.00    -0.419 A  
HETATM    6  C   UNL     1     -11.991  12.517  69.949  1.00  0.00    -0.371 A  
HETATM    7  C   UNL     1     -12.765  12.874  71.063  1.00  0.00    -0.338 A  
HETATM    8  C   UNL     1     -13.251  11.900  71.942  1.00  0.00    -0.467 A  
BRANCH   6   9
HETATM    9  C   UNL     1     -11.375  13.528  69.083  1.00  0.00    -0.333 C  
HETATM   10  C   UNL     1     -11.975  14.054  68.006  1.00  0.00    -0.386 C  
BRANCH  10  11
HETATM   11  C   UNL     1     -11.399  15.238  67.330  1.00  0.00    -0.284 C  
HETATM   12  O   UNL     1     -11.235  16.337  67.833  1.00  0.00    -0.309 OA 
BRANCH  11  13
HETATM   13  O   UNL     1     -11.308  14.927  66.011  1.00  0.00    -0.342 OA 
BRANCH  13  14
HETATM   14  C   UNL     1     -12.393  14.126  65.530  1.00  0.00    -0.458 C  
BRANCH  14  15
HETATM   15  C   UNL     1     -11.984  13.207  64.384  1.00  0.00    -0.454 C  
HETATM   16  C   UNL     1     -10.673  12.458  64.700  1.00  0.00    -0.339 C  
HETATM   17  C   UNL     1     -10.793  11.564  65.937  1.00  0.00    -0.316 C  
HETATM   18  C   UNL     1     -10.225  11.619  63.503  1.00  0.00    -0.474 C  
ENDBRANCH  14  15
ENDBRANCH  13  14
ENDBRANCH  11  13
ENDBRANCH  10  11
ENDBRANCH   6   9
ENDBRANCH   2   3
TORSDOF 6
ENDMDL
MODEL       20
REMARK 921   NORMALIZED FREE ENERGY PREDICTED BY IDOCK:   -5.15 KCAL/MOL
REMARK 922        TOTAL FREE ENERGY PREDICTED BY IDOCK:   -7.74 KCAL/MOL
REMARK 923 INTER-LIGAND FREE ENERGY PREDICTED BY IDOCK:   -7.09 KCAL/MOL
REMARK 924 INTRA-LIGAND FREE ENERGY PREDICTED BY IDOCK:   -0.65 KCAL/MOL
REMARK 927      BINDING AFFINITY PREDICTED BY RF-SCORE:    0.00 PKD
ROOT
HETATM    1  C   UNL     1     -12.491  16.014  74.490  1.00  0.00    -0.541 C  
HETATM    2  O   UNL     1     -13.383  16.001  73.379  1.00  0.00    -0.579 OA 
ENDROOT
BRANCH   2   3
HETATM    3  C   UNL     1     -12.940  15.296  72.293  1.00  0.00    -0.369 A  
HETATM    4  C   UNL     1     -13.249  13.937  72.278  1.00  0.00    -0.568 A  
HETATM    5  C   UNL     1     -12.817  13.124  71.225  1.00  0.00    -0.384 A  
HETATM    6  C   UNL     1     -12.099  13.666  70.155  1.00  0.00    -0.431 A  
HETATM    7  C   UNL     1     -11.820  15.041  70.164  1.00  0.00    -0.357 A  
HETATM    8  C   UNL     1     -12.244  15.853  71.221  1.00  0.00    -0.473 A  
BRANCH   6   9
HETATM    9  C   UNL     1     -11.563  12.778  69.118  1.00  0.00    -0.373 C  
HETATM   10  C   UNL     1     -11.533  11.441  69.222  1.00  0.00    -0.370 C  
BRANCH  10  11
HETATM   11  C   UNL     1     -11.211  10.605  68.044  1.00  0.00    -0.307 C  
HETATM   12  O   UNL     1     -11.487  10.867  66.886  1.00  0.00    -0.342 OA 
BRANCH  11  13
HETATM   13  O   UNL     1     -10.767   9.413  68.524  1.00  0.00    -0.214 OA 
BRANCH  13  14
HETATM   14  C   UNL     1      -9.975   9.526  69.710  1.00  0.00    -0.213 C  
BRANCH  14  15
HETATM   15  C   UNL     1     -10.180   8.359  70.669  1.00  0.00    -0.222 C  
HETATM   16  C   UNL     1     -10.794   8.825  72.006  1.00  0.00    -0.428 C  
HETATM   17  C   UNL     1     -12.170   9.471  71.824  1.00  0.00    -0.465 C  
HETATM   18  C   UNL     1     -10.901   7.661  72.991  1.00  0.00    -0.457 C  
ENDBRANCH  14  15
ENDBRANCH  13  14
ENDBRANCH  11  13
ENDBRANCH  10  11
ENDBRANCH   6   9
ENDBRANCH   2   3
TORSDOF 6
ENDMDL
MODEL       21
REMARK 921   NORMALIZED FREE ENERGY PREDICTED BY IDOCK:   -5.12 KCAL/MOL
REMARK 922        TOTAL FREE ENERGY PREDICTED BY IDOCK:   -7.70 KCAL/MOL
REMARK 923 INTER-LIGAND FREE ENERGY PREDICTED BY IDOCK:   -6.89 KCAL/MOL
REMARK 924 INTRA-LIGAND FREE ENERGY PREDICTED BY IDOCK:   -0.81 KCAL/MOL
REMARK 927      BINDING AFFINITY PREDICTED BY RF-SCORE:    0.00 PKD
ROOT
HETATM    1  C   UNL     1     -10.948  14.009  64.953  1.00  0.00    -0.392 C  
HETATM    2  O   UNL     1     -11.669  14.486  66.085  1.00  0.00    -0.366 OA 
ENDROOT
BRANCH   2   3
HETATM    3  C   UNL     1     -11.673  13.642  67.162  1.00  0.00    -0.383 A  
HETATM    4  C   UNL     1     -11.457  12.294  66.884  1.00  0.00    -0.418 A  
HETATM    5  C   UNL     1     -11.470  11.347  67.914  1.00  0.00    -0.361 A  
HETATM    6  C   UNL     1     -11.666  11.740  69.241  1.00  0.00    -0.398 A  
HETATM    7  C   UNL     1     -11.851  13.104  69.514  1.00  0.00    -0.383 A  
HETATM    8  C   UNL     1     -11.847  14.050  68.484  1.00  0.00    -0.399 A  
BRANCH   6   9
HETATM    9  C   UNL     1     -11.784  10.721  70.289  1.00  0.00    -0.442 C  
HETATM   10  C   UNL     1     -12.852  10.594  71.090  1.00  0.00    -0.518 C  
BRANCH  10  11
HETATM   11  C   UNL     1     -13.006   9.400  71.950  1.00  0.00    -0.417 C  
HETATM   12  O   UNL     1     -14.012   9.091  72.567  1.00  0.00    -0.478 OA 
BRANCH  11  13
HETATM   13  O   UNL     1     -11.768   8.861  72.093  1.00  0.00    -0.363 OA 
BRANCH  13  14
HETATM   14  C   UNL     1     -11.772   7.442  72.282  1.00  0.00    -0.286 C  
BRANCH  14  15
HETATM   15  C   UNL     1     -11.937   6.674  70.975  1.00  0.00    -0.415 C  
HETATM   16  C   UNL     1     -10.805   7.004  69.979  1.00  0.00    -0.290 C  
HETATM   17  C   UNL     1      -9.422   6.630  70.519  1.00  0.00    -0.171 C  
HETATM   18  C   UNL     1     -11.038   6.304  68.640  1.00  0.00    -0.409 C  
ENDBRANCH  14  15
ENDBRANCH  13  14
ENDBRANCH  11  13
ENDBRANCH  10  11
ENDBRANCH   6   9
ENDBRANCH   2   3
TORSDOF 6
ENDMDL
MODEL       22
REMARK 921   NORMALIZED FREE ENERGY PREDICTED BY IDOCK:   -5.07 KCAL/MOL
REMARK 922        TOTAL FREE ENERGY PREDICTED BY IDOCK:   -7.63 KCAL/MOL
REMARK 923 INTER-LIGAND FREE ENERGY PREDICTED BY IDOCK:   -6.82 KCAL/MOL
REMARK 924 INTRA-LIGAND FREE ENERGY PREDICTED BY IDOCK:   -0.82 KCAL/MOL
REMARK 927      BINDING AFFINITY PREDICTED BY RF-SCORE:    0.00 PKD
ROOT
HETATM    1  C   UNL     1     -10.636   5.925  70.011  1.00  0.00    -0.295 C  
HETATM    2  O   UNL     1     -11.652   5.987  71.009  1.00  0.00    -0.253 OA 
ENDROOT
BRANCH   2   3
HETATM    3  C   UNL     1     -12.163   7.236  71.233  1.00  0.00    -0.354 A  
HETATM    4  C   UNL     1     -11.345   8.305  70.872  1.00  0.00    -0.292 A  
HETATM    5  C   UNL     1     -11.765   9.623  71.086  1.00  0.00    -0.450 A  
HETATM    6  C   UNL     1     -13.024   9.889  71.634  1.00  0.00    -0.536 A  
HETATM    7  C   UNL     1     -13.853   8.806  71.964  1.00  0.00    -0.504 A  
HETATM    8  C   UNL     1     -13.430   7.489  71.758  1.00  0.00    -0.381 A  
BRANCH   6   9
HETATM    9  C   UNL     1     -13.400  11.271  71.950  1.00  0.00    -0.413 C  
HETATM   10  C   UNL     1     -12.782  12.347  71.441  1.00  0.00    -0.346 C  
BRANCH  10  11
HETATM   11  C   UNL     1     -13.368  13.696  71.608  1.00  0.00    -0.346 C  
HETATM   12  O   UNL     1     -14.173  14.023  72.463  1.00  0.00    -0.637 OA 
BRANCH  11  13
HETATM   13  O   UNL     1     -13.018  14.411  70.507  1.00  0.00    -0.345 OA 
BRANCH  13  14
HETATM   14  C   UNL     1     -11.803  13.967  69.892  1.00  0.00    -0.329 C  
BRANCH  14  15
HETATM   15  C   UNL     1     -11.806  14.154  68.379  1.00  0.00    -0.388 C  
HETATM   16  C   UNL     1     -10.961  13.073  67.674  1.00  0.00    -0.277 C  
HETATM   17  C   UNL     1     -11.489  11.658  67.928  1.00  0.00    -0.381 C  
HETATM   18  C   UNL     1     -10.893  13.332  66.169  1.00  0.00    -0.290 C  
ENDBRANCH  14  15
ENDBRANCH  13  14
ENDBRANCH  11  13
ENDBRANCH  10  11
ENDBRANCH   6   9
ENDBRANCH   2   3
TORSDOF 6
ENDMDL
MODEL       23
REMARK 921   NORMALIZED FREE ENERGY PREDICTED BY IDOCK:   -5.06 KCAL/MOL
REMARK 922        TOTAL FREE ENERGY PREDICTED BY IDOCK:   -7.62 KCAL/MOL
REMARK 923 INTER-LIGAND FREE ENERGY PREDICTED BY IDOCK:   -7.20 KCAL/MOL
REMARK 924 INTRA-LIGAND FREE ENERGY PREDICTED BY IDOCK:   -0.42 KCAL/MOL
REMARK 927      BINDING AFFINITY PREDICTED BY RF-SCORE:    0.00 PKD
ROOT
HETATM    1  C   UNL     1     -13.811   8.386  71.780  1.00  0.00    -0.408 C  
HETATM    2  O   UNL     1     -13.300   9.543  72.438  1.00  0.00    -0.446 OA 
ENDROOT
BRANCH   2   3
HETATM    3  C   UNL     1     -12.874  10.539  71.602  1.00  0.00    -0.475 A  
HETATM    4  C   UNL     1     -13.249  11.835  71.955  1.00  0.00    -0.468 A  
HETATM    5  C   UNL     1     -12.887  12.920  71.150  1.00  0.00    -0.326 A  
HETATM    6  C   UNL     1     -12.115  12.729  70.000  1.00  0.00    -0.355 A  
HETATM    7  C   UNL     1     -11.717  11.425  69.671  1.00  0.00    -0.415 A  
HETATM    8  C   UNL     1     -12.086  10.338  70.470  1.00  0.00    -0.401 A  
BRANCH   6   9
HETATM    9  C   UNL     1     -11.839  13.866  69.115  1.00  0.00    -0.401 C  
HETATM   10  C   UNL     1     -11.357  13.742  67.870  1.00  0.00    -0.328 C  
BRANCH  10  11
HETATM   11  C   UNL     1     -11.338  14.905  66.955  1.00  0.00    -0.337 C  
HETATM   12  O   UNL     1     -11.301  14.853  65.737  1.00  0.00    -0.341 OA 
BRANCH  11  13
HETATM   13  O   UNL     1     -11.141  16.005  67.727  1.00  0.00    -0.327 OA 
BRANCH  13  14
HETATM   14  C   UNL     1      -9.799  16.503  67.691  1.00  0.00    -0.247 C  
BRANCH  14  15
HETATM   15  C   UNL     1      -9.622  17.647  66.698  1.00  0.00    -0.301 C  
HETATM   16  C   UNL     1     -10.492  18.864  67.075  1.00  0.00    -0.497 C  
HETATM   17  C   UNL     1     -10.133  19.436  68.450  1.00  0.00    -0.538 C  
HETATM   18  C   UNL     1     -10.379  19.962  66.018  1.00  0.00    -0.591 C  
ENDBRANCH  14  15
ENDBRANCH  13  14
ENDBRANCH  11  13
ENDBRANCH  10  11
ENDBRANCH   6   9
ENDBRANCH   2   3
TORSDOF 6
ENDMDL
MODEL       24
REMARK 921   NORMALIZED FREE ENERGY PREDICTED BY IDOCK:   -5.06 KCAL/MOL
REMARK 922        TOTAL FREE ENERGY PREDICTED BY IDOCK:   -7.61 KCAL/MOL
REMARK 923 INTER-LIGAND FREE ENERGY PREDICTED BY IDOCK:   -7.14 KCAL/MOL
REMARK 924 INTRA-LIGAND FREE ENERGY PREDICTED BY IDOCK:   -0.47 KCAL/MOL
REMARK 927      BINDING AFFINITY PREDICTED BY RF-SCORE:    0.00 PKD
ROOT
HETATM    1  C   UNL     1     -12.652  16.310  74.075  1.00  0.00    -0.519 C  
HETATM    2  O   UNL     1     -13.554  15.963  73.029  1.00  0.00    -0.575 OA 
ENDROOT
BRANCH   2   3
HETATM    3  C   UNL     1     -13.164  14.899  72.261  1.00  0.00    -0.374 A  
HETATM    4  C   UNL     1     -13.594  13.645  72.689  1.00  0.00    -0.596 A  
HETATM    5  C   UNL     1     -13.225  12.492  71.988  1.00  0.00    -0.524 A  
HETATM    6  C   UNL     1     -12.448  12.581  70.829  1.00  0.00    -0.357 A  
HETATM    7  C   UNL     1     -12.046  13.851  70.389  1.00  0.00    -0.421 A  
HETATM    8  C   UNL     1     -12.408  15.003  71.094  1.00  0.00    -0.391 A  
BRANCH   6   9
HETATM    9  C   UNL     1     -11.983  11.354  70.173  1.00  0.00    -0.460 C  
HETATM   10  C   UNL     1     -11.847  11.224  68.845  1.00  0.00    -0.413 C  
BRANCH  10  11
HETATM   11  C   UNL     1     -11.143  10.054  68.275  1.00  0.00    -0.190 C  
HETATM   12  O   UNL     1     -10.640   9.145  68.912  1.00  0.00    -0.222 OA 
BRANCH  11  13
HETATM   13  O   UNL     1     -10.972  10.310  66.952  1.00  0.00    -0.190 OA 
BRANCH  13  14
HETATM   14  C   UNL     1     -10.880  11.704  66.639  1.00  0.00    -0.283 C  
BRANCH  14  15
HETATM   15  C   UNL     1      -9.968  11.982  65.449  1.00  0.00    -0.279 C  
HETATM   16  C   UNL     1     -10.533  11.371  64.149  1.00  0.00    -0.421 C  
HETATM   17  C   UNL     1     -11.902  11.947  63.778  1.00  0.00    -0.558 C  
HETATM   18  C   UNL     1      -9.560  11.573  62.987  1.00  0.00    -0.371 C  
ENDBRANCH  14  15
ENDBRANCH  13  14
ENDBRANCH  11  13
ENDBRANCH  10  11
ENDBRANCH   6   9
ENDBRANCH   2   3
TORSDOF 6
ENDMDL
MODEL       25
REMARK 921   NORMALIZED FREE ENERGY PREDICTED BY IDOCK:   -5.05 KCAL/MOL
REMARK 922        TOTAL FREE ENERGY PREDICTED BY IDOCK:   -7.61 KCAL/MOL
REMARK 923 INTER-LIGAND FREE ENERGY PREDICTED BY IDOCK:   -6.96 KCAL/MOL
REMARK 924 INTRA-LIGAND FREE ENERGY PREDICTED BY IDOCK:   -0.65 KCAL/MOL
REMARK 927      BINDING AFFINITY PREDICTED BY RF-SCORE:    0.00 PKD
ROOT
HETATM    1  C   UNL     1     -11.421   6.707  70.480  1.00  0.00    -0.376 C  
HETATM    2  O   UNL     1     -12.342   7.261  71.415  1.00  0.00    -0.331 OA 
ENDROOT
BRANCH   2   3
HETATM    3  C   UNL     1     -12.453   8.625  71.377  1.00  0.00    -0.301 A  
HETATM    4  C   UNL     1     -11.628   9.279  70.464  1.00  0.00    -0.266 A  
HETATM    5  C   UNL     1     -11.646  10.675  70.367  1.00  0.00    -0.441 A  
HETATM    6  C   UNL     1     -12.514  11.433  71.159  1.00  0.00    -0.465 A  
HETATM    7  C   UNL     1     -13.362  10.762  72.052  1.00  0.00    -0.403 A  
HETATM    8  C   UNL     1     -13.339   9.368  72.156  1.00  0.00    -0.545 A  
BRANCH   6   9
HETATM    9  C   UNL     1     -12.439  12.898  71.119  1.00  0.00    -0.344 C  
HETATM   10  C   UNL     1     -12.085  13.597  70.032  1.00  0.00    -0.417 C  
BRANCH  10  11
HETATM   11  C   UNL     1     -12.271  15.065  69.992  1.00  0.00    -0.328 C  
HETATM   12  O   UNL     1     -12.751  15.747  70.880  1.00  0.00    -0.460 OA 
BRANCH  11  13
HETATM   13  O   UNL     1     -12.021  15.454  68.714  1.00  0.00    -0.331 OA 
BRANCH  13  14
HETATM   14  C   UNL     1     -11.323  14.475  67.938  1.00  0.00    -0.310 C  
BRANCH  14  15
HETATM   15  C   UNL     1     -12.053  14.116  66.648  1.00  0.00    -0.480 C  
HETATM   16  C   UNL     1     -11.317  13.003  65.872  1.00  0.00    -0.344 C  
HETATM   17  C   UNL     1     -11.210  11.703  66.675  1.00  0.00    -0.362 C  
HETATM   18  C   UNL     1     -12.006  12.725  64.536  1.00  0.00    -0.454 C  
ENDBRANCH  14  15
ENDBRANCH  13  14
ENDBRANCH  11  13
ENDBRANCH  10  11
ENDBRANCH   6   9
ENDBRANCH   2   3
TORSDOF 6
ENDMDL
MODEL       26
REMARK 921   NORMALIZED FREE ENERGY PREDICTED BY IDOCK:   -5.05 KCAL/MOL
REMARK 922        TOTAL FREE ENERGY PREDICTED BY IDOCK:   -7.61 KCAL/MOL
REMARK 923 INTER-LIGAND FREE ENERGY PREDICTED BY IDOCK:   -6.98 KCAL/MOL
REMARK 924 INTRA-LIGAND FREE ENERGY PREDICTED BY IDOCK:   -0.62 KCAL/MOL
REMARK 927      BINDING AFFINITY PREDICTED BY RF-SCORE:    0.00 PKD
ROOT
HETATM    1  C   UNL     1      -6.368  21.087  67.815  1.00  0.00    -0.354 C  
HETATM    2  O   UNL     1      -7.611  21.200  67.128  1.00  0.00    -0.347 OA 
ENDROOT
BRANCH   2   3
HETATM    3  C   UNL     1      -8.501  20.191  67.379  1.00  0.00    -0.339 A  
HETATM    4  C   UNL     1      -8.027  19.137  68.158  1.00  0.00    -0.339 A  
HETATM    5  C   UNL     1      -8.851  18.044  68.448  1.00  0.00    -0.300 A  
HETATM    6  C   UNL     1     -10.172  18.006  67.991  1.00  0.00    -0.390 A  
HETATM    7  C   UNL     1     -10.649  19.087  67.234  1.00  0.00    -0.554 A  
HETATM    8  C   UNL     1      -9.823  20.175  66.937  1.00  0.00    -0.593 A  
BRANCH   6   9
HETATM    9  C   UNL     1     -10.982  16.804  68.214  1.00  0.00    -0.327 C  
HETATM   10  C   UNL     1     -10.484  15.559  68.220  1.00  0.00    -0.242 C  
BRANCH  10  11
HETATM   11  C   UNL     1     -11.308  14.424  68.694  1.00  0.00    -0.273 C  
HETATM   12  O   UNL     1     -12.176  14.482  69.548  1.00  0.00    -0.308 OA 
BRANCH  11  13
HETATM   13  O   UNL     1     -10.758  13.298  68.170  1.00  0.00    -0.236 OA 
BRANCH  13  14
HETATM   14  C   UNL     1     -11.710  12.416  67.567  1.00  0.00    -0.357 C  
BRANCH  14  15
HETATM   15  C   UNL     1     -11.375  12.090  66.116  1.00  0.00    -0.407 C  
HETATM   16  C   UNL     1     -12.446  12.640  65.151  1.00  0.00    -0.531 C  
HETATM   17  C   UNL     1     -12.572  14.164  65.225  1.00  0.00    -0.460 C  
HETATM   18  C   UNL     1     -12.148  12.220  63.712  1.00  0.00    -0.624 C  
ENDBRANCH  14  15
ENDBRANCH  13  14
ENDBRANCH  11  13
ENDBRANCH  10  11
ENDBRANCH   6   9
ENDBRANCH   2   3
TORSDOF 6
ENDMDL
MODEL       27
REMARK 921   NORMALIZED FREE ENERGY PREDICTED BY IDOCK:   -5.02 KCAL/MOL
REMARK 922        TOTAL FREE ENERGY PREDICTED BY IDOCK:   -7.56 KCAL/MOL
REMARK 923 INTER-LIGAND FREE ENERGY PREDICTED BY IDOCK:   -6.69 KCAL/MOL
REMARK 924 INTRA-LIGAND FREE ENERGY PREDICTED BY IDOCK:   -0.87 KCAL/MOL
REMARK 927      BINDING AFFINITY PREDICTED BY RF-SCORE:    0.00 PKD
ROOT
HETATM    1  C   UNL     1      -6.727  21.083  67.291  1.00  0.00    -0.364 C  
HETATM    2  O   UNL     1      -7.251  20.020  68.083  1.00  0.00    -0.286 OA 
ENDROOT
BRANCH   2   3
HETATM    3  C   UNL     1      -8.212  19.264  67.468  1.00  0.00    -0.288 A  
HETATM    4  C   UNL     1      -7.885  17.929  67.238  1.00  0.00    -0.225 A  
HETATM    5  C   UNL     1      -8.789  17.080  66.590  1.00  0.00    -0.282 A  
HETATM    6  C   UNL     1     -10.047  17.547  66.194  1.00  0.00    -0.317 A  
HETATM    7  C   UNL     1     -10.378  18.884  66.459  1.00  0.00    -0.493 A  
HETATM    8  C   UNL     1      -9.471  19.735  67.098  1.00  0.00    -0.471 A  
BRANCH   6   9
HETATM    9  C   UNL     1     -10.935  16.671  65.422  1.00  0.00    -0.096 C  
HETATM   10  C   UNL     1     -10.820  15.336  65.386  1.00  0.00    -0.399 C  
BRANCH  10  11
HETATM   11  C   UNL     1     -11.893  14.507  64.792  1.00  0.00    -0.441 C  
HETATM   12  O   UNL     1     -12.605  14.828  63.855  1.00  0.00    -0.834 OA 
BRANCH  11  13
HETATM   13  O   UNL     1     -12.073  13.449  65.624  1.00  0.00    -0.383 OA 
BRANCH  13  14
HETATM   14  C   UNL     1     -11.216  13.463  66.771  1.00  0.00    -0.310 C  
BRANCH  14  15
HETATM   15  C   UNL     1     -11.965  13.179  68.069  1.00  0.00    -0.345 C  
HETATM   16  C   UNL     1     -11.542  14.151  69.190  1.00  0.00    -0.349 C  
HETATM   17  C   UNL     1     -11.838  15.612  68.840  1.00  0.00    -0.368 C  
HETATM   18  C   UNL     1     -12.227  13.791  70.508  1.00  0.00    -0.440 C  
ENDBRANCH  14  15
ENDBRANCH  13  14
ENDBRANCH  11  13
ENDBRANCH  10  11
ENDBRANCH   6   9
ENDBRANCH   2   3
TORSDOF 6
ENDMDL
MODEL       28
REMARK 921   NORMALIZED FREE ENERGY PREDICTED BY IDOCK:   -5.01 KCAL/MOL
REMARK 922        TOTAL FREE ENERGY PREDICTED BY IDOCK:   -7.55 KCAL/MOL
REMARK 923 INTER-LIGAND FREE ENERGY PREDICTED BY IDOCK:   -6.79 KCAL/MOL
REMARK 924 INTRA-LIGAND FREE ENERGY PREDICTED BY IDOCK:   -0.76 KCAL/MOL
REMARK 927      BINDING AFFINITY PREDICTED BY RF-SCORE:    0.00 PKD
ROOT
HETATM    1  C   UNL     1      -9.993  11.466  63.021  1.00  0.00    -0.322 C  
HETATM    2  O   UNL     1     -11.206  11.361  63.762  1.00  0.00    -0.399 OA 
ENDROOT
BRANCH   2   3
HETATM    3  C   UNL     1     -11.332  12.255  64.790  1.00  0.00    -0.323 A  
HETATM    4  C   UNL     1     -10.198  12.445  65.578  1.00  0.00    -0.297 A  
HETATM    5  C   UNL     1     -10.232  13.318  66.671  1.00  0.00    -0.265 A  
HETATM    6  C   UNL     1     -11.392  14.039  66.971  1.00  0.00    -0.346 A  
HETATM    7  C   UNL     1     -12.519  13.864  66.152  1.00  0.00    -0.478 A  
HETATM    8  C   UNL     1     -12.487  12.985  65.065  1.00  0.00    -0.534 A  
BRANCH   6   9
HETATM    9  C   UNL     1     -11.440  14.864  68.182  1.00  0.00    -0.348 C  
HETATM   10  C   UNL     1     -12.094  14.513  69.299  1.00  0.00    -0.325 C  
BRANCH  10  11
HETATM   11  C   UNL     1     -11.894  15.271  70.554  1.00  0.00    -0.324 C  
HETATM   12  O   UNL     1     -11.345  16.356  70.652  1.00  0.00    -0.368 OA 
BRANCH  11  13
HETATM   13  O   UNL     1     -12.226  14.434  71.571  1.00  0.00    -0.341 OA 
BRANCH  13  14
HETATM   14  C   UNL     1     -13.270  13.511  71.243  1.00  0.00    -0.216 C  
BRANCH  14  15
HETATM   15  C   UNL     1     -13.190  12.220  72.050  1.00  0.00    -0.508 C  
HETATM   16  C   UNL     1     -13.009  10.991  71.135  1.00  0.00    -0.421 C  
HETATM   17  C   UNL     1     -11.718  11.058  70.314  1.00  0.00    -0.445 C  
HETATM   18  C   UNL     1     -13.031   9.699  71.950  1.00  0.00    -0.527 C  
ENDBRANCH  14  15
ENDBRANCH  13  14
ENDBRANCH  11  13
ENDBRANCH  10  11
ENDBRANCH   6   9
ENDBRANCH   2   3
TORSDOF 6
ENDMDL
MODEL       29
REMARK 921   NORMALIZED FREE ENERGY PREDICTED BY IDOCK:   -5.01 KCAL/MOL
REMARK 922        TOTAL FREE ENERGY PREDICTED BY IDOCK:   -7.54 KCAL/MOL
REMARK 923 INTER-LIGAND FREE ENERGY PREDICTED BY IDOCK:   -6.99 KCAL/MOL
REMARK 924 INTRA-LIGAND FREE ENERGY PREDICTED BY IDOCK:   -0.55 KCAL/MOL
REMARK 927      BINDING AFFINITY PREDICTED BY RF-SCORE:    0.00 PKD
ROOT
HETATM    1  C   UNL     1     -12.089  16.334  72.556  1.00  0.00    -0.525 C  
HETATM    2  O   UNL     1     -12.869  15.821  71.480  1.00  0.00    -0.456 OA 
ENDROOT
BRANCH   2   3
HETATM    3  C   UNL     1     -12.763  14.470  71.285  1.00  0.00    -0.342 A  
HETATM    4  C   UNL     1     -13.352  13.664  72.256  1.00  0.00    -0.622 A  
HETATM    5  C   UNL     1     -13.275  12.270  72.162  1.00  0.00    -0.466 A  
HETATM    6  C   UNL     1     -12.637  11.663  71.076  1.00  0.00    -0.431 A  
HETATM    7  C   UNL     1     -12.074  12.484  70.087  1.00  0.00    -0.368 A  
HETATM    8  C   UNL     1     -12.144  13.877  70.185  1.00  0.00    -0.418 A  
BRANCH   6   9
HETATM    9  C   UNL     1     -12.473  10.206  71.053  1.00  0.00    -0.474 C  
HETATM   10  C   UNL     1     -13.088   9.372  71.904  1.00  0.00    -0.505 C  
BRANCH  10  11
HETATM   11  C   UNL     1     -13.072   7.912  71.666  1.00  0.00    -0.332 C  
HETATM   12  O   UNL     1     -13.953   7.268  71.122  1.00  0.00    -0.325 OA 
BRANCH  11  13
HETATM   13  O   UNL     1     -12.016   7.416  72.363  1.00  0.00    -0.269 OA 
BRANCH  13  14
HETATM   14  C   UNL     1     -11.705   6.054  72.051  1.00  0.00    -0.257 C  
BRANCH  14  15
HETATM   15  C   UNL     1     -10.309   5.889  71.462  1.00  0.00    -0.273 C  
HETATM   16  C   UNL     1     -10.361   5.291  70.040  1.00  0.00    -0.365 C  
HETATM   17  C   UNL     1     -11.132   6.180  69.060  1.00  0.00    -0.437 C  
HETATM   18  C   UNL     1      -8.952   5.040  69.504  1.00  0.00    -0.129 C  
ENDBRANCH  14  15
ENDBRANCH  13  14
ENDBRANCH  11  13
ENDBRANCH  10  11
ENDBRANCH   6   9
ENDBRANCH   2   3
TORSDOF 6
ENDMDL
MODEL       30
REMARK 921   NORMALIZED FREE ENERGY PREDICTED BY IDOCK:   -5.00 KCAL/MOL
REMARK 922        TOTAL FREE ENERGY PREDICTED BY IDOCK:   -7.54 KCAL/MOL
REMARK 923 INTER-LIGAND FREE ENERGY PREDICTED BY IDOCK:   -6.41 KCAL/MOL
REMARK 924 INTRA-LIGAND FREE ENERGY PREDICTED BY IDOCK:   -1.12 KCAL/MOL
REMARK 927      BINDING AFFINITY PREDICTED BY RF-SCORE:    0.00 PKD
ROOT
HETATM    1  C   UNL     1     -10.850  14.891  66.378  1.00  0.00    -0.325 C  
HETATM    2  O   UNL     1     -11.949  14.631  67.246  1.00  0.00    -0.391 OA 
ENDROOT
BRANCH   2   3
HETATM    3  C   UNL     1     -11.824  13.505  68.014  1.00  0.00    -0.365 A  
HETATM    4  C   UNL     1     -12.003  13.676  69.385  1.00  0.00    -0.394 A  
HETATM    5  C   UNL     1     -11.867  12.591  70.258  1.00  0.00    -0.305 A  
HETATM    6  C   UNL     1     -11.585  11.312  69.768  1.00  0.00    -0.408 A  
HETATM    7  C   UNL     1     -11.438  11.145  68.382  1.00  0.00    -0.377 A  
HETATM    8  C   UNL     1     -11.564  12.231  67.510  1.00  0.00    -0.422 A  
BRANCH   6   9
HETATM    9  C   UNL     1     -11.340  10.213  70.707  1.00  0.00    -0.436 C  
HETATM   10  C   UNL     1     -12.310   9.450  71.231  1.00  0.00    -0.422 C  
BRANCH  10  11
HETATM   11  C   UNL     1     -11.974   8.213  71.970  1.00  0.00    -0.340 C  
HETATM   12  O   UNL     1     -11.339   8.154  73.010  1.00  0.00    -0.336 OA 
BRANCH  11  13
HETATM   13  O   UNL     1     -12.302   7.174  71.159  1.00  0.00    -0.347 OA 
BRANCH  13  14
HETATM   14  C   UNL     1     -11.186   6.365  70.774  1.00  0.00    -0.327 C  
BRANCH  14  15
HETATM   15  C   UNL     1     -11.081   6.184  69.264  1.00  0.00    -0.463 C  
HETATM   16  C   UNL     1     -10.510   7.445  68.582  1.00  0.00    -0.211 C  
HETATM   17  C   UNL     1      -9.097   7.783  69.067  1.00  0.00    -0.144 C  
HETATM   18  C   UNL     1     -10.504   7.285  67.062  1.00  0.00    -0.398 C  
ENDBRANCH  14  15
ENDBRANCH  13  14
ENDBRANCH  11  13
ENDBRANCH  10  11
ENDBRANCH   6   9
ENDBRANCH   2   3
TORSDOF 6
ENDMDL
MODEL       31
REMARK 921   NORMALIZED FREE ENERGY PREDICTED BY IDOCK:   -5.00 KCAL/MOL
REMARK 922        TOTAL FREE ENERGY PREDICTED BY IDOCK:   -7.53 KCAL/MOL
REMARK 923 INTER-LIGAND FREE ENERGY PREDICTED BY IDOCK:   -7.15 KCAL/MOL
REMARK 924 INTRA-LIGAND FREE ENERGY PREDICTED BY IDOCK:   -0.38 KCAL/MOL
REMARK 927      BINDING AFFINITY PREDICTED BY RF-SCORE:    0.00 PKD
ROOT
HETATM    1  C   UNL     1     -12.540   6.956  71.813  1.00  0.00    -0.344 C  
HETATM    2  O   UNL     1     -12.071   8.124  72.480  1.00  0.00    -0.365 OA 
ENDROOT
BRANCH   2   3
HETATM    3  C   UNL     1     -12.078   9.263  71.722  1.00  0.00    -0.387 A  
HETATM    4  C   UNL     1     -11.147   9.313  70.686  1.00  0.00    -0.335 A  
HETATM    5  C   UNL     1     -11.056  10.446  69.870  1.00  0.00    -0.367 A  
HETATM    6  C   UNL     1     -11.918  11.531  70.058  1.00  0.00    -0.435 A  
HETATM    7  C   UNL     1     -12.873  11.457  71.084  1.00  0.00    -0.440 A  
HETATM    8  C   UNL     1     -12.959  10.328  71.905  1.00  0.00    -0.554 A  
BRANCH   6   9
HETATM    9  C   UNL     1     -11.733  12.750  69.263  1.00  0.00    -0.376 C  
HETATM   10  C   UNL     1     -11.561  12.755  67.934  1.00  0.00    -0.400 C  
BRANCH  10  11
HETATM   11  C   UNL     1     -11.630  14.024  67.174  1.00  0.00    -0.372 C  
HETATM   12  O   UNL     1     -12.351  14.242  66.216  1.00  0.00    -0.443 OA 
BRANCH  11  13
HETATM   13  O   UNL     1     -10.593  14.790  67.602  1.00  0.00    -0.256 OA 
BRANCH  13  14
HETATM   14  C   UNL     1     -10.613  16.127  67.092  1.00  0.00    -0.294 C  
BRANCH  14  15
HETATM   15  C   UNL     1     -10.706  17.176  68.195  1.00  0.00    -0.366 C  
HETATM   16  C   UNL     1      -9.992  18.484  67.793  1.00  0.00    -0.369 C  
HETATM   17  C   UNL     1     -10.605  19.126  66.545  1.00  0.00    -0.523 C  
HETATM   18  C   UNL     1     -10.009  19.488  68.946  1.00  0.00    -0.529 C  
ENDBRANCH  14  15
ENDBRANCH  13  14
ENDBRANCH  11  13
ENDBRANCH  10  11
ENDBRANCH   6   9
ENDBRANCH   2   3
TORSDOF 6
ENDMDL
MODEL       32
REMARK 921   NORMALIZED FREE ENERGY PREDICTED BY IDOCK:   -4.97 KCAL/MOL
REMARK 922        TOTAL FREE ENERGY PREDICTED BY IDOCK:   -7.50 KCAL/MOL
REMARK 923 INTER-LIGAND FREE ENERGY PREDICTED BY IDOCK:   -7.08 KCAL/MOL
REMARK 924 INTRA-LIGAND FREE ENERGY PREDICTED BY IDOCK:   -0.42 KCAL/MOL
REMARK 927      BINDING AFFINITY PREDICTED BY RF-SCORE:    0.00 PKD
ROOT
HETATM    1  C   UNL     1      -9.293  10.518  62.841  1.00  0.00    -0.326 C  
HETATM    2  O   UNL     1     -10.623  10.967  63.083  1.00  0.00    -0.254 OA 
ENDROOT
BRANCH   2   3
HETATM    3  C   UNL     1     -10.730  11.991  63.984  1.00  0.00    -0.375 A  
HETATM    4  C   UNL     1     -11.631  13.003  63.657  1.00  0.00    -0.507 A  
HETATM    5  C   UNL     1     -11.792  14.108  64.500  1.00  0.00    -0.451 A  
HETATM    6  C   UNL     1     -11.080  14.199  65.700  1.00  0.00    -0.307 A  
HETATM    7  C   UNL     1     -10.200  13.159  66.035  1.00  0.00    -0.287 A  
HETATM    8  C   UNL     1     -10.031  12.059  65.189  1.00  0.00    -0.265 A  
BRANCH   6   9
HETATM    9  C   UNL     1     -11.184  15.414  66.514  1.00  0.00    -0.162 C  
HETATM   10  C   UNL     1     -11.074  15.429  67.850  1.00  0.00    -0.323 C  
BRANCH  10  11
HETATM   11  C   UNL     1     -10.941  16.711  68.577  1.00  0.00    -0.339 C  
HETATM   12  O   UNL     1     -10.721  17.799  68.071  1.00  0.00    -0.382 OA 
BRANCH  11  13
HETATM   13  O   UNL     1     -10.883  16.405  69.899  1.00  0.00    -0.344 OA 
BRANCH  13  14
HETATM   14  C   UNL     1     -11.836  15.417  70.306  1.00  0.00    -0.338 C  
BRANCH  14  15
HETATM   15  C   UNL     1     -11.706  15.044  71.779  1.00  0.00    -0.452 C  
HETATM   16  C   UNL     1     -12.728  15.807  72.648  1.00  0.00    -0.546 C  
HETATM   17  C   UNL     1     -14.176  15.495  72.258  1.00  0.00    -0.617 C  
HETATM   18  C   UNL     1     -12.519  15.497  74.130  1.00  0.00    -0.805 C  
ENDBRANCH  14  15
ENDBRANCH  13  14
ENDBRANCH  11  13
ENDBRANCH  10  11
ENDBRANCH   6   9
ENDBRANCH   2   3
TORSDOF 6
ENDMDL
MODEL       33
REMARK 921   NORMALIZED FREE ENERGY PREDICTED BY IDOCK:   -4.96 KCAL/MOL
REMARK 922        TOTAL FREE ENERGY PREDICTED BY IDOCK:   -7.49 KCAL/MOL
REMARK 923 INTER-LIGAND FREE ENERGY PREDICTED BY IDOCK:   -6.70 KCAL/MOL
REMARK 924 INTRA-LIGAND FREE ENERGY PREDICTED BY IDOCK:   -0.79 KCAL/MOL
REMARK 927      BINDING AFFINITY PREDICTED BY RF-SCORE:    0.00 PKD
ROOT
HETATM    1  C   UNL     1     -10.317   7.258  69.513  1.00  0.00    -0.225 C  
HETATM    2  O   UNL     1     -11.217   7.459  70.599  1.00  0.00    -0.261 OA 
ENDROOT
BRANCH   2   3
HETATM    3  C   UNL     1     -11.674   8.742  70.738  1.00  0.00    -0.219 A  
HETATM    4  C   UNL     1     -11.156   9.676  69.844  1.00  0.00    -0.268 A  
HETATM    5  C   UNL     1     -11.540  11.019  69.921  1.00  0.00    -0.416 A  
HETATM    6  C   UNL     1     -12.474  11.440  70.874  1.00  0.00    -0.478 A  
HETATM    7  C   UNL     1     -13.013  10.485  71.750  1.00  0.00    -0.582 A  
HETATM    8  C   UNL     1     -12.623   9.144  71.678  1.00  0.00    -0.433 A  
BRANCH   6   9
HETATM    9  C   UNL     1     -12.779  12.868  71.008  1.00  0.00    -0.338 C  
HETATM   10  C   UNL     1     -12.101  13.839  70.380  1.00  0.00    -0.421 C  
BRANCH  10  11
HETATM   11  C   UNL     1     -12.617  15.226  70.366  1.00  0.00    -0.375 C  
HETATM   12  O   UNL     1     -13.569  15.639  71.006  1.00  0.00    -0.588 OA 
BRANCH  11  13
HETATM   13  O   UNL     1     -11.982  15.867  69.350  1.00  0.00    -0.354 OA 
BRANCH  13  14
HETATM   14  C   UNL     1     -10.892  15.127  68.791  1.00  0.00    -0.247 C  
BRANCH  14  15
HETATM   15  C   UNL     1     -10.653  15.450  67.320  1.00  0.00    -0.294 C  
HETATM   16  C   UNL     1     -10.914  14.222  66.422  1.00  0.00    -0.311 C  
HETATM   17  C   UNL     1     -12.358  13.723  66.517  1.00  0.00    -0.432 C  
HETATM   18  C   UNL     1     -10.575  14.534  64.964  1.00  0.00    -0.458 C  
ENDBRANCH  14  15
ENDBRANCH  13  14
ENDBRANCH  11  13
ENDBRANCH  10  11
ENDBRANCH   6   9
ENDBRANCH   2   3
TORSDOF 6
ENDMDL
MODEL       34
REMARK 921   NORMALIZED FREE ENERGY PREDICTED BY IDOCK:   -4.93 KCAL/MOL
REMARK 922        TOTAL FREE ENERGY PREDICTED BY IDOCK:   -7.44 KCAL/MOL
REMARK 923 INTER-LIGAND FREE ENERGY PREDICTED BY IDOCK:   -7.12 KCAL/MOL
REMARK 924 INTRA-LIGAND FREE ENERGY PREDICTED BY IDOCK:   -0.32 KCAL/MOL
REMARK 927      BINDING AFFINITY PREDICTED BY RF-SCORE:    0.00 PKD
ROOT
HETATM    1  C   UNL     1     -11.537   6.523  70.449  1.00  0.00    -0.407 C  
HETATM    2  O   UNL     1     -12.305   7.136  71.481  1.00  0.00    -0.329 OA 
ENDROOT
BRANCH   2   3
HETATM    3  C   UNL     1     -12.416   8.497  71.385  1.00  0.00    -0.297 A  
HETATM    4  C   UNL     1     -11.508   9.126  70.536  1.00  0.00    -0.271 A  
HETATM    5  C   UNL     1     -11.522  10.518  70.390  1.00  0.00    -0.427 A  
HETATM    6  C   UNL     1     -12.467  11.296  71.066  1.00  0.00    -0.503 A  
HETATM    7  C   UNL     1     -13.397  10.649  71.894  1.00  0.00    -0.454 A  
HETATM    8  C   UNL     1     -13.378   9.259  72.047  1.00  0.00    -0.518 A  
BRANCH   6   9
HETATM    9  C   UNL     1     -12.395  12.758  70.984  1.00  0.00    -0.316 C  
HETATM   10  C   UNL     1     -11.793  13.421  69.986  1.00  0.00    -0.364 C  
BRANCH  10  11
HETATM   11  C   UNL     1     -11.973  14.882  69.840  1.00  0.00    -0.330 C  
HETATM   12  O   UNL     1     -12.836  15.552  70.382  1.00  0.00    -0.410 OA 
BRANCH  11  13
HETATM   13  O   UNL     1     -11.153  15.277  68.831  1.00  0.00    -0.240 OA 
BRANCH  13  14
HETATM   14  C   UNL     1     -10.775  16.655  68.899  1.00  0.00    -0.337 C  
BRANCH  14  15
HETATM   15  C   UNL     1     -10.493  17.257  67.526  1.00  0.00    -0.356 C  
HETATM   16  C   UNL     1     -10.754  18.778  67.511  1.00  0.00    -0.474 C  
HETATM   17  C   UNL     1      -9.860  19.535  68.497  1.00  0.00    -0.518 C  
HETATM   18  C   UNL     1     -10.563  19.348  66.105  1.00  0.00    -0.571 C  
ENDBRANCH  14  15
ENDBRANCH  13  14
ENDBRANCH  11  13
ENDBRANCH  10  11
ENDBRANCH   6   9
ENDBRANCH   2   3
TORSDOF 6
ENDMDL
MODEL       35
REMARK 921   NORMALIZED FREE ENERGY PREDICTED BY IDOCK:   -4.93 KCAL/MOL
REMARK 922        TOTAL FREE ENERGY PREDICTED BY IDOCK:   -7.44 KCAL/MOL
REMARK 923 INTER-LIGAND FREE ENERGY PREDICTED BY IDOCK:   -6.64 KCAL/MOL
REMARK 924 INTRA-LIGAND FREE ENERGY PREDICTED BY IDOCK:   -0.81 KCAL/MOL
REMARK 927      BINDING AFFINITY PREDICTED BY RF-SCORE:    0.00 PKD
ROOT
HETATM    1  C   UNL     1      -9.979  20.037  67.244  1.00  0.00    -0.435 C  
HETATM    2  O   UNL     1     -10.147  19.008  68.215  1.00  0.00    -0.359 OA 
ENDROOT
BRANCH   2   3
HETATM    3  C   UNL     1     -10.431  17.772  67.701  1.00  0.00    -0.388 A  
HETATM    4  C   UNL     1     -10.273  17.631  66.324  1.00  0.00    -0.362 A  
HETATM    5  C   UNL     1     -10.564  16.414  65.698  1.00  0.00    -0.337 A  
HETATM    6  C   UNL     1     -10.986  15.310  66.446  1.00  0.00    -0.299 A  
HETATM    7  C   UNL     1     -11.111  15.454  67.837  1.00  0.00    -0.323 A  
HETATM    8  C   UNL     1     -10.828  16.672  68.461  1.00  0.00    -0.356 A  
BRANCH   6   9
HETATM    9  C   UNL     1     -11.389  14.079  65.759  1.00  0.00    -0.312 C  
HETATM   10  C   UNL     1     -11.861  14.045  64.505  1.00  0.00    -0.452 C  
BRANCH  10  11
HETATM   11  C   UNL     1     -12.012  12.755  63.796  1.00  0.00    -0.510 C  
HETATM   12  O   UNL     1     -13.053  12.136  63.654  1.00  0.00    -0.787 OA 
BRANCH  11  13
HETATM   13  O   UNL     1     -10.757  12.300  63.545  1.00  0.00    -0.429 OA 
BRANCH  13  14
HETATM   14  C   UNL     1     -10.508  10.983  64.047  1.00  0.00    -0.366 C  
BRANCH  14  15
HETATM   15  C   UNL     1      -9.255  10.908  64.912  1.00  0.00    -0.230 C  
HETATM   16  C   UNL     1      -9.531  11.390  66.351  1.00  0.00    -0.224 C  
HETATM   17  C   UNL     1     -10.587  10.538  67.061  1.00  0.00    -0.310 C  
HETATM   18  C   UNL     1      -8.245  11.404  67.177  1.00  0.00    -0.157 C  
ENDBRANCH  14  15
ENDBRANCH  13  14
ENDBRANCH  11  13
ENDBRANCH  10  11
ENDBRANCH   6   9
ENDBRANCH   2   3
TORSDOF 6
ENDMDL
MODEL       36
REMARK 921   NORMALIZED FREE ENERGY PREDICTED BY IDOCK:   -4.93 KCAL/MOL
REMARK 922        TOTAL FREE ENERGY PREDICTED BY IDOCK:   -7.44 KCAL/MOL
REMARK 923 INTER-LIGAND FREE ENERGY PREDICTED BY IDOCK:   -7.08 KCAL/MOL
REMARK 924 INTRA-LIGAND FREE ENERGY PREDICTED BY IDOCK:   -0.36 KCAL/MOL
REMARK 927      BINDING AFFINITY PREDICTED BY RF-SCORE:    0.00 PKD
ROOT
HETATM    1  C   UNL     1     -10.104  19.463  66.278  1.00  0.00    -0.456 C  
HETATM    2  O   UNL     1      -9.914  18.092  65.937  1.00  0.00    -0.540 OA 
ENDROOT
BRANCH   2   3
HETATM    3  C   UNL     1     -10.344  17.200  66.881  1.00  0.00    -0.308 A  
HETATM    4  C   UNL     1     -10.395  17.671  68.191  1.00  0.00    -0.386 A  
HETATM    5  C   UNL     1     -10.794  16.828  69.233  1.00  0.00    -0.275 A  
HETATM    6  C   UNL     1     -11.182  15.509  68.973  1.00  0.00    -0.304 A  
HETATM    7  C   UNL     1     -11.157  15.054  67.647  1.00  0.00    -0.317 A  
HETATM    8  C   UNL     1     -10.749  15.894  66.606  1.00  0.00    -0.270 A  
BRANCH   6   9
HETATM    9  C   UNL     1     -11.492  14.612  70.091  1.00  0.00    -0.310 C  
HETATM   10  C   UNL     1     -12.708  14.504  70.646  1.00  0.00    -0.421 C  
BRANCH  10  11
HETATM   11  C   UNL     1     -13.004  13.408  71.595  1.00  0.00    -0.355 C  
HETATM   12  O   UNL     1     -13.439  13.543  72.726  1.00  0.00    -0.621 OA 
BRANCH  11  13
HETATM   13  O   UNL     1     -12.489  12.274  71.053  1.00  0.00    -0.370 OA 
BRANCH  13  14
HETATM   14  C   UNL     1     -13.147  11.077  71.482  1.00  0.00    -0.396 C  
BRANCH  14  15
HETATM   15  C   UNL     1     -12.220   9.866  71.493  1.00  0.00    -0.505 C  
HETATM   16  C   UNL     1     -12.762   8.747  72.407  1.00  0.00    -0.433 C  
HETATM   17  C   UNL     1     -14.129   8.230  71.950  1.00  0.00    -0.499 C  
HETATM   18  C   UNL     1     -11.774   7.583  72.484  1.00  0.00    -0.310 C  
ENDBRANCH  14  15
ENDBRANCH  13  14
ENDBRANCH  11  13
ENDBRANCH  10  11
ENDBRANCH   6   9
ENDBRANCH   2   3
TORSDOF 6
ENDMDL
MODEL       37
REMARK 921   NORMALIZED FREE ENERGY PREDICTED BY IDOCK:   -4.92 KCAL/MOL
REMARK 922        TOTAL FREE ENERGY PREDICTED BY IDOCK:   -7.42 KCAL/MOL
REMARK 923 INTER-LIGAND FREE ENERGY PREDICTED BY IDOCK:   -7.00 KCAL/MOL
REMARK 924 INTRA-LIGAND FREE ENERGY PREDICTED BY IDOCK:   -0.42 KCAL/MOL
REMARK 927      BINDING AFFINITY PREDICTED BY RF-SCORE:    0.00 PKD
ROOT
HETATM    1  C   UNL     1     -10.852  16.061  67.868  1.00  0.00    -0.333 C  
HETATM    2  O   UNL     1     -11.480  16.361  69.111  1.00  0.00    -0.288 OA 
ENDROOT
BRANCH   2   3
HETATM    3  C   UNL     1     -11.885  15.269  69.830  1.00  0.00    -0.335 A  
HETATM    4  C   UNL     1     -11.542  14.027  69.301  1.00  0.00    -0.356 A  
HETATM    5  C   UNL     1     -11.933  12.849  69.947  1.00  0.00    -0.377 A  
HETATM    6  C   UNL     1     -12.644  12.898  71.149  1.00  0.00    -0.373 A  
HETATM    7  C   UNL     1     -12.958  14.154  71.690  1.00  0.00    -0.423 A  
HETATM    8  C   UNL     1     -12.574  15.332  71.041  1.00  0.00    -0.469 A  
BRANCH   6   9
HETATM    9  C   UNL     1     -13.138  11.655  71.752  1.00  0.00    -0.487 C  
HETATM   10  C   UNL     1     -13.095  10.462  71.142  1.00  0.00    -0.474 C  
BRANCH  10  11
HETATM   11  C   UNL     1     -13.379   9.222  71.898  1.00  0.00    -0.429 C  
HETATM   12  O   UNL     1     -14.179   9.112  72.812  1.00  0.00    -0.552 OA 
BRANCH  11  13
HETATM   13  O   UNL     1     -12.430   8.320  71.537  1.00  0.00    -0.302 OA 
BRANCH  13  14
HETATM   14  C   UNL     1     -11.213   8.430  72.282  1.00  0.00    -0.376 C  
BRANCH  14  15
HETATM   15  C   UNL     1     -10.946   7.210  73.157  1.00  0.00    -0.344 C  
HETATM   16  C   UNL     1     -11.294   5.899  72.421  1.00  0.00    -0.358 C  
HETATM   17  C   UNL     1     -10.461   5.701  71.152  1.00  0.00    -0.306 C  
HETATM   18  C   UNL     1     -11.115   4.694  73.344  1.00  0.00    -0.418 C  
ENDBRANCH  14  15
ENDBRANCH  13  14
ENDBRANCH  11  13
ENDBRANCH  10  11
ENDBRANCH   6   9
ENDBRANCH   2   3
TORSDOF 6
ENDMDL
MODEL       38
REMARK 921   NORMALIZED FREE ENERGY PREDICTED BY IDOCK:   -4.92 KCAL/MOL
REMARK 922        TOTAL FREE ENERGY PREDICTED BY IDOCK:   -7.42 KCAL/MOL
REMARK 923 INTER-LIGAND FREE ENERGY PREDICTED BY IDOCK:   -6.90 KCAL/MOL
REMARK 924 INTRA-LIGAND FREE ENERGY PREDICTED BY IDOCK:   -0.52 KCAL/MOL
REMARK 927      BINDING AFFINITY PREDICTED BY RF-SCORE:    0.00 PKD
ROOT
HETATM    1  C   UNL     1     -10.874  15.907  67.857  1.00  0.00    -0.327 C  
HETATM    2  O   UNL     1     -11.800  16.190  68.903  1.00  0.00    -0.338 OA 
ENDROOT
BRANCH   2   3
HETATM    3  C   UNL     1     -12.118  15.122  69.696  1.00  0.00    -0.304 A  
HETATM    4  C   UNL     1     -11.761  13.867  69.205  1.00  0.00    -0.381 A  
HETATM    5  C   UNL     1     -12.067  12.710  69.928  1.00  0.00    -0.322 A  
HETATM    6  C   UNL     1     -12.705  12.793  71.170  1.00  0.00    -0.355 A  
HETATM    7  C   UNL     1     -13.031  14.063  71.671  1.00  0.00    -0.430 A  
HETATM    8  C   UNL     1     -12.733  15.220  70.944  1.00  0.00    -0.496 A  
BRANCH   6   9
HETATM    9  C   UNL     1     -13.112  11.565  71.860  1.00  0.00    -0.492 C  
HETATM   10  C   UNL     1     -12.967  10.336  71.344  1.00  0.00    -0.540 C  
BRANCH  10  11
HETATM   11  C   UNL     1     -13.169   9.139  72.190  1.00  0.00    -0.458 C  
HETATM   12  O   UNL     1     -14.176   8.877  72.826  1.00  0.00    -0.557 OA 
BRANCH  11  13
HETATM   13  O   UNL     1     -11.960   8.529  72.298  1.00  0.00    -0.359 OA 
BRANCH  13  14
HETATM   14  C   UNL     1     -12.015   7.106  72.159  1.00  0.00    -0.266 C  
BRANCH  14  15
HETATM   15  C   UNL     1     -12.261   6.663  70.720  1.00  0.00    -0.302 C  
HETATM   16  C   UNL     1     -10.944   6.588  69.919  1.00  0.00    -0.393 C  
HETATM   17  C   UNL     1      -9.956   5.579  70.510  1.00  0.00    -0.276 C  
HETATM   18  C   UNL     1     -11.218   6.240  68.456  1.00  0.00    -0.305 C  
ENDBRANCH  14  15
ENDBRANCH  13  14
ENDBRANCH  11  13
ENDBRANCH  10  11
ENDBRANCH   6   9
ENDBRANCH   2   3
TORSDOF 6
ENDMDL
MODEL       39
REMARK 921   NORMALIZED FREE ENERGY PREDICTED BY IDOCK:   -4.91 KCAL/MOL
REMARK 922        TOTAL FREE ENERGY PREDICTED BY IDOCK:   -7.42 KCAL/MOL
REMARK 923 INTER-LIGAND FREE ENERGY PREDICTED BY IDOCK:   -6.69 KCAL/MOL
REMARK 924 INTRA-LIGAND FREE ENERGY PREDICTED BY IDOCK:   -0.73 KCAL/MOL
REMARK 927      BINDING AFFINITY PREDICTED BY RF-SCORE:    0.00 PKD
ROOT
HETATM    1  C   UNL     1      -9.581  11.080  63.006  1.00  0.00    -0.364 C  
HETATM    2  O   UNL     1     -10.948  11.382  63.273  1.00  0.00    -0.336 OA 
ENDROOT
BRANCH   2   3
HETATM    3  C   UNL     1     -11.195  11.871  64.527  1.00  0.00    -0.319 A  
HETATM    4  C   UNL     1     -12.004  13.004  64.594  1.00  0.00    -0.445 A  
HETATM    5  C   UNL     1     -12.293  13.596  65.828  1.00  0.00    -0.524 A  
HETATM    6  C   UNL     1     -11.805  13.042  67.016  1.00  0.00    -0.437 A  
HETATM    7  C   UNL     1     -11.018  11.883  66.940  1.00  0.00    -0.335 A  
HETATM    8  C   UNL     1     -10.722  11.296  65.706  1.00  0.00    -0.284 A  
BRANCH   6   9
HETATM    9  C   UNL     1     -12.030  13.739  68.287  1.00  0.00    -0.392 C  
HETATM   10  C   UNL     1     -11.281  14.764  68.718  1.00  0.00    -0.286 C  
BRANCH  10  11
HETATM   11  C   UNL     1     -11.715  15.573  69.880  1.00  0.00    -0.352 C  
HETATM   12  O   UNL     1     -12.776  15.461  70.470  1.00  0.00    -0.410 OA 
BRANCH  11  13
HETATM   13  O   UNL     1     -10.820  16.587  70.003  1.00  0.00    -0.344 OA 
BRANCH  13  14
HETATM   14  C   UNL     1     -10.072  16.847  68.811  1.00  0.00    -0.295 C  
BRANCH  14  15
HETATM   15  C   UNL     1     -10.583  18.067  68.050  1.00  0.00    -0.361 C  
HETATM   16  C   UNL     1     -10.021  18.113  66.613  1.00  0.00    -0.363 C  
HETATM   17  C   UNL     1     -10.432  16.893  65.784  1.00  0.00    -0.279 C  
HETATM   18  C   UNL     1     -10.461  19.390  65.899  1.00  0.00    -0.561 C  
ENDBRANCH  14  15
ENDBRANCH  13  14
ENDBRANCH  11  13
ENDBRANCH  10  11
ENDBRANCH   6   9
ENDBRANCH   2   3
TORSDOF 6
ENDMDL
MODEL       40
REMARK 921   NORMALIZED FREE ENERGY PREDICTED BY IDOCK:   -4.91 KCAL/MOL
REMARK 922        TOTAL FREE ENERGY PREDICTED BY IDOCK:   -7.41 KCAL/MOL
REMARK 923 INTER-LIGAND FREE ENERGY PREDICTED BY IDOCK:   -6.72 KCAL/MOL
REMARK 924 INTRA-LIGAND FREE ENERGY PREDICTED BY IDOCK:   -0.69 KCAL/MOL
REMARK 927      BINDING AFFINITY PREDICTED BY RF-SCORE:    0.00 PKD
ROOT
HETATM    1  C   UNL     1      -6.677  19.972  68.424  1.00  0.00    -0.301 C  
HETATM    2  O   UNL     1      -7.855  19.312  68.878  1.00  0.00    -0.351 OA 
ENDROOT
BRANCH   2   3
HETATM    3  C   UNL     1      -8.439  18.481  67.961  1.00  0.00    -0.283 A  
HETATM    4  C   UNL     1      -9.829  18.545  67.876  1.00  0.00    -0.352 A  
HETATM    5  C   UNL     1     -10.522  17.715  66.988  1.00  0.00    -0.305 A  
HETATM    6  C   UNL     1      -9.833  16.835  66.148  1.00  0.00    -0.330 A  
HETATM    7  C   UNL     1      -8.432  16.801  66.220  1.00  0.00    -0.342 A  
HETATM    8  C   UNL     1      -7.739  17.624  67.113  1.00  0.00    -0.228 A  
BRANCH   6   9
HETATM    9  C   UNL     1     -10.584  15.899  65.305  1.00  0.00    -0.441 C  
HETATM   10  C   UNL     1     -11.082  14.734  65.743  1.00  0.00    -0.338 C  
BRANCH  10  11
HETATM   11  C   UNL     1     -12.034  13.965  64.910  1.00  0.00    -0.395 C  
HETATM   12  O   UNL     1     -12.614  14.381  63.922  1.00  0.00    -0.814 OA 
BRANCH  11  13
HETATM   13  O   UNL     1     -12.299  12.816  65.584  1.00  0.00    -0.525 OA 
BRANCH  13  14
HETATM   14  C   UNL     1     -11.265  12.427  66.494  1.00  0.00    -0.319 C  
BRANCH  14  15
HETATM   15  C   UNL     1     -11.796  11.641  67.688  1.00  0.00    -0.216 C  
HETATM   16  C   UNL     1     -11.426  12.323  69.022  1.00  0.00    -0.349 C  
HETATM   17  C   UNL     1     -12.018  13.731  69.143  1.00  0.00    -0.403 C  
HETATM   18  C   UNL     1     -11.879  11.474  70.210  1.00  0.00    -0.431 C  
ENDBRANCH  14  15
ENDBRANCH  13  14
ENDBRANCH  11  13
ENDBRANCH  10  11
ENDBRANCH   6   9
ENDBRANCH   2   3
TORSDOF 6
ENDMDL
MODEL       41
REMARK 921   NORMALIZED FREE ENERGY PREDICTED BY IDOCK:   -4.90 KCAL/MOL
REMARK 922        TOTAL FREE ENERGY PREDICTED BY IDOCK:   -7.41 KCAL/MOL
REMARK 923 INTER-LIGAND FREE ENERGY PREDICTED BY IDOCK:   -6.90 KCAL/MOL
REMARK 924 INTRA-LIGAND FREE ENERGY PREDICTED BY IDOCK:   -0.51 KCAL/MOL
REMARK 927      BINDING AFFINITY PREDICTED BY RF-SCORE:    0.00 PKD
ROOT
HETATM    1  C   UNL     1      -9.496  11.117  62.842  1.00  0.00    -0.359 C  
HETATM    2  O   UNL     1     -10.546  11.926  63.364  1.00  0.00    -0.407 OA 
ENDROOT
BRANCH   2   3
HETATM    3  C   UNL     1     -10.785  11.765  64.702  1.00  0.00    -0.310 A  
HETATM    4  C   UNL     1     -10.170  10.671  65.306  1.00  0.00    -0.351 A  
HETATM    5  C   UNL     1     -10.374  10.405  66.664  1.00  0.00    -0.292 A  
HETATM    6  C   UNL     1     -11.171  11.249  67.445  1.00  0.00    -0.370 A  
HETATM    7  C   UNL     1     -11.760  12.366  66.833  1.00  0.00    -0.432 A  
HETATM    8  C   UNL     1     -11.563  12.628  65.474  1.00  0.00    -0.409 A  
BRANCH   6   9
HETATM    9  C   UNL     1     -11.459  10.891  68.838  1.00  0.00    -0.369 C  
HETATM   10  C   UNL     1     -11.966  11.745  69.738  1.00  0.00    -0.392 C  
BRANCH  10  11
HETATM   11  C   UNL     1     -12.459  11.253  71.043  1.00  0.00    -0.400 C  
HETATM   12  O   UNL     1     -13.196  11.859  71.802  1.00  0.00    -0.454 OA 
BRANCH  11  13
HETATM   13  O   UNL     1     -11.760  10.122  71.322  1.00  0.00    -0.366 OA 
BRANCH  13  14
HETATM   14  C   UNL     1     -12.534   9.108  71.971  1.00  0.00    -0.382 C  
BRANCH  14  15
HETATM   15  C   UNL     1     -11.673   7.999  72.566  1.00  0.00    -0.446 C  
HETATM   16  C   UNL     1     -11.968   6.637  71.905  1.00  0.00    -0.386 C  
HETATM   17  C   UNL     1     -11.676   6.640  70.402  1.00  0.00    -0.446 C  
HETATM   18  C   UNL     1     -11.170   5.521  72.579  1.00  0.00    -0.330 C  
ENDBRANCH  14  15
ENDBRANCH  13  14
ENDBRANCH  11  13
ENDBRANCH  10  11
ENDBRANCH   6   9
ENDBRANCH   2   3
TORSDOF 6
ENDMDL
MODEL       42
REMARK 921   NORMALIZED FREE ENERGY PREDICTED BY IDOCK:   -4.90 KCAL/MOL
REMARK 922        TOTAL FREE ENERGY PREDICTED BY IDOCK:   -7.40 KCAL/MOL
REMARK 923 INTER-LIGAND FREE ENERGY PREDICTED BY IDOCK:   -6.89 KCAL/MOL
REMARK 924 INTRA-LIGAND FREE ENERGY PREDICTED BY IDOCK:   -0.51 KCAL/MOL
REMARK 927      BINDING AFFINITY PREDICTED BY RF-SCORE:    0.00 PKD
ROOT
HETATM    1  C   UNL     1      -9.178   9.968  62.895  1.00  0.00    -0.288 C  
HETATM    2  O   UNL     1     -10.007  11.065  62.521  1.00  0.00    -0.126 OA 
ENDROOT
BRANCH   2   3
HETATM    3  C   UNL     1     -10.558  11.753  63.568  1.00  0.00    -0.440 A  
HETATM    4  C   UNL     1      -9.926  11.601  64.801  1.00  0.00    -0.292 A  
HETATM    5  C   UNL     1     -10.429  12.241  65.938  1.00  0.00    -0.288 A  
HETATM    6  C   UNL     1     -11.552  13.070  65.852  1.00  0.00    -0.405 A  
HETATM    7  C   UNL     1     -12.162  13.242  64.600  1.00  0.00    -0.460 A  
HETATM    8  C   UNL     1     -11.665  12.595  63.464  1.00  0.00    -0.604 A  
BRANCH   6   9
HETATM    9  C   UNL     1     -12.125  13.644  67.074  1.00  0.00    -0.423 C  
HETATM   10  C   UNL     1     -11.424  13.867  68.194  1.00  0.00    -0.346 C  
BRANCH  10  11
HETATM   11  C   UNL     1     -12.003  14.671  69.294  1.00  0.00    -0.302 C  
HETATM   12  O   UNL     1     -12.560  14.227  70.284  1.00  0.00    -0.348 OA 
BRANCH  11  13
HETATM   13  O   UNL     1     -11.995  15.963  68.877  1.00  0.00    -0.370 OA 
BRANCH  13  14
HETATM   14  C   UNL     1     -10.683  16.510  68.712  1.00  0.00    -0.339 C  
BRANCH  14  15
HETATM   15  C   UNL     1     -10.530  17.295  67.414  1.00  0.00    -0.338 C  
HETATM   16  C   UNL     1     -10.551  18.817  67.667  1.00  0.00    -0.481 C  
HETATM   17  C   UNL     1      -9.407  19.275  68.576  1.00  0.00    -0.443 C  
HETATM   18  C   UNL     1     -10.497  19.588  66.348  1.00  0.00    -0.597 C  
ENDBRANCH  14  15
ENDBRANCH  13  14
ENDBRANCH  11  13
ENDBRANCH  10  11
ENDBRANCH   6   9
ENDBRANCH   2   3
TORSDOF 6
ENDMDL
MODEL       43
REMARK 921   NORMALIZED FREE ENERGY PREDICTED BY IDOCK:   -4.90 KCAL/MOL
REMARK 922        TOTAL FREE ENERGY PREDICTED BY IDOCK:   -7.40 KCAL/MOL
REMARK 923 INTER-LIGAND FREE ENERGY PREDICTED BY IDOCK:   -6.98 KCAL/MOL
REMARK 924 INTRA-LIGAND FREE ENERGY PREDICTED BY IDOCK:   -0.42 KCAL/MOL
REMARK 927      BINDING AFFINITY PREDICTED BY RF-SCORE:    0.00 PKD
ROOT
HETATM    1  C   UNL     1     -11.379   6.809  72.348  1.00  0.00    -0.268 C  
HETATM    2  O   UNL     1     -11.828   8.112  72.711  1.00  0.00    -0.389 OA 
ENDROOT
BRANCH   2   3
HETATM    3  C   UNL     1     -11.654   9.070  71.749  1.00  0.00    -0.374 A  
HETATM    4  C   UNL     1     -12.696   9.984  71.602  1.00  0.00    -0.535 A  
HETATM    5  C   UNL     1     -12.626  10.985  70.627  1.00  0.00    -0.427 A  
HETATM    6  C   UNL     1     -11.498  11.107  69.809  1.00  0.00    -0.388 A  
HETATM    7  C   UNL     1     -10.442  10.200  69.987  1.00  0.00    -0.325 A  
HETATM    8  C   UNL     1     -10.515   9.194  70.956  1.00  0.00    -0.368 A  
BRANCH   6   9
HETATM    9  C   UNL     1     -11.493  12.093  68.724  1.00  0.00    -0.359 C  
HETATM   10  C   UNL     1     -11.487  11.771  67.423  1.00  0.00    -0.375 C  
BRANCH  10  11
HETATM   11  C   UNL     1     -11.731  12.806  66.393  1.00  0.00    -0.403 C  
HETATM   12  O   UNL     1     -12.630  12.795  65.570  1.00  0.00    -0.611 OA 
BRANCH  11  13
HETATM   13  O   UNL     1     -10.647  13.625  66.400  1.00  0.00    -0.279 OA 
BRANCH  13  14
HETATM   14  C   UNL     1     -10.335  14.182  65.119  1.00  0.00    -0.405 C  
BRANCH  14  15
HETATM   15  C   UNL     1     -10.674  15.666  65.024  1.00  0.00    -0.458 C  
HETATM   16  C   UNL     1     -10.029  16.469  66.173  1.00  0.00    -0.363 C  
HETATM   17  C   UNL     1      -8.501  16.382  66.161  1.00  0.00    -0.329 C  
HETATM   18  C   UNL     1     -10.460  17.935  66.119  1.00  0.00    -0.321 C  
ENDBRANCH  14  15
ENDBRANCH  13  14
ENDBRANCH  11  13
ENDBRANCH  10  11
ENDBRANCH   6   9
ENDBRANCH   2   3
TORSDOF 6
ENDMDL
MODEL       44
REMARK 921   NORMALIZED FREE ENERGY PREDICTED BY IDOCK:   -4.86 KCAL/MOL
REMARK 922        TOTAL FREE ENERGY PREDICTED BY IDOCK:   -7.35 KCAL/MOL
REMARK 923 INTER-LIGAND FREE ENERGY PREDICTED BY IDOCK:   -6.71 KCAL/MOL
REMARK 924 INTRA-LIGAND FREE ENERGY PREDICTED BY IDOCK:   -0.64 KCAL/MOL
REMARK 927      BINDING AFFINITY PREDICTED BY RF-SCORE:    0.00 PKD
ROOT
HETATM    1  C   UNL     1      -9.614   9.040  69.422  1.00  0.00    -0.160 C  
HETATM    2  O   UNL     1     -10.975   9.425  69.250  1.00  0.00    -0.208 OA 
ENDROOT
BRANCH   2   3
HETATM    3  C   UNL     1     -11.166  10.531  68.466  1.00  0.00    -0.274 A  
HETATM    4  C   UNL     1     -11.569  11.688  69.129  1.00  0.00    -0.378 A  
HETATM    5  C   UNL     1     -11.818  12.864  68.414  1.00  0.00    -0.357 A  
HETATM    6  C   UNL     1     -11.633  12.909  67.028  1.00  0.00    -0.419 A  
HETATM    7  C   UNL     1     -11.196  11.746  66.375  1.00  0.00    -0.382 A  
HETATM    8  C   UNL     1     -10.956  10.568  67.088  1.00  0.00    -0.294 A  
BRANCH   6   9
HETATM    9  C   UNL     1     -12.002  14.118  66.286  1.00  0.00    -0.448 C  
HETATM   10  C   UNL     1     -11.127  14.875  65.609  1.00  0.00    -0.348 C  
BRANCH  10  11
HETATM   11  C   UNL     1     -11.603  15.930  64.687  1.00  0.00    -0.200 C  
HETATM   12  O   UNL     1     -12.364  15.765  63.748  1.00  0.00    -0.698 OA 
BRANCH  11  13
HETATM   13  O   UNL     1     -10.862  17.038  64.947  1.00  0.00    -0.717 OA 
BRANCH  13  14
HETATM   14  C   UNL     1      -9.763  16.803  65.834  1.00  0.00    -0.217 C  
BRANCH  14  15
HETATM   15  C   UNL     1      -9.318  18.065  66.566  1.00  0.00    -0.294 C  
HETATM   16  C   UNL     1     -10.367  18.516  67.604  1.00  0.00    -0.442 C  
HETATM   17  C   UNL     1     -10.611  17.461  68.687  1.00  0.00    -0.318 C  
HETATM   18  C   UNL     1      -9.952  19.834  68.258  1.00  0.00    -0.557 C  
ENDBRANCH  14  15
ENDBRANCH  13  14
ENDBRANCH  11  13
ENDBRANCH  10  11
ENDBRANCH   6   9
ENDBRANCH   2   3
TORSDOF 6
ENDMDL
MODEL       45
REMARK 921   NORMALIZED FREE ENERGY PREDICTED BY IDOCK:   -4.85 KCAL/MOL
REMARK 922        TOTAL FREE ENERGY PREDICTED BY IDOCK:   -7.33 KCAL/MOL
REMARK 923 INTER-LIGAND FREE ENERGY PREDICTED BY IDOCK:   -6.80 KCAL/MOL
REMARK 924 INTRA-LIGAND FREE ENERGY PREDICTED BY IDOCK:   -0.54 KCAL/MOL
REMARK 927      BINDING AFFINITY PREDICTED BY RF-SCORE:    0.00 PKD
ROOT
HETATM    1  C   UNL     1     -12.678   8.918  72.027  1.00  0.00    -0.394 C  
HETATM    2  O   UNL     1     -13.400  10.131  72.221  1.00  0.00    -0.415 OA 
ENDROOT
BRANCH   2   3
HETATM    3  C   UNL     1     -12.936  11.199  71.503  1.00  0.00    -0.437 A  
HETATM    4  C   UNL     1     -13.299  12.459  71.976  1.00  0.00    -0.511 A  
HETATM    5  C   UNL     1     -12.897  13.613  71.296  1.00  0.00    -0.424 A  
HETATM    6  C   UNL     1     -12.097  13.526  70.152  1.00  0.00    -0.425 A  
HETATM    7  C   UNL     1     -11.711  12.254  69.703  1.00  0.00    -0.386 A  
HETATM    8  C   UNL     1     -12.120  11.099  70.377  1.00  0.00    -0.475 A  
BRANCH   6   9
HETATM    9  C   UNL     1     -11.778  14.740  69.395  1.00  0.00    -0.358 C  
HETATM   10  C   UNL     1     -10.679  14.883  68.642  1.00  0.00    -0.250 C  
BRANCH  10  11
HETATM   11  C   UNL     1     -10.548  16.031  67.717  1.00  0.00    -0.309 C  
HETATM   12  O   UNL     1     -10.068  15.993  66.597  1.00  0.00    -0.260 OA 
BRANCH  11  13
HETATM   13  O   UNL     1     -10.845  17.145  68.435  1.00  0.00    -0.367 OA 
BRANCH  13  14
HETATM   14  C   UNL     1     -10.688  18.365  67.703  1.00  0.00    -0.357 C  
BRANCH  14  15
HETATM   15  C   UNL     1      -9.693  19.319  68.354  1.00  0.00    -0.474 C  
HETATM   16  C   UNL     1      -8.236  18.901  68.066  1.00  0.00    -0.323 C  
HETATM   17  C   UNL     1      -7.910  18.906  66.570  1.00  0.00    -0.280 C  
HETATM   18  C   UNL     1      -7.253  19.807  68.807  1.00  0.00    -0.352 C  
ENDBRANCH  14  15
ENDBRANCH  13  14
ENDBRANCH  11  13
ENDBRANCH  10  11
ENDBRANCH   6   9
ENDBRANCH   2   3
TORSDOF 6
ENDMDL
MODEL       46
REMARK 921   NORMALIZED FREE ENERGY PREDICTED BY IDOCK:   -4.83 KCAL/MOL
REMARK 922        TOTAL FREE ENERGY PREDICTED BY IDOCK:   -7.31 KCAL/MOL
REMARK 923 INTER-LIGAND FREE ENERGY PREDICTED BY IDOCK:   -6.36 KCAL/MOL
REMARK 924 INTRA-LIGAND FREE ENERGY PREDICTED BY IDOCK:   -0.95 KCAL/MOL
REMARK 927      BINDING AFFINITY PREDICTED BY RF-SCORE:    0.00 PKD
ROOT
HETATM    1  C   UNL     1     -10.222   7.610  73.175  1.00  0.00    -0.342 C  
HETATM    2  O   UNL     1     -11.520   8.072  72.810  1.00  0.00    -0.402 OA 
ENDROOT
BRANCH   2   3
HETATM    3  C   UNL     1     -11.535   9.043  71.845  1.00  0.00    -0.370 A  
HETATM    4  C   UNL     1     -12.658   9.867  71.824  1.00  0.00    -0.506 A  
HETATM    5  C   UNL     1     -12.782  10.872  70.859  1.00  0.00    -0.464 A  
HETATM    6  C   UNL     1     -11.767  11.088  69.922  1.00  0.00    -0.424 A  
HETATM    7  C   UNL     1     -10.625  10.274  69.972  1.00  0.00    -0.321 A  
HETATM    8  C   UNL     1     -10.505   9.263  70.931  1.00  0.00    -0.372 A  
BRANCH   6   9
HETATM    9  C   UNL     1     -11.964  12.073  68.853  1.00  0.00    -0.303 C  
HETATM   10  C   UNL     1     -11.652  11.853  67.568  1.00  0.00    -0.374 C  
BRANCH  10  11
HETATM   11  C   UNL     1     -12.105  12.790  66.516  1.00  0.00    -0.268 C  
HETATM   12  O   UNL     1     -12.429  12.484  65.381  1.00  0.00    -0.630 OA 
BRANCH  11  13
HETATM   13  O   UNL     1     -11.870  14.044  66.984  1.00  0.00    -0.383 OA 
BRANCH  13  14
HETATM   14  C   UNL     1     -10.819  14.730  66.296  1.00  0.00    -0.322 C  
BRANCH  14  15
HETATM   15  C   UNL     1      -9.930  15.538  67.235  1.00  0.00    -0.238 C  
HETATM   16  C   UNL     1      -9.249  14.637  68.285  1.00  0.00    -0.198 C  
HETATM   17  C   UNL     1      -8.342  13.579  67.649  1.00  0.00    -0.179 C  
HETATM   18  C   UNL     1      -8.441  15.473  69.278  1.00  0.00    -0.265 C  
ENDBRANCH  14  15
ENDBRANCH  13  14
ENDBRANCH  11  13
ENDBRANCH  10  11
ENDBRANCH   6   9
ENDBRANCH   2   3
TORSDOF 6
ENDMDL
MODEL       47
REMARK 921   NORMALIZED FREE ENERGY PREDICTED BY IDOCK:   -4.82 KCAL/MOL
REMARK 922        TOTAL FREE ENERGY PREDICTED BY IDOCK:   -7.30 KCAL/MOL
REMARK 923 INTER-LIGAND FREE ENERGY PREDICTED BY IDOCK:   -6.43 KCAL/MOL
REMARK 924 INTRA-LIGAND FREE ENERGY PREDICTED BY IDOCK:   -0.86 KCAL/MOL
REMARK 927      BINDING AFFINITY PREDICTED BY RF-SCORE:    0.00 PKD
ROOT
HETATM    1  C   UNL     1     -13.795  15.351  72.521  1.00  0.00    -0.553 C  
HETATM    2  O   UNL     1     -13.692  13.976  72.880  1.00  0.00    -0.677 OA 
ENDROOT
BRANCH   2   3
HETATM    3  C   UNL     1     -13.117  13.175  71.931  1.00  0.00    -0.385 A  
HETATM    4  C   UNL     1     -12.489  13.831  70.874  1.00  0.00    -0.451 A  
HETATM    5  C   UNL     1     -11.896  13.101  69.839  1.00  0.00    -0.378 A  
HETATM    6  C   UNL     1     -11.893  11.703  69.863  1.00  0.00    -0.434 A  
HETATM    7  C   UNL     1     -12.501  11.052  70.948  1.00  0.00    -0.509 A  
HETATM    8  C   UNL     1     -13.102  11.781  71.979  1.00  0.00    -0.436 A  
BRANCH   6   9
HETATM    9  C   UNL     1     -11.362  10.959  68.717  1.00  0.00    -0.357 C  
HETATM   10  C   UNL     1     -10.256  10.203  68.765  1.00  0.00    -0.200 C  
BRANCH  10  11
HETATM   11  C   UNL     1      -9.922   9.291  67.648  1.00  0.00    -0.196 C  
HETATM   12  O   UNL     1      -9.387   9.613  66.601  1.00  0.00    -0.146 OA 
BRANCH  11  13
HETATM   13  O   UNL     1     -10.524   8.104  67.922  1.00  0.00    -0.222 OA 
BRANCH  13  14
HETATM   14  C   UNL     1     -10.035   7.467  69.107  1.00  0.00    -0.179 C  
BRANCH  14  15
HETATM   15  C   UNL     1     -11.144   6.823  69.931  1.00  0.00    -0.374 C  
HETATM   16  C   UNL     1     -10.797   6.809  71.434  1.00  0.00    -0.269 C  
HETATM   17  C   UNL     1     -10.609   8.217  72.005  1.00  0.00    -0.365 C  
HETATM   18  C   UNL     1     -11.872   6.072  72.233  1.00  0.00    -0.305 C  
ENDBRANCH  14  15
ENDBRANCH  13  14
ENDBRANCH  11  13
ENDBRANCH  10  11
ENDBRANCH   6   9
ENDBRANCH   2   3
TORSDOF 6
ENDMDL
MODEL       48
REMARK 921   NORMALIZED FREE ENERGY PREDICTED BY IDOCK:   -4.82 KCAL/MOL
REMARK 922        TOTAL FREE ENERGY PREDICTED BY IDOCK:   -7.29 KCAL/MOL
REMARK 923 INTER-LIGAND FREE ENERGY PREDICTED BY IDOCK:   -6.83 KCAL/MOL
REMARK 924 INTRA-LIGAND FREE ENERGY PREDICTED BY IDOCK:   -0.46 KCAL/MOL
REMARK 927      BINDING AFFINITY PREDICTED BY RF-SCORE:    0.00 PKD
ROOT
HETATM    1  C   UNL     1      -9.789   9.320  69.286  1.00  0.00    -0.172 C  
HETATM    2  O   UNL     1     -11.157   9.718  69.236  1.00  0.00    -0.219 OA 
ENDROOT
BRANCH   2   3
HETATM    3  C   UNL     1     -11.381  10.935  68.653  1.00  0.00    -0.295 A  
HETATM    4  C   UNL     1     -11.142  11.010  67.282  1.00  0.00    -0.359 A  
HETATM    5  C   UNL     1     -11.316  12.218  66.598  1.00  0.00    -0.398 A  
HETATM    6  C   UNL     1     -11.763  13.360  67.270  1.00  0.00    -0.424 A  
HETATM    7  C   UNL     1     -12.031  13.266  68.644  1.00  0.00    -0.345 A  
HETATM    8  C   UNL     1     -11.850  12.061  69.330  1.00  0.00    -0.384 A  
BRANCH   6   9
HETATM    9  C   UNL     1     -11.834  14.640  66.557  1.00  0.00    -0.317 C  
HETATM   10  C   UNL     1     -10.762  15.288  66.079  1.00  0.00    -0.324 C  
BRANCH  10  11
HETATM   11  C   UNL     1     -10.929  16.438  65.162  1.00  0.00    -0.232 C  
HETATM   12  O   UNL     1     -11.589  16.442  64.137  1.00  0.00    -0.962 OA 
BRANCH  11  13
HETATM   13  O   UNL     1     -10.038  17.383  65.558  1.00  0.00    -0.579 OA 
BRANCH  13  14
HETATM   14  C   UNL     1     -10.644  18.616  65.960  1.00  0.00    -0.365 C  
BRANCH  14  15
HETATM   15  C   UNL     1     -10.157  19.096  67.323  1.00  0.00    -0.462 C  
HETATM   16  C   UNL     1      -8.619  19.028  67.430  1.00  0.00    -0.301 C  
HETATM   17  C   UNL     1      -7.921  19.915  66.395  1.00  0.00    -0.345 C  
HETATM   18  C   UNL     1      -8.154  19.417  68.834  1.00  0.00    -0.344 C  
ENDBRANCH  14  15
ENDBRANCH  13  14
ENDBRANCH  11  13
ENDBRANCH  10  11
ENDBRANCH   6   9
ENDBRANCH   2   3
TORSDOF 6
ENDMDL
MODEL       49
REMARK 921   NORMALIZED FREE ENERGY PREDICTED BY IDOCK:   -4.81 KCAL/MOL
REMARK 922        TOTAL FREE ENERGY PREDICTED BY IDOCK:   -7.28 KCAL/MOL
REMARK 923 INTER-LIGAND FREE ENERGY PREDICTED BY IDOCK:   -6.43 KCAL/MOL
REMARK 924 INTRA-LIGAND FREE ENERGY PREDICTED BY IDOCK:   -0.85 KCAL/MOL
REMARK 927      BINDING AFFINITY PREDICTED BY RF-SCORE:    0.00 PKD
ROOT
HETATM    1  C   UNL     1     -10.242  15.129  66.387  1.00  0.00    -0.281 C  
HETATM    2  O   UNL     1     -11.258  14.132  66.327  1.00  0.00    -0.317 OA 
ENDROOT
BRANCH   2   3
HETATM    3  C   UNL     1     -11.509  13.492  67.510  1.00  0.00    -0.329 A  
HETATM    4  C   UNL     1     -11.434  12.101  67.482  1.00  0.00    -0.410 A  
HETATM    5  C   UNL     1     -11.700  11.354  68.634  1.00  0.00    -0.394 A  
HETATM    6  C   UNL     1     -12.012  11.990  69.840  1.00  0.00    -0.391 A  
HETATM    7  C   UNL     1     -12.054  13.392  69.865  1.00  0.00    -0.389 A  
HETATM    8  C   UNL     1     -11.796  14.139  68.712  1.00  0.00    -0.384 A  
BRANCH   6   9
HETATM    9  C   UNL     1     -12.393  11.186  71.006  1.00  0.00    -0.487 C  
HETATM   10  C   UNL     1     -13.217  10.131  70.948  1.00  0.00    -0.360 C  
BRANCH  10  11
HETATM   11  C   UNL     1     -13.358   9.225  72.110  1.00  0.00    -0.468 C  
HETATM   12  O   UNL     1     -14.395   8.985  72.705  1.00  0.00    -0.596 OA 
BRANCH  11  13
HETATM   13  O   UNL     1     -12.100   8.908  72.511  1.00  0.00    -0.325 OA 
BRANCH  13  14
HETATM   14  C   UNL     1     -11.544   7.777  71.832  1.00  0.00    -0.287 C  
BRANCH  14  15
HETATM   15  C   UNL     1     -10.493   8.169  70.798  1.00  0.00    -0.223 C  
HETATM   16  C   UNL     1      -9.398   9.064  71.416  1.00  0.00    -0.310 C  
HETATM   17  C   UNL     1      -8.639   8.363  72.547  1.00  0.00    -0.253 C  
HETATM   18  C   UNL     1      -8.409   9.528  70.348  1.00  0.00    -0.226 C  
ENDBRANCH  14  15
ENDBRANCH  13  14
ENDBRANCH  11  13
ENDBRANCH  10  11
ENDBRANCH   6   9
ENDBRANCH   2   3
TORSDOF 6
ENDMDL
MODEL       50
REMARK 921   NORMALIZED FREE ENERGY PREDICTED BY IDOCK:   -4.80 KCAL/MOL
REMARK 922        TOTAL FREE ENERGY PREDICTED BY IDOCK:   -7.27 KCAL/MOL
REMARK 923 INTER-LIGAND FREE ENERGY PREDICTED BY IDOCK:   -6.83 KCAL/MOL
REMARK 924 INTRA-LIGAND FREE ENERGY PREDICTED BY IDOCK:   -0.44 KCAL/MOL
REMARK 927      BINDING AFFINITY PREDICTED BY RF-SCORE:    0.00 PKD
ROOT
HETATM    1  C   UNL     1      -6.410  20.833  68.081  1.00  0.00    -0.313 C  
HETATM    2  O   UNL     1      -7.461  20.882  67.120  1.00  0.00    -0.339 OA 
ENDROOT
BRANCH   2   3
HETATM    3  C   UNL     1      -8.331  19.826  67.164  1.00  0.00    -0.315 A  
HETATM    4  C   UNL     1      -7.859  18.622  66.644  1.00  0.00    -0.271 A  
HETATM    5  C   UNL     1      -8.681  17.491  66.618  1.00  0.00    -0.288 A  
HETATM    6  C   UNL     1      -9.977  17.539  67.142  1.00  0.00    -0.314 A  
HETATM    7  C   UNL     1     -10.431  18.747  67.691  1.00  0.00    -0.495 A  
HETATM    8  C   UNL     1      -9.613  19.881  67.710  1.00  0.00    -0.496 A  
BRANCH   6   9
HETATM    9  C   UNL     1     -10.857  16.374  67.006  1.00  0.00    -0.145 C  
HETATM   10  C   UNL     1     -10.722  15.249  67.722  1.00  0.00    -0.286 C  
BRANCH  10  11
HETATM   11  C   UNL     1     -11.787  14.221  67.710  1.00  0.00    -0.379 C  
HETATM   12  O   UNL     1     -12.492  13.935  66.757  1.00  0.00    -0.381 OA 
BRANCH  11  13
HETATM   13  O   UNL     1     -11.970  13.836  69.000  1.00  0.00    -0.334 OA 
BRANCH  13  14
HETATM   14  C   UNL     1     -12.534  14.855  69.832  1.00  0.00    -0.232 C  
BRANCH  14  15
HETATM   15  C   UNL     1     -12.097  14.735  71.288  1.00  0.00    -0.399 C  
HETATM   16  C   UNL     1     -12.894  15.693  72.199  1.00  0.00    -0.517 C  
HETATM   17  C   UNL     1     -14.398  15.401  72.181  1.00  0.00    -0.642 C  
HETATM   18  C   UNL     1     -12.378  15.632  73.636  1.00  0.00    -0.692 C  
ENDBRANCH  14  15
ENDBRANCH  13  14
ENDBRANCH  11  13
ENDBRANCH  10  11
ENDBRANCH   6   9
ENDBRANCH   2   3
TORSDOF 6
ENDMDL
MODEL       51
REMARK 921   NORMALIZED FREE ENERGY PREDICTED BY IDOCK:   -4.80 KCAL/MOL
REMARK 922        TOTAL FREE ENERGY PREDICTED BY IDOCK:   -7.26 KCAL/MOL
REMARK 923 INTER-LIGAND FREE ENERGY PREDICTED BY IDOCK:   -6.81 KCAL/MOL
REMARK 924 INTRA-LIGAND FREE ENERGY PREDICTED BY IDOCK:   -0.46 KCAL/MOL
REMARK 927      BINDING AFFINITY PREDICTED BY RF-SCORE:    0.00 PKD
ROOT
HETATM    1  C   UNL     1      -9.812  20.678  67.297  1.00  0.00    -0.388 C  
HETATM    2  O   UNL     1      -9.276  19.726  68.211  1.00  0.00    -0.340 OA 
ENDROOT
BRANCH   2   3
HETATM    3  C   UNL     1      -9.634  18.428  67.967  1.00  0.00    -0.298 A  
HETATM    4  C   UNL     1      -9.153  17.873  66.783  1.00  0.00    -0.276 A  
HETATM    5  C   UNL     1      -9.486  16.561  66.429  1.00  0.00    -0.314 A  
HETATM    6  C   UNL     1     -10.276  15.774  67.272  1.00  0.00    -0.268 A  
HETATM    7  C   UNL     1     -10.729  16.332  68.478  1.00  0.00    -0.307 A  
HETATM    8  C   UNL     1     -10.404  17.646  68.828  1.00  0.00    -0.348 A  
BRANCH   6   9
HETATM    9  C   UNL     1     -10.702  14.441  66.832  1.00  0.00    -0.292 C  
HETATM   10  C   UNL     1     -11.221  13.515  67.650  1.00  0.00    -0.304 C  
BRANCH  10  11
HETATM   11  C   UNL     1     -11.852  12.296  67.098  1.00  0.00    -0.258 C  
HETATM   12  O   UNL     1     -12.276  12.164  65.963  1.00  0.00    -0.609 OA 
BRANCH  11  13
HETATM   13  O   UNL     1     -12.069  11.461  68.148  1.00  0.00    -0.623 OA 
BRANCH  13  14
HETATM   14  C   UNL     1     -11.485  11.911  69.375  1.00  0.00    -0.302 C  
BRANCH  14  15
HETATM   15  C   UNL     1     -12.335  11.567  70.593  1.00  0.00    -0.457 C  
HETATM   16  C   UNL     1     -12.342  10.049  70.868  1.00  0.00    -0.438 C  
HETATM   17  C   UNL     1     -10.942   9.501  71.160  1.00  0.00    -0.438 C  
HETATM   18  C   UNL     1     -13.276   9.711  72.030  1.00  0.00    -0.546 C  
ENDBRANCH  14  15
ENDBRANCH  13  14
ENDBRANCH  11  13
ENDBRANCH  10  11
ENDBRANCH   6   9
ENDBRANCH   2   3
TORSDOF 6
ENDMDL
MODEL       52
REMARK 921   NORMALIZED FREE ENERGY PREDICTED BY IDOCK:   -4.73 KCAL/MOL
REMARK 922        TOTAL FREE ENERGY PREDICTED BY IDOCK:   -7.18 KCAL/MOL
REMARK 923 INTER-LIGAND FREE ENERGY PREDICTED BY IDOCK:   -6.62 KCAL/MOL
REMARK 924 INTRA-LIGAND FREE ENERGY PREDICTED BY IDOCK:   -0.56 KCAL/MOL
REMARK 927      BINDING AFFINITY PREDICTED BY RF-SCORE:    0.00 PKD
ROOT
HETATM    1  C   UNL     1     -12.116  16.262  72.558  1.00  0.00    -0.525 C  
HETATM    2  O   UNL     1     -12.430  15.754  71.264  1.00  0.00    -0.418 OA 
ENDROOT
BRANCH   2   3
HETATM    3  C   UNL     1     -12.543  14.392  71.192  1.00  0.00    -0.352 A  
HETATM    4  C   UNL     1     -13.373  13.796  72.139  1.00  0.00    -0.569 A  
HETATM    5  C   UNL     1     -13.533  12.406  72.165  1.00  0.00    -0.481 A  
HETATM    6  C   UNL     1     -12.891  11.596  71.223  1.00  0.00    -0.430 A  
HETATM    7  C   UNL     1     -12.082  12.210  70.254  1.00  0.00    -0.385 A  
HETATM    8  C   UNL     1     -11.915  13.598  70.232  1.00  0.00    -0.397 A  
BRANCH   6   9
HETATM    9  C   UNL     1     -12.986  10.137  71.337  1.00  0.00    -0.528 C  
HETATM   10  C   UNL     1     -11.943   9.341  71.612  1.00  0.00    -0.448 C  
BRANCH  10  11
HETATM   11  C   UNL     1     -12.157   7.917  71.954  1.00  0.00    -0.312 C  
HETATM   12  O   UNL     1     -13.025   7.196  71.492  1.00  0.00    -0.374 OA 
BRANCH  11  13
HETATM   13  O   UNL     1     -11.364   7.650  73.024  1.00  0.00    -0.372 OA 
BRANCH  13  14
HETATM   14  C   UNL     1     -10.465   6.555  72.819  1.00  0.00    -0.215 C  
BRANCH  14  15
HETATM   15  C   UNL     1      -9.199   6.963  72.073  1.00  0.00    -0.146 C  
HETATM   16  C   UNL     1      -8.596   8.260  72.651  1.00  0.00    -0.264 C  
HETATM   17  C   UNL     1      -8.193   8.115  74.121  1.00  0.00    -0.310 C  
HETATM   18  C   UNL     1      -7.386   8.709  71.831  1.00  0.00    -0.092 C  
ENDBRANCH  14  15
ENDBRANCH  13  14
ENDBRANCH  11  13
ENDBRANCH  10  11
ENDBRANCH   6   9
ENDBRANCH   2   3
TORSDOF 6
ENDMDL
MODEL       53
REMARK 921   NORMALIZED FREE ENERGY PREDICTED BY IDOCK:   -4.73 KCAL/MOL
REMARK 922        TOTAL FREE ENERGY PREDICTED BY IDOCK:   -7.17 KCAL/MOL
REMARK 923 INTER-LIGAND FREE ENERGY PREDICTED BY IDOCK:   -6.69 KCAL/MOL
REMARK 924 INTRA-LIGAND FREE ENERGY PREDICTED BY IDOCK:   -0.48 KCAL/MOL
REMARK 927      BINDING AFFINITY PREDICTED BY RF-SCORE:    0.00 PKD
ROOT
HETATM    1  C   UNL     1      -6.279  20.993  67.596  1.00  0.00    -0.347 C  
HETATM    2  O   UNL     1      -7.635  21.231  67.227  1.00  0.00    -0.408 OA 
ENDROOT
BRANCH   2   3
HETATM    3  C   UNL     1      -8.386  20.103  67.038  1.00  0.00    -0.328 A  
HETATM    4  C   UNL     1      -7.784  18.899  67.398  1.00  0.00    -0.247 A  
HETATM    5  C   UNL     1      -8.460  17.688  67.218  1.00  0.00    -0.225 A  
HETATM    6  C   UNL     1      -9.761  17.667  66.706  1.00  0.00    -0.300 A  
HETATM    7  C   UNL     1     -10.370  18.887  66.376  1.00  0.00    -0.503 A  
HETATM    8  C   UNL     1      -9.692  20.098  66.548  1.00  0.00    -0.553 A  
BRANCH   6   9
HETATM    9  C   UNL     1     -10.409  16.381  66.424  1.00  0.00    -0.319 C  
HETATM   10  C   UNL     1     -10.303  15.733  65.256  1.00  0.00    -0.387 C  
BRANCH  10  11
HETATM   11  C   UNL     1     -10.774  14.335  65.129  1.00  0.00    -0.394 C  
HETATM   12  O   UNL     1     -10.477  13.561  64.234  1.00  0.00    -0.414 OA 
BRANCH  11  13
HETATM   13  O   UNL     1     -11.756  14.170  66.052  1.00  0.00    -0.356 OA 
BRANCH  13  14
HETATM   14  C   UNL     1     -11.793  12.861  66.630  1.00  0.00    -0.395 C  
BRANCH  14  15
HETATM   15  C   UNL     1     -11.708  12.885  68.152  1.00  0.00    -0.395 C  
HETATM   16  C   UNL     1     -11.877  11.473  68.751  1.00  0.00    -0.394 C  
HETATM   17  C   UNL     1     -10.789  10.504  68.281  1.00  0.00    -0.293 C  
HETATM   18  C   UNL     1     -11.889  11.528  70.278  1.00  0.00    -0.431 C  
ENDBRANCH  14  15
ENDBRANCH  13  14
ENDBRANCH  11  13
ENDBRANCH  10  11
ENDBRANCH   6   9
ENDBRANCH   2   3
TORSDOF 6
ENDMDL
MODEL       54
REMARK 921   NORMALIZED FREE ENERGY PREDICTED BY IDOCK:   -4.73 KCAL/MOL
REMARK 922        TOTAL FREE ENERGY PREDICTED BY IDOCK:   -7.17 KCAL/MOL
REMARK 923 INTER-LIGAND FREE ENERGY PREDICTED BY IDOCK:   -6.43 KCAL/MOL
REMARK 924 INTRA-LIGAND FREE ENERGY PREDICTED BY IDOCK:   -0.74 KCAL/MOL
REMARK 927      BINDING AFFINITY PREDICTED BY RF-SCORE:    0.00 PKD
ROOT
HETATM    1  C   UNL     1     -14.172  15.258  72.014  1.00  0.00    -0.581 C  
HETATM    2  O   UNL     1     -14.078  13.980  72.636  1.00  0.00    -0.651 OA 
ENDROOT
BRANCH   2   3
HETATM    3  C   UNL     1     -13.391  13.039  71.919  1.00  0.00    -0.446 A  
HETATM    4  C   UNL     1     -12.546  13.526  70.923  1.00  0.00    -0.414 A  
HETATM    5  C   UNL     1     -11.821  12.644  70.115  1.00  0.00    -0.326 A  
HETATM    6  C   UNL     1     -11.903  11.262  70.316  1.00  0.00    -0.446 A  
HETATM    7  C   UNL     1     -12.732  10.784  71.342  1.00  0.00    -0.544 A  
HETATM    8  C   UNL     1     -13.464  11.665  72.144  1.00  0.00    -0.238 A  
BRANCH   6   9
HETATM    9  C   UNL     1     -11.219  10.353  69.390  1.00  0.00    -0.314 C  
HETATM   10  C   UNL     1     -11.361  10.400  68.058  1.00  0.00    -0.277 C  
BRANCH  10  11
HETATM   11  C   UNL     1     -10.457   9.622  67.181  1.00  0.00    -0.249 C  
HETATM   12  O   UNL     1     -10.180   9.892  66.024  1.00  0.00    -0.254 OA 
BRANCH  11  13
HETATM   13  O   UNL     1     -10.193   8.458  67.829  1.00  0.00    -0.198 OA 
BRANCH  13  14
HETATM   14  C   UNL     1     -11.017   7.364  67.412  1.00  0.00    -0.144 C  
BRANCH  14  15
HETATM   15  C   UNL     1     -10.654   6.055  68.105  1.00  0.00    -0.328 C  
HETATM   16  C   UNL     1     -10.572   6.230  69.636  1.00  0.00    -0.323 C  
HETATM   17  C   UNL     1     -11.904   6.677  70.246  1.00  0.00    -0.378 C  
HETATM   18  C   UNL     1     -10.112   4.936  70.307  1.00  0.00    -0.322 C  
ENDBRANCH  14  15
ENDBRANCH  13  14
ENDBRANCH  11  13
ENDBRANCH  10  11
ENDBRANCH   6   9
ENDBRANCH   2   3
TORSDOF 6
ENDMDL
MODEL       55
REMARK 921   NORMALIZED FREE ENERGY PREDICTED BY IDOCK:   -4.73 KCAL/MOL
REMARK 922        TOTAL FREE ENERGY PREDICTED BY IDOCK:   -7.17 KCAL/MOL
REMARK 923 INTER-LIGAND FREE ENERGY PREDICTED BY IDOCK:   -6.72 KCAL/MOL
REMARK 924 INTRA-LIGAND FREE ENERGY PREDICTED BY IDOCK:   -0.45 KCAL/MOL
REMARK 927      BINDING AFFINITY PREDICTED BY RF-SCORE:    0.00 PKD
ROOT
HETATM    1  C   UNL     1     -11.320  15.996  70.815  1.00  0.00    -0.398 C  
HETATM    2  O   UNL     1     -12.565  15.369  70.518  1.00  0.00    -0.394 OA 
ENDROOT
BRANCH   2   3
HETATM    3  C   UNL     1     -12.592  14.017  70.725  1.00  0.00    -0.360 A  
HETATM    4  C   UNL     1     -13.269  13.586  71.864  1.00  0.00    -0.510 A  
HETATM    5  C   UNL     1     -13.330  12.224  72.179  1.00  0.00    -0.473 A  
HETATM    6  C   UNL     1     -12.744  11.271  71.340  1.00  0.00    -0.501 A  
HETATM    7  C   UNL     1     -12.092  11.714  70.179  1.00  0.00    -0.414 A  
HETATM    8  C   UNL     1     -12.023  13.075  69.868  1.00  0.00    -0.381 A  
BRANCH   6   9
HETATM    9  C   UNL     1     -12.726   9.862  71.745  1.00  0.00    -0.523 C  
HETATM   10  C   UNL     1     -11.647   9.072  71.651  1.00  0.00    -0.426 C  
BRANCH  10  11
HETATM   11  C   UNL     1     -11.631   7.743  72.303  1.00  0.00    -0.338 C  
HETATM   12  O   UNL     1     -11.022   7.455  73.319  1.00  0.00    -0.376 OA 
BRANCH  11  13
HETATM   13  O   UNL     1     -12.225   6.879  71.439  1.00  0.00    -0.335 OA 
BRANCH  13  14
HETATM   14  C   UNL     1     -11.452   6.615  70.263  1.00  0.00    -0.391 C  
BRANCH  14  15
HETATM   15  C   UNL     1     -10.431   5.501  70.467  1.00  0.00    -0.347 C  
HETATM   16  C   UNL     1      -9.892   4.974  69.121  1.00  0.00    -0.262 C  
HETATM   17  C   UNL     1      -9.178   6.061  68.312  1.00  0.00    -0.117 C  
HETATM   18  C   UNL     1      -8.946   3.793  69.339  1.00  0.00    -0.175 C  
ENDBRANCH  14  15
ENDBRANCH  13  14
ENDBRANCH  11  13
ENDBRANCH  10  11
ENDBRANCH   6   9
ENDBRANCH   2   3
TORSDOF 6
ENDMDL
MODEL       56
REMARK 921   NORMALIZED FREE ENERGY PREDICTED BY IDOCK:   -4.70 KCAL/MOL
REMARK 922        TOTAL FREE ENERGY PREDICTED BY IDOCK:   -7.13 KCAL/MOL
REMARK 923 INTER-LIGAND FREE ENERGY PREDICTED BY IDOCK:   -6.16 KCAL/MOL
REMARK 924 INTRA-LIGAND FREE ENERGY PREDICTED BY IDOCK:   -0.97 KCAL/MOL
REMARK 927      BINDING AFFINITY PREDICTED BY RF-SCORE:    0.00 PKD
ROOT
HETATM    1  C   UNL     1     -11.428   9.799  70.771  1.00  0.00    -0.342 C  
HETATM    2  O   UNL     1     -12.119  11.024  71.002  1.00  0.00    -0.340 OA 
ENDROOT
BRANCH   2   3
HETATM    3  C   UNL     1     -12.016  11.942  69.992  1.00  0.00    -0.332 A  
HETATM    4  C   UNL     1     -11.850  11.425  68.709  1.00  0.00    -0.388 A  
HETATM    5  C   UNL     1     -11.707  12.282  67.613  1.00  0.00    -0.403 A  
HETATM    6  C   UNL     1     -11.761  13.669  67.780  1.00  0.00    -0.397 A  
HETATM    7  C   UNL     1     -11.960  14.179  69.072  1.00  0.00    -0.376 A  
HETATM    8  C   UNL     1     -12.095  13.323  70.170  1.00  0.00    -0.403 A  
BRANCH   6   9
HETATM    9  C   UNL     1     -11.501  14.548  66.636  1.00  0.00    -0.373 C  
HETATM   10  C   UNL     1     -10.873  15.729  66.730  1.00  0.00    -0.254 C  
BRANCH  10  11
HETATM   11  C   UNL     1     -10.428  16.441  65.511  1.00  0.00    -0.330 C  
HETATM   12  O   UNL     1     -11.105  16.645  64.517  1.00  0.00    -0.886 OA 
BRANCH  11  13
HETATM   13  O   UNL     1      -9.086  16.609  65.627  1.00  0.00    -0.477 OA 
BRANCH  13  14
HETATM   14  C   UNL     1      -8.631  16.718  66.980  1.00  0.00    -0.209 C  
BRANCH  14  15
HETATM   15  C   UNL     1      -7.199  16.226  67.162  1.00  0.00    -0.243 C  
HETATM   16  C   UNL     1      -7.128  15.048  68.156  1.00  0.00    -0.126 C  
HETATM   17  C   UNL     1      -7.936  13.835  67.685  1.00  0.00    -0.179 C  
HETATM   18  C   UNL     1      -5.678  14.632  68.403  1.00  0.00    -0.106 C  
ENDBRANCH  14  15
ENDBRANCH  13  14
ENDBRANCH  11  13
ENDBRANCH  10  11
ENDBRANCH   6   9
ENDBRANCH   2   3
TORSDOF 6
ENDMDL
MODEL       57
REMARK 921   NORMALIZED FREE ENERGY PREDICTED BY IDOCK:   -4.70 KCAL/MOL
REMARK 922        TOTAL FREE ENERGY PREDICTED BY IDOCK:   -7.12 KCAL/MOL
REMARK 923 INTER-LIGAND FREE ENERGY PREDICTED BY IDOCK:   -6.49 KCAL/MOL
REMARK 924 INTRA-LIGAND FREE ENERGY PREDICTED BY IDOCK:   -0.63 KCAL/MOL
REMARK 927      BINDING AFFINITY PREDICTED BY RF-SCORE:    0.00 PKD
ROOT
HETATM    1  C   UNL     1      -6.930  19.412  68.893  1.00  0.00    -0.349 C  
HETATM    2  O   UNL     1      -8.238  19.806  68.488  1.00  0.00    -0.314 OA 
ENDROOT
BRANCH   2   3
HETATM    3  C   UNL     1      -8.913  18.880  67.740  1.00  0.00    -0.291 A  
HETATM    4  C   UNL     1      -8.742  17.548  68.115  1.00  0.00    -0.262 A  
HETATM    5  C   UNL     1      -9.368  16.524  67.396  1.00  0.00    -0.223 A  
HETATM    6  C   UNL     1     -10.201  16.820  66.313  1.00  0.00    -0.341 A  
HETATM    7  C   UNL     1     -10.391  18.166  65.963  1.00  0.00    -0.360 A  
HETATM    8  C   UNL     1      -9.759  19.189  66.676  1.00  0.00    -0.401 A  
BRANCH   6   9
HETATM    9  C   UNL     1     -10.759  15.728  65.508  1.00  0.00    -0.397 C  
HETATM   10  C   UNL     1     -11.321  14.629  66.029  1.00  0.00    -0.344 C  
BRANCH  10  11
HETATM   11  C   UNL     1     -12.079  13.694  65.168  1.00  0.00    -0.403 C  
HETATM   12  O   UNL     1     -12.613  13.974  64.109  1.00  0.00    -0.680 OA 
BRANCH  11  13
HETATM   13  O   UNL     1     -12.252  12.555  65.888  1.00  0.00    -0.593 OA 
BRANCH  13  14
HETATM   14  C   UNL     1     -11.633  12.587  67.179  1.00  0.00    -0.368 C  
BRANCH  14  15
HETATM   15  C   UNL     1     -11.188  11.208  67.653  1.00  0.00    -0.364 C  
HETATM   16  C   UNL     1     -10.328  10.495  66.590  1.00  0.00    -0.295 C  
HETATM   17  C   UNL     1      -9.045  11.264  66.261  1.00  0.00    -0.209 C  
HETATM   18  C   UNL     1      -9.973   9.077  67.039  1.00  0.00    -0.295 C  
ENDBRANCH  14  15
ENDBRANCH  13  14
ENDBRANCH  11  13
ENDBRANCH  10  11
ENDBRANCH   6   9
ENDBRANCH   2   3
TORSDOF 6
ENDMDL
MODEL       58
REMARK 921   NORMALIZED FREE ENERGY PREDICTED BY IDOCK:   -4.69 KCAL/MOL
REMARK 922        TOTAL FREE ENERGY PREDICTED BY IDOCK:   -7.12 KCAL/MOL
REMARK 923 INTER-LIGAND FREE ENERGY PREDICTED BY IDOCK:   -6.56 KCAL/MOL
REMARK 924 INTRA-LIGAND FREE ENERGY PREDICTED BY IDOCK:   -0.56 KCAL/MOL
REMARK 927      BINDING AFFINITY PREDICTED BY RF-SCORE:    0.00 PKD
ROOT
HETATM    1  C   UNL     1     -10.397   5.946  68.767  1.00  0.00    -0.219 C  
HETATM    2  O   UNL     1     -10.573   6.969  69.744  1.00  0.00    -0.218 OA 
ENDROOT
BRANCH   2   3
HETATM    3  C   UNL     1     -10.706   8.233  69.238  1.00  0.00    -0.128 A  
HETATM    4  C   UNL     1     -11.012   9.232  70.159  1.00  0.00    -0.278 A  
HETATM    5  C   UNL     1     -11.196  10.553  69.737  1.00  0.00    -0.361 A  
HETATM    6  C   UNL     1     -11.042  10.899  68.390  1.00  0.00    -0.320 A  
HETATM    7  C   UNL     1     -10.702   9.891  67.476  1.00  0.00    -0.333 A  
HETATM    8  C   UNL     1     -10.527   8.569  67.896  1.00  0.00    -0.262 A  
BRANCH   6   9
HETATM    9  C   UNL     1     -11.345  12.266  67.954  1.00  0.00    -0.356 C  
HETATM   10  C   UNL     1     -11.518  13.297  68.793  1.00  0.00    -0.346 C  
BRANCH  10  11
HETATM   11  C   UNL     1     -11.573  14.683  68.277  1.00  0.00    -0.326 C  
HETATM   12  O   UNL     1     -11.656  15.004  67.104  1.00  0.00    -0.342 OA 
BRANCH  11  13
HETATM   13  O   UNL     1     -11.286  15.499  69.324  1.00  0.00    -0.279 OA 
BRANCH  13  14
HETATM   14  C   UNL     1     -12.327  15.570  70.305  1.00  0.00    -0.396 C  
BRANCH  14  15
HETATM   15  C   UNL     1     -11.794  15.538  71.733  1.00  0.00    -0.504 C  
HETATM   16  C   UNL     1     -12.888  15.117  72.736  1.00  0.00    -0.506 C  
HETATM   17  C   UNL     1     -13.430  13.713  72.454  1.00  0.00    -0.685 C  
HETATM   18  C   UNL     1     -12.366  15.186  74.171  1.00  0.00    -0.706 C  
ENDBRANCH  14  15
ENDBRANCH  13  14
ENDBRANCH  11  13
ENDBRANCH  10  11
ENDBRANCH   6   9
ENDBRANCH   2   3
TORSDOF 6
ENDMDL
MODEL       59
REMARK 921   NORMALIZED FREE ENERGY PREDICTED BY IDOCK:   -4.69 KCAL/MOL
REMARK 922        TOTAL FREE ENERGY PREDICTED BY IDOCK:   -7.12 KCAL/MOL
REMARK 923 INTER-LIGAND FREE ENERGY PREDICTED BY IDOCK:   -6.75 KCAL/MOL
REMARK 924 INTRA-LIGAND FREE ENERGY PREDICTED BY IDOCK:   -0.37 KCAL/MOL
REMARK 927      BINDING AFFINITY PREDICTED BY RF-SCORE:    0.00 PKD
ROOT
HETATM    1  C   UNL     1     -13.625  12.512  72.211  1.00  0.00    -0.342 C  
HETATM    2  O   UNL     1     -13.239  13.846  72.527  1.00  0.00    -0.462 OA 
ENDROOT
BRANCH   2   3
HETATM    3  C   UNL     1     -12.605  14.517  71.517  1.00  0.00    -0.348 A  
HETATM    4  C   UNL     1     -12.619  13.899  70.268  1.00  0.00    -0.328 A  
HETATM    5  C   UNL     1     -11.975  14.491  69.177  1.00  0.00    -0.344 A  
HETATM    6  C   UNL     1     -11.336  15.728  69.311  1.00  0.00    -0.350 A  
HETATM    7  C   UNL     1     -11.356  16.357  70.565  1.00  0.00    -0.211 A  
HETATM    8  C   UNL     1     -11.992  15.762  71.659  1.00  0.00    -0.527 A  
BRANCH   6   9
HETATM    9  C   UNL     1     -10.576  16.278  68.184  1.00  0.00    -0.307 C  
HETATM   10  C   UNL     1     -10.378  15.626  67.029  1.00  0.00    -0.289 C  
BRANCH  10  11
HETATM   11  C   UNL     1      -9.819  16.334  65.856  1.00  0.00    -0.334 C  
HETATM   12  O   UNL     1      -8.798  17.001  65.845  1.00  0.00    -0.518 OA 
BRANCH  11  13
HETATM   13  O   UNL     1     -10.767  16.285  64.884  1.00  0.00    -0.646 OA 
BRANCH  13  14
HETATM   14  C   UNL     1     -11.534  15.076  64.885  1.00  0.00    -0.399 C  
BRANCH  14  15
HETATM   15  C   UNL     1     -10.745  13.878  64.368  1.00  0.00    -0.286 C  
HETATM   16  C   UNL     1     -11.281  12.554  64.950  1.00  0.00    -0.344 C  
HETATM   17  C   UNL     1     -12.742  12.296  64.569  1.00  0.00    -0.336 C  
HETATM   18  C   UNL     1     -10.419  11.374  64.502  1.00  0.00    -0.381 C  
ENDBRANCH  14  15
ENDBRANCH  13  14
ENDBRANCH  11  13
ENDBRANCH  10  11
ENDBRANCH   6   9
ENDBRANCH   2   3
TORSDOF 6
ENDMDL
MODEL       60
REMARK 921   NORMALIZED FREE ENERGY PREDICTED BY IDOCK:   -4.69 KCAL/MOL
REMARK 922        TOTAL FREE ENERGY PREDICTED BY IDOCK:   -7.12 KCAL/MOL
REMARK 923 INTER-LIGAND FREE ENERGY PREDICTED BY IDOCK:   -6.75 KCAL/MOL
REMARK 924 INTRA-LIGAND FREE ENERGY PREDICTED BY IDOCK:   -0.37 KCAL/MOL
REMARK 927      BINDING AFFINITY PREDICTED BY RF-SCORE:    0.00 PKD
ROOT
HETATM    1  C   UNL     1      -5.994  20.101  70.990  1.00  0.00    -0.289 C  
HETATM    2  O   UNL     1      -6.149  20.775  69.745  1.00  0.00    -0.360 OA 
ENDROOT
BRANCH   2   3
HETATM    3  C   UNL     1      -6.840  20.075  68.794  1.00  0.00    -0.293 A  
HETATM    4  C   UNL     1      -7.148  18.753  69.110  1.00  0.00    -0.272 A  
HETATM    5  C   UNL     1      -7.829  17.945  68.193  1.00  0.00    -0.266 A  
HETATM    6  C   UNL     1      -8.241  18.458  66.959  1.00  0.00    -0.253 A  
HETATM    7  C   UNL     1      -7.954  19.800  66.663  1.00  0.00    -0.333 A  
HETATM    8  C   UNL     1      -7.266  20.605  67.576  1.00  0.00    -0.382 A  
BRANCH   6   9
HETATM    9  C   UNL     1      -8.856  17.566  65.971  1.00  0.00    -0.066 C  
HETATM   10  C   UNL     1      -9.983  16.874  66.190  1.00  0.00    -0.332 C  
BRANCH  10  11
HETATM   11  C   UNL     1     -10.674  16.193  65.072  1.00  0.00    -0.337 C  
HETATM   12  O   UNL     1     -11.347  16.737  64.213  1.00  0.00    -1.170 OA 
BRANCH  11  13
HETATM   13  O   UNL     1     -10.601  14.860  65.323  1.00  0.00    -0.341 OA 
BRANCH  13  14
HETATM   14  C   UNL     1     -11.704  14.354  66.083  1.00  0.00    -0.378 C  
BRANCH  14  15
HETATM   15  C   UNL     1     -12.663  13.517  65.243  1.00  0.00    -0.481 C  
HETATM   16  C   UNL     1     -11.904  12.627  64.236  1.00  0.00    -0.462 C  
HETATM   17  C   UNL     1     -10.966  11.632  64.926  1.00  0.00    -0.345 C  
HETATM   18  C   UNL     1     -12.880  11.870  63.336  1.00  0.00    -0.393 C  
ENDBRANCH  14  15
ENDBRANCH  13  14
ENDBRANCH  11  13
ENDBRANCH  10  11
ENDBRANCH   6   9
ENDBRANCH   2   3
TORSDOF 6
ENDMDL
MODEL       61
REMARK 921   NORMALIZED FREE ENERGY PREDICTED BY IDOCK:   -4.68 KCAL/MOL
REMARK 922        TOTAL FREE ENERGY PREDICTED BY IDOCK:   -7.11 KCAL/MOL
REMARK 923 INTER-LIGAND FREE ENERGY PREDICTED BY IDOCK:   -6.46 KCAL/MOL
REMARK 924 INTRA-LIGAND FREE ENERGY PREDICTED BY IDOCK:   -0.65 KCAL/MOL
REMARK 927      BINDING AFFINITY PREDICTED BY RF-SCORE:    0.00 PKD
ROOT
HETATM    1  C   UNL     1     -10.037  11.199  63.101  1.00  0.00    -0.330 C  
HETATM    2  O   UNL     1     -11.263  11.391  63.802  1.00  0.00    -0.399 OA 
ENDROOT
BRANCH   2   3
HETATM    3  C   UNL     1     -11.287  12.476  64.635  1.00  0.00    -0.318 A  
HETATM    4  C   UNL     1     -10.216  13.360  64.518  1.00  0.00    -0.321 A  
HETATM    5  C   UNL     1     -10.134  14.486  65.345  1.00  0.00    -0.394 A  
HETATM    6  C   UNL     1     -11.140  14.761  66.277  1.00  0.00    -0.341 A  
HETATM    7  C   UNL     1     -12.229  13.882  66.364  1.00  0.00    -0.487 A  
HETATM    8  C   UNL     1     -12.307  12.751  65.545  1.00  0.00    -0.495 A  
BRANCH   6   9
HETATM    9  C   UNL     1     -10.980  15.885  67.205  1.00  0.00    -0.234 C  
HETATM   10  C   UNL     1     -10.304  17.005  66.912  1.00  0.00    -0.303 C  
BRANCH  10  11
HETATM   11  C   UNL     1     -10.394  18.188  67.797  1.00  0.00    -0.399 C  
HETATM   12  O   UNL     1     -10.935  19.245  67.521  1.00  0.00    -0.465 OA 
BRANCH  11  13
HETATM   13  O   UNL     1      -9.575  17.947  68.854  1.00  0.00    -0.283 OA 
BRANCH  13  14
HETATM   14  C   UNL     1      -8.182  17.990  68.527  1.00  0.00    -0.303 C  
BRANCH  14  15
HETATM   15  C   UNL     1      -7.578  19.379  68.703  1.00  0.00    -0.398 C  
HETATM   16  C   UNL     1      -6.721  19.782  67.485  1.00  0.00    -0.247 C  
HETATM   17  C   UNL     1      -7.535  19.835  66.189  1.00  0.00    -0.321 C  
HETATM   18  C   UNL     1      -6.044  21.132  67.720  1.00  0.00    -0.423 C  
ENDBRANCH  14  15
ENDBRANCH  13  14
ENDBRANCH  11  13
ENDBRANCH  10  11
ENDBRANCH   6   9
ENDBRANCH   2   3
TORSDOF 6
ENDMDL
MODEL       62
REMARK 921   NORMALIZED FREE ENERGY PREDICTED BY IDOCK:   -4.66 KCAL/MOL
REMARK 922        TOTAL FREE ENERGY PREDICTED BY IDOCK:   -7.08 KCAL/MOL
REMARK 923 INTER-LIGAND FREE ENERGY PREDICTED BY IDOCK:   -6.64 KCAL/MOL
REMARK 924 INTRA-LIGAND FREE ENERGY PREDICTED BY IDOCK:   -0.44 KCAL/MOL
REMARK 927      BINDING AFFINITY PREDICTED BY RF-SCORE:    0.00 PKD
ROOT
HETATM    1  C   UNL     1     -10.664  19.500  66.921  1.00  0.00    -0.464 C  
HETATM    2  O   UNL     1     -10.182  18.677  65.861  1.00  0.00    -0.533 OA 
ENDROOT
BRANCH   2   3
HETATM    3  C   UNL     1     -10.424  17.339  66.016  1.00  0.00    -0.282 A  
HETATM    4  C   UNL     1     -10.426  16.865  67.326  1.00  0.00    -0.301 A  
HETATM    5  C   UNL     1     -10.636  15.507  67.588  1.00  0.00    -0.291 A  
HETATM    6  C   UNL     1     -10.880  14.609  66.544  1.00  0.00    -0.315 A  
HETATM    7  C   UNL     1     -10.907  15.102  65.231  1.00  0.00    -0.414 A  
HETATM    8  C   UNL     1     -10.689  16.458  64.968  1.00  0.00    -0.279 A  
BRANCH   6   9
HETATM    9  C   UNL     1     -10.989  13.175  66.832  1.00  0.00    -0.295 C  
HETATM   10  C   UNL     1     -11.241  12.675  68.050  1.00  0.00    -0.308 C  
BRANCH  10  11
HETATM   11  C   UNL     1     -11.581  11.245  68.217  1.00  0.00    -0.300 C  
HETATM   12  O   UNL     1     -11.242  10.340  67.474  1.00  0.00    -0.295 OA 
BRANCH  11  13
HETATM   13  O   UNL     1     -12.512  11.180  69.204  1.00  0.00    -0.418 OA 
BRANCH  13  14
HETATM   14  C   UNL     1     -11.959  11.196  70.524  1.00  0.00    -0.380 C  
BRANCH  14  15
HETATM   15  C   UNL     1     -11.431   9.833  70.958  1.00  0.00    -0.458 C  
HETATM   16  C   UNL     1     -12.222   9.276  72.160  1.00  0.00    -0.377 C  
HETATM   17  C   UNL     1     -13.706   9.073  71.841  1.00  0.00    -0.495 C  
HETATM   18  C   UNL     1     -11.618   7.958  72.645  1.00  0.00    -0.435 C  
ENDBRANCH  14  15
ENDBRANCH  13  14
ENDBRANCH  11  13
ENDBRANCH  10  11
ENDBRANCH   6   9
ENDBRANCH   2   3
TORSDOF 6
ENDMDL
MODEL       63
REMARK 921   NORMALIZED FREE ENERGY PREDICTED BY IDOCK:   -4.62 KCAL/MOL
REMARK 922        TOTAL FREE ENERGY PREDICTED BY IDOCK:   -7.03 KCAL/MOL
REMARK 923 INTER-LIGAND FREE ENERGY PREDICTED BY IDOCK:   -6.19 KCAL/MOL
REMARK 924 INTRA-LIGAND FREE ENERGY PREDICTED BY IDOCK:   -0.84 KCAL/MOL
REMARK 927      BINDING AFFINITY PREDICTED BY RF-SCORE:    0.00 PKD
ROOT
HETATM    1  C   UNL     1      -9.501  19.837  66.816  1.00  0.00    -0.382 C  
HETATM    2  O   UNL     1      -9.958  18.826  65.921  1.00  0.00    -0.508 OA 
ENDROOT
BRANCH   2   3
HETATM    3  C   UNL     1     -10.249  17.625  66.510  1.00  0.00    -0.355 A  
HETATM    4  C   UNL     1     -10.599  17.673  67.858  1.00  0.00    -0.390 A  
HETATM    5  C   UNL     1     -10.888  16.497  68.557  1.00  0.00    -0.349 A  
HETATM    6  C   UNL     1     -10.864  15.258  67.909  1.00  0.00    -0.288 A  
HETATM    7  C   UNL     1     -10.542  15.224  66.544  1.00  0.00    -0.304 A  
HETATM    8  C   UNL     1     -10.244  16.399  65.846  1.00  0.00    -0.379 A  
BRANCH   6   9
HETATM    9  C   UNL     1     -11.064  14.029  68.685  1.00  0.00    -0.286 C  
HETATM   10  C   UNL     1     -11.931  13.065  68.345  1.00  0.00    -0.309 C  
BRANCH  10  11
HETATM   11  C   UNL     1     -11.900  11.754  69.031  1.00  0.00    -0.317 C  
HETATM   12  O   UNL     1     -11.703  11.577  70.221  1.00  0.00    -0.327 OA 
BRANCH  11  13
HETATM   13  O   UNL     1     -11.904  10.806  68.059  1.00  0.00    -0.546 OA 
BRANCH  13  14
HETATM   14  C   UNL     1     -10.852   9.843  68.185  1.00  0.00    -0.234 C  
BRANCH  14  15
HETATM   15  C   UNL     1     -10.304   9.388  66.837  1.00  0.00    -0.308 C  
HETATM   16  C   UNL     1     -10.114  10.577  65.873  1.00  0.00    -0.323 C  
HETATM   17  C   UNL     1      -9.119  11.611  66.407  1.00  0.00    -0.209 C  
HETATM   18  C   UNL     1      -9.660  10.093  64.496  1.00  0.00    -0.376 C  
ENDBRANCH  14  15
ENDBRANCH  13  14
ENDBRANCH  11  13
ENDBRANCH  10  11
ENDBRANCH   6   9
ENDBRANCH   2   3
TORSDOF 6
ENDMDL
MODEL       64
REMARK 921   NORMALIZED FREE ENERGY PREDICTED BY IDOCK:   -4.58 KCAL/MOL
REMARK 922        TOTAL FREE ENERGY PREDICTED BY IDOCK:   -6.96 KCAL/MOL
REMARK 923 INTER-LIGAND FREE ENERGY PREDICTED BY IDOCK:   -6.59 KCAL/MOL
REMARK 924 INTRA-LIGAND FREE ENERGY PREDICTED BY IDOCK:   -0.37 KCAL/MOL
REMARK 927      BINDING AFFINITY PREDICTED BY RF-SCORE:    0.00 PKD
ROOT
HETATM    1  C   UNL     1      -8.891   7.720  65.614  1.00  0.00    -0.065 C  
HETATM    2  O   UNL     1     -10.071   8.249  66.211  1.00  0.00    -0.215 OA 
ENDROOT
BRANCH   2   3
HETATM    3  C   UNL     1     -10.166   9.614  66.188  1.00  0.00    -0.205 A  
HETATM    4  C   UNL     1      -9.849  10.229  64.978  1.00  0.00    -0.397 A  
HETATM    5  C   UNL     1      -9.889  11.622  64.861  1.00  0.00    -0.267 A  
HETATM    6  C   UNL     1     -10.279  12.418  65.942  1.00  0.00    -0.273 A  
HETATM    7  C   UNL     1     -10.627  11.787  67.146  1.00  0.00    -0.267 A  
HETATM    8  C   UNL     1     -10.579  10.395  67.267  1.00  0.00    -0.322 A  
BRANCH   6   9
HETATM    9  C   UNL     1     -10.209  13.879  65.830  1.00  0.00    -0.331 C  
HETATM   10  C   UNL     1     -10.674  14.570  64.779  1.00  0.00    -0.414 C  
BRANCH  10  11
HETATM   11  C   UNL     1     -10.794  16.043  64.845  1.00  0.00    -0.372 C  
HETATM   12  O   UNL     1     -11.482  16.736  64.114  1.00  0.00    -1.171 OA 
BRANCH  11  13
HETATM   13  O   UNL     1      -9.833  16.474  65.703  1.00  0.00    -0.511 OA 
BRANCH  13  14
HETATM   14  C   UNL     1     -10.349  17.098  66.883  1.00  0.00    -0.308 C  
BRANCH  14  15
HETATM   15  C   UNL     1      -9.426  18.183  67.427  1.00  0.00    -0.255 C  
HETATM   16  C   UNL     1      -9.062  19.215  66.339  1.00  0.00    -0.362 C  
HETATM   17  C   UNL     1     -10.292  19.942  65.788  1.00  0.00    -0.512 C  
HETATM   18  C   UNL     1      -8.060  20.238  66.873  1.00  0.00    -0.346 C  
ENDBRANCH  14  15
ENDBRANCH  13  14
ENDBRANCH  11  13
ENDBRANCH  10  11
ENDBRANCH   6   9
ENDBRANCH   2   3
TORSDOF 6
ENDMDL
MODEL       65
REMARK 921   NORMALIZED FREE ENERGY PREDICTED BY IDOCK:   -4.57 KCAL/MOL
REMARK 922        TOTAL FREE ENERGY PREDICTED BY IDOCK:   -6.96 KCAL/MOL
REMARK 923 INTER-LIGAND FREE ENERGY PREDICTED BY IDOCK:   -6.42 KCAL/MOL
REMARK 924 INTRA-LIGAND FREE ENERGY PREDICTED BY IDOCK:   -0.54 KCAL/MOL
REMARK 927      BINDING AFFINITY PREDICTED BY RF-SCORE:    0.00 PKD
ROOT
HETATM    1  C   UNL     1     -11.023   6.047  73.041  1.00  0.00    -0.257 C  
HETATM    2  O   UNL     1     -10.997   7.431  73.377  1.00  0.00    -0.378 OA 
ENDROOT
BRANCH   2   3
HETATM    3  C   UNL     1     -10.778   8.276  72.324  1.00  0.00    -0.329 A  
HETATM    4  C   UNL     1     -11.886   8.988  71.869  1.00  0.00    -0.447 A  
HETATM    5  C   UNL     1     -11.771   9.857  70.778  1.00  0.00    -0.424 A  
HETATM    6  C   UNL     1     -10.537  10.052  70.149  1.00  0.00    -0.350 A  
HETATM    7  C   UNL     1      -9.421   9.355  70.636  1.00  0.00    -0.325 A  
HETATM    8  C   UNL     1      -9.537   8.479  71.720  1.00  0.00    -0.337 A  
BRANCH   6   9
HETATM    9  C   UNL     1     -10.462  10.883  68.943  1.00  0.00    -0.228 C  
HETATM   10  C   UNL     1     -10.642  10.413  67.701  1.00  0.00    -0.304 C  
BRANCH  10  11
HETATM   11  C   UNL     1     -10.796  11.345  66.562  1.00  0.00    -0.283 C  
HETATM   12  O   UNL     1      -9.905  11.714  65.816  1.00  0.00    -0.224 OA 
BRANCH  11  13
HETATM   13  O   UNL     1     -12.046  11.870  66.656  1.00  0.00    -0.587 OA 
BRANCH  13  14
HETATM   14  C   UNL     1     -12.219  13.086  65.921  1.00  0.00    -0.432 C  
BRANCH  14  15
HETATM   15  C   UNL     1     -12.055  14.328  66.790  1.00  0.00    -0.446 C  
HETATM   16  C   UNL     1     -10.833  15.165  66.358  1.00  0.00    -0.326 C  
HETATM   17  C   UNL     1     -10.950  15.669  64.916  1.00  0.00    -0.447 C  
HETATM   18  C   UNL     1     -10.626  16.351  67.299  1.00  0.00    -0.293 C  
ENDBRANCH  14  15
ENDBRANCH  13  14
ENDBRANCH  11  13
ENDBRANCH  10  11
ENDBRANCH   6   9
ENDBRANCH   2   3
TORSDOF 6
ENDMDL
MODEL       66
REMARK 921   NORMALIZED FREE ENERGY PREDICTED BY IDOCK:   -4.55 KCAL/MOL
REMARK 922        TOTAL FREE ENERGY PREDICTED BY IDOCK:   -6.93 KCAL/MOL
REMARK 923 INTER-LIGAND FREE ENERGY PREDICTED BY IDOCK:   -6.02 KCAL/MOL
REMARK 924 INTRA-LIGAND FREE ENERGY PREDICTED BY IDOCK:   -0.91 KCAL/MOL
REMARK 927      BINDING AFFINITY PREDICTED BY RF-SCORE:    0.00 PKD
ROOT
HETATM    1  C   UNL     1      -6.600  20.364  66.577  1.00  0.00    -0.233 C  
HETATM    2  O   UNL     1      -7.727  19.981  65.793  1.00  0.00    -0.333 OA 
ENDROOT
BRANCH   2   3
HETATM    3  C   UNL     1      -8.542  19.048  66.373  1.00  0.00    -0.315 A  
HETATM    4  C   UNL     1      -9.776  19.511  66.825  1.00  0.00    -0.464 A  
HETATM    5  C   UNL     1     -10.671  18.641  67.458  1.00  0.00    -0.447 A  
HETATM    6  C   UNL     1     -10.357  17.288  67.618  1.00  0.00    -0.350 A  
HETATM    7  C   UNL     1      -9.125  16.826  67.131  1.00  0.00    -0.224 A  
HETATM    8  C   UNL     1      -8.227  17.697  66.506  1.00  0.00    -0.307 A  
BRANCH   6   9
HETATM    9  C   UNL     1     -11.260  16.419  68.379  1.00  0.00    -0.324 C  
HETATM   10  C   UNL     1     -11.154  16.205  69.698  1.00  0.00    -0.344 C  
BRANCH  10  11
HETATM   11  C   UNL     1     -12.239  15.521  70.436  1.00  0.00    -0.406 C  
HETATM   12  O   UNL     1     -12.622  15.798  71.560  1.00  0.00    -0.420 OA 
BRANCH  11  13
HETATM   13  O   UNL     1     -12.553  14.408  69.722  1.00  0.00    -0.280 OA 
BRANCH  13  14
HETATM   14  C   UNL     1     -12.019  13.199  70.271  1.00  0.00    -0.292 C  
BRANCH  14  15
HETATM   15  C   UNL     1     -11.902  12.084  69.238  1.00  0.00    -0.377 C  
HETATM   16  C   UNL     1     -11.220  12.580  67.946  1.00  0.00    -0.312 C  
HETATM   17  C   UNL     1      -9.794  13.082  68.192  1.00  0.00    -0.228 C  
HETATM   18  C   UNL     1     -11.199  11.479  66.885  1.00  0.00    -0.363 C  
ENDBRANCH  14  15
ENDBRANCH  13  14
ENDBRANCH  11  13
ENDBRANCH  10  11
ENDBRANCH   6   9
ENDBRANCH   2   3
TORSDOF 6
ENDMDL
MODEL       67
REMARK 921   NORMALIZED FREE ENERGY PREDICTED BY IDOCK:   -4.53 KCAL/MOL
REMARK 922        TOTAL FREE ENERGY PREDICTED BY IDOCK:   -6.90 KCAL/MOL
REMARK 923 INTER-LIGAND FREE ENERGY PREDICTED BY IDOCK:   -6.52 KCAL/MOL
REMARK 924 INTRA-LIGAND FREE ENERGY PREDICTED BY IDOCK:   -0.39 KCAL/MOL
REMARK 927      BINDING AFFINITY PREDICTED BY RF-SCORE:    0.00 PKD
ROOT
HETATM    1  C   UNL     1     -11.077  15.572  64.825  1.00  0.00    -0.407 C  
HETATM    2  O   UNL     1     -11.773  14.333  64.728  1.00  0.00    -0.373 OA 
ENDROOT
BRANCH   2   3
HETATM    3  C   UNL     1     -11.746  13.567  65.862  1.00  0.00    -0.352 A  
HETATM    4  C   UNL     1     -12.021  14.231  67.055  1.00  0.00    -0.463 A  
HETATM    5  C   UNL     1     -11.991  13.542  68.272  1.00  0.00    -0.377 A  
HETATM    6  C   UNL     1     -11.719  12.171  68.309  1.00  0.00    -0.401 A  
HETATM    7  C   UNL     1     -11.474  11.505  67.099  1.00  0.00    -0.313 A  
HETATM    8  C   UNL     1     -11.495  12.195  65.882  1.00  0.00    -0.418 A  
BRANCH   6   9
HETATM    9  C   UNL     1     -11.586  11.493  69.603  1.00  0.00    -0.403 C  
HETATM   10  C   UNL     1     -12.592  10.854  70.217  1.00  0.00    -0.342 C  
BRANCH  10  11
HETATM   11  C   UNL     1     -12.326   9.988  71.388  1.00  0.00    -0.415 C  
HETATM   12  O   UNL     1     -13.085   9.801  72.323  1.00  0.00    -0.416 OA 
BRANCH  11  13
HETATM   13  O   UNL     1     -11.014   9.642  71.325  1.00  0.00    -0.349 OA 
BRANCH  13  14
HETATM   14  C   UNL     1     -10.795   8.255  71.049  1.00  0.00    -0.233 C  
BRANCH  14  15
HETATM   15  C   UNL     1     -10.598   7.425  72.313  1.00  0.00    -0.270 C  
HETATM   16  C   UNL     1     -11.158   5.997  72.146  1.00  0.00    -0.328 C  
HETATM   17  C   UNL     1     -10.464   5.225  71.021  1.00  0.00    -0.274 C  
HETATM   18  C   UNL     1     -11.043   5.212  73.453  1.00  0.00    -0.385 C  
ENDBRANCH  14  15
ENDBRANCH  13  14
ENDBRANCH  11  13
ENDBRANCH  10  11
ENDBRANCH   6   9
ENDBRANCH   2   3
TORSDOF 6
ENDMDL
MODEL       68
REMARK 921   NORMALIZED FREE ENERGY PREDICTED BY IDOCK:   -4.53 KCAL/MOL
REMARK 922        TOTAL FREE ENERGY PREDICTED BY IDOCK:   -6.90 KCAL/MOL
REMARK 923 INTER-LIGAND FREE ENERGY PREDICTED BY IDOCK:   -6.08 KCAL/MOL
REMARK 924 INTRA-LIGAND FREE ENERGY PREDICTED BY IDOCK:   -0.83 KCAL/MOL
REMARK 927      BINDING AFFINITY PREDICTED BY RF-SCORE:    0.00 PKD
ROOT
HETATM    1  C   UNL     1      -7.723   6.341  65.097  1.00  0.00    -0.099 C  
HETATM    2  O   UNL     1      -7.230   7.674  64.999  1.00  0.00    -0.061 OA 
ENDROOT
BRANCH   2   3
HETATM    3  C   UNL     1      -8.190   8.631  64.808  1.00  0.00    -0.160 A  
HETATM    4  C   UNL     1      -8.389   9.044  63.492  1.00  0.00    -0.182 A  
HETATM    5  C   UNL     1      -9.329  10.037  63.195  1.00  0.00    -0.297 A  
HETATM    6  C   UNL     1     -10.107  10.607  64.208  1.00  0.00    -0.411 A  
HETATM    7  C   UNL     1      -9.921  10.161  65.525  1.00  0.00    -0.363 A  
HETATM    8  C   UNL     1      -8.976   9.175  65.823  1.00  0.00    -0.237 A  
BRANCH   6   9
HETATM    9  C   UNL     1     -11.007  11.720  63.891  1.00  0.00    -0.476 C  
HETATM   10  C   UNL     1     -11.768  12.347  64.799  1.00  0.00    -0.425 C  
BRANCH  10  11
HETATM   11  C   UNL     1     -12.457  13.611  64.456  1.00  0.00    -0.287 C  
HETATM   12  O   UNL     1     -12.611  14.057  63.332  1.00  0.00    -0.845 OA 
BRANCH  11  13
HETATM   13  O   UNL     1     -12.670  14.268  65.626  1.00  0.00    -0.471 OA 
BRANCH  13  14
HETATM   14  C   UNL     1     -11.472  14.561  66.352  1.00  0.00    -0.360 C  
BRANCH  14  15
HETATM   15  C   UNL     1     -11.713  14.721  67.849  1.00  0.00    -0.367 C  
HETATM   16  C   UNL     1     -11.871  13.354  68.546  1.00  0.00    -0.401 C  
HETATM   17  C   UNL     1     -10.622  12.480  68.410  1.00  0.00    -0.256 C  
HETATM   18  C   UNL     1     -12.211  13.534  70.026  1.00  0.00    -0.381 C  
ENDBRANCH  14  15
ENDBRANCH  13  14
ENDBRANCH  11  13
ENDBRANCH  10  11
ENDBRANCH   6   9
ENDBRANCH   2   3
TORSDOF 6
ENDMDL
MODEL       69
REMARK 921   NORMALIZED FREE ENERGY PREDICTED BY IDOCK:   -4.51 KCAL/MOL
REMARK 922        TOTAL FREE ENERGY PREDICTED BY IDOCK:   -6.88 KCAL/MOL
REMARK 923 INTER-LIGAND FREE ENERGY PREDICTED BY IDOCK:   -6.08 KCAL/MOL
REMARK 924 INTRA-LIGAND FREE ENERGY PREDICTED BY IDOCK:   -0.79 KCAL/MOL
REMARK 927      BINDING AFFINITY PREDICTED BY RF-SCORE:    0.00 PKD
ROOT
HETATM    1  C   UNL     1     -10.288  19.241  66.333  1.00  0.00    -0.471 C  
HETATM    2  O   UNL     1      -9.757  17.999  65.880  1.00  0.00    -0.530 OA 
ENDROOT
BRANCH   2   3
HETATM    3  C   UNL     1     -10.321  16.890  66.450  1.00  0.00    -0.300 A  
HETATM    4  C   UNL     1     -10.669  17.003  67.795  1.00  0.00    -0.318 A  
HETATM    5  C   UNL     1     -11.226  15.916  68.476  1.00  0.00    -0.362 A  
HETATM    6  C   UNL     1     -11.475  14.710  67.813  1.00  0.00    -0.359 A  
HETATM    7  C   UNL     1     -11.150  14.617  66.451  1.00  0.00    -0.334 A  
HETATM    8  C   UNL     1     -10.585  15.701  65.772  1.00  0.00    -0.374 A  
BRANCH   6   9
HETATM    9  C   UNL     1     -11.958  13.551  68.571  1.00  0.00    -0.379 C  
HETATM   10  C   UNL     1     -11.807  13.410  69.895  1.00  0.00    -0.385 C  
BRANCH  10  11
HETATM   11  C   UNL     1     -12.531  12.345  70.624  1.00  0.00    -0.234 C  
HETATM   12  O   UNL     1     -13.047  12.456  71.723  1.00  0.00    -0.416 OA 
BRANCH  11  13
HETATM   13  O   UNL     1     -12.310  11.190  69.944  1.00  0.00    -0.303 OA 
BRANCH  13  14
HETATM   14  C   UNL     1     -11.407  10.295  70.603  1.00  0.00    -0.347 C  
BRANCH  14  15
HETATM   15  C   UNL     1     -10.852   9.225  69.670  1.00  0.00    -0.228 C  
HETATM   16  C   UNL     1     -10.508   9.807  68.283  1.00  0.00    -0.255 C  
HETATM   17  C   UNL     1      -9.440  10.902  68.356  1.00  0.00    -0.178 C  
HETATM   18  C   UNL     1     -10.047   8.704  67.330  1.00  0.00    -0.310 C  
ENDBRANCH  14  15
ENDBRANCH  13  14
ENDBRANCH  11  13
ENDBRANCH  10  11
ENDBRANCH   6   9
ENDBRANCH   2   3
TORSDOF 6
ENDMDL
MODEL       70
REMARK 921   NORMALIZED FREE ENERGY PREDICTED BY IDOCK:   -4.50 KCAL/MOL
REMARK 922        TOTAL FREE ENERGY PREDICTED BY IDOCK:   -6.86 KCAL/MOL
REMARK 923 INTER-LIGAND FREE ENERGY PREDICTED BY IDOCK:   -6.61 KCAL/MOL
REMARK 924 INTRA-LIGAND FREE ENERGY PREDICTED BY IDOCK:   -0.25 KCAL/MOL
REMARK 927      BINDING AFFINITY PREDICTED BY RF-SCORE:    0.00 PKD
ROOT
HETATM    1  C   UNL     1     -10.372  11.733  63.863  1.00  0.00    -0.385 C  
HETATM    2  O   UNL     1     -10.951  12.973  64.259  1.00  0.00    -0.358 OA 
ENDROOT
BRANCH   2   3
HETATM    3  C   UNL     1     -11.215  13.084  65.597  1.00  0.00    -0.283 A  
HETATM    4  C   UNL     1     -11.354  14.381  66.087  1.00  0.00    -0.350 A  
HETATM    5  C   UNL     1     -11.598  14.601  67.447  1.00  0.00    -0.408 A  
HETATM    6  C   UNL     1     -11.739  13.526  68.330  1.00  0.00    -0.394 A  
HETATM    7  C   UNL     1     -11.629  12.223  67.820  1.00  0.00    -0.416 A  
HETATM    8  C   UNL     1     -11.376  12.003  66.462  1.00  0.00    -0.413 A  
BRANCH   6   9
HETATM    9  C   UNL     1     -11.886  13.781  69.767  1.00  0.00    -0.394 C  
HETATM   10  C   UNL     1     -13.033  13.617  70.440  1.00  0.00    -0.001 C  
BRANCH  10  11
HETATM   11  C   UNL     1     -13.045  13.653  71.920  1.00  0.00    -0.387 C  
HETATM   12  O   UNL     1     -12.671  14.584  72.613  1.00  0.00    -0.361 OA 
BRANCH  11  13
HETATM   13  O   UNL     1     -13.330  12.392  72.338  1.00  0.00    -0.481 OA 
BRANCH  13  14
HETATM   14  C   UNL     1     -12.961  11.375  71.400  1.00  0.00    -0.365 C  
BRANCH  14  15
HETATM   15  C   UNL     1     -12.988   9.977  72.007  1.00  0.00    -0.514 C  
HETATM   16  C   UNL     1     -12.177   8.976  71.158  1.00  0.00    -0.331 C  
HETATM   17  C   UNL     1     -10.699   9.363  71.049  1.00  0.00    -0.407 C  
HETATM   18  C   UNL     1     -12.295   7.561  71.724  1.00  0.00    -0.357 C  
ENDBRANCH  14  15
ENDBRANCH  13  14
ENDBRANCH  11  13
ENDBRANCH  10  11
ENDBRANCH   6   9
ENDBRANCH   2   3
TORSDOF 6
ENDMDL
MODEL       71
REMARK 921   NORMALIZED FREE ENERGY PREDICTED BY IDOCK:   -4.49 KCAL/MOL
REMARK 922        TOTAL FREE ENERGY PREDICTED BY IDOCK:   -6.85 KCAL/MOL
REMARK 923 INTER-LIGAND FREE ENERGY PREDICTED BY IDOCK:   -6.17 KCAL/MOL
REMARK 924 INTRA-LIGAND FREE ENERGY PREDICTED BY IDOCK:   -0.68 KCAL/MOL
REMARK 927      BINDING AFFINITY PREDICTED BY RF-SCORE:    0.00 PKD
ROOT
HETATM    1  C   UNL     1     -11.660  15.810  64.277  1.00  0.00    -0.191 C  
HETATM    2  O   UNL     1     -12.492  14.654  64.303  1.00  0.00    -0.648 OA 
ENDROOT
BRANCH   2   3
HETATM    3  C   UNL     1     -12.132  13.706  65.222  1.00  0.00    -0.406 A  
HETATM    4  C   UNL     1     -11.573  12.538  64.709  1.00  0.00    -0.387 A  
HETATM    5  C   UNL     1     -11.197  11.497  65.565  1.00  0.00    -0.204 A  
HETATM    6  C   UNL     1     -11.344  11.624  66.949  1.00  0.00    -0.364 A  
HETATM    7  C   UNL     1     -11.879  12.817  67.458  1.00  0.00    -0.402 A  
HETATM    8  C   UNL     1     -12.263  13.855  66.603  1.00  0.00    -0.465 A  
BRANCH   6   9
HETATM    9  C   UNL     1     -11.046  10.481  67.819  1.00  0.00    -0.382 C  
HETATM   10  C   UNL     1     -10.421   9.370  67.403  1.00  0.00    -0.343 C  
BRANCH  10  11
HETATM   11  C   UNL     1      -9.936   8.372  68.381  1.00  0.00    -0.187 C  
HETATM   12  O   UNL     1      -8.946   7.672  68.254  1.00  0.00    -0.129 OA 
BRANCH  11  13
HETATM   13  O   UNL     1     -10.915   8.232  69.313  1.00  0.00    -0.110 OA 
BRANCH  13  14
HETATM   14  C   UNL     1     -10.438   8.260  70.662  1.00  0.00    -0.203 C  
BRANCH  14  15
HETATM   15  C   UNL     1     -11.043   9.398  71.478  1.00  0.00    -0.446 C  
HETATM   16  C   UNL     1     -12.569   9.495  71.269  1.00  0.00    -0.425 C  
HETATM   17  C   UNL     1     -13.301   8.223  71.707  1.00  0.00    -0.375 C  
HETATM   18  C   UNL     1     -13.144  10.699  72.014  1.00  0.00    -0.501 C  
ENDBRANCH  14  15
ENDBRANCH  13  14
ENDBRANCH  11  13
ENDBRANCH  10  11
ENDBRANCH   6   9
ENDBRANCH   2   3
TORSDOF 6
ENDMDL
MODEL       72
REMARK 921   NORMALIZED FREE ENERGY PREDICTED BY IDOCK:   -4.49 KCAL/MOL
REMARK 922        TOTAL FREE ENERGY PREDICTED BY IDOCK:   -6.85 KCAL/MOL
REMARK 923 INTER-LIGAND FREE ENERGY PREDICTED BY IDOCK:   -5.93 KCAL/MOL
REMARK 924 INTRA-LIGAND FREE ENERGY PREDICTED BY IDOCK:   -0.92 KCAL/MOL
REMARK 927      BINDING AFFINITY PREDICTED BY RF-SCORE:    0.00 PKD
ROOT
HETATM    1  C   UNL     1      -9.562  10.766  63.449  1.00  0.00    -0.338 C  
HETATM    2  O   UNL     1      -9.806  11.969  64.172  1.00  0.00    -0.251 OA 
ENDROOT
BRANCH   2   3
HETATM    3  C   UNL     1     -10.421  11.798  65.383  1.00  0.00    -0.272 A  
HETATM    4  C   UNL     1     -10.243  10.556  65.989  1.00  0.00    -0.310 A  
HETATM    5  C   UNL     1     -10.854  10.273  67.215  1.00  0.00    -0.312 A  
HETATM    6  C   UNL     1     -11.624  11.240  67.869  1.00  0.00    -0.330 A  
HETATM    7  C   UNL     1     -11.771  12.498  67.265  1.00  0.00    -0.431 A  
HETATM    8  C   UNL     1     -11.167  12.779  66.035  1.00  0.00    -0.335 A  
BRANCH   6   9
HETATM    9  C   UNL     1     -12.343  10.887  69.098  1.00  0.00    -0.028 C  
HETATM   10  C   UNL     1     -11.964  11.278  70.322  1.00  0.00    -0.466 C  
BRANCH  10  11
HETATM   11  C   UNL     1     -12.867  11.094  71.481  1.00  0.00    -0.437 C  
HETATM   12  O   UNL     1     -13.338  11.986  72.165  1.00  0.00    -0.510 OA 
BRANCH  11  13
HETATM   13  O   UNL     1     -12.875   9.765  71.760  1.00  0.00    -0.370 OA 
BRANCH  13  14
HETATM   14  C   UNL     1     -11.569   9.192  71.886  1.00  0.00    -0.360 C  
BRANCH  14  15
HETATM   15  C   UNL     1     -11.528   7.724  71.476  1.00  0.00    -0.298 C  
HETATM   16  C   UNL     1     -10.963   7.550  70.051  1.00  0.00    -0.252 C  
HETATM   17  C   UNL     1      -9.527   8.067  69.923  1.00  0.00    -0.160 C  
HETATM   18  C   UNL     1     -11.021   6.085  69.619  1.00  0.00    -0.470 C  
ENDBRANCH  14  15
ENDBRANCH  13  14
ENDBRANCH  11  13
ENDBRANCH  10  11
ENDBRANCH   6   9
ENDBRANCH   2   3
TORSDOF 6
ENDMDL
MODEL       73
REMARK 921   NORMALIZED FREE ENERGY PREDICTED BY IDOCK:   -4.46 KCAL/MOL
REMARK 922        TOTAL FREE ENERGY PREDICTED BY IDOCK:   -6.81 KCAL/MOL
REMARK 923 INTER-LIGAND FREE ENERGY PREDICTED BY IDOCK:   -6.02 KCAL/MOL
REMARK 924 INTRA-LIGAND FREE ENERGY PREDICTED BY IDOCK:   -0.79 KCAL/MOL
REMARK 927      BINDING AFFINITY PREDICTED BY RF-SCORE:    0.00 PKD
ROOT
HETATM    1  C   UNL     1      -7.879  19.947  68.369  1.00  0.00    -0.235 C  
HETATM    2  O   UNL     1      -7.909  19.343  67.079  1.00  0.00    -0.244 OA 
ENDROOT
BRANCH   2   3
HETATM    3  C   UNL     1      -8.611  18.171  67.008  1.00  0.00    -0.254 A  
HETATM    4  C   UNL     1      -8.026  17.152  66.258  1.00  0.00    -0.339 A  
HETATM    5  C   UNL     1      -8.678  15.924  66.102  1.00  0.00    -0.328 A  
HETATM    6  C   UNL     1      -9.908  15.686  66.722  1.00  0.00    -0.255 A  
HETATM    7  C   UNL     1     -10.473  16.707  67.501  1.00  0.00    -0.317 A  
HETATM    8  C   UNL     1      -9.826  17.938  67.650  1.00  0.00    -0.304 A  
BRANCH   6   9
HETATM    9  C   UNL     1     -10.624  14.433  66.457  1.00  0.00    -0.296 C  
HETATM   10  C   UNL     1     -10.846  13.491  67.384  1.00  0.00    -0.279 C  
BRANCH  10  11
HETATM   11  C   UNL     1     -11.782  12.377  67.111  1.00  0.00    -0.345 C  
HETATM   12  O   UNL     1     -12.186  12.039  66.011  1.00  0.00    -0.546 OA 
BRANCH  11  13
HETATM   13  O   UNL     1     -12.265  11.971  68.314  1.00  0.00    -0.398 OA 
BRANCH  13  14
HETATM   14  C   UNL     1     -11.604  12.569  69.434  1.00  0.00    -0.305 C  
BRANCH  14  15
HETATM   15  C   UNL     1     -12.555  12.866  70.589  1.00  0.00    -0.256 C  
HETATM   16  C   UNL     1     -12.305  14.269  71.180  1.00  0.00    -0.440 C  
HETATM   17  C   UNL     1     -12.523  15.384  70.153  1.00  0.00    -0.370 C  
HETATM   18  C   UNL     1     -13.196  14.513  72.397  1.00  0.00    -0.508 C  
ENDBRANCH  14  15
ENDBRANCH  13  14
ENDBRANCH  11  13
ENDBRANCH  10  11
ENDBRANCH   6   9
ENDBRANCH   2   3
TORSDOF 6
ENDMDL
MODEL       74
REMARK 921   NORMALIZED FREE ENERGY PREDICTED BY IDOCK:   -4.44 KCAL/MOL
REMARK 922        TOTAL FREE ENERGY PREDICTED BY IDOCK:   -6.78 KCAL/MOL
REMARK 923 INTER-LIGAND FREE ENERGY PREDICTED BY IDOCK:   -6.10 KCAL/MOL
REMARK 924 INTRA-LIGAND FREE ENERGY PREDICTED BY IDOCK:   -0.69 KCAL/MOL
REMARK 927      BINDING AFFINITY PREDICTED BY RF-SCORE:    0.00 PKD
ROOT
HETATM    1  C   UNL     1     -11.430   6.929  72.132  1.00  0.00    -0.279 C  
HETATM    2  O   UNL     1     -11.359   8.273  72.598  1.00  0.00    -0.390 OA 
ENDROOT
BRANCH   2   3
HETATM    3  C   UNL     1     -11.431   9.227  71.619  1.00  0.00    -0.398 A  
HETATM    4  C   UNL     1     -12.585  10.007  71.608  1.00  0.00    -0.524 A  
HETATM    5  C   UNL     1     -12.766  10.991  70.630  1.00  0.00    -0.375 A  
HETATM    6  C   UNL     1     -11.779  11.230  69.669  1.00  0.00    -0.420 A  
HETATM    7  C   UNL     1     -10.607  10.460  69.707  1.00  0.00    -0.302 A  
HETATM    8  C   UNL     1     -10.429   9.471  70.680  1.00  0.00    -0.374 A  
BRANCH   6   9
HETATM    9  C   UNL     1     -12.036  12.190  68.589  1.00  0.00    -0.290 C  
HETATM   10  C   UNL     1     -11.317  12.252  67.459  1.00  0.00    -0.388 C  
BRANCH  10  11
HETATM   11  C   UNL     1     -11.783  13.070  66.318  1.00  0.00    -0.387 C  
HETATM   12  O   UNL     1     -12.414  14.111  66.397  1.00  0.00    -0.461 OA 
BRANCH  11  13
HETATM   13  O   UNL     1     -11.576  12.329  65.198  1.00  0.00    -0.340 OA 
BRANCH  13  14
HETATM   14  C   UNL     1     -10.195  12.103  64.902  1.00  0.00    -0.280 C  
BRANCH  14  15
HETATM   15  C   UNL     1      -9.936  10.717  64.320  1.00  0.00    -0.403 C  
HETATM   16  C   UNL     1      -8.557  10.173  64.746  1.00  0.00    -0.191 C  
HETATM   17  C   UNL     1      -8.429  10.025  66.265  1.00  0.00    -0.134 C  
HETATM   18  C   UNL     1      -8.272   8.829  64.075  1.00  0.00    -0.161 C  
ENDBRANCH  14  15
ENDBRANCH  13  14
ENDBRANCH  11  13
ENDBRANCH  10  11
ENDBRANCH   6   9
ENDBRANCH   2   3
TORSDOF 6
ENDMDL
MODEL       75
REMARK 921   NORMALIZED FREE ENERGY PREDICTED BY IDOCK:   -4.42 KCAL/MOL
REMARK 922        TOTAL FREE ENERGY PREDICTED BY IDOCK:   -6.75 KCAL/MOL
REMARK 923 INTER-LIGAND FREE ENERGY PREDICTED BY IDOCK:   -5.94 KCAL/MOL
REMARK 924 INTRA-LIGAND FREE ENERGY PREDICTED BY IDOCK:   -0.81 KCAL/MOL
REMARK 927      BINDING AFFINITY PREDICTED BY RF-SCORE:    0.00 PKD
ROOT
HETATM    1  C   UNL     1     -11.410  15.785  64.553  1.00  0.00    -0.316 C  
HETATM    2  O   UNL     1     -11.487  14.367  64.675  1.00  0.00    -0.377 OA 
ENDROOT
BRANCH   2   3
HETATM    3  C   UNL     1     -11.559  13.903  65.961  1.00  0.00    -0.349 A  
HETATM    4  C   UNL     1     -11.438  12.524  66.121  1.00  0.00    -0.426 A  
HETATM    5  C   UNL     1     -11.526  11.949  67.393  1.00  0.00    -0.393 A  
HETATM    6  C   UNL     1     -11.701  12.749  68.527  1.00  0.00    -0.371 A  
HETATM    7  C   UNL     1     -11.789  14.139  68.358  1.00  0.00    -0.388 A  
HETATM    8  C   UNL     1     -11.711  14.714  67.085  1.00  0.00    -0.392 A  
BRANCH   6   9
HETATM    9  C   UNL     1     -11.898  12.118  69.836  1.00  0.00    -0.392 C  
HETATM   10  C   UNL     1     -12.245  10.834  70.001  1.00  0.00    -0.409 C  
BRANCH  10  11
HETATM   11  C   UNL     1     -12.184  10.206  71.340  1.00  0.00    -0.397 C  
HETATM   12  O   UNL     1     -12.979  10.383  72.247  1.00  0.00    -0.382 OA 
BRANCH  11  13
HETATM   13  O   UNL     1     -10.974   9.596  71.428  1.00  0.00    -0.360 OA 
BRANCH  13  14
HETATM   14  C   UNL     1     -10.770   8.572  70.450  1.00  0.00    -0.228 C  
BRANCH  14  15
HETATM   15  C   UNL     1      -9.476   8.756  69.664  1.00  0.00    -0.170 C  
HETATM   16  C   UNL     1      -9.497   7.958  68.344  1.00  0.00    -0.150 C  
HETATM   17  C   UNL     1     -10.627   8.402  67.410  1.00  0.00    -0.313 C  
HETATM   18  C   UNL     1      -8.157   8.074  67.617  1.00  0.00    -0.124 C  
ENDBRANCH  14  15
ENDBRANCH  13  14
ENDBRANCH  11  13
ENDBRANCH  10  11
ENDBRANCH   6   9
ENDBRANCH   2   3
TORSDOF 6
ENDMDL
MODEL       76
REMARK 921   NORMALIZED FREE ENERGY PREDICTED BY IDOCK:   -4.41 KCAL/MOL
REMARK 922        TOTAL FREE ENERGY PREDICTED BY IDOCK:   -6.74 KCAL/MOL
REMARK 923 INTER-LIGAND FREE ENERGY PREDICTED BY IDOCK:   -6.26 KCAL/MOL
REMARK 924 INTRA-LIGAND FREE ENERGY PREDICTED BY IDOCK:   -0.49 KCAL/MOL
REMARK 927      BINDING AFFINITY PREDICTED BY RF-SCORE:    0.00 PKD
ROOT
HETATM    1  C   UNL     1     -11.214   7.285  70.815  1.00  0.00    -0.274 C  
HETATM    2  O   UNL     1     -10.803   8.575  71.258  1.00  0.00    -0.229 OA 
ENDROOT
BRANCH   2   3
HETATM    3  C   UNL     1     -11.182   9.610  70.446  1.00  0.00    -0.283 A  
HETATM    4  C   UNL     1     -10.857   9.481  69.097  1.00  0.00    -0.194 A  
HETATM    5  C   UNL     1     -11.177  10.497  68.191  1.00  0.00    -0.357 A  
HETATM    6  C   UNL     1     -11.857  11.643  68.616  1.00  0.00    -0.370 A  
HETATM    7  C   UNL     1     -12.207  11.749  69.970  1.00  0.00    -0.317 A  
HETATM    8  C   UNL     1     -11.880  10.738  70.878  1.00  0.00    -0.400 A  
BRANCH   6   9
HETATM    9  C   UNL     1     -12.085  12.742  67.672  1.00  0.00    -0.200 C  
HETATM   10  C   UNL     1     -11.504  12.824  66.467  1.00  0.00    -0.409 C  
BRANCH  10  11
HETATM   11  C   UNL     1     -11.968  13.822  65.477  1.00  0.00    -0.384 C  
HETATM   12  O   UNL     1     -13.127  14.017  65.151  1.00  0.00    -0.776 OA 
BRANCH  11  13
HETATM   13  O   UNL     1     -10.858  14.298  64.855  1.00  0.00    -0.373 OA 
BRANCH  13  14
HETATM   14  C   UNL     1     -10.003  15.066  65.708  1.00  0.00    -0.346 C  
BRANCH  14  15
HETATM   15  C   UNL     1     -10.327  16.556  65.681  1.00  0.00    -0.342 C  
HETATM   16  C   UNL     1      -9.417  17.350  66.641  1.00  0.00    -0.285 C  
HETATM   17  C   UNL     1      -7.935  17.233  66.274  1.00  0.00    -0.330 C  
HETATM   18  C   UNL     1      -9.821  18.824  66.676  1.00  0.00    -0.387 C  
ENDBRANCH  14  15
ENDBRANCH  13  14
ENDBRANCH  11  13
ENDBRANCH  10  11
ENDBRANCH   6   9
ENDBRANCH   2   3
TORSDOF 6
ENDMDL
MODEL       77
REMARK 921   NORMALIZED FREE ENERGY PREDICTED BY IDOCK:   -4.37 KCAL/MOL
REMARK 922        TOTAL FREE ENERGY PREDICTED BY IDOCK:   -6.69 KCAL/MOL
REMARK 923 INTER-LIGAND FREE ENERGY PREDICTED BY IDOCK:   -6.27 KCAL/MOL
REMARK 924 INTRA-LIGAND FREE ENERGY PREDICTED BY IDOCK:   -0.41 KCAL/MOL
REMARK 927      BINDING AFFINITY PREDICTED BY RF-SCORE:    0.00 PKD
ROOT
HETATM    1  C   UNL     1     -11.197   4.300  73.499  1.00  0.00    -0.272 C  
HETATM    2  O   UNL     1     -10.866   5.631  73.883  1.00  0.00    -0.247 OA 
ENDROOT
BRANCH   2   3
HETATM    3  C   UNL     1     -11.080   6.578  72.918  1.00  0.00    -0.223 A  
HETATM    4  C   UNL     1     -10.271   7.712  72.984  1.00  0.00    -0.379 A  
HETATM    5  C   UNL     1     -10.430   8.750  72.060  1.00  0.00    -0.414 A  
HETATM    6  C   UNL     1     -11.377   8.654  71.036  1.00  0.00    -0.322 A  
HETATM    7  C   UNL     1     -12.165   7.495  70.959  1.00  0.00    -0.288 A  
HETATM    8  C   UNL     1     -12.012   6.460  71.888  1.00  0.00    -0.381 A  
BRANCH   6   9
HETATM    9  C   UNL     1     -11.601   9.797  70.145  1.00  0.00    -0.239 C  
HETATM   10  C   UNL     1     -11.855  11.041  70.577  1.00  0.00    -0.464 C  
BRANCH  10  11
HETATM   11  C   UNL     1     -11.824  12.182  69.636  1.00  0.00    -0.322 C  
HETATM   12  O   UNL     1     -11.893  13.360  69.941  1.00  0.00    -0.309 OA 
BRANCH  11  13
HETATM   13  O   UNL     1     -11.935  11.660  68.387  1.00  0.00    -0.483 OA 
BRANCH  13  14
HETATM   14  C   UNL     1     -11.055  12.257  67.429  1.00  0.00    -0.282 C  
BRANCH  14  15
HETATM   15  C   UNL     1     -11.739  12.540  66.096  1.00  0.00    -0.466 C  
HETATM   16  C   UNL     1     -10.735  12.500  64.925  1.00  0.00    -0.327 C  
HETATM   17  C   UNL     1     -10.064  11.131  64.776  1.00  0.00    -0.351 C  
HETATM   18  C   UNL     1     -11.416  12.882  63.611  1.00  0.00    -0.506 C  
ENDBRANCH  14  15
ENDBRANCH  13  14
ENDBRANCH  11  13
ENDBRANCH  10  11
ENDBRANCH   6   9
ENDBRANCH   2   3
TORSDOF 6
ENDMDL
MODEL       78
REMARK 921   NORMALIZED FREE ENERGY PREDICTED BY IDOCK:   -4.34 KCAL/MOL
REMARK 922        TOTAL FREE ENERGY PREDICTED BY IDOCK:   -6.65 KCAL/MOL
REMARK 923 INTER-LIGAND FREE ENERGY PREDICTED BY IDOCK:   -5.83 KCAL/MOL
REMARK 924 INTRA-LIGAND FREE ENERGY PREDICTED BY IDOCK:   -0.82 KCAL/MOL
REMARK 927      BINDING AFFINITY PREDICTED BY RF-SCORE:    0.00 PKD
ROOT
HETATM    1  C   UNL     1     -10.781  16.682  68.814  1.00  0.00    -0.342 C  
HETATM    2  O   UNL     1     -12.006  15.961  68.728  1.00  0.00    -0.368 OA 
ENDROOT
BRANCH   2   3
HETATM    3  C   UNL     1     -11.869  14.609  68.560  1.00  0.00    -0.311 A  
HETATM    4  C   UNL     1     -11.932  13.840  69.720  1.00  0.00    -0.406 A  
HETATM    5  C   UNL     1     -11.775  12.451  69.659  1.00  0.00    -0.377 A  
HETATM    6  C   UNL     1     -11.586  11.809  68.431  1.00  0.00    -0.380 A  
HETATM    7  C   UNL     1     -11.555  12.590  67.266  1.00  0.00    -0.434 A  
HETATM    8  C   UNL     1     -11.703  13.979  67.328  1.00  0.00    -0.420 A  
BRANCH   6   9
HETATM    9  C   UNL     1     -11.315  10.368  68.400  1.00  0.00    -0.292 C  
HETATM   10  C   UNL     1     -10.769   9.733  67.353  1.00  0.00    -0.314 C  
BRANCH  10  11
HETATM   11  C   UNL     1     -10.300   8.336  67.485  1.00  0.00    -0.265 C  
HETATM   12  O   UNL     1     -10.792   7.364  66.937  1.00  0.00    -0.357 OA 
BRANCH  11  13
HETATM   13  O   UNL     1      -9.388   8.325  68.491  1.00  0.00    -0.139 OA 
BRANCH  13  14
HETATM   14  C   UNL     1      -9.456   7.162  69.322  1.00  0.00    -0.152 C  
BRANCH  14  15
HETATM   15  C   UNL     1      -9.638   7.501  70.798  1.00  0.00    -0.166 C  
HETATM   16  C   UNL     1     -11.105   7.855  71.120  1.00  0.00    -0.278 C  
HETATM   17  C   UNL     1     -12.063   6.696  70.830  1.00  0.00    -0.379 C  
HETATM   18  C   UNL     1     -11.251   8.288  72.579  1.00  0.00    -0.446 C  
ENDBRANCH  14  15
ENDBRANCH  13  14
ENDBRANCH  11  13
ENDBRANCH  10  11
ENDBRANCH   6   9
ENDBRANCH   2   3
TORSDOF 6
ENDMDL
MODEL       79
REMARK 921   NORMALIZED FREE ENERGY PREDICTED BY IDOCK:   -4.31 KCAL/MOL
REMARK 922        TOTAL FREE ENERGY PREDICTED BY IDOCK:   -6.60 KCAL/MOL
REMARK 923 INTER-LIGAND FREE ENERGY PREDICTED BY IDOCK:   -6.24 KCAL/MOL
REMARK 924 INTRA-LIGAND FREE ENERGY PREDICTED BY IDOCK:   -0.36 KCAL/MOL
REMARK 927      BINDING AFFINITY PREDICTED BY RF-SCORE:    0.00 PKD
ROOT
HETATM    1  C   UNL     1      -6.062  18.881  66.380  1.00  0.00    -0.167 C  
HETATM    2  O   UNL     1      -7.096  19.685  66.940  1.00  0.00    -0.208 OA 
ENDROOT
BRANCH   2   3
HETATM    3  C   UNL     1      -8.114  18.987  67.530  1.00  0.00    -0.267 A  
HETATM    4  C   UNL     1      -7.995  17.599  67.511  1.00  0.00    -0.210 A  
HETATM    5  C   UNL     1      -8.996  16.794  68.064  1.00  0.00    -0.217 A  
HETATM    6  C   UNL     1     -10.115  17.368  68.676  1.00  0.00    -0.355 A  
HETATM    7  C   UNL     1     -10.209  18.767  68.719  1.00  0.00    -0.318 A  
HETATM    8  C   UNL     1      -9.213  19.572  68.158  1.00  0.00    -0.411 A  
BRANCH   6   9
HETATM    9  C   UNL     1     -11.202  16.507  69.153  1.00  0.00    -0.221 C  
HETATM   10  C   UNL     1     -11.235  15.953  70.373  1.00  0.00    -0.392 C  
BRANCH  10  11
HETATM   11  C   UNL     1     -12.470  15.305  70.869  1.00  0.00    -0.388 C  
HETATM   12  O   UNL     1     -13.571  15.825  70.934  1.00  0.00    -0.538 OA 
BRANCH  11  13
HETATM   13  O   UNL     1     -12.092  14.131  71.438  1.00  0.00    -0.334 OA 
BRANCH  13  14
HETATM   14  C   UNL     1     -12.653  12.975  70.807  1.00  0.00    -0.241 C  
BRANCH  14  15
HETATM   15  C   UNL     1     -13.130  11.930  71.810  1.00  0.00    -0.465 C  
HETATM   16  C   UNL     1     -12.900  10.497  71.285  1.00  0.00    -0.532 C  
HETATM   17  C   UNL     1     -11.420  10.197  71.030  1.00  0.00    -0.436 C  
HETATM   18  C   UNL     1     -13.472   9.464  72.255  1.00  0.00    -0.539 C  
ENDBRANCH  14  15
ENDBRANCH  13  14
ENDBRANCH  11  13
ENDBRANCH  10  11
ENDBRANCH   6   9
ENDBRANCH   2   3
TORSDOF 6
ENDMDL
MODEL       80
REMARK 921   NORMALIZED FREE ENERGY PREDICTED BY IDOCK:   -4.30 KCAL/MOL
REMARK 922        TOTAL FREE ENERGY PREDICTED BY IDOCK:   -6.59 KCAL/MOL
REMARK 923 INTER-LIGAND FREE ENERGY PREDICTED BY IDOCK:   -5.85 KCAL/MOL
REMARK 924 INTRA-LIGAND FREE ENERGY PREDICTED BY IDOCK:   -0.74 KCAL/MOL
REMARK 927      BINDING AFFINITY PREDICTED BY RF-SCORE:    0.00 PKD
ROOT
HETATM    1  C   UNL     1     -11.879  14.289  65.353  1.00  0.00    -0.363 C  
HETATM    2  O   UNL     1     -10.648  13.821  65.899  1.00  0.00    -0.280 OA 
ENDROOT
BRANCH   2   3
HETATM    3  C   UNL     1     -10.654  12.512  66.295  1.00  0.00    -0.248 A  
HETATM    4  C   UNL     1     -11.449  12.210  67.400  1.00  0.00    -0.415 A  
HETATM    5  C   UNL     1     -11.501  10.905  67.900  1.00  0.00    -0.344 A  
HETATM    6  C   UNL     1     -10.786   9.875  67.280  1.00  0.00    -0.304 A  
HETATM    7  C   UNL     1     -10.014  10.183  66.150  1.00  0.00    -0.310 A  
HETATM    8  C   UNL     1      -9.954  11.490  65.655  1.00  0.00    -0.275 A  
BRANCH   6   9
HETATM    9  C   UNL     1     -10.769   8.538  67.884  1.00  0.00    -0.148 C  
HETATM   10  C   UNL     1     -10.254   8.272  69.092  1.00  0.00    -0.223 C  
BRANCH  10  11
HETATM   11  C   UNL     1     -10.493   6.961  69.737  1.00  0.00    -0.217 C  
HETATM   12  O   UNL     1     -11.044   6.003  69.221  1.00  0.00    -0.364 OA 
BRANCH  11  13
HETATM   13  O   UNL     1     -10.195   7.115  71.053  1.00  0.00    -0.196 OA 
BRANCH  13  14
HETATM   14  C   UNL     1     -11.343   7.273  71.892  1.00  0.00    -0.254 C  
BRANCH  14  15
HETATM   15  C   UNL     1     -11.635   8.733  72.223  1.00  0.00    -0.391 C  
HETATM   16  C   UNL     1     -12.909   9.231  71.510  1.00  0.00    -0.427 C  
HETATM   17  C   UNL     1     -14.157   8.445  71.924  1.00  0.00    -0.516 C  
HETATM   18  C   UNL     1     -13.132  10.720  71.772  1.00  0.00    -0.573 C  
ENDBRANCH  14  15
ENDBRANCH  13  14
ENDBRANCH  11  13
ENDBRANCH  10  11
ENDBRANCH   6   9
ENDBRANCH   2   3
TORSDOF 6
ENDMDL
MODEL       81
REMARK 921   NORMALIZED FREE ENERGY PREDICTED BY IDOCK:   -4.30 KCAL/MOL
REMARK 922        TOTAL FREE ENERGY PREDICTED BY IDOCK:   -6.59 KCAL/MOL
REMARK 923 INTER-LIGAND FREE ENERGY PREDICTED BY IDOCK:   -5.90 KCAL/MOL
REMARK 924 INTRA-LIGAND FREE ENERGY PREDICTED BY IDOCK:   -0.68 KCAL/MOL
REMARK 927      BINDING AFFINITY PREDICTED BY RF-SCORE:    0.00 PKD
ROOT
HETATM    1  C   UNL     1      -8.469   7.813  66.727  1.00  0.00    -0.126 C  
HETATM    2  O   UNL     1      -9.445   8.305  67.641  1.00  0.00    -0.145 OA 
ENDROOT
BRANCH   2   3
HETATM    3  C   UNL     1     -10.057   9.468  67.259  1.00  0.00    -0.215 A  
HETATM    4  C   UNL     1      -9.880   9.843  65.929  1.00  0.00    -0.342 A  
HETATM    5  C   UNL     1     -10.443  11.030  65.447  1.00  0.00    -0.306 A  
HETATM    6  C   UNL     1     -11.219  11.841  66.281  1.00  0.00    -0.370 A  
HETATM    7  C   UNL     1     -11.417  11.438  67.610  1.00  0.00    -0.348 A  
HETATM    8  C   UNL     1     -10.847  10.256  68.095  1.00  0.00    -0.312 A  
BRANCH   6   9
HETATM    9  C   UNL     1     -11.708  13.132  65.786  1.00  0.00    -0.415 C  
HETATM   10  C   UNL     1     -10.907  14.139  65.410  1.00  0.00    -0.341 C  
BRANCH  10  11
HETATM   11  C   UNL     1     -11.461  15.310  64.694  1.00  0.00    -0.354 C  
HETATM   12  O   UNL     1     -12.404  15.293  63.921  1.00  0.00    -0.655 OA 
BRANCH  11  13
HETATM   13  O   UNL     1     -10.586  16.332  64.885  1.00  0.00    -0.650 OA 
BRANCH  13  14
HETATM   14  C   UNL     1      -9.585  16.059  65.871  1.00  0.00    -0.335 C  
BRANCH  14  15
HETATM   15  C   UNL     1      -9.802  16.840  67.163  1.00  0.00    -0.259 C  
HETATM   16  C   UNL     1     -10.395  15.945  68.271  1.00  0.00    -0.242 C  
HETATM   17  C   UNL     1      -9.476  14.774  68.632  1.00  0.00    -0.213 C  
HETATM   18  C   UNL     1     -10.699  16.763  69.526  1.00  0.00    -0.273 C  
ENDBRANCH  14  15
ENDBRANCH  13  14
ENDBRANCH  11  13
ENDBRANCH  10  11
ENDBRANCH   6   9
ENDBRANCH   2   3
TORSDOF 6
ENDMDL
MODEL       82
REMARK 921   NORMALIZED FREE ENERGY PREDICTED BY IDOCK:   -4.29 KCAL/MOL
REMARK 922        TOTAL FREE ENERGY PREDICTED BY IDOCK:   -6.58 KCAL/MOL
REMARK 923 INTER-LIGAND FREE ENERGY PREDICTED BY IDOCK:   -6.13 KCAL/MOL
REMARK 924 INTRA-LIGAND FREE ENERGY PREDICTED BY IDOCK:   -0.45 KCAL/MOL
REMARK 927      BINDING AFFINITY PREDICTED BY RF-SCORE:    0.00 PKD
ROOT
HETATM    1  C   UNL     1      -9.471  10.177  62.479  1.00  0.00    -0.235 C  
HETATM    2  O   UNL     1      -9.241   9.667  63.790  1.00  0.00    -0.248 OA 
ENDROOT
BRANCH   2   3
HETATM    3  C   UNL     1      -9.805  10.399  64.800  1.00  0.00    -0.340 A  
HETATM    4  C   UNL     1      -9.996   9.731  66.007  1.00  0.00    -0.342 A  
HETATM    5  C   UNL     1     -10.590  10.384  67.092  1.00  0.00    -0.319 A  
HETATM    6  C   UNL     1     -10.970  11.727  66.995  1.00  0.00    -0.333 A  
HETATM    7  C   UNL     1     -10.744  12.400  65.784  1.00  0.00    -0.301 A  
HETATM    8  C   UNL     1     -10.158  11.744  64.697  1.00  0.00    -0.310 A  
BRANCH   6   9
HETATM    9  C   UNL     1     -11.688  12.360  68.106  1.00  0.00    -0.408 C  
HETATM   10  C   UNL     1     -11.658  11.908  69.368  1.00  0.00    -0.388 C  
BRANCH  10  11
HETATM   11  C   UNL     1     -12.199  12.732  70.472  1.00  0.00    -0.307 C  
HETATM   12  O   UNL     1     -12.961  12.346  71.342  1.00  0.00    -0.361 OA 
BRANCH  11  13
HETATM   13  O   UNL     1     -11.870  14.020  70.193  1.00  0.00    -0.287 OA 
BRANCH  13  14
HETATM   14  C   UNL     1     -12.802  14.978  70.706  1.00  0.00    -0.392 C  
BRANCH  14  15
HETATM   15  C   UNL     1     -12.139  16.031  71.588  1.00  0.00    -0.537 C  
HETATM   16  C   UNL     1     -12.646  15.950  73.043  1.00  0.00    -0.606 C  
HETATM   17  C   UNL     1     -12.341  14.599  73.695  1.00  0.00    -0.349 C  
HETATM   18  C   UNL     1     -12.047  17.073  73.890  1.00  0.00    -0.065 C  
ENDBRANCH  14  15
ENDBRANCH  13  14
ENDBRANCH  11  13
ENDBRANCH  10  11
ENDBRANCH   6   9
ENDBRANCH   2   3
TORSDOF 6
ENDMDL
MODEL       83
REMARK 921   NORMALIZED FREE ENERGY PREDICTED BY IDOCK:   -4.28 KCAL/MOL
REMARK 922        TOTAL FREE ENERGY PREDICTED BY IDOCK:   -6.56 KCAL/MOL
REMARK 923 INTER-LIGAND FREE ENERGY PREDICTED BY IDOCK:   -5.74 KCAL/MOL
REMARK 924 INTRA-LIGAND FREE ENERGY PREDICTED BY IDOCK:   -0.83 KCAL/MOL
REMARK 927      BINDING AFFINITY PREDICTED BY RF-SCORE:    0.00 PKD
ROOT
HETATM    1  C   UNL     1     -12.076  14.389  64.307  1.00  0.00    -0.436 C  
HETATM    2  O   UNL     1     -12.683  13.195  64.793  1.00  0.00    -0.648 OA 
ENDROOT
BRANCH   2   3
HETATM    3  C   UNL     1     -12.111  12.677  65.923  1.00  0.00    -0.396 A  
HETATM    4  C   UNL     1     -11.329  11.537  65.745  1.00  0.00    -0.160 A  
HETATM    5  C   UNL     1     -10.723  10.916  66.843  1.00  0.00    -0.318 A  
HETATM    6  C   UNL     1     -10.863  11.446  68.129  1.00  0.00    -0.259 A  
HETATM    7  C   UNL     1     -11.627  12.612  68.292  1.00  0.00    -0.377 A  
HETATM    8  C   UNL     1     -12.240  13.228  67.197  1.00  0.00    -0.281 A  
BRANCH   6   9
HETATM    9  C   UNL     1     -10.311  10.719  69.277  1.00  0.00    -0.228 C  
HETATM   10  C   UNL     1     -11.046  10.289  70.312  1.00  0.00    -0.388 C  
BRANCH  10  11
HETATM   11  C   UNL     1     -10.470   9.355  71.304  1.00  0.00    -0.315 C  
HETATM   12  O   UNL     1      -9.284   9.229  71.560  1.00  0.00    -0.305 OA 
BRANCH  11  13
HETATM   13  O   UNL     1     -11.476   8.529  71.691  1.00  0.00    -0.264 OA 
BRANCH  13  14
HETATM   14  C   UNL     1     -11.885   7.602  70.680  1.00  0.00    -0.147 C  
BRANCH  14  15
HETATM   15  C   UNL     1     -10.823   6.549  70.382  1.00  0.00    -0.326 C  
HETATM   16  C   UNL     1     -10.895   6.072  68.916  1.00  0.00    -0.400 C  
HETATM   17  C   UNL     1     -10.658   7.208  67.918  1.00  0.00    -0.269 C  
HETATM   18  C   UNL     1      -9.892   4.948  68.661  1.00  0.00    -0.221 C  
ENDBRANCH  14  15
ENDBRANCH  13  14
ENDBRANCH  11  13
ENDBRANCH  10  11
ENDBRANCH   6   9
ENDBRANCH   2   3
TORSDOF 6
ENDMDL
MODEL       84
REMARK 921   NORMALIZED FREE ENERGY PREDICTED BY IDOCK:   -4.28 KCAL/MOL
REMARK 922        TOTAL FREE ENERGY PREDICTED BY IDOCK:   -6.56 KCAL/MOL
REMARK 923 INTER-LIGAND FREE ENERGY PREDICTED BY IDOCK:   -5.74 KCAL/MOL
REMARK 924 INTRA-LIGAND FREE ENERGY PREDICTED BY IDOCK:   -0.83 KCAL/MOL
REMARK 927      BINDING AFFINITY PREDICTED BY RF-SCORE:    0.00 PKD
ROOT
HETATM    1  C   UNL     1     -10.388  14.775  66.064  1.00  0.00    -0.305 C  
HETATM    2  O   UNL     1     -11.371  13.819  65.676  1.00  0.00    -0.302 OA 
ENDROOT
BRANCH   2   3
HETATM    3  C   UNL     1     -11.073  12.523  66.001  1.00  0.00    -0.294 A  
HETATM    4  C   UNL     1     -10.459  11.768  65.003  1.00  0.00    -0.332 A  
HETATM    5  C   UNL     1     -10.140  10.424  65.227  1.00  0.00    -0.370 A  
HETATM    6  C   UNL     1     -10.399   9.827  66.465  1.00  0.00    -0.262 A  
HETATM    7  C   UNL     1     -10.989  10.605  67.473  1.00  0.00    -0.371 A  
HETATM    8  C   UNL     1     -11.317  11.945  67.246  1.00  0.00    -0.393 A  
BRANCH   6   9
HETATM    9  C   UNL     1     -10.157   8.391  66.642  1.00  0.00    -0.358 C  
HETATM   10  C   UNL     1     -10.785   7.635  67.553  1.00  0.00    -0.280 C  
BRANCH  10  11
HETATM   11  C   UNL     1     -10.673   6.160  67.509  1.00  0.00    -0.313 C  
HETATM   12  O   UNL     1     -10.830   5.462  66.521  1.00  0.00    -0.287 OA 
BRANCH  11  13
HETATM   13  O   UNL     1     -10.593   5.737  68.797  1.00  0.00    -0.231 OA 
BRANCH  13  14
HETATM   14  C   UNL     1     -11.517   6.386  69.677  1.00  0.00    -0.378 C  
BRANCH  14  15
HETATM   15  C   UNL     1     -10.933   6.639  71.063  1.00  0.00    -0.305 C  
HETATM   16  C   UNL     1     -10.334   8.056  71.175  1.00  0.00    -0.229 C  
HETATM   17  C   UNL     1     -11.380   9.152  70.950  1.00  0.00    -0.359 C  
HETATM   18  C   UNL     1      -9.666   8.258  72.535  1.00  0.00    -0.368 C  
ENDBRANCH  14  15
ENDBRANCH  13  14
ENDBRANCH  11  13
ENDBRANCH  10  11
ENDBRANCH   6   9
ENDBRANCH   2   3
TORSDOF 6
ENDMDL
MODEL       85
REMARK 921   NORMALIZED FREE ENERGY PREDICTED BY IDOCK:   -4.27 KCAL/MOL
REMARK 922        TOTAL FREE ENERGY PREDICTED BY IDOCK:   -6.54 KCAL/MOL
REMARK 923 INTER-LIGAND FREE ENERGY PREDICTED BY IDOCK:   -5.88 KCAL/MOL
REMARK 924 INTRA-LIGAND FREE ENERGY PREDICTED BY IDOCK:   -0.66 KCAL/MOL
REMARK 927      BINDING AFFINITY PREDICTED BY RF-SCORE:    0.00 PKD
ROOT
HETATM    1  C   UNL     1      -5.959  16.357  69.557  1.00  0.00    -0.176 C  
HETATM    2  O   UNL     1      -6.710  17.469  69.079  1.00  0.00    -0.227 OA 
ENDROOT
BRANCH   2   3
HETATM    3  C   UNL     1      -7.697  17.156  68.184  1.00  0.00    -0.204 A  
HETATM    4  C   UNL     1      -7.725  15.835  67.742  1.00  0.00    -0.159 A  
HETATM    5  C   UNL     1      -8.678  15.421  66.806  1.00  0.00    -0.304 A  
HETATM    6  C   UNL     1      -9.639  16.316  66.324  1.00  0.00    -0.336 A  
HETATM    7  C   UNL     1      -9.622  17.636  66.799  1.00  0.00    -0.297 A  
HETATM    8  C   UNL     1      -8.664  18.052  67.729  1.00  0.00    -0.251 A  
BRANCH   6   9
HETATM    9  C   UNL     1     -10.559  15.890  65.264  1.00  0.00    -0.441 C  
HETATM   10  C   UNL     1     -10.878  14.611  65.022  1.00  0.00    -0.431 C  
BRANCH  10  11
HETATM   11  C   UNL     1     -11.993  14.276  64.108  1.00  0.00    -0.373 C  
HETATM   12  O   UNL     1     -12.870  15.041  63.743  1.00  0.00    -0.651 OA 
BRANCH  11  13
HETATM   13  O   UNL     1     -11.975  12.927  63.951  1.00  0.00    -0.408 OA 
BRANCH  13  14
HETATM   14  C   UNL     1     -10.693  12.404  63.588  1.00  0.00    -0.455 C  
BRANCH  14  15
HETATM   15  C   UNL     1     -10.465  10.989  64.110  1.00  0.00    -0.434 C  
HETATM   16  C   UNL     1      -9.375  10.958  65.201  1.00  0.00    -0.252 C  
HETATM   17  C   UNL     1      -9.745  11.805  66.422  1.00  0.00    -0.234 C  
HETATM   18  C   UNL     1      -9.088   9.523  65.642  1.00  0.00    -0.250 C  
ENDBRANCH  14  15
ENDBRANCH  13  14
ENDBRANCH  11  13
ENDBRANCH  10  11
ENDBRANCH   6   9
ENDBRANCH   2   3
TORSDOF 6
ENDMDL
MODEL       86
REMARK 921   NORMALIZED FREE ENERGY PREDICTED BY IDOCK:   -4.26 KCAL/MOL
REMARK 922        TOTAL FREE ENERGY PREDICTED BY IDOCK:   -6.54 KCAL/MOL
REMARK 923 INTER-LIGAND FREE ENERGY PREDICTED BY IDOCK:   -5.70 KCAL/MOL
REMARK 924 INTRA-LIGAND FREE ENERGY PREDICTED BY IDOCK:   -0.84 KCAL/MOL
REMARK 927      BINDING AFFINITY PREDICTED BY RF-SCORE:    0.00 PKD
ROOT
HETATM    1  C   UNL     1      -8.981   6.514  69.826  1.00  0.00    -0.142 C  
HETATM    2  O   UNL     1     -10.341   6.803  70.136  1.00  0.00    -0.195 OA 
ENDROOT
BRANCH   2   3
HETATM    3  C   UNL     1     -10.693   8.120  70.014  1.00  0.00    -0.243 A  
HETATM    4  C   UNL     1     -10.516   8.686  68.753  1.00  0.00    -0.209 A  
HETATM    5  C   UNL     1     -10.820  10.033  68.532  1.00  0.00    -0.270 A  
HETATM    6  C   UNL     1     -11.338  10.825  69.562  1.00  0.00    -0.355 A  
HETATM    7  C   UNL     1     -11.542  10.237  70.820  1.00  0.00    -0.446 A  
HETATM    8  C   UNL     1     -11.230   8.892  71.043  1.00  0.00    -0.342 A  
BRANCH   6   9
HETATM    9  C   UNL     1     -11.547  12.260  69.339  1.00  0.00    -0.378 C  
HETATM   10  C   UNL     1     -10.666  13.054  68.715  1.00  0.00    -0.250 C  
BRANCH  10  11
HETATM   11  C   UNL     1     -11.048  14.425  68.309  1.00  0.00    -0.259 C  
HETATM   12  O   UNL     1     -10.481  15.451  68.641  1.00  0.00    -0.227 OA 
BRANCH  11  13
HETATM   13  O   UNL     1     -12.260  14.326  67.701  1.00  0.00    -0.337 OA 
BRANCH  13  14
HETATM   14  C   UNL     1     -12.224  14.583  66.294  1.00  0.00    -0.250 C  
BRANCH  14  15
HETATM   15  C   UNL     1     -12.625  13.369  65.463  1.00  0.00    -0.520 C  
HETATM   16  C   UNL     1     -11.550  13.024  64.410  1.00  0.00    -0.418 C  
HETATM   17  C   UNL     1     -10.200  12.676  65.045  1.00  0.00    -0.294 C  
HETATM   18  C   UNL     1     -12.011  11.869  63.522  1.00  0.00    -0.567 C  
ENDBRANCH  14  15
ENDBRANCH  13  14
ENDBRANCH  11  13
ENDBRANCH  10  11
ENDBRANCH   6   9
ENDBRANCH   2   3
TORSDOF 6
ENDMDL
MODEL       87
REMARK 921   NORMALIZED FREE ENERGY PREDICTED BY IDOCK:   -4.23 KCAL/MOL
REMARK 922        TOTAL FREE ENERGY PREDICTED BY IDOCK:   -6.49 KCAL/MOL
REMARK 923 INTER-LIGAND FREE ENERGY PREDICTED BY IDOCK:   -6.01 KCAL/MOL
REMARK 924 INTRA-LIGAND FREE ENERGY PREDICTED BY IDOCK:   -0.48 KCAL/MOL
REMARK 927      BINDING AFFINITY PREDICTED BY RF-SCORE:    0.00 PKD
ROOT
HETATM    1  C   UNL     1     -10.422  18.492  66.341  1.00  0.00    -0.406 C  
HETATM    2  O   UNL     1     -10.468  17.553  65.270  1.00  0.00    -0.643 OA 
ENDROOT
BRANCH   2   3
HETATM    3  C   UNL     1     -10.626  16.249  65.653  1.00  0.00    -0.346 A  
HETATM    4  C   UNL     1     -10.730  16.023  67.024  1.00  0.00    -0.277 A  
HETATM    5  C   UNL     1     -10.867  14.722  67.519  1.00  0.00    -0.287 A  
HETATM    6  C   UNL     1     -10.936  13.631  66.647  1.00  0.00    -0.295 A  
HETATM    7  C   UNL     1     -10.862  13.873  65.267  1.00  0.00    -0.337 A  
HETATM    8  C   UNL     1     -10.716  15.173  64.772  1.00  0.00    -0.344 A  
BRANCH   6   9
HETATM    9  C   UNL     1     -10.970  12.269  67.190  1.00  0.00    -0.308 C  
HETATM   10  C   UNL     1     -10.463  11.201  66.559  1.00  0.00    -0.305 C  
BRANCH  10  11
HETATM   11  C   UNL     1     -10.312   9.912  67.270  1.00  0.00    -0.245 C  
HETATM   12  O   UNL     1      -9.522   9.028  66.984  1.00  0.00    -0.149 OA 
BRANCH  11  13
HETATM   13  O   UNL     1     -11.357   9.819  68.133  1.00  0.00    -0.097 OA 
BRANCH  13  14
HETATM   14  C   UNL     1     -10.967   9.602  69.493  1.00  0.00    -0.208 C  
BRANCH  14  15
HETATM   15  C   UNL     1     -11.507  10.669  70.439  1.00  0.00    -0.422 C  
HETATM   16  C   UNL     1     -12.775  10.185  71.173  1.00  0.00    -0.494 C  
HETATM   17  C   UNL     1     -12.515   8.947  72.035  1.00  0.00    -0.461 C  
HETATM   18  C   UNL     1     -13.359  11.300  72.041  1.00  0.00    -0.386 C  
ENDBRANCH  14  15
ENDBRANCH  13  14
ENDBRANCH  11  13
ENDBRANCH  10  11
ENDBRANCH   6   9
ENDBRANCH   2   3
TORSDOF 6
ENDMDL
MODEL       88
REMARK 921   NORMALIZED FREE ENERGY PREDICTED BY IDOCK:   -4.21 KCAL/MOL
REMARK 922        TOTAL FREE ENERGY PREDICTED BY IDOCK:   -6.48 KCAL/MOL
REMARK 923 INTER-LIGAND FREE ENERGY PREDICTED BY IDOCK:   -5.85 KCAL/MOL
REMARK 924 INTRA-LIGAND FREE ENERGY PREDICTED BY IDOCK:   -0.63 KCAL/MOL
REMARK 927      BINDING AFFINITY PREDICTED BY RF-SCORE:    0.00 PKD
ROOT
HETATM    1  C   UNL     1     -14.314  15.357  72.292  1.00  0.00    -0.483 C  
HETATM    2  O   UNL     1     -13.862  14.082  72.742  1.00  0.00    -0.674 OA 
ENDROOT
BRANCH   2   3
HETATM    3  C   UNL     1     -13.201  13.341  71.801  1.00  0.00    -0.405 A  
HETATM    4  C   UNL     1     -13.253  11.958  71.965  1.00  0.00    -0.461 A  
HETATM    5  C   UNL     1     -12.587  11.113  71.072  1.00  0.00    -0.503 A  
HETATM    6  C   UNL     1     -11.886  11.638  69.981  1.00  0.00    -0.435 A  
HETATM    7  C   UNL     1     -11.867  13.030  69.807  1.00  0.00    -0.381 A  
HETATM    8  C   UNL     1     -12.526  13.876  70.705  1.00  0.00    -0.436 A  
BRANCH   6   9
HETATM    9  C   UNL     1     -11.106  10.743  69.121  1.00  0.00    -0.304 C  
HETATM   10  C   UNL     1     -11.354  10.557  67.816  1.00  0.00    -0.267 C  
BRANCH  10  11
HETATM   11  C   UNL     1     -10.382   9.838  66.963  1.00  0.00    -0.239 C  
HETATM   12  O   UNL     1      -9.790   8.815  67.263  1.00  0.00    -0.172 OA 
BRANCH  11  13
HETATM   13  O   UNL     1     -10.117  10.650  65.907  1.00  0.00    -0.241 OA 
BRANCH  13  14
HETATM   14  C   UNL     1      -8.749  11.063  65.825  1.00  0.00    -0.174 C  
BRANCH  14  15
HETATM   15  C   UNL     1      -8.149  11.390  67.188  1.00  0.00    -0.155 C  
HETATM   16  C   UNL     1      -7.952  12.910  67.370  1.00  0.00    -0.178 C  
HETATM   17  C   UNL     1      -9.270  13.685  67.290  1.00  0.00    -0.232 C  
HETATM   18  C   UNL     1      -7.259  13.212  68.698  1.00  0.00    -0.106 C  
ENDBRANCH  14  15
ENDBRANCH  13  14
ENDBRANCH  11  13
ENDBRANCH  10  11
ENDBRANCH   6   9
ENDBRANCH   2   3
TORSDOF 6
ENDMDL
MODEL       89
REMARK 921   NORMALIZED FREE ENERGY PREDICTED BY IDOCK:   -4.18 KCAL/MOL
REMARK 922        TOTAL FREE ENERGY PREDICTED BY IDOCK:   -6.43 KCAL/MOL
REMARK 923 INTER-LIGAND FREE ENERGY PREDICTED BY IDOCK:   -6.08 KCAL/MOL
REMARK 924 INTRA-LIGAND FREE ENERGY PREDICTED BY IDOCK:   -0.35 KCAL/MOL
REMARK 927      BINDING AFFINITY PREDICTED BY RF-SCORE:    0.00 PKD
ROOT
HETATM    1  C   UNL     1      -7.740   6.730  63.829  1.00  0.00    -0.111 C  
HETATM    2  O   UNL     1      -7.655   7.995  63.180  1.00  0.00    -0.111 OA 
ENDROOT
BRANCH   2   3
HETATM    3  C   UNL     1      -8.496   8.954  63.676  1.00  0.00    -0.138 A  
HETATM    4  C   UNL     1      -8.757   8.890  65.044  1.00  0.00    -0.200 A  
HETATM    5  C   UNL     1      -9.626   9.809  65.642  1.00  0.00    -0.329 A  
HETATM    6  C   UNL     1     -10.218  10.826  64.888  1.00  0.00    -0.388 A  
HETATM    7  C   UNL     1      -9.923  10.901  63.518  1.00  0.00    -0.419 A  
HETATM    8  C   UNL     1      -9.062   9.978  62.917  1.00  0.00    -0.301 A  
BRANCH   6   9
HETATM    9  C   UNL     1     -11.208  11.710  65.512  1.00  0.00    -0.267 C  
HETATM   10  C   UNL     1     -11.148  13.049  65.464  1.00  0.00    -0.300 C  
BRANCH  10  11
HETATM   11  C   UNL     1     -12.303  13.867  65.899  1.00  0.00    -0.483 C  
HETATM   12  O   UNL     1     -13.320  14.062  65.256  1.00  0.00    -0.741 OA 
BRANCH  11  13
HETATM   13  O   UNL     1     -11.913  14.524  67.022  1.00  0.00    -0.404 OA 
BRANCH  13  14
HETATM   14  C   UNL     1     -12.150  13.796  68.231  1.00  0.00    -0.279 C  
BRANCH  14  15
HETATM   15  C   UNL     1     -11.562  14.483  69.458  1.00  0.00    -0.350 C  
HETATM   16  C   UNL     1     -12.479  14.326  70.689  1.00  0.00    -0.428 C  
HETATM   17  C   UNL     1     -12.685  12.861  71.082  1.00  0.00    -0.366 C  
HETATM   18  C   UNL     1     -11.924  15.103  71.883  1.00  0.00    -0.465 C  
ENDBRANCH  14  15
ENDBRANCH  13  14
ENDBRANCH  11  13
ENDBRANCH  10  11
ENDBRANCH   6   9
ENDBRANCH   2   3
TORSDOF 6
ENDMDL
MODEL       90
REMARK 921   NORMALIZED FREE ENERGY PREDICTED BY IDOCK:   -4.17 KCAL/MOL
REMARK 922        TOTAL FREE ENERGY PREDICTED BY IDOCK:   -6.42 KCAL/MOL
REMARK 923 INTER-LIGAND FREE ENERGY PREDICTED BY IDOCK:   -5.96 KCAL/MOL
REMARK 924 INTRA-LIGAND FREE ENERGY PREDICTED BY IDOCK:   -0.46 KCAL/MOL
REMARK 927      BINDING AFFINITY PREDICTED BY RF-SCORE:    0.00 PKD
ROOT
HETATM    1  C   UNL     1      -8.126   8.735  64.286  1.00  0.00    -0.157 C  
HETATM    2  O   UNL     1      -9.190   9.337  63.554  1.00  0.00    -0.056 OA 
ENDROOT
BRANCH   2   3
HETATM    3  C   UNL     1      -9.618  10.540  64.046  1.00  0.00    -0.311 A  
HETATM    4  C   UNL     1     -10.282  11.368  63.143  1.00  0.00    -0.380 A  
HETATM    5  C   UNL     1     -10.735  12.631  63.540  1.00  0.00    -0.337 A  
HETATM    6  C   UNL     1     -10.560  13.069  64.857  1.00  0.00    -0.355 A  
HETATM    7  C   UNL     1      -9.918  12.214  65.766  1.00  0.00    -0.271 A  
HETATM    8  C   UNL     1      -9.458  10.956  65.367  1.00  0.00    -0.254 A  
BRANCH   6   9
HETATM    9  C   UNL     1     -10.944  14.436  65.223  1.00  0.00    -0.355 C  
HETATM   10  C   UNL     1     -10.193  15.243  65.985  1.00  0.00    -0.335 C  
BRANCH  10  11
HETATM   11  C   UNL     1     -10.524  16.681  66.107  1.00  0.00    -0.285 C  
HETATM   12  O   UNL     1     -10.691  17.455  65.180  1.00  0.00    -0.684 OA 
BRANCH  11  13
HETATM   13  O   UNL     1     -10.377  17.004  67.418  1.00  0.00    -0.304 OA 
BRANCH  13  14
HETATM   14  C   UNL     1     -10.394  15.875  68.298  1.00  0.00    -0.242 C  
BRANCH  14  15
HETATM   15  C   UNL     1     -11.032  16.188  69.647  1.00  0.00    -0.346 C  
HETATM   16  C   UNL     1     -12.250  15.281  69.921  1.00  0.00    -0.357 C  
HETATM   17  C   UNL     1     -11.876  13.797  69.963  1.00  0.00    -0.377 C  
HETATM   18  C   UNL     1     -12.936  15.674  71.229  1.00  0.00    -0.556 C  
ENDBRANCH  14  15
ENDBRANCH  13  14
ENDBRANCH  11  13
ENDBRANCH  10  11
ENDBRANCH   6   9
ENDBRANCH   2   3
TORSDOF 6
ENDMDL
MODEL       91
REMARK 921   NORMALIZED FREE ENERGY PREDICTED BY IDOCK:   -4.16 KCAL/MOL
REMARK 922        TOTAL FREE ENERGY PREDICTED BY IDOCK:   -6.40 KCAL/MOL
REMARK 923 INTER-LIGAND FREE ENERGY PREDICTED BY IDOCK:   -5.72 KCAL/MOL
REMARK 924 INTRA-LIGAND FREE ENERGY PREDICTED BY IDOCK:   -0.68 KCAL/MOL
REMARK 927      BINDING AFFINITY PREDICTED BY RF-SCORE:    0.00 PKD
ROOT
HETATM    1  C   UNL     1      -5.867  20.503  69.631  1.00  0.00    -0.350 C  
HETATM    2  O   UNL     1      -6.383  20.669  68.313  1.00  0.00    -0.302 OA 
ENDROOT
BRANCH   2   3
HETATM    3  C   UNL     1      -6.958  19.549  67.775  1.00  0.00    -0.242 A  
HETATM    4  C   UNL     1      -7.715  18.770  68.647  1.00  0.00    -0.358 A  
HETATM    5  C   UNL     1      -8.321  17.591  68.201  1.00  0.00    -0.249 A  
HETATM    6  C   UNL     1      -8.206  17.193  66.865  1.00  0.00    -0.251 A  
HETATM    7  C   UNL     1      -7.467  18.001  65.987  1.00  0.00    -0.271 A  
HETATM    8  C   UNL     1      -6.854  19.175  66.435  1.00  0.00    -0.224 A  
BRANCH   6   9
HETATM    9  C   UNL     1      -8.757  15.900  66.444  1.00  0.00    -0.362 C  
HETATM   10  C   UNL     1     -10.065  15.608  66.453  1.00  0.00    -0.301 C  
BRANCH  10  11
HETATM   11  C   UNL     1     -10.564  14.385  65.786  1.00  0.00    -0.318 C  
HETATM   12  O   UNL     1     -10.338  14.058  64.633  1.00  0.00    -0.440 OA 
BRANCH  11  13
HETATM   13  O   UNL     1     -11.487  13.837  66.619  1.00  0.00    -0.320 OA 
BRANCH  13  14
HETATM   14  C   UNL     1     -10.957  13.439  67.888  1.00  0.00    -0.256 C  
BRANCH  14  15
HETATM   15  C   UNL     1     -12.036  13.272  68.952  1.00  0.00    -0.336 C  
HETATM   16  C   UNL     1     -11.863  14.292  70.097  1.00  0.00    -0.379 C  
HETATM   17  C   UNL     1     -11.967  15.741  69.611  1.00  0.00    -0.332 C  
HETATM   18  C   UNL     1     -12.891  14.048  71.202  1.00  0.00    -0.427 C  
ENDBRANCH  14  15
ENDBRANCH  13  14
ENDBRANCH  11  13
ENDBRANCH  10  11
ENDBRANCH   6   9
ENDBRANCH   2   3
TORSDOF 6
ENDMDL
MODEL       92
REMARK 921   NORMALIZED FREE ENERGY PREDICTED BY IDOCK:   -4.14 KCAL/MOL
REMARK 922        TOTAL FREE ENERGY PREDICTED BY IDOCK:   -6.37 KCAL/MOL
REMARK 923 INTER-LIGAND FREE ENERGY PREDICTED BY IDOCK:   -5.49 KCAL/MOL
REMARK 924 INTRA-LIGAND FREE ENERGY PREDICTED BY IDOCK:   -0.89 KCAL/MOL
REMARK 927      BINDING AFFINITY PREDICTED BY RF-SCORE:    0.00 PKD
ROOT
HETATM    1  C   UNL     1      -9.603  10.535  62.803  1.00  0.00    -0.289 C  
HETATM    2  O   UNL     1      -9.026  10.319  64.088  1.00  0.00    -0.197 OA 
ENDROOT
BRANCH   2   3
HETATM    3  C   UNL     1      -9.787  10.750  65.141  1.00  0.00    -0.277 A  
HETATM    4  C   UNL     1      -9.599  10.078  66.347  1.00  0.00    -0.248 A  
HETATM    5  C   UNL     1     -10.349  10.426  67.476  1.00  0.00    -0.268 A  
HETATM    6  C   UNL     1     -11.273  11.474  67.423  1.00  0.00    -0.367 A  
HETATM    7  C   UNL     1     -11.431  12.165  66.212  1.00  0.00    -0.433 A  
HETATM    8  C   UNL     1     -10.688  11.812  65.081  1.00  0.00    -0.343 A  
BRANCH   6   9
HETATM    9  C   UNL     1     -12.124  11.750  68.585  1.00  0.00    -0.164 C  
HETATM   10  C   UNL     1     -11.754  11.519  69.852  1.00  0.00    -0.420 C  
BRANCH  10  11
HETATM   11  C   UNL     1     -12.558  12.048  70.976  1.00  0.00    -0.273 C  
HETATM   12  O   UNL     1     -12.988  11.398  71.914  1.00  0.00    -0.453 OA 
BRANCH  11  13
HETATM   13  O   UNL     1     -12.907  13.318  70.641  1.00  0.00    -0.183 OA 
BRANCH  13  14
HETATM   14  C   UNL     1     -11.957  14.306  71.053  1.00  0.00    -0.303 C  
BRANCH  14  15
HETATM   15  C   UNL     1     -11.955  15.534  70.149  1.00  0.00    -0.389 C  
HETATM   16  C   UNL     1     -10.524  15.918  69.719  1.00  0.00    -0.311 C  
HETATM   17  C   UNL     1      -9.833  14.806  68.924  1.00  0.00    -0.222 C  
HETATM   18  C   UNL     1     -10.531  17.207  68.897  1.00  0.00    -0.346 C  
ENDBRANCH  14  15
ENDBRANCH  13  14
ENDBRANCH  11  13
ENDBRANCH  10  11
ENDBRANCH   6   9
ENDBRANCH   2   3
TORSDOF 6
ENDMDL
MODEL       93
REMARK 921   NORMALIZED FREE ENERGY PREDICTED BY IDOCK:   -4.14 KCAL/MOL
REMARK 922        TOTAL FREE ENERGY PREDICTED BY IDOCK:   -6.37 KCAL/MOL
REMARK 923 INTER-LIGAND FREE ENERGY PREDICTED BY IDOCK:   -5.76 KCAL/MOL
REMARK 924 INTRA-LIGAND FREE ENERGY PREDICTED BY IDOCK:   -0.62 KCAL/MOL
REMARK 927      BINDING AFFINITY PREDICTED BY RF-SCORE:    0.00 PKD
ROOT
HETATM    1  C   UNL     1      -9.780   9.057  68.512  1.00  0.00    -0.159 C  
HETATM    2  O   UNL     1     -10.977   9.571  67.933  1.00  0.00    -0.229 OA 
ENDROOT
BRANCH   2   3
HETATM    3  C   UNL     1     -10.939  10.902  67.620  1.00  0.00    -0.293 A  
HETATM    4  C   UNL     1     -11.761  11.733  68.379  1.00  0.00    -0.389 A  
HETATM    5  C   UNL     1     -11.815  13.106  68.118  1.00  0.00    -0.386 A  
HETATM    6  C   UNL     1     -11.021  13.674  67.117  1.00  0.00    -0.299 A  
HETATM    7  C   UNL     1     -10.173  12.833  66.380  1.00  0.00    -0.263 A  
HETATM    8  C   UNL     1     -10.125  11.459  66.634  1.00  0.00    -0.247 A  
BRANCH   6   9
HETATM    9  C   UNL     1     -11.173  15.095  66.789  1.00  0.00    -0.285 C  
HETATM   10  C   UNL     1     -10.321  16.049  67.191  1.00  0.00    -0.295 C  
BRANCH  10  11
HETATM   11  C   UNL     1     -10.398  17.412  66.620  1.00  0.00    -0.306 C  
HETATM   12  O   UNL     1      -9.934  17.764  65.549  1.00  0.00    -0.515 OA 
BRANCH  11  13
HETATM   13  O   UNL     1     -10.872  18.219  67.605  1.00  0.00    -0.396 OA 
BRANCH  13  14
HETATM   14  C   UNL     1      -9.940  18.441  68.669  1.00  0.00    -0.387 C  
BRANCH  14  15
HETATM   15  C   UNL     1      -8.874  19.472  68.313  1.00  0.00    -0.383 C  
HETATM   16  C   UNL     1      -7.473  19.016  68.769  1.00  0.00    -0.369 C  
HETATM   17  C   UNL     1      -7.037  17.708  68.103  1.00  0.00    -0.216 C  
HETATM   18  C   UNL     1      -6.432  20.102  68.495  1.00  0.00    -0.342 C  
ENDBRANCH  14  15
ENDBRANCH  13  14
ENDBRANCH  11  13
ENDBRANCH  10  11
ENDBRANCH   6   9
ENDBRANCH   2   3
TORSDOF 6
ENDMDL
MODEL       94
REMARK 921   NORMALIZED FREE ENERGY PREDICTED BY IDOCK:   -4.11 KCAL/MOL
REMARK 922        TOTAL FREE ENERGY PREDICTED BY IDOCK:   -6.34 KCAL/MOL
REMARK 923 INTER-LIGAND FREE ENERGY PREDICTED BY IDOCK:   -5.62 KCAL/MOL
REMARK 924 INTRA-LIGAND FREE ENERGY PREDICTED BY IDOCK:   -0.72 KCAL/MOL
REMARK 927      BINDING AFFINITY PREDICTED BY RF-SCORE:    0.00 PKD
ROOT
HETATM    1  C   UNL     1      -9.801  10.967  63.138  1.00  0.00    -0.351 C  
HETATM    2  O   UNL     1     -10.280  10.449  64.376  1.00  0.00    -0.333 OA 
ENDROOT
BRANCH   2   3
HETATM    3  C   UNL     1     -10.776  11.387  65.240  1.00  0.00    -0.265 A  
HETATM    4  C   UNL     1     -10.226  11.391  66.520  1.00  0.00    -0.259 A  
HETATM    5  C   UNL     1     -10.685  12.294  67.485  1.00  0.00    -0.255 A  
HETATM    6  C   UNL     1     -11.677  13.229  67.172  1.00  0.00    -0.425 A  
HETATM    7  C   UNL     1     -12.201  13.238  65.871  1.00  0.00    -0.497 A  
HETATM    8  C   UNL     1     -11.749  12.329  64.908  1.00  0.00    -0.409 A  
BRANCH   6   9
HETATM    9  C   UNL     1     -12.218  14.092  68.227  1.00  0.00    -0.196 C  
HETATM   10  C   UNL     1     -11.501  14.539  69.268  1.00  0.00    -0.322 C  
BRANCH  10  11
HETATM   11  C   UNL     1     -12.040  15.598  70.150  1.00  0.00    -0.377 C  
HETATM   12  O   UNL     1     -13.171  15.640  70.604  1.00  0.00    -0.487 OA 
BRANCH  11  13
HETATM   13  O   UNL     1     -11.122  16.599  70.162  1.00  0.00    -0.310 OA 
BRANCH  13  14
HETATM   14  C   UNL     1     -10.565  16.887  68.875  1.00  0.00    -0.353 C  
BRANCH  14  15
HETATM   15  C   UNL     1      -9.110  17.340  68.950  1.00  0.00    -0.172 C  
HETATM   16  C   UNL     1      -8.150  16.138  69.070  1.00  0.00    -0.237 C  
HETATM   17  C   UNL     1      -8.239  15.196  67.866  1.00  0.00    -0.152 C  
HETATM   18  C   UNL     1      -6.707  16.612  69.244  1.00  0.00    -0.221 C  
ENDBRANCH  14  15
ENDBRANCH  13  14
ENDBRANCH  11  13
ENDBRANCH  10  11
ENDBRANCH   6   9
ENDBRANCH   2   3
TORSDOF 6
ENDMDL
MODEL       95
REMARK 921   NORMALIZED FREE ENERGY PREDICTED BY IDOCK:   -4.10 KCAL/MOL
REMARK 922        TOTAL FREE ENERGY PREDICTED BY IDOCK:   -6.31 KCAL/MOL
REMARK 923 INTER-LIGAND FREE ENERGY PREDICTED BY IDOCK:   -5.73 KCAL/MOL
REMARK 924 INTRA-LIGAND FREE ENERGY PREDICTED BY IDOCK:   -0.59 KCAL/MOL
REMARK 927      BINDING AFFINITY PREDICTED BY RF-SCORE:    0.00 PKD
ROOT
HETATM    1  C   UNL     1      -5.762  18.702  69.436  1.00  0.00    -0.232 C  
HETATM    2  O   UNL     1      -6.872  19.299  68.772  1.00  0.00    -0.285 OA 
ENDROOT
BRANCH   2   3
HETATM    3  C   UNL     1      -7.922  18.454  68.531  1.00  0.00    -0.314 A  
HETATM    4  C   UNL     1      -7.605  17.102  68.418  1.00  0.00    -0.231 A  
HETATM    5  C   UNL     1      -8.603  16.161  68.145  1.00  0.00    -0.177 A  
HETATM    6  C   UNL     1      -9.939  16.555  68.015  1.00  0.00    -0.245 A  
HETATM    7  C   UNL     1     -10.251  17.915  68.163  1.00  0.00    -0.386 A  
HETATM    8  C   UNL     1      -9.252  18.858  68.427  1.00  0.00    -0.390 A  
BRANCH   6   9
HETATM    9  C   UNL     1     -10.951  15.570  67.622  1.00  0.00    -0.315 C  
HETATM   10  C   UNL     1     -11.079  15.087  66.379  1.00  0.00    -0.329 C  
BRANCH  10  11
HETATM   11  C   UNL     1     -11.953  13.922  66.113  1.00  0.00    -0.423 C  
HETATM   12  O   UNL     1     -12.821  13.862  65.259  1.00  0.00    -0.689 OA 
BRANCH  11  13
HETATM   13  O   UNL     1     -11.756  13.048  67.133  1.00  0.00    -0.346 OA 
BRANCH  13  14
HETATM   14  C   UNL     1     -11.438  11.720  66.704  1.00  0.00    -0.267 C  
BRANCH  14  15
HETATM   15  C   UNL     1      -9.977  11.567  66.293  1.00  0.00    -0.252 C  
HETATM   16  C   UNL     1      -9.848  10.948  64.885  1.00  0.00    -0.339 C  
HETATM   17  C   UNL     1     -10.505  11.811  63.804  1.00  0.00    -0.466 C  
HETATM   18  C   UNL     1      -8.380  10.710  64.529  1.00  0.00    -0.043 C  
ENDBRANCH  14  15
ENDBRANCH  13  14
ENDBRANCH  11  13
ENDBRANCH  10  11
ENDBRANCH   6   9
ENDBRANCH   2   3
TORSDOF 6
ENDMDL
MODEL       96
REMARK 921   NORMALIZED FREE ENERGY PREDICTED BY IDOCK:   -4.05 KCAL/MOL
REMARK 922        TOTAL FREE ENERGY PREDICTED BY IDOCK:   -6.25 KCAL/MOL
REMARK 923 INTER-LIGAND FREE ENERGY PREDICTED BY IDOCK:   -5.53 KCAL/MOL
REMARK 924 INTRA-LIGAND FREE ENERGY PREDICTED BY IDOCK:   -0.72 KCAL/MOL
REMARK 927      BINDING AFFINITY PREDICTED BY RF-SCORE:    0.00 PKD
ROOT
HETATM    1  C   UNL     1     -12.686   6.845  71.649  1.00  0.00    -0.352 C  
HETATM    2  O   UNL     1     -11.865   7.889  72.165  1.00  0.00    -0.300 OA 
ENDROOT
BRANCH   2   3
HETATM    3  C   UNL     1     -12.040   9.108  71.567  1.00  0.00    -0.351 A  
HETATM    4  C   UNL     1     -11.293   9.335  70.413  1.00  0.00    -0.283 A  
HETATM    5  C   UNL     1     -11.380  10.560  69.743  1.00  0.00    -0.367 A  
HETATM    6  C   UNL     1     -12.242  11.563  70.199  1.00  0.00    -0.387 A  
HETATM    7  C   UNL     1     -13.013  11.311  71.344  1.00  0.00    -0.482 A  
HETATM    8  C   UNL     1     -12.920  10.090  72.019  1.00  0.00    -0.514 A  
BRANCH   6   9
HETATM    9  C   UNL     1     -12.237  12.876  69.546  1.00  0.00    -0.177 C  
HETATM   10  C   UNL     1     -11.163  13.406  68.943  1.00  0.00    -0.320 C  
BRANCH  10  11
HETATM   11  C   UNL     1     -11.297  14.613  68.098  1.00  0.00    -0.302 C  
HETATM   12  O   UNL     1     -11.747  15.688  68.456  1.00  0.00    -0.371 OA 
BRANCH  11  13
HETATM   13  O   UNL     1     -11.044  14.223  66.821  1.00  0.00    -0.301 OA 
BRANCH  13  14
HETATM   14  C   UNL     1      -9.761  13.614  66.646  1.00  0.00    -0.284 C  
BRANCH  14  15
HETATM   15  C   UNL     1      -9.845  12.244  65.982  1.00  0.00    -0.263 C  
HETATM   16  C   UNL     1      -8.633  11.362  66.350  1.00  0.00    -0.174 C  
HETATM   17  C   UNL     1      -8.538  11.098  67.855  1.00  0.00    -0.135 C  
HETATM   18  C   UNL     1      -8.682  10.031  65.599  1.00  0.00    -0.171 C  
ENDBRANCH  14  15
ENDBRANCH  13  14
ENDBRANCH  11  13
ENDBRANCH  10  11
ENDBRANCH   6   9
ENDBRANCH   2   3
TORSDOF 6
ENDMDL
MODEL       97
REMARK 921   NORMALIZED FREE ENERGY PREDICTED BY IDOCK:   -4.03 KCAL/MOL
REMARK 922        TOTAL FREE ENERGY PREDICTED BY IDOCK:   -6.23 KCAL/MOL
REMARK 923 INTER-LIGAND FREE ENERGY PREDICTED BY IDOCK:   -5.25 KCAL/MOL
REMARK 924 INTRA-LIGAND FREE ENERGY PREDICTED BY IDOCK:   -0.98 KCAL/MOL
REMARK 927      BINDING AFFINITY PREDICTED BY RF-SCORE:    0.00 PKD
ROOT
HETATM    1  C   UNL     1     -10.888  20.207  65.296  1.00  0.00     0.209 C  
HETATM    2  O   UNL     1      -9.882  20.056  66.294  1.00  0.00    -0.422 OA 
ENDROOT
BRANCH   2   3
HETATM    3  C   UNL     1      -9.985  18.919  67.048  1.00  0.00    -0.340 A  
HETATM    4  C   UNL     1     -10.022  17.718  66.342  1.00  0.00    -0.345 A  
HETATM    5  C   UNL     1     -10.154  16.502  67.020  1.00  0.00    -0.279 A  
HETATM    6  C   UNL     1     -10.216  16.467  68.417  1.00  0.00    -0.266 A  
HETATM    7  C   UNL     1     -10.146  17.680  69.120  1.00  0.00    -0.232 A  
HETATM    8  C   UNL     1     -10.023  18.897  68.442  1.00  0.00    -0.447 A  
BRANCH   6   9
HETATM    9  C   UNL     1     -10.463  15.193  69.101  1.00  0.00    -0.252 C  
HETATM   10  C   UNL     1     -11.652  14.575  69.121  1.00  0.00    -0.331 C  
BRANCH  10  11
HETATM   11  C   UNL     1     -11.766  13.185  69.614  1.00  0.00    -0.303 C  
HETATM   12  O   UNL     1     -12.299  12.838  70.654  1.00  0.00    -0.360 OA 
BRANCH  11  13
HETATM   13  O   UNL     1     -10.977  12.422  68.812  1.00  0.00    -0.232 OA 
BRANCH  13  14
HETATM   14  C   UNL     1     -11.704  11.648  67.852  1.00  0.00    -0.259 C  
BRANCH  14  15
HETATM   15  C   UNL     1     -11.839  12.354  66.507  1.00  0.00    -0.407 C  
HETATM   16  C   UNL     1     -10.473  12.852  65.990  1.00  0.00    -0.290 C  
HETATM   17  C   UNL     1      -9.478  11.709  65.771  1.00  0.00    -0.244 C  
HETATM   18  C   UNL     1     -10.639  13.642  64.692  1.00  0.00    -0.446 C  
ENDBRANCH  14  15
ENDBRANCH  13  14
ENDBRANCH  11  13
ENDBRANCH  10  11
ENDBRANCH   6   9
ENDBRANCH   2   3
TORSDOF 6
ENDMDL
MODEL       98
REMARK 921   NORMALIZED FREE ENERGY PREDICTED BY IDOCK:   -4.00 KCAL/MOL
REMARK 922        TOTAL FREE ENERGY PREDICTED BY IDOCK:   -6.19 KCAL/MOL
REMARK 923 INTER-LIGAND FREE ENERGY PREDICTED BY IDOCK:   -5.77 KCAL/MOL
REMARK 924 INTRA-LIGAND FREE ENERGY PREDICTED BY IDOCK:   -0.42 KCAL/MOL
REMARK 927      BINDING AFFINITY PREDICTED BY RF-SCORE:    0.00 PKD
ROOT
HETATM    1  C   UNL     1      -9.760  11.535  62.957  1.00  0.00    -0.359 C  
HETATM    2  O   UNL     1     -10.679  12.392  63.630  1.00  0.00    -0.417 OA 
ENDROOT
BRANCH   2   3
HETATM    3  C   UNL     1     -10.779  12.183  64.979  1.00  0.00    -0.297 A  
HETATM    4  C   UNL     1      -9.919  11.226  65.515  1.00  0.00    -0.293 A  
HETATM    5  C   UNL     1      -9.963  10.921  66.880  1.00  0.00    -0.232 A  
HETATM    6  C   UNL     1     -10.843  11.593  67.733  1.00  0.00    -0.264 A  
HETATM    7  C   UNL     1     -11.682  12.577  67.188  1.00  0.00    -0.425 A  
HETATM    8  C   UNL     1     -11.645  12.877  65.823  1.00  0.00    -0.411 A  
BRANCH   6   9
HETATM    9  C   UNL     1     -10.948  11.181  69.137  1.00  0.00    -0.295 C  
HETATM   10  C   UNL     1     -11.617  10.095  69.548  1.00  0.00    -0.181 C  
BRANCH  10  11
HETATM   11  C   UNL     1     -11.473   9.607  70.938  1.00  0.00    -0.353 C  
HETATM   12  O   UNL     1     -10.431   9.544  71.567  1.00  0.00    -0.302 OA 
BRANCH  11  13
HETATM   13  O   UNL     1     -12.662   9.044  71.278  1.00  0.00    -0.316 OA 
BRANCH  13  14
HETATM   14  C   UNL     1     -12.539   7.750  71.877  1.00  0.00    -0.311 C  
BRANCH  14  15
HETATM   15  C   UNL     1     -12.057   6.689  70.893  1.00  0.00    -0.379 C  
HETATM   16  C   UNL     1     -10.676   6.131  71.294  1.00  0.00    -0.310 C  
HETATM   17  C   UNL     1     -10.693   5.458  72.669  1.00  0.00    -0.288 C  
HETATM   18  C   UNL     1     -10.164   5.143  70.247  1.00  0.00    -0.342 C  
ENDBRANCH  14  15
ENDBRANCH  13  14
ENDBRANCH  11  13
ENDBRANCH  10  11
ENDBRANCH   6   9
ENDBRANCH   2   3
TORSDOF 6
ENDMDL
MODEL       99
REMARK 921   NORMALIZED FREE ENERGY PREDICTED BY IDOCK:   -3.99 KCAL/MOL
REMARK 922        TOTAL FREE ENERGY PREDICTED BY IDOCK:   -6.18 KCAL/MOL
REMARK 923 INTER-LIGAND FREE ENERGY PREDICTED BY IDOCK:   -5.38 KCAL/MOL
REMARK 924 INTRA-LIGAND FREE ENERGY PREDICTED BY IDOCK:   -0.80 KCAL/MOL
REMARK 927      BINDING AFFINITY PREDICTED BY RF-SCORE:    0.00 PKD
ROOT
HETATM    1  C   UNL     1      -9.572   7.321  70.701  1.00  0.00    -0.172 C  
HETATM    2  O   UNL     1      -9.808   7.131  69.309  1.00  0.00    -0.158 OA 
ENDROOT
BRANCH   2   3
HETATM    3  C   UNL     1     -10.042   8.279  68.603  1.00  0.00    -0.197 A  
HETATM    4  C   UNL     1     -10.041   8.155  67.215  1.00  0.00    -0.309 A  
HETATM    5  C   UNL     1     -10.243   9.277  66.403  1.00  0.00    -0.298 A  
HETATM    6  C   UNL     1     -10.484  10.532  66.969  1.00  0.00    -0.304 A  
HETATM    7  C   UNL     1     -10.515  10.640  68.368  1.00  0.00    -0.212 A  
HETATM    8  C   UNL     1     -10.304   9.522  69.180  1.00  0.00    -0.218 A  
BRANCH   6   9
HETATM    9  C   UNL     1     -10.585  11.711  66.103  1.00  0.00    -0.306 C  
HETATM   10  C   UNL     1     -11.747  12.221  65.669  1.00  0.00    -0.440 C  
BRANCH  10  11
HETATM   11  C   UNL     1     -11.785  13.545  65.009  1.00  0.00    -0.334 C  
HETATM   12  O   UNL     1     -12.612  13.911  64.192  1.00  0.00    -0.675 OA 
BRANCH  11  13
HETATM   13  O   UNL     1     -10.614  14.164  65.313  1.00  0.00    -0.327 OA 
BRANCH  13  14
HETATM   14  C   UNL     1     -10.765  15.292  66.181  1.00  0.00    -0.320 C  
BRANCH  14  15
HETATM   15  C   UNL     1     -11.565  14.965  67.438  1.00  0.00    -0.347 C  
HETATM   16  C   UNL     1     -10.680  14.307  68.517  1.00  0.00    -0.262 C  
HETATM   17  C   UNL     1      -9.534  15.217  68.968  1.00  0.00    -0.221 C  
HETATM   18  C   UNL     1     -11.515  13.896  69.729  1.00  0.00    -0.281 C  
ENDBRANCH  14  15
ENDBRANCH  13  14
ENDBRANCH  11  13
ENDBRANCH  10  11
ENDBRANCH   6   9
ENDBRANCH   2   3
TORSDOF 6
ENDMDL
MODEL      100
REMARK 921   NORMALIZED FREE ENERGY PREDICTED BY IDOCK:   -3.99 KCAL/MOL
REMARK 922        TOTAL FREE ENERGY PREDICTED BY IDOCK:   -6.17 KCAL/MOL
REMARK 923 INTER-LIGAND FREE ENERGY PREDICTED BY IDOCK:   -5.56 KCAL/MOL
REMARK 924 INTRA-LIGAND FREE ENERGY PREDICTED BY IDOCK:   -0.62 KCAL/MOL
REMARK 927      BINDING AFFINITY PREDICTED BY RF-SCORE:    0.00 PKD
ROOT
HETATM    1  C   UNL     1      -7.557   7.246  64.290  1.00  0.00    -0.116 C  
HETATM    2  O   UNL     1      -8.183   8.109  63.345  1.00  0.00    -0.143 OA 
ENDROOT
BRANCH   2   3
HETATM    3  C   UNL     1      -8.900   9.139  63.891  1.00  0.00    -0.070 A  
HETATM    4  C   UNL     1      -8.995   9.148  65.281  1.00  0.00    -0.246 A  
HETATM    5  C   UNL     1      -9.730  10.144  65.934  1.00  0.00    -0.292 A  
HETATM    6  C   UNL     1     -10.351  11.164  65.207  1.00  0.00    -0.336 A  
HETATM    7  C   UNL     1     -10.222  11.163  63.810  1.00  0.00    -0.434 A  
HETATM    8  C   UNL     1      -9.495  10.164  63.156  1.00  0.00    -0.296 A  
BRANCH   6   9
HETATM    9  C   UNL     1     -11.204  12.133  65.902  1.00  0.00    -0.384 C  
HETATM   10  C   UNL     1     -10.774  12.936  66.886  1.00  0.00    -0.272 C  
BRANCH  10  11
HETATM   11  C   UNL     1     -11.618  14.053  67.366  1.00  0.00    -0.368 C  
HETATM   12  O   UNL     1     -11.565  15.206  66.975  1.00  0.00    -0.295 OA 
BRANCH  11  13
HETATM   13  O   UNL     1     -12.281  13.596  68.460  1.00  0.00    -0.342 OA 
BRANCH  13  14
HETATM   14  C   UNL     1     -11.432  12.987  69.438  1.00  0.00    -0.261 C  
BRANCH  14  15
HETATM   15  C   UNL     1     -12.215  12.292  70.547  1.00  0.00    -0.387 C  
HETATM   16  C   UNL     1     -12.286  10.768  70.320  1.00  0.00    -0.431 C  
HETATM   17  C   UNL     1     -10.901  10.113  70.304  1.00  0.00    -0.370 C  
HETATM   18  C   UNL     1     -13.156  10.099  71.384  1.00  0.00    -0.512 C  
ENDBRANCH  14  15
ENDBRANCH  13  14
ENDBRANCH  11  13
ENDBRANCH  10  11
ENDBRANCH   6   9
ENDBRANCH   2   3
TORSDOF 6
ENDMDL
MODEL      101
REMARK 921   NORMALIZED FREE ENERGY PREDICTED BY IDOCK:   -3.99 KCAL/MOL
REMARK 922        TOTAL FREE ENERGY PREDICTED BY IDOCK:   -6.17 KCAL/MOL
REMARK 923 INTER-LIGAND FREE ENERGY PREDICTED BY IDOCK:   -5.35 KCAL/MOL
REMARK 924 INTRA-LIGAND FREE ENERGY PREDICTED BY IDOCK:   -0.82 KCAL/MOL
REMARK 927      BINDING AFFINITY PREDICTED BY RF-SCORE:    0.00 PKD
ROOT
HETATM    1  C   UNL     1     -13.568  12.836  72.326  1.00  0.00    -0.465 C  
HETATM    2  O   UNL     1     -13.861  13.881  71.403  1.00  0.00    -0.265 OA 
ENDROOT
BRANCH   2   3
HETATM    3  C   UNL     1     -12.785  14.342  70.694  1.00  0.00    -0.357 A  
HETATM    4  C   UNL     1     -12.276  13.480  69.725  1.00  0.00    -0.330 A  
HETATM    5  C   UNL     1     -11.160  13.847  68.966  1.00  0.00    -0.302 A  
HETATM    6  C   UNL     1     -10.558  15.097  69.142  1.00  0.00    -0.256 A  
HETATM    7  C   UNL     1     -11.097  15.970  70.099  1.00  0.00    -0.372 A  
HETATM    8  C   UNL     1     -12.208  15.600  70.864  1.00  0.00    -0.466 A  
BRANCH   6   9
HETATM    9  C   UNL     1      -9.326  15.418  68.413  1.00  0.00    -0.193 C  
HETATM   10  C   UNL     1      -8.223  15.911  68.994  1.00  0.00    -0.234 C  
BRANCH  10  11
HETATM   11  C   UNL     1      -6.947  15.976  68.246  1.00  0.00    -0.120 C  
HETATM   12  O   UNL     1      -6.497  15.100  67.527  1.00  0.00    -0.194 OA 
BRANCH  11  13
HETATM   13  O   UNL     1      -6.290  17.077  68.694  1.00  0.00    -0.153 OA 
BRANCH  13  14
HETATM   14  C   UNL     1      -7.155  18.118  69.160  1.00  0.00    -0.182 C  
BRANCH  14  15
HETATM   15  C   UNL     1      -7.339  19.234  68.138  1.00  0.00    -0.316 C  
HETATM   16  C   UNL     1      -8.703  19.129  67.426  1.00  0.00    -0.317 C  
HETATM   17  C   UNL     1      -9.881  19.246  68.397  1.00  0.00    -0.492 C  
HETATM   18  C   UNL     1      -8.831  20.194  66.336  1.00  0.00    -0.332 C  
ENDBRANCH  14  15
ENDBRANCH  13  14
ENDBRANCH  11  13
ENDBRANCH  10  11
ENDBRANCH   6   9
ENDBRANCH   2   3
TORSDOF 6
ENDMDL
MODEL      102
REMARK 921   NORMALIZED FREE ENERGY PREDICTED BY IDOCK:   -3.95 KCAL/MOL
REMARK 922        TOTAL FREE ENERGY PREDICTED BY IDOCK:   -6.12 KCAL/MOL
REMARK 923 INTER-LIGAND FREE ENERGY PREDICTED BY IDOCK:   -5.66 KCAL/MOL
REMARK 924 INTRA-LIGAND FREE ENERGY PREDICTED BY IDOCK:   -0.46 KCAL/MOL
REMARK 927      BINDING AFFINITY PREDICTED BY RF-SCORE:    0.00 PKD
ROOT
HETATM    1  C   UNL     1     -13.379  15.480  71.539  1.00  0.00    -0.509 C  
HETATM    2  O   UNL     1     -12.506  14.810  70.633  1.00  0.00    -0.305 OA 
ENDROOT
BRANCH   2   3
HETATM    3  C   UNL     1     -12.514  13.445  70.730  1.00  0.00    -0.341 A  
HETATM    4  C   UNL     1     -13.286  12.909  71.759  1.00  0.00    -0.451 A  
HETATM    5  C   UNL     1     -13.338  11.525  71.958  1.00  0.00    -0.397 A  
HETATM    6  C   UNL     1     -12.645  10.656  71.110  1.00  0.00    -0.526 A  
HETATM    7  C   UNL     1     -11.896  11.205  70.058  1.00  0.00    -0.441 A  
HETATM    8  C   UNL     1     -11.837  12.588  69.863  1.00  0.00    -0.373 A  
BRANCH   6   9
HETATM    9  C   UNL     1     -12.625   9.219  71.402  1.00  0.00    -0.411 C  
HETATM   10  C   UNL     1     -11.754   8.358  70.857  1.00  0.00    -0.269 C  
BRANCH  10  11
HETATM   11  C   UNL     1     -11.634   6.980  71.383  1.00  0.00    -0.292 C  
HETATM   12  O   UNL     1     -12.516   6.351  71.943  1.00  0.00    -0.337 OA 
BRANCH  11  13
HETATM   13  O   UNL     1     -10.316   6.655  71.325  1.00  0.00    -0.203 OA 
BRANCH  13  14
HETATM   14  C   UNL     1     -10.051   5.436  70.624  1.00  0.00    -0.231 C  
BRANCH  14  15
HETATM   15  C   UNL     1      -8.822   4.706  71.155  1.00  0.00    -0.149 C  
HETATM   16  C   UNL     1      -8.941   4.424  72.667  1.00  0.00    -0.127 C  
HETATM   17  C   UNL     1     -10.141   3.533  73.004  1.00  0.00    -0.219 C  
HETATM   18  C   UNL     1      -7.661   3.782  73.203  1.00  0.00    -0.074 C  
ENDBRANCH  14  15
ENDBRANCH  13  14
ENDBRANCH  11  13
ENDBRANCH  10  11
ENDBRANCH   6   9
ENDBRANCH   2   3
TORSDOF 6
ENDMDL
MODEL      103
REMARK 921   NORMALIZED FREE ENERGY PREDICTED BY IDOCK:   -3.94 KCAL/MOL
REMARK 922        TOTAL FREE ENERGY PREDICTED BY IDOCK:   -6.11 KCAL/MOL
REMARK 923 INTER-LIGAND FREE ENERGY PREDICTED BY IDOCK:   -5.65 KCAL/MOL
REMARK 924 INTRA-LIGAND FREE ENERGY PREDICTED BY IDOCK:   -0.47 KCAL/MOL
REMARK 927      BINDING AFFINITY PREDICTED BY RF-SCORE:    0.00 PKD
ROOT
HETATM    1  C   UNL     1     -11.408  13.891  64.638  1.00  0.00    -0.375 C  
HETATM    2  O   UNL     1     -10.345  13.664  65.559  1.00  0.00    -0.290 OA 
ENDROOT
BRANCH   2   3
HETATM    3  C   UNL     1     -10.648  12.818  66.591  1.00  0.00    -0.256 A  
HETATM    4  C   UNL     1     -11.382  13.370  67.639  1.00  0.00    -0.321 A  
HETATM    5  C   UNL     1     -11.719  12.595  68.754  1.00  0.00    -0.364 A  
HETATM    6  C   UNL     1     -11.355  11.246  68.820  1.00  0.00    -0.335 A  
HETATM    7  C   UNL     1     -10.644  10.692  67.745  1.00  0.00    -0.275 A  
HETATM    8  C   UNL     1     -10.300  11.468  66.635  1.00  0.00    -0.262 A  
BRANCH   6   9
HETATM    9  C   UNL     1     -11.624  10.482  70.043  1.00  0.00    -0.392 C  
HETATM   10  C   UNL     1     -12.840  10.353  70.591  1.00  0.00    -0.393 C  
BRANCH  10  11
HETATM   11  C   UNL     1     -13.075   9.372  71.674  1.00  0.00    -0.394 C  
HETATM   12  O   UNL     1     -13.925   9.459  72.543  1.00  0.00    -0.419 OA 
BRANCH  11  13
HETATM   13  O   UNL     1     -12.032   8.501  71.642  1.00  0.00    -0.283 OA 
BRANCH  13  14
HETATM   14  C   UNL     1     -12.426   7.126  71.695  1.00  0.00    -0.370 C  
BRANCH  14  15
HETATM   15  C   UNL     1     -11.370   6.235  72.341  1.00  0.00    -0.333 C  
HETATM   16  C   UNL     1     -10.820   5.194  71.344  1.00  0.00    -0.083 C  
HETATM   17  C   UNL     1     -10.143   5.844  70.133  1.00  0.00    -0.261 C  
HETATM   18  C   UNL     1      -9.838   4.247  72.033  1.00  0.00    -0.241 C  
ENDBRANCH  14  15
ENDBRANCH  13  14
ENDBRANCH  11  13
ENDBRANCH  10  11
ENDBRANCH   6   9
ENDBRANCH   2   3
TORSDOF 6
ENDMDL
MODEL      104
REMARK 921   NORMALIZED FREE ENERGY PREDICTED BY IDOCK:   -3.94 KCAL/MOL
REMARK 922        TOTAL FREE ENERGY PREDICTED BY IDOCK:   -6.10 KCAL/MOL
REMARK 923 INTER-LIGAND FREE ENERGY PREDICTED BY IDOCK:   -5.87 KCAL/MOL
REMARK 924 INTRA-LIGAND FREE ENERGY PREDICTED BY IDOCK:   -0.22 KCAL/MOL
REMARK 927      BINDING AFFINITY PREDICTED BY RF-SCORE:    0.00 PKD
ROOT
HETATM    1  C   UNL     1      -7.276   6.885  66.278  1.00  0.00    -0.071 C  
HETATM    2  O   UNL     1      -8.622   6.760  66.729  1.00  0.00    -0.114 OA 
ENDROOT
BRANCH   2   3
HETATM    3  C   UNL     1      -9.310   7.939  66.822  1.00  0.00    -0.184 A  
HETATM    4  C   UNL     1      -9.208   8.795  65.728  1.00  0.00    -0.269 A  
HETATM    5  C   UNL     1      -9.852  10.037  65.737  1.00  0.00    -0.345 A  
HETATM    6  C   UNL     1     -10.636  10.425  66.827  1.00  0.00    -0.270 A  
HETATM    7  C   UNL     1     -10.759   9.542  67.911  1.00  0.00    -0.285 A  
HETATM    8  C   UNL     1     -10.108   8.304  67.906  1.00  0.00    -0.252 A  
BRANCH   6   9
HETATM    9  C   UNL     1     -11.213  11.773  66.863  1.00  0.00    -0.387 C  
HETATM   10  C   UNL     1     -11.745  12.385  65.795  1.00  0.00    -0.470 C  
BRANCH  10  11
HETATM   11  C   UNL     1     -12.525  13.632  65.958  1.00  0.00    -0.426 C  
HETATM   12  O   UNL     1     -13.001  14.299  65.055  1.00  0.00    -0.693 OA 
BRANCH  11  13
HETATM   13  O   UNL     1     -12.407  13.998  67.261  1.00  0.00    -0.351 OA 
BRANCH  13  14
HETATM   14  C   UNL     1     -11.415  15.002  67.493  1.00  0.00    -0.328 C  
BRANCH  14  15
HETATM   15  C   UNL     1     -11.606  15.724  68.823  1.00  0.00    -0.401 C  
HETATM   16  C   UNL     1     -12.348  14.838  69.845  1.00  0.00    -0.328 C  
HETATM   17  C   UNL     1     -11.583  13.551  70.168  1.00  0.00    -0.190 C  
HETATM   18  C   UNL     1     -12.618  15.610  71.137  1.00  0.00    -0.511 C  
ENDBRANCH  14  15
ENDBRANCH  13  14
ENDBRANCH  11  13
ENDBRANCH  10  11
ENDBRANCH   6   9
ENDBRANCH   2   3
TORSDOF 6
ENDMDL
MODEL      105
REMARK 921   NORMALIZED FREE ENERGY PREDICTED BY IDOCK:   -3.92 KCAL/MOL
REMARK 922        TOTAL FREE ENERGY PREDICTED BY IDOCK:   -6.07 KCAL/MOL
REMARK 923 INTER-LIGAND FREE ENERGY PREDICTED BY IDOCK:   -5.25 KCAL/MOL
REMARK 924 INTRA-LIGAND FREE ENERGY PREDICTED BY IDOCK:   -0.83 KCAL/MOL
REMARK 927      BINDING AFFINITY PREDICTED BY RF-SCORE:    0.00 PKD
ROOT
HETATM    1  C   UNL     1     -10.085  20.380  66.610  1.00  0.00    -0.322 C  
HETATM    2  O   UNL     1      -9.052  19.478  66.998  1.00  0.00    -0.294 OA 
ENDROOT
BRANCH   2   3
HETATM    3  C   UNL     1      -9.268  18.172  66.649  1.00  0.00    -0.290 A  
HETATM    4  C   UNL     1     -10.500  17.890  66.064  1.00  0.00    -0.293 A  
HETATM    5  C   UNL     1     -10.828  16.581  65.697  1.00  0.00    -0.165 A  
HETATM    6  C   UNL     1      -9.912  15.539  65.879  1.00  0.00    -0.377 A  
HETATM    7  C   UNL     1      -8.661  15.839  66.440  1.00  0.00    -0.372 A  
HETATM    8  C   UNL     1      -8.337  17.147  66.815  1.00  0.00    -0.266 A  
BRANCH   6   9
HETATM    9  C   UNL     1     -10.316  14.160  65.588  1.00  0.00    -0.348 C  
HETATM   10  C   UNL     1     -11.248  13.493  66.283  1.00  0.00    -0.310 C  
BRANCH  10  11
HETATM   11  C   UNL     1     -11.777  12.204  65.783  1.00  0.00    -0.327 C  
HETATM   12  O   UNL     1     -12.445  12.051  64.775  1.00  0.00    -0.383 OA 
BRANCH  11  13
HETATM   13  O   UNL     1     -11.572  11.291  66.768  1.00  0.00    -0.433 OA 
BRANCH  13  14
HETATM   14  C   UNL     1     -11.448  11.866  68.073  1.00  0.00    -0.323 C  
BRANCH  14  15
HETATM   15  C   UNL     1     -10.620  11.005  69.020  1.00  0.00    -0.258 C  
HETATM   16  C   UNL     1      -9.163  10.866  68.531  1.00  0.00    -0.181 C  
HETATM   17  C   UNL     1      -8.443  12.214  68.446  1.00  0.00    -0.145 C  
HETATM   18  C   UNL     1      -8.374   9.920  69.437  1.00  0.00    -0.158 C  
ENDBRANCH  14  15
ENDBRANCH  13  14
ENDBRANCH  11  13
ENDBRANCH  10  11
ENDBRANCH   6   9
ENDBRANCH   2   3
TORSDOF 6
ENDMDL
MODEL      106
REMARK 921   NORMALIZED FREE ENERGY PREDICTED BY IDOCK:   -3.91 KCAL/MOL
REMARK 922        TOTAL FREE ENERGY PREDICTED BY IDOCK:   -6.07 KCAL/MOL
REMARK 923 INTER-LIGAND FREE ENERGY PREDICTED BY IDOCK:   -5.09 KCAL/MOL
REMARK 924 INTRA-LIGAND FREE ENERGY PREDICTED BY IDOCK:   -0.97 KCAL/MOL
REMARK 927      BINDING AFFINITY PREDICTED BY RF-SCORE:    0.00 PKD
ROOT
HETATM    1  C   UNL     1     -12.142  14.373  64.469  1.00  0.00    -0.481 C  
HETATM    2  O   UNL     1     -11.619  13.056  64.320  1.00  0.00    -0.345 OA 
ENDROOT
BRANCH   2   3
HETATM    3  C   UNL     1     -11.376  12.396  65.494  1.00  0.00    -0.346 A  
HETATM    4  C   UNL     1     -11.827  13.024  66.653  1.00  0.00    -0.455 A  
HETATM    5  C   UNL     1     -11.603  12.444  67.906  1.00  0.00    -0.415 A  
HETATM    6  C   UNL     1     -10.953  11.210  68.015  1.00  0.00    -0.307 A  
HETATM    7  C   UNL     1     -10.530  10.572  66.839  1.00  0.00    -0.303 A  
HETATM    8  C   UNL     1     -10.747  11.155  65.587  1.00  0.00    -0.250 A  
BRANCH   6   9
HETATM    9  C   UNL     1     -10.633  10.674  69.342  1.00  0.00    -0.270 C  
HETATM   10  C   UNL     1     -11.529  10.080  70.143  1.00  0.00    -0.344 C  
BRANCH  10  11
HETATM   11  C   UNL     1     -11.085   9.347  71.350  1.00  0.00    -0.380 C  
HETATM   12  O   UNL     1     -11.812   8.913  72.227  1.00  0.00    -0.353 OA 
BRANCH  11  13
HETATM   13  O   UNL     1      -9.732   9.459  71.397  1.00  0.00    -0.236 OA 
BRANCH  13  14
HETATM   14  C   UNL     1      -9.061   8.230  71.696  1.00  0.00    -0.185 C  
BRANCH  14  15
HETATM   15  C   UNL     1      -8.852   7.358  70.462  1.00  0.00    -0.148 C  
HETATM   16  C   UNL     1      -8.135   8.133  69.337  1.00  0.00    -0.116 C  
HETATM   17  C   UNL     1      -6.744   8.618  69.754  1.00  0.00    -0.042 C  
HETATM   18  C   UNL     1      -8.022   7.278  68.075  1.00  0.00    -0.119 C  
ENDBRANCH  14  15
ENDBRANCH  13  14
ENDBRANCH  11  13
ENDBRANCH  10  11
ENDBRANCH   6   9
ENDBRANCH   2   3
TORSDOF 6
ENDMDL
MODEL      107
REMARK 921   NORMALIZED FREE ENERGY PREDICTED BY IDOCK:   -3.91 KCAL/MOL
REMARK 922        TOTAL FREE ENERGY PREDICTED BY IDOCK:   -6.06 KCAL/MOL
REMARK 923 INTER-LIGAND FREE ENERGY PREDICTED BY IDOCK:   -5.46 KCAL/MOL
REMARK 924 INTRA-LIGAND FREE ENERGY PREDICTED BY IDOCK:   -0.60 KCAL/MOL
REMARK 927      BINDING AFFINITY PREDICTED BY RF-SCORE:    0.00 PKD
ROOT
HETATM    1  C   UNL     1     -13.740  15.293  72.617  1.00  0.00    -0.508 C  
HETATM    2  O   UNL     1     -13.590  13.891  72.817  1.00  0.00    -0.654 OA 
ENDROOT
BRANCH   2   3
HETATM    3  C   UNL     1     -13.053  13.212  71.757  1.00  0.00    -0.383 A  
HETATM    4  C   UNL     1     -13.079  11.822  71.844  1.00  0.00    -0.482 A  
HETATM    5  C   UNL     1     -12.530  11.038  70.824  1.00  0.00    -0.491 A  
HETATM    6  C   UNL     1     -11.977  11.633  69.686  1.00  0.00    -0.390 A  
HETATM    7  C   UNL     1     -11.983  13.033  69.594  1.00  0.00    -0.367 A  
HETATM    8  C   UNL     1     -12.524  13.818  70.618  1.00  0.00    -0.429 A  
BRANCH   6   9
HETATM    9  C   UNL     1     -11.310  10.798  68.681  1.00  0.00    -0.356 C  
HETATM   10  C   UNL     1     -10.588   9.708  68.977  1.00  0.00    -0.237 C  
BRANCH  10  11
HETATM   11  C   UNL     1     -10.157   8.781  67.907  1.00  0.00    -0.207 C  
HETATM   12  O   UNL     1     -10.893   8.102  67.212  1.00  0.00    -0.248 OA 
BRANCH  11  13
HETATM   13  O   UNL     1      -8.807   8.670  68.010  1.00  0.00    -0.140 OA 
BRANCH  13  14
HETATM   14  C   UNL     1      -8.372   7.450  68.619  1.00  0.00    -0.129 C  
BRANCH  14  15
HETATM   15  C   UNL     1      -7.216   7.656  69.591  1.00  0.00    -0.079 C  
HETATM   16  C   UNL     1      -7.563   8.703  70.669  1.00  0.00    -0.080 C  
HETATM   17  C   UNL     1      -8.765   8.289  71.523  1.00  0.00    -0.208 C  
HETATM   18  C   UNL     1      -6.360   8.970  71.575  1.00  0.00    -0.079 C  
ENDBRANCH  14  15
ENDBRANCH  13  14
ENDBRANCH  11  13
ENDBRANCH  10  11
ENDBRANCH   6   9
ENDBRANCH   2   3
TORSDOF 6
ENDMDL
MODEL      108
REMARK 921   NORMALIZED FREE ENERGY PREDICTED BY IDOCK:   -3.91 KCAL/MOL
REMARK 922        TOTAL FREE ENERGY PREDICTED BY IDOCK:   -6.06 KCAL/MOL
REMARK 923 INTER-LIGAND FREE ENERGY PREDICTED BY IDOCK:   -5.74 KCAL/MOL
REMARK 924 INTRA-LIGAND FREE ENERGY PREDICTED BY IDOCK:   -0.32 KCAL/MOL
REMARK 927      BINDING AFFINITY PREDICTED BY RF-SCORE:    0.00 PKD
ROOT
HETATM    1  C   UNL     1     -11.877  15.680  64.152  1.00  0.00    -0.068 C  
HETATM    2  O   UNL     1     -12.418  14.399  63.840  1.00  0.00    -0.798 OA 
ENDROOT
BRANCH   2   3
HETATM    3  C   UNL     1     -11.891  13.361  64.559  1.00  0.00    -0.398 A  
HETATM    4  C   UNL     1     -12.175  13.355  65.923  1.00  0.00    -0.502 A  
HETATM    5  C   UNL     1     -11.659  12.351  66.750  1.00  0.00    -0.444 A  
HETATM    6  C   UNL     1     -10.880  11.319  66.217  1.00  0.00    -0.296 A  
HETATM    7  C   UNL     1     -10.627  11.317  64.837  1.00  0.00    -0.364 A  
HETATM    8  C   UNL     1     -11.135  12.325  64.012  1.00  0.00    -0.446 A  
BRANCH   6   9
HETATM    9  C   UNL     1     -10.261  10.340  67.117  1.00  0.00    -0.277 C  
HETATM   10  C   UNL     1     -10.658   9.063  67.216  1.00  0.00    -0.301 C  
BRANCH  10  11
HETATM   11  C   UNL     1      -9.836   8.078  67.953  1.00  0.00    -0.167 C  
HETATM   12  O   UNL     1      -8.621   7.984  67.904  1.00  0.00    -0.128 OA 
BRANCH  11  13
HETATM   13  O   UNL     1     -10.698   7.179  68.494  1.00  0.00    -0.201 OA 
BRANCH  13  14
HETATM   14  C   UNL     1     -10.513   6.972  69.898  1.00  0.00    -0.217 C  
BRANCH  14  15
HETATM   15  C   UNL     1     -10.409   5.496  70.268  1.00  0.00    -0.349 C  
HETATM   16  C   UNL     1      -9.965   5.311  71.734  1.00  0.00    -0.245 C  
HETATM   17  C   UNL     1     -10.953   5.928  72.728  1.00  0.00    -0.303 C  
HETATM   18  C   UNL     1      -9.770   3.830  72.060  1.00  0.00    -0.236 C  
ENDBRANCH  14  15
ENDBRANCH  13  14
ENDBRANCH  11  13
ENDBRANCH  10  11
ENDBRANCH   6   9
ENDBRANCH   2   3
TORSDOF 6
ENDMDL
MODEL      109
REMARK 921   NORMALIZED FREE ENERGY PREDICTED BY IDOCK:   -3.90 KCAL/MOL
REMARK 922        TOTAL FREE ENERGY PREDICTED BY IDOCK:   -6.05 KCAL/MOL
REMARK 923 INTER-LIGAND FREE ENERGY PREDICTED BY IDOCK:   -5.74 KCAL/MOL
REMARK 924 INTRA-LIGAND FREE ENERGY PREDICTED BY IDOCK:   -0.31 KCAL/MOL
REMARK 927      BINDING AFFINITY PREDICTED BY RF-SCORE:    0.00 PKD
ROOT
HETATM    1  C   UNL     1      -8.383   6.108  65.550  1.00  0.00    -0.147 C  
HETATM    2  O   UNL     1      -7.807   7.128  64.739  1.00  0.00    -0.115 OA 
ENDROOT
BRANCH   2   3
HETATM    3  C   UNL     1      -8.522   8.293  64.686  1.00  0.00    -0.051 A  
HETATM    4  C   UNL     1      -9.143   8.685  65.870  1.00  0.00    -0.259 A  
HETATM    5  C   UNL     1      -9.920   9.848  65.912  1.00  0.00    -0.347 A  
HETATM    6  C   UNL     1     -10.059  10.653  64.777  1.00  0.00    -0.412 A  
HETATM    7  C   UNL     1      -9.404  10.266  63.598  1.00  0.00    -0.338 A  
HETATM    8  C   UNL     1      -8.634   9.099  63.553  1.00  0.00    -0.177 A  
BRANCH   6   9
HETATM    9  C   UNL     1     -10.965  11.806  64.813  1.00  0.00    -0.360 C  
HETATM   10  C   UNL     1     -10.653  13.015  64.325  1.00  0.00    -0.434 C  
BRANCH  10  11
HETATM   11  C   UNL     1     -11.696  14.054  64.172  1.00  0.00    -0.315 C  
HETATM   12  O   UNL     1     -12.641  14.007  63.404  1.00  0.00    -0.845 OA 
BRANCH  11  13
HETATM   13  O   UNL     1     -11.270  15.138  64.871  1.00  0.00    -0.391 OA 
BRANCH  13  14
HETATM   14  C   UNL     1     -11.249  14.941  66.289  1.00  0.00    -0.331 C  
BRANCH  14  15
HETATM   15  C   UNL     1      -9.920  15.342  66.920  1.00  0.00    -0.247 C  
HETATM   16  C   UNL     1      -9.299  16.560  66.205  1.00  0.00    -0.339 C  
HETATM   17  C   UNL     1     -10.194  17.801  66.277  1.00  0.00    -0.364 C  
HETATM   18  C   UNL     1      -7.923  16.888  66.785  1.00  0.00    -0.271 C  
ENDBRANCH  14  15
ENDBRANCH  13  14
ENDBRANCH  11  13
ENDBRANCH  10  11
ENDBRANCH   6   9
ENDBRANCH   2   3
TORSDOF 6
ENDMDL
MODEL      110
REMARK 921   NORMALIZED FREE ENERGY PREDICTED BY IDOCK:   -3.90 KCAL/MOL
REMARK 922        TOTAL FREE ENERGY PREDICTED BY IDOCK:   -6.05 KCAL/MOL
REMARK 923 INTER-LIGAND FREE ENERGY PREDICTED BY IDOCK:   -5.30 KCAL/MOL
REMARK 924 INTRA-LIGAND FREE ENERGY PREDICTED BY IDOCK:   -0.75 KCAL/MOL
REMARK 927      BINDING AFFINITY PREDICTED BY RF-SCORE:    0.00 PKD
ROOT
HETATM    1  C   UNL     1      -9.551   6.767  68.616  1.00  0.00    -0.131 C  
HETATM    2  O   UNL     1      -9.888   7.819  67.716  1.00  0.00    -0.148 OA 
ENDROOT
BRANCH   2   3
HETATM    3  C   UNL     1     -10.432   8.928  68.306  1.00  0.00    -0.195 A  
HETATM    4  C   UNL     1     -10.635   8.852  69.682  1.00  0.00    -0.230 A  
HETATM    5  C   UNL     1     -11.211   9.923  70.374  1.00  0.00    -0.379 A  
HETATM    6  C   UNL     1     -11.562  11.099  69.703  1.00  0.00    -0.398 A  
HETATM    7  C   UNL     1     -11.324  11.177  68.322  1.00  0.00    -0.365 A  
HETATM    8  C   UNL     1     -10.756  10.103  67.629  1.00  0.00    -0.339 A  
BRANCH   6   9
HETATM    9  C   UNL     1     -12.263  12.165  70.426  1.00  0.00    -0.378 C  
HETATM   10  C   UNL     1     -11.945  13.464  70.332  1.00  0.00    -0.358 C  
BRANCH  10  11
HETATM   11  C   UNL     1     -12.845  14.498  70.890  1.00  0.00    -0.360 C  
HETATM   12  O   UNL     1     -13.783  14.296  71.642  1.00  0.00    -0.362 OA 
BRANCH  11  13
HETATM   13  O   UNL     1     -12.567  15.652  70.231  1.00  0.00    -0.407 OA 
BRANCH  13  14
HETATM   14  C   UNL     1     -12.109  15.456  68.889  1.00  0.00    -0.198 C  
BRANCH  14  15
HETATM   15  C   UNL     1     -11.038  16.461  68.478  1.00  0.00    -0.357 C  
HETATM   16  C   UNL     1      -9.630  15.990  68.899  1.00  0.00    -0.236 C  
HETATM   17  C   UNL     1      -9.238  14.662  68.245  1.00  0.00    -0.198 C  
HETATM   18  C   UNL     1      -8.581  17.052  68.569  1.00  0.00    -0.257 C  
ENDBRANCH  14  15
ENDBRANCH  13  14
ENDBRANCH  11  13
ENDBRANCH  10  11
ENDBRANCH   6   9
ENDBRANCH   2   3
TORSDOF 6
ENDMDL
MODEL      111
REMARK 921   NORMALIZED FREE ENERGY PREDICTED BY IDOCK:   -3.89 KCAL/MOL
REMARK 922        TOTAL FREE ENERGY PREDICTED BY IDOCK:   -6.04 KCAL/MOL
REMARK 923 INTER-LIGAND FREE ENERGY PREDICTED BY IDOCK:   -5.08 KCAL/MOL
REMARK 924 INTRA-LIGAND FREE ENERGY PREDICTED BY IDOCK:   -0.96 KCAL/MOL
REMARK 927      BINDING AFFINITY PREDICTED BY RF-SCORE:    0.00 PKD
ROOT
HETATM    1  C   UNL     1     -12.282   8.574  71.378  1.00  0.00    -0.304 C  
HETATM    2  O   UNL     1     -10.921   8.407  70.990  1.00  0.00    -0.234 OA 
ENDROOT
BRANCH   2   3
HETATM    3  C   UNL     1     -10.573   9.034  69.825  1.00  0.00    -0.228 A  
HETATM    4  C   UNL     1     -10.535  10.427  69.867  1.00  0.00    -0.266 A  
HETATM    5  C   UNL     1     -10.217  11.162  68.720  1.00  0.00    -0.219 A  
HETATM    6  C   UNL     1      -9.900  10.512  67.522  1.00  0.00    -0.196 A  
HETATM    7  C   UNL     1      -9.911   9.110  67.499  1.00  0.00    -0.258 A  
HETATM    8  C   UNL     1     -10.237   8.375  68.643  1.00  0.00    -0.220 A  
BRANCH   6   9
HETATM    9  C   UNL     1      -9.677  11.302  66.306  1.00  0.00    -0.246 C  
HETATM   10  C   UNL     1     -10.051  10.908  65.081  1.00  0.00    -0.352 C  
BRANCH  10  11
HETATM   11  C   UNL     1     -10.018  11.856  63.946  1.00  0.00    -0.329 C  
HETATM   12  O   UNL     1      -9.822  11.564  62.778  1.00  0.00    -0.307 OA 
BRANCH  11  13
HETATM   13  O   UNL     1     -10.016  13.104  64.481  1.00  0.00    -0.254 OA 
BRANCH  13  14
HETATM   14  C   UNL     1     -11.237  13.824  64.275  1.00  0.00    -0.305 C  
BRANCH  14  15
HETATM   15  C   UNL     1     -12.051  13.982  65.554  1.00  0.00    -0.423 C  
HETATM   16  C   UNL     1     -11.179  14.487  66.722  1.00  0.00    -0.336 C  
HETATM   17  C   UNL     1     -10.561  15.860  66.440  1.00  0.00    -0.298 C  
HETATM   18  C   UNL     1     -11.986  14.545  68.018  1.00  0.00    -0.305 C  
ENDBRANCH  14  15
ENDBRANCH  13  14
ENDBRANCH  11  13
ENDBRANCH  10  11
ENDBRANCH   6   9
ENDBRANCH   2   3
TORSDOF 6
ENDMDL
MODEL      112
REMARK 921   NORMALIZED FREE ENERGY PREDICTED BY IDOCK:   -3.89 KCAL/MOL
REMARK 922        TOTAL FREE ENERGY PREDICTED BY IDOCK:   -6.03 KCAL/MOL
REMARK 923 INTER-LIGAND FREE ENERGY PREDICTED BY IDOCK:   -5.33 KCAL/MOL
REMARK 924 INTRA-LIGAND FREE ENERGY PREDICTED BY IDOCK:   -0.70 KCAL/MOL
REMARK 927      BINDING AFFINITY PREDICTED BY RF-SCORE:    0.00 PKD
ROOT
HETATM    1  C   UNL     1      -9.020   3.028  66.894  1.00  0.00    -0.161 C  
HETATM    2  O   UNL     1      -9.367   3.843  65.778  1.00  0.00    -0.145 OA 
ENDROOT
BRANCH   2   3
HETATM    3  C   UNL     1      -9.478   5.179  66.054  1.00  0.00    -0.160 A  
HETATM    4  C   UNL     1     -10.601   5.562  66.785  1.00  0.00    -0.360 A  
HETATM    5  C   UNL     1     -10.820   6.908  67.094  1.00  0.00    -0.447 A  
HETATM    6  C   UNL     1      -9.900   7.888  66.706  1.00  0.00    -0.318 A  
HETATM    7  C   UNL     1      -8.756   7.488  65.998  1.00  0.00    -0.178 A  
HETATM    8  C   UNL     1      -8.541   6.143  65.681  1.00  0.00    -0.148 A  
BRANCH   6   9
HETATM    9  C   UNL     1     -10.203   9.303  66.946  1.00  0.00    -0.327 C  
HETATM   10  C   UNL     1     -10.692   9.776  68.100  1.00  0.00    -0.280 C  
BRANCH  10  11
HETATM   11  C   UNL     1     -10.739  11.233  68.354  1.00  0.00    -0.203 C  
HETATM   12  O   UNL     1     -11.475  11.796  69.146  1.00  0.00    -0.248 OA 
BRANCH  11  13
HETATM   13  O   UNL     1      -9.984  11.820  67.389  1.00  0.00    -0.183 OA 
BRANCH  13  14
HETATM   14  C   UNL     1     -10.636  12.908  66.726  1.00  0.00    -0.257 C  
BRANCH  14  15
HETATM   15  C   UNL     1     -11.785  12.451  65.834  1.00  0.00    -0.476 C  
HETATM   16  C   UNL     1     -11.426  12.578  64.339  1.00  0.00    -0.406 C  
HETATM   17  C   UNL     1     -10.221  11.717  63.952  1.00  0.00    -0.409 C  
HETATM   18  C   UNL     1     -12.621  12.210  63.460  1.00  0.00    -0.621 C  
ENDBRANCH  14  15
ENDBRANCH  13  14
ENDBRANCH  11  13
ENDBRANCH  10  11
ENDBRANCH   6   9
ENDBRANCH   2   3
TORSDOF 6
ENDMDL
MODEL      113
REMARK 921   NORMALIZED FREE ENERGY PREDICTED BY IDOCK:   -3.88 KCAL/MOL
REMARK 922        TOTAL FREE ENERGY PREDICTED BY IDOCK:   -6.03 KCAL/MOL
REMARK 923 INTER-LIGAND FREE ENERGY PREDICTED BY IDOCK:   -5.55 KCAL/MOL
REMARK 924 INTRA-LIGAND FREE ENERGY PREDICTED BY IDOCK:   -0.48 KCAL/MOL
REMARK 927      BINDING AFFINITY PREDICTED BY RF-SCORE:    0.00 PKD
ROOT
HETATM    1  C   UNL     1      -6.152  17.696  69.838  1.00  0.00    -0.178 C  
HETATM    2  O   UNL     1      -7.039  18.236  68.862  1.00  0.00    -0.274 OA 
ENDROOT
BRANCH   2   3
HETATM    3  C   UNL     1      -7.930  17.340  68.337  1.00  0.00    -0.253 A  
HETATM    4  C   UNL     1      -7.966  16.086  68.942  1.00  0.00    -0.212 A  
HETATM    5  C   UNL     1      -8.824  15.091  68.460  1.00  0.00    -0.181 A  
HETATM    6  C   UNL     1      -9.684  15.350  67.388  1.00  0.00    -0.215 A  
HETATM    7  C   UNL     1      -9.663  16.626  66.807  1.00  0.00    -0.271 A  
HETATM    8  C   UNL     1      -8.799  17.618  67.282  1.00  0.00    -0.240 A  
BRANCH   6   9
HETATM    9  C   UNL     1     -10.496  14.262  66.831  1.00  0.00    -0.272 C  
HETATM   10  C   UNL     1     -10.503  13.013  67.316  1.00  0.00    -0.238 C  
BRANCH  10  11
HETATM   11  C   UNL     1     -11.523  12.039  66.866  1.00  0.00    -0.337 C  
HETATM   12  O   UNL     1     -11.924  11.905  65.722  1.00  0.00    -0.451 OA 
BRANCH  11  13
HETATM   13  O   UNL     1     -12.072  11.504  67.987  1.00  0.00    -0.617 OA 
BRANCH  13  14
HETATM   14  C   UNL     1     -11.262  11.659  69.157  1.00  0.00    -0.263 C  
BRANCH  14  15
HETATM   15  C   UNL     1     -11.897  11.039  70.398  1.00  0.00    -0.460 C  
HETATM   16  C   UNL     1     -11.559   9.538  70.517  1.00  0.00    -0.316 C  
HETATM   17  C   UNL     1     -10.054   9.285  70.639  1.00  0.00    -0.339 C  
HETATM   18  C   UNL     1     -12.282   8.912  71.709  1.00  0.00    -0.429 C  
ENDBRANCH  14  15
ENDBRANCH  13  14
ENDBRANCH  11  13
ENDBRANCH  10  11
ENDBRANCH   6   9
ENDBRANCH   2   3
TORSDOF 6
ENDMDL
MODEL      114
REMARK 921   NORMALIZED FREE ENERGY PREDICTED BY IDOCK:   -3.87 KCAL/MOL
REMARK 922        TOTAL FREE ENERGY PREDICTED BY IDOCK:   -6.00 KCAL/MOL
REMARK 923 INTER-LIGAND FREE ENERGY PREDICTED BY IDOCK:   -5.12 KCAL/MOL
REMARK 924 INTRA-LIGAND FREE ENERGY PREDICTED BY IDOCK:   -0.89 KCAL/MOL
REMARK 927      BINDING AFFINITY PREDICTED BY RF-SCORE:    0.00 PKD
ROOT
HETATM    1  C   UNL     1     -12.051  14.136  66.853  1.00  0.00    -0.432 C  
HETATM    2  O   UNL     1     -12.340  12.786  66.499  1.00  0.00    -0.476 OA 
ENDROOT
BRANCH   2   3
HETATM    3  C   UNL     1     -11.687  11.843  67.244  1.00  0.00    -0.247 A  
HETATM    4  C   UNL     1     -10.904  10.935  66.533  1.00  0.00    -0.234 A  
HETATM    5  C   UNL     1     -10.218   9.916  67.202  1.00  0.00    -0.285 A  
HETATM    6  C   UNL     1     -10.278   9.810  68.595  1.00  0.00    -0.210 A  
HETATM    7  C   UNL     1     -11.044  10.748  69.304  1.00  0.00    -0.312 A  
HETATM    8  C   UNL     1     -11.737  11.762  68.636  1.00  0.00    -0.389 A  
BRANCH   6   9
HETATM    9  C   UNL     1      -9.641   8.671  69.264  1.00  0.00    -0.166 C  
HETATM   10  C   UNL     1      -9.121   8.727  70.498  1.00  0.00    -0.205 C  
BRANCH  10  11
HETATM   11  C   UNL     1      -8.721   7.486  71.200  1.00  0.00    -0.136 C  
HETATM   12  O   UNL     1      -7.700   7.331  71.848  1.00  0.00    -0.088 OA 
BRANCH  11  13
HETATM   13  O   UNL     1      -9.580   6.515  70.793  1.00  0.00    -0.177 OA 
BRANCH  13  14
HETATM   14  C   UNL     1     -10.680   6.306  71.686  1.00  0.00    -0.239 C  
BRANCH  14  15
HETATM   15  C   UNL     1     -12.030   6.577  71.031  1.00  0.00    -0.358 C  
HETATM   16  C   UNL     1     -12.985   7.319  71.990  1.00  0.00    -0.196 C  
HETATM   17  C   UNL     1     -12.440   8.684  72.418  1.00  0.00    -0.428 C  
HETATM   18  C   UNL     1     -14.364   7.495  71.354  1.00  0.00    -0.540 C  
ENDBRANCH  14  15
ENDBRANCH  13  14
ENDBRANCH  11  13
ENDBRANCH  10  11
ENDBRANCH   6   9
ENDBRANCH   2   3
TORSDOF 6
ENDMDL
MODEL      115
REMARK 921   NORMALIZED FREE ENERGY PREDICTED BY IDOCK:   -3.86 KCAL/MOL
REMARK 922        TOTAL FREE ENERGY PREDICTED BY IDOCK:   -5.99 KCAL/MOL
REMARK 923 INTER-LIGAND FREE ENERGY PREDICTED BY IDOCK:   -5.51 KCAL/MOL
REMARK 924 INTRA-LIGAND FREE ENERGY PREDICTED BY IDOCK:   -0.48 KCAL/MOL
REMARK 927      BINDING AFFINITY PREDICTED BY RF-SCORE:    0.00 PKD
ROOT
HETATM    1  C   UNL     1     -13.658  14.794  72.438  1.00  0.00    -0.446 C  
HETATM    2  O   UNL     1     -13.981  13.426  72.673  1.00  0.00    -0.755 OA 
ENDROOT
BRANCH   2   3
HETATM    3  C   UNL     1     -13.323  12.533  71.871  1.00  0.00    -0.368 A  
HETATM    4  C   UNL     1     -13.502  11.186  72.181  1.00  0.00    -0.193 A  
HETATM    5  C   UNL     1     -12.850  10.196  71.437  1.00  0.00    -0.530 A  
HETATM    6  C   UNL     1     -12.038  10.538  70.352  1.00  0.00    -0.418 A  
HETATM    7  C   UNL     1     -11.891  11.896  70.029  1.00  0.00    -0.407 A  
HETATM    8  C   UNL     1     -12.535  12.886  70.777  1.00  0.00    -0.370 A  
BRANCH   6   9
HETATM    9  C   UNL     1     -11.280   9.494  69.655  1.00  0.00    -0.138 C  
HETATM   10  C   UNL     1     -10.128   9.714  69.007  1.00  0.00    -0.193 C  
BRANCH  10  11
HETATM   11  C   UNL     1      -9.299   8.579  68.544  1.00  0.00    -0.138 C  
HETATM   12  O   UNL     1      -8.587   7.882  69.247  1.00  0.00    -0.135 OA 
BRANCH  11  13
HETATM   13  O   UNL     1      -9.311   8.617  67.186  1.00  0.00    -0.142 OA 
BRANCH  13  14
HETATM   14  C   UNL     1      -9.066   9.918  66.642  1.00  0.00    -0.147 C  
BRANCH  14  15
HETATM   15  C   UNL     1      -9.833  10.169  65.348  1.00  0.00    -0.375 C  
HETATM   16  C   UNL     1      -8.878  10.313  64.144  1.00  0.00    -0.239 C  
HETATM   17  C   UNL     1      -8.044   9.052  63.905  1.00  0.00    -0.159 C  
HETATM   18  C   UNL     1      -9.654  10.663  62.874  1.00  0.00    -0.358 C  
ENDBRANCH  14  15
ENDBRANCH  13  14
ENDBRANCH  11  13
ENDBRANCH  10  11
ENDBRANCH   6   9
ENDBRANCH   2   3
TORSDOF 6
ENDMDL
MODEL      116
REMARK 921   NORMALIZED FREE ENERGY PREDICTED BY IDOCK:   -3.84 KCAL/MOL
REMARK 922        TOTAL FREE ENERGY PREDICTED BY IDOCK:   -5.97 KCAL/MOL
REMARK 923 INTER-LIGAND FREE ENERGY PREDICTED BY IDOCK:   -5.29 KCAL/MOL
REMARK 924 INTRA-LIGAND FREE ENERGY PREDICTED BY IDOCK:   -0.68 KCAL/MOL
REMARK 927      BINDING AFFINITY PREDICTED BY RF-SCORE:    0.00 PKD
ROOT
HETATM    1  C   UNL     1      -6.908  10.329  62.442  1.00  0.00    -0.131 C  
HETATM    2  O   UNL     1      -8.301  10.599  62.573  1.00  0.00    -0.176 OA 
ENDROOT
BRANCH   2   3
HETATM    3  C   UNL     1      -8.851  10.220  63.767  1.00  0.00    -0.221 A  
HETATM    4  C   UNL     1      -8.383   9.022  64.303  1.00  0.00    -0.179 A  
HETATM    5  C   UNL     1      -8.902   8.534  65.507  1.00  0.00    -0.196 A  
HETATM    6  C   UNL     1      -9.873   9.255  66.209  1.00  0.00    -0.361 A  
HETATM    7  C   UNL     1     -10.314  10.476  65.677  1.00  0.00    -0.274 A  
HETATM    8  C   UNL     1      -9.802  10.960  64.469  1.00  0.00    -0.356 A  
BRANCH   6   9
HETATM    9  C   UNL     1     -10.481   8.673  67.411  1.00  0.00    -0.351 C  
HETATM   10  C   UNL     1     -10.150   7.473  67.908  1.00  0.00    -0.226 C  
BRANCH  10  11
HETATM   11  C   UNL     1     -10.620   7.062  69.250  1.00  0.00    -0.224 C  
HETATM   12  O   UNL     1     -11.592   6.364  69.481  1.00  0.00    -0.404 OA 
BRANCH  11  13
HETATM   13  O   UNL     1      -9.909   7.789  70.150  1.00  0.00    -0.183 OA 
BRANCH  13  14
HETATM   14  C   UNL     1     -10.587   7.991  71.395  1.00  0.00    -0.216 C  
BRANCH  14  15
HETATM   15  C   UNL     1     -11.037   9.434  71.593  1.00  0.00    -0.409 C  
HETATM   16  C   UNL     1     -12.495   9.640  71.133  1.00  0.00    -0.421 C  
HETATM   17  C   UNL     1     -13.485   8.775  71.919  1.00  0.00    -0.447 C  
HETATM   18  C   UNL     1     -12.898  11.110  71.246  1.00  0.00    -0.515 C  
ENDBRANCH  14  15
ENDBRANCH  13  14
ENDBRANCH  11  13
ENDBRANCH  10  11
ENDBRANCH   6   9
ENDBRANCH   2   3
TORSDOF 6
ENDMDL
MODEL      117
REMARK 921   NORMALIZED FREE ENERGY PREDICTED BY IDOCK:   -3.84 KCAL/MOL
REMARK 922        TOTAL FREE ENERGY PREDICTED BY IDOCK:   -5.97 KCAL/MOL
REMARK 923 INTER-LIGAND FREE ENERGY PREDICTED BY IDOCK:   -5.33 KCAL/MOL
REMARK 924 INTRA-LIGAND FREE ENERGY PREDICTED BY IDOCK:   -0.64 KCAL/MOL
REMARK 927      BINDING AFFINITY PREDICTED BY RF-SCORE:    0.00 PKD
ROOT
HETATM    1  C   UNL     1      -8.886  20.489  67.267  1.00  0.00    -0.291 C  
HETATM    2  O   UNL     1      -8.565  19.710  68.415  1.00  0.00    -0.343 OA 
ENDROOT
BRANCH   2   3
HETATM    3  C   UNL     1      -8.917  18.390  68.333  1.00  0.00    -0.316 A  
HETATM    4  C   UNL     1      -7.874  17.471  68.427  1.00  0.00    -0.263 A  
HETATM    5  C   UNL     1      -8.128  16.099  68.327  1.00  0.00    -0.153 A  
HETATM    6  C   UNL     1      -9.434  15.626  68.166  1.00  0.00    -0.195 A  
HETATM    7  C   UNL     1     -10.480  16.558  68.104  1.00  0.00    -0.313 A  
HETATM    8  C   UNL     1     -10.227  17.930  68.195  1.00  0.00    -0.386 A  
BRANCH   6   9
HETATM    9  C   UNL     1      -9.664  14.193  67.955  1.00  0.00    -0.224 C  
HETATM   10  C   UNL     1      -8.716  13.336  67.550  1.00  0.00    -0.202 C  
BRANCH  10  11
HETATM   11  C   UNL     1      -8.955  11.876  67.598  1.00  0.00    -0.169 C  
HETATM   12  O   UNL     1      -8.937  11.183  68.601  1.00  0.00    -0.166 OA 
BRANCH  11  13
HETATM   13  O   UNL     1      -8.966  11.442  66.311  1.00  0.00    -0.192 OA 
BRANCH  13  14
HETATM   14  C   UNL     1     -10.222  10.895  65.896  1.00  0.00    -0.257 C  
BRANCH  14  15
HETATM   15  C   UNL     1     -11.398  11.814  66.208  1.00  0.00    -0.350 C  
HETATM   16  C   UNL     1     -11.604  12.866  65.098  1.00  0.00    -0.367 C  
HETATM   17  C   UNL     1     -11.913  12.230  63.740  1.00  0.00    -0.609 C  
HETATM   18  C   UNL     1     -12.721  13.840  65.473  1.00  0.00    -0.530 C  
ENDBRANCH  14  15
ENDBRANCH  13  14
ENDBRANCH  11  13
ENDBRANCH  10  11
ENDBRANCH   6   9
ENDBRANCH   2   3
TORSDOF 6
ENDMDL
MODEL      118
REMARK 921   NORMALIZED FREE ENERGY PREDICTED BY IDOCK:   -3.83 KCAL/MOL
REMARK 922        TOTAL FREE ENERGY PREDICTED BY IDOCK:   -5.96 KCAL/MOL
REMARK 923 INTER-LIGAND FREE ENERGY PREDICTED BY IDOCK:   -5.19 KCAL/MOL
REMARK 924 INTRA-LIGAND FREE ENERGY PREDICTED BY IDOCK:   -0.78 KCAL/MOL
REMARK 927      BINDING AFFINITY PREDICTED BY RF-SCORE:    0.00 PKD
ROOT
HETATM    1  C   UNL     1     -12.942   9.543  72.055  1.00  0.00    -0.426 C  
HETATM    2  O   UNL     1     -13.378  10.742  71.421  1.00  0.00    -0.310 OA 
ENDROOT
BRANCH   2   3
HETATM    3  C   UNL     1     -12.508  11.255  70.498  1.00  0.00    -0.310 A  
HETATM    4  C   UNL     1     -12.474  12.645  70.397  1.00  0.00    -0.219 A  
HETATM    5  C   UNL     1     -11.637  13.266  69.463  1.00  0.00    -0.349 A  
HETATM    6  C   UNL     1     -10.798  12.507  68.642  1.00  0.00    -0.280 A  
HETATM    7  C   UNL     1     -10.817  11.110  68.775  1.00  0.00    -0.256 A  
HETATM    8  C   UNL     1     -11.659  10.488  69.701  1.00  0.00    -0.342 A  
BRANCH   6   9
HETATM    9  C   UNL     1     -10.010  13.171  67.598  1.00  0.00    -0.219 C  
HETATM   10  C   UNL     1     -10.546  13.747  66.512  1.00  0.00    -0.279 C  
BRANCH  10  11
HETATM   11  C   UNL     1      -9.720  14.607  65.636  1.00  0.00    -0.266 C  
HETATM   12  O   UNL     1      -9.312  15.723  65.911  1.00  0.00    -0.333 OA 
BRANCH  11  13
HETATM   13  O   UNL     1      -9.707  14.017  64.412  1.00  0.00     0.135 OA 
BRANCH  13  14
HETATM   14  C   UNL     1     -10.692  12.991  64.255  1.00  0.00    -0.407 C  
BRANCH  14  15
HETATM   15  C   UNL     1     -10.262  11.906  63.273  1.00  0.00    -0.428 C  
HETATM   16  C   UNL     1      -9.324  10.878  63.941  1.00  0.00    -0.267 C  
HETATM   17  C   UNL     1      -9.993  10.150  65.110  1.00  0.00    -0.379 C  
HETATM   18  C   UNL     1      -8.824   9.856  62.920  1.00  0.00    -0.248 C  
ENDBRANCH  14  15
ENDBRANCH  13  14
ENDBRANCH  11  13
ENDBRANCH  10  11
ENDBRANCH   6   9
ENDBRANCH   2   3
TORSDOF 6
ENDMDL
MODEL      119
REMARK 921   NORMALIZED FREE ENERGY PREDICTED BY IDOCK:   -3.83 KCAL/MOL
REMARK 922        TOTAL FREE ENERGY PREDICTED BY IDOCK:   -5.96 KCAL/MOL
REMARK 923 INTER-LIGAND FREE ENERGY PREDICTED BY IDOCK:   -5.60 KCAL/MOL
REMARK 924 INTRA-LIGAND FREE ENERGY PREDICTED BY IDOCK:   -0.36 KCAL/MOL
REMARK 927      BINDING AFFINITY PREDICTED BY RF-SCORE:    0.00 PKD
ROOT
HETATM    1  C   UNL     1     -10.337   4.120  72.507  1.00  0.00    -0.159 C  
HETATM    2  O   UNL     1     -10.999   5.194  73.170  1.00  0.00    -0.255 OA 
ENDROOT
BRANCH   2   3
HETATM    3  C   UNL     1     -11.025   6.372  72.475  1.00  0.00    -0.251 A  
HETATM    4  C   UNL     1     -11.479   6.297  71.160  1.00  0.00    -0.362 A  
HETATM    5  C   UNL     1     -11.517   7.441  70.357  1.00  0.00    -0.250 A  
HETATM    6  C   UNL     1     -11.133   8.685  70.869  1.00  0.00    -0.310 A  
HETATM    7  C   UNL     1     -10.706   8.755  72.203  1.00  0.00    -0.383 A  
HETATM    8  C   UNL     1     -10.660   7.610  73.004  1.00  0.00    -0.433 A  
BRANCH   6   9
HETATM    9  C   UNL     1     -11.077   9.849  69.979  1.00  0.00    -0.335 C  
HETATM   10  C   UNL     1     -10.442   9.857  68.799  1.00  0.00    -0.234 C  
BRANCH  10  11
HETATM   11  C   UNL     1     -10.636  10.977  67.850  1.00  0.00    -0.205 C  
HETATM   12  O   UNL     1     -10.596  10.897  66.635  1.00  0.00    -0.246 OA 
BRANCH  11  13
HETATM   13  O   UNL     1     -10.636  12.117  68.589  1.00  0.00    -0.223 OA 
BRANCH  13  14
HETATM   14  C   UNL     1     -11.679  13.033  68.241  1.00  0.00    -0.353 C  
BRANCH  14  15
HETATM   15  C   UNL     1     -11.166  14.248  67.476  1.00  0.00    -0.322 C  
HETATM   16  C   UNL     1     -11.184  14.006  65.952  1.00  0.00    -0.308 C  
HETATM   17  C   UNL     1     -12.593  13.734  65.420  1.00  0.00    -0.534 C  
HETATM   18  C   UNL     1     -10.575  15.193  65.207  1.00  0.00    -0.432 C  
ENDBRANCH  14  15
ENDBRANCH  13  14
ENDBRANCH  11  13
ENDBRANCH  10  11
ENDBRANCH   6   9
ENDBRANCH   2   3
TORSDOF 6
ENDMDL
MODEL      120
REMARK 921   NORMALIZED FREE ENERGY PREDICTED BY IDOCK:   -3.82 KCAL/MOL
REMARK 922        TOTAL FREE ENERGY PREDICTED BY IDOCK:   -5.94 KCAL/MOL
REMARK 923 INTER-LIGAND FREE ENERGY PREDICTED BY IDOCK:   -5.01 KCAL/MOL
REMARK 924 INTRA-LIGAND FREE ENERGY PREDICTED BY IDOCK:   -0.93 KCAL/MOL
REMARK 927      BINDING AFFINITY PREDICTED BY RF-SCORE:    0.00 PKD
ROOT
HETATM    1  C   UNL     1      -9.701   5.031  68.068  1.00  0.00    -0.151 C  
HETATM    2  O   UNL     1     -10.888   5.798  67.886  1.00  0.00    -0.248 OA 
ENDROOT
BRANCH   2   3
HETATM    3  C   UNL     1     -10.745   7.141  68.108  1.00  0.00    -0.160 A  
HETATM    4  C   UNL     1     -10.588   7.935  66.975  1.00  0.00    -0.381 A  
HETATM    5  C   UNL     1     -10.407   9.317  67.098  1.00  0.00    -0.330 A  
HETATM    6  C   UNL     1     -10.416   9.928  68.356  1.00  0.00    -0.239 A  
HETATM    7  C   UNL     1     -10.606   9.123  69.489  1.00  0.00    -0.233 A  
HETATM    8  C   UNL     1     -10.779   7.740  69.367  1.00  0.00    -0.177 A  
BRANCH   6   9
HETATM    9  C   UNL     1     -10.117  11.359  68.469  1.00  0.00    -0.211 C  
HETATM   10  C   UNL     1      -9.109  11.964  67.824  1.00  0.00    -0.180 C  
BRANCH  10  11
HETATM   11  C   UNL     1      -9.020  13.441  67.790  1.00  0.00    -0.205 C  
HETATM   12  O   UNL     1      -9.188  14.188  68.740  1.00  0.00    -0.172 OA 
BRANCH  11  13
HETATM   13  O   UNL     1      -8.949  13.797  66.481  1.00  0.00    -0.179 OA 
BRANCH  13  14
HETATM   14  C   UNL     1      -9.899  14.797  66.100  1.00  0.00    -0.312 C  
BRANCH  14  15
HETATM   15  C   UNL     1     -10.617  14.463  64.798  1.00  0.00    -0.417 C  
HETATM   16  C   UNL     1     -11.232  13.048  64.838  1.00  0.00    -0.329 C  
HETATM   17  C   UNL     1     -12.275  12.894  65.949  1.00  0.00    -0.469 C  
HETATM   18  C   UNL     1     -11.861  12.690  63.492  1.00  0.00    -0.619 C  
ENDBRANCH  14  15
ENDBRANCH  13  14
ENDBRANCH  11  13
ENDBRANCH  10  11
ENDBRANCH   6   9
ENDBRANCH   2   3
TORSDOF 6
ENDMDL
MODEL      121
REMARK 921   NORMALIZED FREE ENERGY PREDICTED BY IDOCK:   -3.82 KCAL/MOL
REMARK 922        TOTAL FREE ENERGY PREDICTED BY IDOCK:   -5.94 KCAL/MOL
REMARK 923 INTER-LIGAND FREE ENERGY PREDICTED BY IDOCK:   -4.87 KCAL/MOL
REMARK 924 INTRA-LIGAND FREE ENERGY PREDICTED BY IDOCK:   -1.07 KCAL/MOL
REMARK 927      BINDING AFFINITY PREDICTED BY RF-SCORE:    0.00 PKD
ROOT
HETATM    1  C   UNL     1     -11.067  15.095  70.043  1.00  0.00    -0.275 C  
HETATM    2  O   UNL     1     -12.082  14.765  69.100  1.00  0.00    -0.298 OA 
ENDROOT
BRANCH   2   3
HETATM    3  C   UNL     1     -11.710  13.856  68.147  1.00  0.00    -0.353 A  
HETATM    4  C   UNL     1     -10.941  12.783  68.593  1.00  0.00    -0.295 A  
HETATM    5  C   UNL     1     -10.487  11.814  67.691  1.00  0.00    -0.223 A  
HETATM    6  C   UNL     1     -10.824  11.887  66.336  1.00  0.00    -0.318 A  
HETATM    7  C   UNL     1     -11.625  12.954  65.903  1.00  0.00    -0.423 A  
HETATM    8  C   UNL     1     -12.072  13.928  66.802  1.00  0.00    -0.476 A  
BRANCH   6   9
HETATM    9  C   UNL     1     -10.249  10.923  65.393  1.00  0.00    -0.339 C  
HETATM   10  C   UNL     1      -8.932  10.765  65.197  1.00  0.00    -0.215 C  
BRANCH  10  11
HETATM   11  C   UNL     1      -8.422   9.613  64.421  1.00  0.00    -0.181 C  
HETATM   12  O   UNL     1      -8.807   9.271  63.316  1.00  0.00    -0.219 OA 
BRANCH  11  13
HETATM   13  O   UNL     1      -7.629   8.898  65.261  1.00  0.00    -0.094 OA 
BRANCH  13  14
HETATM   14  C   UNL     1      -8.246   7.711  65.769  1.00  0.00    -0.133 C  
BRANCH  14  15
HETATM   15  C   UNL     1      -8.637   7.831  67.237  1.00  0.00    -0.128 C  
HETATM   16  C   UNL     1     -10.165   7.973  67.406  1.00  0.00    -0.330 C  
HETATM   17  C   UNL     1     -10.928   6.762  66.862  1.00  0.00    -0.370 C  
HETATM   18  C   UNL     1     -10.532   8.192  68.873  1.00  0.00    -0.202 C  
ENDBRANCH  14  15
ENDBRANCH  13  14
ENDBRANCH  11  13
ENDBRANCH  10  11
ENDBRANCH   6   9
ENDBRANCH   2   3
TORSDOF 6
ENDMDL
MODEL      122
REMARK 921   NORMALIZED FREE ENERGY PREDICTED BY IDOCK:   -3.82 KCAL/MOL
REMARK 922        TOTAL FREE ENERGY PREDICTED BY IDOCK:   -5.94 KCAL/MOL
REMARK 923 INTER-LIGAND FREE ENERGY PREDICTED BY IDOCK:   -5.25 KCAL/MOL
REMARK 924 INTRA-LIGAND FREE ENERGY PREDICTED BY IDOCK:   -0.69 KCAL/MOL
REMARK 927      BINDING AFFINITY PREDICTED BY RF-SCORE:    0.00 PKD
ROOT
HETATM    1  C   UNL     1      -8.991   4.472  66.790  1.00  0.00    -0.115 C  
HETATM    2  O   UNL     1     -10.333   4.949  66.853  1.00  0.00    -0.224 OA 
ENDROOT
BRANCH   2   3
HETATM    3  C   UNL     1     -10.487   6.147  67.495  1.00  0.00    -0.240 A  
HETATM    4  C   UNL     1     -10.326   7.287  66.710  1.00  0.00    -0.311 A  
HETATM    5  C   UNL     1     -10.437   8.561  67.279  1.00  0.00    -0.366 A  
HETATM    6  C   UNL     1     -10.745   8.712  68.635  1.00  0.00    -0.092 A  
HETATM    7  C   UNL     1     -10.937   7.557  69.409  1.00  0.00    -0.099 A  
HETATM    8  C   UNL     1     -10.818   6.284  68.843  1.00  0.00    -0.396 A  
BRANCH   6   9
HETATM    9  C   UNL     1     -10.750  10.051  69.233  1.00  0.00    -0.249 C  
HETATM   10  C   UNL     1     -11.701  10.967  69.004  1.00  0.00    -0.391 C  
BRANCH  10  11
HETATM   11  C   UNL     1     -11.773  12.195  69.827  1.00  0.00    -0.310 C  
HETATM   12  O   UNL     1     -12.494  12.362  70.795  1.00  0.00    -0.349 OA 
BRANCH  11  13
HETATM   13  O   UNL     1     -11.067  13.149  69.165  1.00  0.00    -0.245 OA 
BRANCH  13  14
HETATM   14  C   UNL     1     -11.884  14.155  68.558  1.00  0.00    -0.355 C  
BRANCH  14  15
HETATM   15  C   UNL     1     -11.303  14.674  67.247  1.00  0.00    -0.364 C  
HETATM   16  C   UNL     1     -11.016  13.523  66.261  1.00  0.00    -0.293 C  
HETATM   17  C   UNL     1     -12.280  12.745  65.885  1.00  0.00    -0.422 C  
HETATM   18  C   UNL     1     -10.343  14.048  64.993  1.00  0.00    -0.432 C  
ENDBRANCH  14  15
ENDBRANCH  13  14
ENDBRANCH  11  13
ENDBRANCH  10  11
ENDBRANCH   6   9
ENDBRANCH   2   3
TORSDOF 6
ENDMDL
MODEL      123
REMARK 921   NORMALIZED FREE ENERGY PREDICTED BY IDOCK:   -3.82 KCAL/MOL
REMARK 922        TOTAL FREE ENERGY PREDICTED BY IDOCK:   -5.94 KCAL/MOL
REMARK 923 INTER-LIGAND FREE ENERGY PREDICTED BY IDOCK:   -5.78 KCAL/MOL
REMARK 924 INTRA-LIGAND FREE ENERGY PREDICTED BY IDOCK:   -0.16 KCAL/MOL
REMARK 927      BINDING AFFINITY PREDICTED BY RF-SCORE:    0.00 PKD
ROOT
HETATM    1  C   UNL     1     -11.216   6.250  69.786  1.00  0.00    -0.430 C  
HETATM    2  O   UNL     1     -10.154   7.201  69.767  1.00  0.00    -0.188 OA 
ENDROOT
BRANCH   2   3
HETATM    3  C   UNL     1     -10.347   8.263  68.926  1.00  0.00    -0.215 A  
HETATM    4  C   UNL     1     -10.912   9.401  69.498  1.00  0.00    -0.193 A  
HETATM    5  C   UNL     1     -11.175  10.531  68.716  1.00  0.00    -0.317 A  
HETATM    6  C   UNL     1     -10.845  10.550  67.357  1.00  0.00    -0.349 A  
HETATM    7  C   UNL     1     -10.248   9.410  66.798  1.00  0.00    -0.320 A  
HETATM    8  C   UNL     1      -9.993   8.277  67.577  1.00  0.00    -0.252 A  
BRANCH   6   9
HETATM    9  C   UNL     1     -11.228  11.702  66.534  1.00  0.00    -0.356 C  
HETATM   10  C   UNL     1     -11.827  12.799  67.018  1.00  0.00    -0.428 C  
BRANCH  10  11
HETATM   11  C   UNL     1     -11.957  14.013  66.181  1.00  0.00    -0.420 C  
HETATM   12  O   UNL     1     -12.449  14.061  65.067  1.00  0.00    -0.472 OA 
BRANCH  11  13
HETATM   13  O   UNL     1     -11.230  14.985  66.791  1.00  0.00    -0.339 OA 
BRANCH  13  14
HETATM   14  C   UNL     1     -11.160  14.848  68.214  1.00  0.00    -0.282 C  
BRANCH  14  15
HETATM   15  C   UNL     1     -12.479  15.179  68.904  1.00  0.00     0.123 C  
HETATM   16  C   UNL     1     -12.387  14.970  70.430  1.00  0.00    -0.401 C  
HETATM   17  C   UNL     1     -11.332  15.869  71.081  1.00  0.00    -0.435 C  
HETATM   18  C   UNL     1     -13.743  15.210  71.094  1.00  0.00    -0.510 C  
ENDBRANCH  14  15
ENDBRANCH  13  14
ENDBRANCH  11  13
ENDBRANCH  10  11
ENDBRANCH   6   9
ENDBRANCH   2   3
TORSDOF 6
ENDMDL
MODEL      124
REMARK 921   NORMALIZED FREE ENERGY PREDICTED BY IDOCK:   -3.80 KCAL/MOL
REMARK 922        TOTAL FREE ENERGY PREDICTED BY IDOCK:   -5.92 KCAL/MOL
REMARK 923 INTER-LIGAND FREE ENERGY PREDICTED BY IDOCK:   -5.52 KCAL/MOL
REMARK 924 INTRA-LIGAND FREE ENERGY PREDICTED BY IDOCK:   -0.40 KCAL/MOL
REMARK 927      BINDING AFFINITY PREDICTED BY RF-SCORE:    0.00 PKD
ROOT
HETATM    1  C   UNL     1     -13.564  16.126  72.869  1.00  0.00    -0.253 C  
HETATM    2  O   UNL     1     -13.835  14.739  73.054  1.00  0.00    -0.508 OA 
ENDROOT
BRANCH   2   3
HETATM    3  C   UNL     1     -13.336  13.920  72.078  1.00  0.00    -0.435 A  
HETATM    4  C   UNL     1     -13.454  12.551  72.309  1.00  0.00    -0.490 A  
HETATM    5  C   UNL     1     -12.949  11.630  71.385  1.00  0.00    -0.426 A  
HETATM    6  C   UNL     1     -12.349  12.066  70.199  1.00  0.00    -0.230 A  
HETATM    7  C   UNL     1     -12.264  13.446  69.962  1.00  0.00    -0.367 A  
HETATM    8  C   UNL     1     -12.760  14.367  70.890  1.00  0.00    -0.425 A  
BRANCH   6   9
HETATM    9  C   UNL     1     -11.731  11.089  69.297  1.00  0.00    -0.397 C  
HETATM   10  C   UNL     1     -10.669  11.355  68.524  1.00  0.00    -0.235 C  
BRANCH  10  11
HETATM   11  C   UNL     1      -9.952  10.260  67.832  1.00  0.00    -0.164 C  
HETATM   12  O   UNL     1      -8.994  10.392  67.090  1.00  0.00    -0.139 OA 
BRANCH  11  13
HETATM   13  O   UNL     1     -10.700   9.138  68.001  1.00  0.00    -0.218 OA 
BRANCH  13  14
HETATM   14  C   UNL     1      -9.965   7.922  67.830  1.00  0.00    -0.178 C  
BRANCH  14  15
HETATM   15  C   UNL     1     -10.709   6.898  66.979  1.00  0.00    -0.432 C  
HETATM   16  C   UNL     1      -9.852   5.640  66.730  1.00  0.00    -0.185 C  
HETATM   17  C   UNL     1      -9.479   4.920  68.030  1.00  0.00    -0.173 C  
HETATM   18  C   UNL     1     -10.571   4.668  65.795  1.00  0.00    -0.264 C  
ENDBRANCH  14  15
ENDBRANCH  13  14
ENDBRANCH  11  13
ENDBRANCH  10  11
ENDBRANCH   6   9
ENDBRANCH   2   3
TORSDOF 6
ENDMDL
MODEL      125
REMARK 921   NORMALIZED FREE ENERGY PREDICTED BY IDOCK:   -3.79 KCAL/MOL
REMARK 922        TOTAL FREE ENERGY PREDICTED BY IDOCK:   -5.90 KCAL/MOL
REMARK 923 INTER-LIGAND FREE ENERGY PREDICTED BY IDOCK:   -5.03 KCAL/MOL
REMARK 924 INTRA-LIGAND FREE ENERGY PREDICTED BY IDOCK:   -0.87 KCAL/MOL
REMARK 927      BINDING AFFINITY PREDICTED BY RF-SCORE:    0.00 PKD
ROOT
HETATM    1  C   UNL     1     -12.977   9.532  72.149  1.00  0.00    -0.412 C  
HETATM    2  O   UNL     1     -13.337  10.766  71.533  1.00  0.00    -0.336 OA 
ENDROOT
BRANCH   2   3
HETATM    3  C   UNL     1     -12.403  11.274  70.672  1.00  0.00    -0.383 A  
HETATM    4  C   UNL     1     -12.357  12.663  70.570  1.00  0.00    -0.350 A  
HETATM    5  C   UNL     1     -11.455  13.279  69.696  1.00  0.00    -0.267 A  
HETATM    6  C   UNL     1     -10.562  12.515  68.937  1.00  0.00    -0.152 A  
HETATM    7  C   UNL     1     -10.596  11.118  69.071  1.00  0.00    -0.251 A  
HETATM    8  C   UNL     1     -11.503  10.502  69.938  1.00  0.00    -0.384 A  
BRANCH   6   9
HETATM    9  C   UNL     1      -9.702  13.174  67.949  1.00  0.00    -0.221 C  
HETATM   10  C   UNL     1      -9.969  14.370  67.406  1.00  0.00    -0.242 C  
BRANCH  10  11
HETATM   11  C   UNL     1      -8.942  15.079  66.612  1.00  0.00    -0.281 C  
HETATM   12  O   UNL     1      -7.921  15.581  67.051  1.00  0.00    -0.201 OA 
BRANCH  11  13
HETATM   13  O   UNL     1      -9.464  15.256  65.370  1.00  0.00    -0.220 OA 
BRANCH  13  14
HETATM   14  C   UNL     1     -10.893  15.333  65.349  1.00  0.00    -0.387 C  
BRANCH  14  15
HETATM   15  C   UNL     1     -11.509  14.541  64.201  1.00  0.00    -0.072 C  
HETATM   16  C   UNL     1     -11.949  13.134  64.656  1.00  0.00    -0.439 C  
HETATM   17  C   UNL     1     -13.013  13.181  65.757  1.00  0.00     0.211 C  
HETATM   18  C   UNL     1     -12.473  12.320  63.473  1.00  0.00    -0.642 C  
ENDBRANCH  14  15
ENDBRANCH  13  14
ENDBRANCH  11  13
ENDBRANCH  10  11
ENDBRANCH   6   9
ENDBRANCH   2   3
TORSDOF 6
ENDMDL
MODEL      126
REMARK 921   NORMALIZED FREE ENERGY PREDICTED BY IDOCK:   -3.78 KCAL/MOL
REMARK 922        TOTAL FREE ENERGY PREDICTED BY IDOCK:   -5.90 KCAL/MOL
REMARK 923 INTER-LIGAND FREE ENERGY PREDICTED BY IDOCK:   -5.52 KCAL/MOL
REMARK 924 INTRA-LIGAND FREE ENERGY PREDICTED BY IDOCK:   -0.38 KCAL/MOL
REMARK 927      BINDING AFFINITY PREDICTED BY RF-SCORE:    0.00 PKD
ROOT
HETATM    1  C   UNL     1      -8.581   7.133  65.716  1.00  0.00    -0.133 C  
HETATM    2  O   UNL     1      -8.295   8.202  64.818  1.00  0.00    -0.157 OA 
ENDROOT
BRANCH   2   3
HETATM    3  C   UNL     1      -8.637   9.446  65.275  1.00  0.00    -0.162 A  
HETATM    4  C   UNL     1      -7.771  10.015  66.207  1.00  0.00    -0.105 A  
HETATM    5  C   UNL     1      -8.047  11.272  66.755  1.00  0.00    -0.159 A  
HETATM    6  C   UNL     1      -9.176  11.992  66.354  1.00  0.00    -0.216 A  
HETATM    7  C   UNL     1     -10.025  11.424  65.392  1.00  0.00    -0.289 A  
HETATM    8  C   UNL     1      -9.754  10.164  64.850  1.00  0.00    -0.392 A  
BRANCH   6   9
HETATM    9  C   UNL     1      -9.504  13.257  67.020  1.00  0.00    -0.243 C  
HETATM   10  C   UNL     1     -10.691  13.870  66.915  1.00  0.00    -0.284 C  
BRANCH  10  11
HETATM   11  C   UNL     1     -11.031  15.003  67.805  1.00  0.00    -0.298 C  
HETATM   12  O   UNL     1     -11.131  16.170  67.467  1.00  0.00    -0.282 OA 
BRANCH  11  13
HETATM   13  O   UNL     1     -10.981  14.527  69.076  1.00  0.00    -0.240 OA 
BRANCH  13  14
HETATM   14  C   UNL     1     -12.213  14.660  69.792  1.00  0.00    -0.302 C  
BRANCH  14  15
HETATM   15  C   UNL     1     -12.035  15.326  71.153  1.00  0.00    -0.400 C  
HETATM   16  C   UNL     1     -13.298  15.174  72.026  1.00  0.00    -0.494 C  
HETATM   17  C   UNL     1     -13.639  13.709  72.313  1.00  0.00    -0.669 C  
HETATM   18  C   UNL     1     -13.140  15.930  73.345  1.00  0.00    -0.694 C  
ENDBRANCH  14  15
ENDBRANCH  13  14
ENDBRANCH  11  13
ENDBRANCH  10  11
ENDBRANCH   6   9
ENDBRANCH   2   3
TORSDOF 6
ENDMDL
MODEL      127
REMARK 921   NORMALIZED FREE ENERGY PREDICTED BY IDOCK:   -3.76 KCAL/MOL
REMARK 922        TOTAL FREE ENERGY PREDICTED BY IDOCK:   -5.86 KCAL/MOL
REMARK 923 INTER-LIGAND FREE ENERGY PREDICTED BY IDOCK:   -5.38 KCAL/MOL
REMARK 924 INTRA-LIGAND FREE ENERGY PREDICTED BY IDOCK:   -0.48 KCAL/MOL
REMARK 927      BINDING AFFINITY PREDICTED BY RF-SCORE:    0.00 PKD
ROOT
HETATM    1  C   UNL     1     -12.313  15.446  64.240  1.00  0.00    -0.061 C  
HETATM    2  O   UNL     1     -12.516  14.098  63.823  1.00  0.00    -0.791 OA 
ENDROOT
BRANCH   2   3
HETATM    3  C   UNL     1     -11.982  13.152  64.654  1.00  0.00    -0.388 A  
HETATM    4  C   UNL     1     -11.253  12.137  64.037  1.00  0.00    -0.458 A  
HETATM    5  C   UNL     1     -10.689  11.107  64.797  1.00  0.00    -0.334 A  
HETATM    6  C   UNL     1     -10.819  11.096  66.190  1.00  0.00    -0.247 A  
HETATM    7  C   UNL     1     -11.528  12.139  66.804  1.00  0.00    -0.418 A  
HETATM    8  C   UNL     1     -12.099  13.165  66.044  1.00  0.00    -0.495 A  
BRANCH   6   9
HETATM    9  C   UNL     1     -10.314   9.951  66.956  1.00  0.00    -0.303 C  
HETATM   10  C   UNL     1     -10.210   8.710  66.461  1.00  0.00    -0.295 C  
BRANCH  10  11
HETATM   11  C   UNL     1      -9.467   7.667  67.203  1.00  0.00    -0.155 C  
HETATM   12  O   UNL     1      -9.214   6.546  66.796  1.00  0.00    -0.137 OA 
BRANCH  11  13
HETATM   13  O   UNL     1      -9.333   8.118  68.478  1.00  0.00    -0.139 OA 
BRANCH  13  14
HETATM   14  C   UNL     1      -9.357   7.080  69.463  1.00  0.00    -0.148 C  
BRANCH  14  15
HETATM   15  C   UNL     1     -10.309   7.383  70.615  1.00  0.00    -0.217 C  
HETATM   16  C   UNL     1      -9.624   7.186  71.983  1.00  0.00    -0.158 C  
HETATM   17  C   UNL     1      -8.420   8.113  72.174  1.00  0.00    -0.216 C  
HETATM   18  C   UNL     1     -10.618   7.397  73.125  1.00  0.00    -0.424 C  
ENDBRANCH  14  15
ENDBRANCH  13  14
ENDBRANCH  11  13
ENDBRANCH  10  11
ENDBRANCH   6   9
ENDBRANCH   2   3
TORSDOF 6
ENDMDL
MODEL      128
REMARK 921   NORMALIZED FREE ENERGY PREDICTED BY IDOCK:   -3.76 KCAL/MOL
REMARK 922        TOTAL FREE ENERGY PREDICTED BY IDOCK:   -5.86 KCAL/MOL
REMARK 923 INTER-LIGAND FREE ENERGY PREDICTED BY IDOCK:   -5.32 KCAL/MOL
REMARK 924 INTRA-LIGAND FREE ENERGY PREDICTED BY IDOCK:   -0.54 KCAL/MOL
REMARK 927      BINDING AFFINITY PREDICTED BY RF-SCORE:    0.00 PKD
ROOT
HETATM    1  C   UNL     1     -11.083   6.217  69.836  1.00  0.00    -0.410 C  
HETATM    2  O   UNL     1     -10.256   7.360  70.037  1.00  0.00    -0.202 OA 
ENDROOT
BRANCH   2   3
HETATM    3  C   UNL     1     -10.503   8.405  69.188  1.00  0.00    -0.206 A  
HETATM    4  C   UNL     1     -10.932   9.589  69.784  1.00  0.00    -0.245 A  
HETATM    5  C   UNL     1     -11.238  10.707  69.001  1.00  0.00    -0.324 A  
HETATM    6  C   UNL     1     -11.085  10.666  67.611  1.00  0.00    -0.385 A  
HETATM    7  C   UNL     1     -10.622   9.479  67.024  1.00  0.00    -0.271 A  
HETATM    8  C   UNL     1     -10.325   8.359  67.806  1.00  0.00    -0.297 A  
BRANCH   6   9
HETATM    9  C   UNL     1     -11.513  11.811  66.801  1.00  0.00    -0.352 C  
HETATM   10  C   UNL     1     -11.848  13.004  67.313  1.00  0.00    -0.419 C  
BRANCH  10  11
HETATM   11  C   UNL     1     -12.028  14.176  66.427  1.00  0.00    -0.436 C  
HETATM   12  O   UNL     1     -12.374  14.140  65.259  1.00  0.00    -0.424 OA 
BRANCH  11  13
HETATM   13  O   UNL     1     -11.520  15.247  67.091  1.00  0.00    -0.307 OA 
BRANCH  13  14
HETATM   14  C   UNL     1     -10.595  14.900  68.127  1.00  0.00    -0.244 C  
BRANCH  14  15
HETATM   15  C   UNL     1      -9.400  15.846  68.191  1.00  0.00    -0.198 C  
HETATM   16  C   UNL     1      -8.280  15.281  69.089  1.00  0.00    -0.234 C  
HETATM   17  C   UNL     1      -7.736  13.945  68.576  1.00  0.00    -0.139 C  
HETATM   18  C   UNL     1      -7.134  16.283  69.223  1.00  0.00    -0.222 C  
ENDBRANCH  14  15
ENDBRANCH  13  14
ENDBRANCH  11  13
ENDBRANCH  10  11
ENDBRANCH   6   9
ENDBRANCH   2   3
TORSDOF 6
ENDMDL
MODEL      129
REMARK 921   NORMALIZED FREE ENERGY PREDICTED BY IDOCK:   -3.74 KCAL/MOL
REMARK 922        TOTAL FREE ENERGY PREDICTED BY IDOCK:   -5.83 KCAL/MOL
REMARK 923 INTER-LIGAND FREE ENERGY PREDICTED BY IDOCK:   -5.49 KCAL/MOL
REMARK 924 INTRA-LIGAND FREE ENERGY PREDICTED BY IDOCK:   -0.35 KCAL/MOL
REMARK 927      BINDING AFFINITY PREDICTED BY RF-SCORE:    0.00 PKD
ROOT
HETATM    1  C   UNL     1      -9.207   6.075  68.527  1.00  0.00    -0.114 C  
HETATM    2  O   UNL     1      -9.852   6.868  69.520  1.00  0.00    -0.158 OA 
ENDROOT
BRANCH   2   3
HETATM    3  C   UNL     1     -10.310   8.081  69.080  1.00  0.00    -0.220 A  
HETATM    4  C   UNL     1     -10.176   8.327  67.715  1.00  0.00    -0.282 A  
HETATM    5  C   UNL     1     -10.589   9.548  67.172  1.00  0.00    -0.295 A  
HETATM    6  C   UNL     1     -11.172  10.528  67.981  1.00  0.00    -0.361 A  
HETATM    7  C   UNL     1     -11.331  10.258  69.349  1.00  0.00    -0.279 A  
HETATM    8  C   UNL     1     -10.911   9.040  69.894  1.00  0.00    -0.228 A  
BRANCH   6   9
HETATM    9  C   UNL     1     -11.497  11.840  67.412  1.00  0.00    -0.375 C  
HETATM   10  C   UNL     1     -10.636  12.866  67.364  1.00  0.00    -0.242 C  
BRANCH  10  11
HETATM   11  C   UNL     1     -10.948  14.069  66.559  1.00  0.00    -0.306 C  
HETATM   12  O   UNL     1     -11.697  14.109  65.598  1.00  0.00    -0.338 OA 
BRANCH  11  13
HETATM   13  O   UNL     1     -10.077  15.035  66.951  1.00  0.00    -0.243 OA 
BRANCH  13  14
HETATM   14  C   UNL     1     -10.711  16.216  67.453  1.00  0.00    -0.291 C  
BRANCH  14  15
HETATM   15  C   UNL     1     -10.205  17.488  66.781  1.00  0.00    -0.327 C  
HETATM   16  C   UNL     1     -10.501  18.736  67.638  1.00  0.00    -0.495 C  
HETATM   17  C   UNL     1      -9.820  18.681  69.009  1.00  0.00    -0.330 C  
HETATM   18  C   UNL     1     -10.077  20.010  66.907  1.00  0.00    -0.601 C  
ENDBRANCH  14  15
ENDBRANCH  13  14
ENDBRANCH  11  13
ENDBRANCH  10  11
ENDBRANCH   6   9
ENDBRANCH   2   3
TORSDOF 6
ENDMDL
MODEL      130
REMARK 921   NORMALIZED FREE ENERGY PREDICTED BY IDOCK:   -3.73 KCAL/MOL
REMARK 922        TOTAL FREE ENERGY PREDICTED BY IDOCK:   -5.82 KCAL/MOL
REMARK 923 INTER-LIGAND FREE ENERGY PREDICTED BY IDOCK:   -5.01 KCAL/MOL
REMARK 924 INTRA-LIGAND FREE ENERGY PREDICTED BY IDOCK:   -0.81 KCAL/MOL
REMARK 927      BINDING AFFINITY PREDICTED BY RF-SCORE:    0.00 PKD
ROOT
HETATM    1  C   UNL     1      -9.876  11.640  63.319  1.00  0.00    -0.405 C  
HETATM    2  O   UNL     1     -11.016  11.986  64.101  1.00  0.00    -0.306 OA 
ENDROOT
BRANCH   2   3
HETATM    3  C   UNL     1     -10.944  11.620  65.417  1.00  0.00    -0.270 A  
HETATM    4  C   UNL     1     -10.165  10.500  65.700  1.00  0.00    -0.315 A  
HETATM    5  C   UNL     1     -10.050  10.029  67.012  1.00  0.00    -0.274 A  
HETATM    6  C   UNL     1     -10.687  10.693  68.066  1.00  0.00    -0.275 A  
HETATM    7  C   UNL     1     -11.444  11.838  67.775  1.00  0.00    -0.381 A  
HETATM    8  C   UNL     1     -11.566  12.304  66.462  1.00  0.00    -0.440 A  
BRANCH   6   9
HETATM    9  C   UNL     1     -10.643  10.121  69.415  1.00  0.00    -0.261 C  
HETATM   10  C   UNL     1     -11.024   8.870  69.708  1.00  0.00    -0.164 C  
BRANCH  10  11
HETATM   11  C   UNL     1     -10.720   8.285  71.034  1.00  0.00    -0.218 C  
HETATM   12  O   UNL     1     -10.968   8.796  72.112  1.00  0.00    -0.356 OA 
BRANCH  11  13
HETATM   13  O   UNL     1      -9.925   7.206  70.810  1.00  0.00    -0.189 OA 
BRANCH  13  14
HETATM   14  C   UNL     1     -10.514   6.221  69.954  1.00  0.00    -0.227 C  
BRANCH  14  15
HETATM   15  C   UNL     1      -9.535   5.678  68.919  1.00  0.00    -0.157 C  
HETATM   16  C   UNL     1     -10.263   5.219  67.638  1.00  0.00    -0.223 C  
HETATM   17  C   UNL     1     -11.015   6.362  66.951  1.00  0.00    -0.413 C  
HETATM   18  C   UNL     1      -9.280   4.588  66.652  1.00  0.00    -0.138 C  
ENDBRANCH  14  15
ENDBRANCH  13  14
ENDBRANCH  11  13
ENDBRANCH  10  11
ENDBRANCH   6   9
ENDBRANCH   2   3
TORSDOF 6
ENDMDL
MODEL      131
REMARK 921   NORMALIZED FREE ENERGY PREDICTED BY IDOCK:   -3.72 KCAL/MOL
REMARK 922        TOTAL FREE ENERGY PREDICTED BY IDOCK:   -5.80 KCAL/MOL
REMARK 923 INTER-LIGAND FREE ENERGY PREDICTED BY IDOCK:   -5.39 KCAL/MOL
REMARK 924 INTRA-LIGAND FREE ENERGY PREDICTED BY IDOCK:   -0.42 KCAL/MOL
REMARK 927      BINDING AFFINITY PREDICTED BY RF-SCORE:    0.00 PKD
ROOT
HETATM    1  C   UNL     1     -10.318  19.812  68.178  1.00  0.00    -0.431 C  
HETATM    2  O   UNL     1     -10.074  18.507  68.695  1.00  0.00    -0.366 OA 
ENDROOT
BRANCH   2   3
HETATM    3  C   UNL     1     -10.370  17.483  67.837  1.00  0.00    -0.371 A  
HETATM    4  C   UNL     1     -11.019  16.384  68.396  1.00  0.00    -0.353 A  
HETATM    5  C   UNL     1     -11.340  15.274  67.608  1.00  0.00    -0.315 A  
HETATM    6  C   UNL     1     -11.048  15.262  66.240  1.00  0.00    -0.273 A  
HETATM    7  C   UNL     1     -10.423  16.387  65.681  1.00  0.00    -0.364 A  
HETATM    8  C   UNL     1     -10.093  17.493  66.470  1.00  0.00    -0.331 A  
BRANCH   6   9
HETATM    9  C   UNL     1     -11.295  14.048  65.456  1.00  0.00    -0.313 C  
HETATM   10  C   UNL     1     -10.354  13.133  65.182  1.00  0.00    -0.326 C  
BRANCH  10  11
HETATM   11  C   UNL     1     -10.729  11.823  64.604  1.00  0.00    -0.310 C  
HETATM   12  O   UNL     1     -11.781  11.565  64.044  1.00  0.00    -0.298 OA 
BRANCH  11  13
HETATM   13  O   UNL     1      -9.789  10.933  65.016  1.00  0.00    -0.239 OA 
BRANCH  13  14
HETATM   14  C   UNL     1      -9.996  10.449  66.347  1.00  0.00    -0.221 C  
BRANCH  14  15
HETATM   15  C   UNL     1     -10.409   8.981  66.384  1.00  0.00    -0.219 C  
HETATM   16  C   UNL     1     -10.044   8.324  67.731  1.00  0.00    -0.262 C  
HETATM   17  C   UNL     1     -10.747   8.991  68.917  1.00  0.00    -0.149 C  
HETATM   18  C   UNL     1     -10.373   6.831  67.715  1.00  0.00    -0.245 C  
ENDBRANCH  14  15
ENDBRANCH  13  14
ENDBRANCH  11  13
ENDBRANCH  10  11
ENDBRANCH   6   9
ENDBRANCH   2   3
TORSDOF 6
ENDMDL
MODEL      132
REMARK 921   NORMALIZED FREE ENERGY PREDICTED BY IDOCK:   -3.71 KCAL/MOL
REMARK 922        TOTAL FREE ENERGY PREDICTED BY IDOCK:   -5.79 KCAL/MOL
REMARK 923 INTER-LIGAND FREE ENERGY PREDICTED BY IDOCK:   -5.42 KCAL/MOL
REMARK 924 INTRA-LIGAND FREE ENERGY PREDICTED BY IDOCK:   -0.37 KCAL/MOL
REMARK 927      BINDING AFFINITY PREDICTED BY RF-SCORE:    0.00 PKD
ROOT
HETATM    1  C   UNL     1     -11.014  16.651  69.238  1.00  0.00    -0.261 C  
HETATM    2  O   UNL     1     -12.141  15.817  69.489  1.00  0.00    -0.353 OA 
ENDROOT
BRANCH   2   3
HETATM    3  C   UNL     1     -12.006  14.523  69.065  1.00  0.00    -0.299 A  
HETATM    4  C   UNL     1     -12.152  13.540  70.042  1.00  0.00    -0.411 A  
HETATM    5  C   UNL     1     -12.004  12.188  69.714  1.00  0.00    -0.372 A  
HETATM    6  C   UNL     1     -11.741  11.798  68.397  1.00  0.00    -0.389 A  
HETATM    7  C   UNL     1     -11.627  12.794  67.415  1.00  0.00    -0.415 A  
HETATM    8  C   UNL     1     -11.767  14.146  67.744  1.00  0.00    -0.408 A  
BRANCH   6   9
HETATM    9  C   UNL     1     -11.483  10.386  68.097  1.00  0.00    -0.194 C  
HETATM   10  C   UNL     1     -10.440   9.698  68.583  1.00  0.00    -0.235 C  
BRANCH  10  11
HETATM   11  C   UNL     1     -10.381   8.226  68.440  1.00  0.00    -0.199 C  
HETATM   12  O   UNL     1     -10.688   7.594  67.444  1.00  0.00    -0.281 OA 
BRANCH  11  13
HETATM   13  O   UNL     1     -10.145   7.724  69.680  1.00  0.00    -0.187 OA 
BRANCH  13  14
HETATM   14  C   UNL     1     -10.621   6.387  69.863  1.00  0.00    -0.243 C  
BRANCH  14  15
HETATM   15  C   UNL     1     -11.184   6.147  71.260  1.00  0.00    -0.348 C  
HETATM   16  C   UNL     1     -10.434   5.009  71.984  1.00  0.00    -0.269 C  
HETATM   17  C   UNL     1      -8.946   5.316  72.172  1.00  0.00    -0.138 C  
HETATM   18  C   UNL     1     -11.072   4.715  73.341  1.00  0.00    -0.418 C  
ENDBRANCH  14  15
ENDBRANCH  13  14
ENDBRANCH  11  13
ENDBRANCH  10  11
ENDBRANCH   6   9
ENDBRANCH   2   3
TORSDOF 6
ENDMDL
MODEL      133
REMARK 921   NORMALIZED FREE ENERGY PREDICTED BY IDOCK:   -3.71 KCAL/MOL
REMARK 922        TOTAL FREE ENERGY PREDICTED BY IDOCK:   -5.79 KCAL/MOL
REMARK 923 INTER-LIGAND FREE ENERGY PREDICTED BY IDOCK:   -4.75 KCAL/MOL
REMARK 924 INTRA-LIGAND FREE ENERGY PREDICTED BY IDOCK:   -1.04 KCAL/MOL
REMARK 927      BINDING AFFINITY PREDICTED BY RF-SCORE:    0.00 PKD
ROOT
HETATM    1  C   UNL     1     -12.161  14.182  69.169  1.00  0.00    -0.325 C  
HETATM    2  O   UNL     1     -11.975  13.029  68.351  1.00  0.00    -0.336 OA 
ENDROOT
BRANCH   2   3
HETATM    3  C   UNL     1     -11.749  11.867  69.038  1.00  0.00    -0.331 A  
HETATM    4  C   UNL     1     -11.137  10.842  68.319  1.00  0.00    -0.327 A  
HETATM    5  C   UNL     1     -10.888   9.605  68.923  1.00  0.00    -0.201 A  
HETATM    6  C   UNL     1     -11.217   9.387  70.265  1.00  0.00    -0.286 A  
HETATM    7  C   UNL     1     -11.804  10.437  70.988  1.00  0.00    -0.458 A  
HETATM    8  C   UNL     1     -12.061  11.671  70.382  1.00  0.00    -0.462 A  
BRANCH   6   9
HETATM    9  C   UNL     1     -11.047   8.052  70.846  1.00  0.00    -0.271 C  
HETATM   10  C   UNL     1      -9.953   7.663  71.516  1.00  0.00    -0.200 C  
BRANCH  10  11
HETATM   11  C   UNL     1      -9.953   6.396  72.281  1.00  0.00    -0.164 C  
HETATM   12  O   UNL     1      -9.432   6.221  73.370  1.00  0.00    -0.137 OA 
BRANCH  11  13
HETATM   13  O   UNL     1     -10.434   5.438  71.447  1.00  0.00    -0.223 OA 
BRANCH  13  14
HETATM   14  C   UNL     1      -9.421   4.774  70.684  1.00  0.00    -0.171 C  
BRANCH  14  15
HETATM   15  C   UNL     1      -9.875   4.439  69.267  1.00  0.00    -0.218 C  
HETATM   16  C   UNL     1      -9.983   5.706  68.394  1.00  0.00    -0.201 C  
HETATM   17  C   UNL     1      -8.643   6.433  68.249  1.00  0.00    -0.114 C  
HETATM   18  C   UNL     1     -10.533   5.366  67.009  1.00  0.00    -0.319 C  
ENDBRANCH  14  15
ENDBRANCH  13  14
ENDBRANCH  11  13
ENDBRANCH  10  11
ENDBRANCH   6   9
ENDBRANCH   2   3
TORSDOF 6
ENDMDL
MODEL      134
REMARK 921   NORMALIZED FREE ENERGY PREDICTED BY IDOCK:   -3.70 KCAL/MOL
REMARK 922        TOTAL FREE ENERGY PREDICTED BY IDOCK:   -5.78 KCAL/MOL
REMARK 923 INTER-LIGAND FREE ENERGY PREDICTED BY IDOCK:   -5.25 KCAL/MOL
REMARK 924 INTRA-LIGAND FREE ENERGY PREDICTED BY IDOCK:   -0.53 KCAL/MOL
REMARK 927      BINDING AFFINITY PREDICTED BY RF-SCORE:    0.00 PKD
ROOT
HETATM    1  C   UNL     1      -7.396   8.565  71.649  1.00  0.00    -0.100 C  
HETATM    2  O   UNL     1      -8.751   8.965  71.836  1.00  0.00    -0.343 OA 
ENDROOT
BRANCH   2   3
HETATM    3  C   UNL     1      -9.364   9.461  70.717  1.00  0.00    -0.226 A  
HETATM    4  C   UNL     1      -8.522   9.996  69.744  1.00  0.00    -0.189 A  
HETATM    5  C   UNL     1      -9.053  10.552  68.576  1.00  0.00    -0.154 A  
HETATM    6  C   UNL     1     -10.433  10.550  68.349  1.00  0.00    -0.212 A  
HETATM    7  C   UNL     1     -11.270   9.981  69.321  1.00  0.00    -0.213 A  
HETATM    8  C   UNL     1     -10.740   9.432  70.493  1.00  0.00    -0.335 A  
BRANCH   6   9
HETATM    9  C   UNL     1     -10.975  11.235  67.171  1.00  0.00    -0.348 C  
HETATM   10  C   UNL     1     -11.657  12.388  67.225  1.00  0.00    -0.435 C  
BRANCH  10  11
HETATM   11  C   UNL     1     -11.955  13.141  65.986  1.00  0.00    -0.433 C  
HETATM   12  O   UNL     1     -12.818  12.861  65.172  1.00  0.00    -0.702 OA 
BRANCH  11  13
HETATM   13  O   UNL     1     -10.951  14.042  65.828  1.00  0.00    -0.289 OA 
BRANCH  13  14
HETATM   14  C   UNL     1     -10.945  15.080  66.814  1.00  0.00    -0.323 C  
BRANCH  14  15
HETATM   15  C   UNL     1      -9.627  15.161  67.576  1.00  0.00    -0.207 C  
HETATM   16  C   UNL     1      -8.454  15.523  66.641  1.00  0.00    -0.314 C  
HETATM   17  C   UNL     1      -8.640  16.887  65.970  1.00  0.00    -0.194 C  
HETATM   18  C   UNL     1      -7.127  15.503  67.400  1.00  0.00    -0.235 C  
ENDBRANCH  14  15
ENDBRANCH  13  14
ENDBRANCH  11  13
ENDBRANCH  10  11
ENDBRANCH   6   9
ENDBRANCH   2   3
TORSDOF 6
ENDMDL
MODEL      135
REMARK 921   NORMALIZED FREE ENERGY PREDICTED BY IDOCK:   -3.70 KCAL/MOL
REMARK 922        TOTAL FREE ENERGY PREDICTED BY IDOCK:   -5.78 KCAL/MOL
REMARK 923 INTER-LIGAND FREE ENERGY PREDICTED BY IDOCK:   -5.91 KCAL/MOL
REMARK 924 INTRA-LIGAND FREE ENERGY PREDICTED BY IDOCK:    0.13 KCAL/MOL
REMARK 927      BINDING AFFINITY PREDICTED BY RF-SCORE:    0.00 PKD
ROOT
HETATM    1  C   UNL     1     -12.023  16.252  72.294  1.00  0.00    -0.520 C  
HETATM    2  O   UNL     1     -12.973  15.655  71.414  1.00  0.00    -0.457 OA 
ENDROOT
BRANCH   2   3
HETATM    3  C   UNL     1     -12.892  14.293  71.319  1.00  0.00    -0.352 A  
HETATM    4  C   UNL     1     -12.058  13.798  70.319  1.00  0.00    -0.425 A  
HETATM    5  C   UNL     1     -11.929  12.419  70.122  1.00  0.00    -0.376 A  
HETATM    6  C   UNL     1     -12.607  11.515  70.945  1.00  0.00    -0.438 A  
HETATM    7  C   UNL     1     -13.420  12.023  71.970  1.00  0.00    -0.364 A  
HETATM    8  C   UNL     1     -13.556  13.401  72.161  1.00  0.00    -0.660 A  
BRANCH   6   9
HETATM    9  C   UNL     1     -12.542  10.079  70.653  1.00  0.00    -0.301 C  
HETATM   10  C   UNL     1     -11.523   9.288  71.018  1.00  0.00    -0.387 C  
BRANCH  10  11
HETATM   11  C   UNL     1     -11.640   7.816  70.909  1.00  0.00    -0.274 C  
HETATM   12  O   UNL     1     -12.391   7.111  71.561  1.00  0.00    -0.329 OA 
BRANCH  11  13
HETATM   13  O   UNL     1     -10.609   7.401  70.129  1.00  0.00    -0.219 OA 
BRANCH  13  14
HETATM   14  C   UNL     1     -10.082   8.422  69.275  1.00  0.00    -0.202 C  
BRANCH  14  15
HETATM   15  C   UNL     1      -8.919   9.178  69.908  1.00  0.00    -0.183 C  
HETATM   16  C   UNL     1      -8.224  10.103  68.888  1.00  0.00    -0.124 C  
HETATM   17  C   UNL     1      -9.168  11.171  68.328  1.00  0.00    -0.169 C  
HETATM   18  C   UNL     1      -7.001  10.777  69.511  1.00  0.00    -0.130 C  
ENDBRANCH  14  15
ENDBRANCH  13  14
ENDBRANCH  11  13
ENDBRANCH  10  11
ENDBRANCH   6   9
ENDBRANCH   2   3
TORSDOF 6
ENDMDL
MODEL      136
REMARK 921   NORMALIZED FREE ENERGY PREDICTED BY IDOCK:   -3.69 KCAL/MOL
REMARK 922        TOTAL FREE ENERGY PREDICTED BY IDOCK:   -5.77 KCAL/MOL
REMARK 923 INTER-LIGAND FREE ENERGY PREDICTED BY IDOCK:   -5.40 KCAL/MOL
REMARK 924 INTRA-LIGAND FREE ENERGY PREDICTED BY IDOCK:   -0.37 KCAL/MOL
REMARK 927      BINDING AFFINITY PREDICTED BY RF-SCORE:    0.00 PKD
ROOT
HETATM    1  C   UNL     1     -10.962   4.373  73.423  1.00  0.00    -0.290 C  
HETATM    2  O   UNL     1     -11.023   5.774  73.676  1.00  0.00    -0.244 OA 
ENDROOT
BRANCH   2   3
HETATM    3  C   UNL     1     -10.951   6.564  72.562  1.00  0.00    -0.248 A  
HETATM    4  C   UNL     1     -10.636   7.904  72.781  1.00  0.00    -0.418 A  
HETATM    5  C   UNL     1     -10.566   8.799  71.708  1.00  0.00    -0.417 A  
HETATM    6  C   UNL     1     -10.777   8.360  70.398  1.00  0.00    -0.244 A  
HETATM    7  C   UNL     1     -11.062   7.003  70.185  1.00  0.00    -0.323 A  
HETATM    8  C   UNL     1     -11.141   6.109  71.257  1.00  0.00    -0.351 A  
BRANCH   6   9
HETATM    9  C   UNL     1     -10.805   9.335  69.302  1.00  0.00    -0.170 C  
HETATM   10  C   UNL     1     -11.425  10.521  69.374  1.00  0.00    -0.329 C  
BRANCH  10  11
HETATM   11  C   UNL     1     -11.205  11.547  68.331  1.00  0.00    -0.255 C  
HETATM   12  O   UNL     1     -11.986  11.839  67.442  1.00  0.00    -0.617 OA 
BRANCH  11  13
HETATM   13  O   UNL     1      -9.902  11.921  68.423  1.00  0.00    -0.198 OA 
BRANCH  13  14
HETATM   14  C   UNL     1      -9.626  13.203  67.850  1.00  0.00    -0.218 C  
BRANCH  14  15
HETATM   15  C   UNL     1     -10.185  14.353  68.682  1.00  0.00    -0.245 C  
HETATM   16  C   UNL     1     -10.059  15.700  67.942  1.00  0.00    -0.225 C  
HETATM   17  C   UNL     1     -10.834  15.717  66.621  1.00  0.00    -0.266 C  
HETATM   18  C   UNL     1     -10.533  16.853  68.827  1.00  0.00    -0.343 C  
ENDBRANCH  14  15
ENDBRANCH  13  14
ENDBRANCH  11  13
ENDBRANCH  10  11
ENDBRANCH   6   9
ENDBRANCH   2   3
TORSDOF 6
ENDMDL
MODEL      137
REMARK 921   NORMALIZED FREE ENERGY PREDICTED BY IDOCK:   -3.69 KCAL/MOL
REMARK 922        TOTAL FREE ENERGY PREDICTED BY IDOCK:   -5.77 KCAL/MOL
REMARK 923 INTER-LIGAND FREE ENERGY PREDICTED BY IDOCK:   -5.37 KCAL/MOL
REMARK 924 INTRA-LIGAND FREE ENERGY PREDICTED BY IDOCK:   -0.39 KCAL/MOL
REMARK 927      BINDING AFFINITY PREDICTED BY RF-SCORE:    0.00 PKD
ROOT
HETATM    1  C   UNL     1     -10.353  19.728  68.190  1.00  0.00    -0.431 C  
HETATM    2  O   UNL     1     -10.371  18.454  68.829  1.00  0.00    -0.349 OA 
ENDROOT
BRANCH   2   3
HETATM    3  C   UNL     1     -10.601  17.394  67.995  1.00  0.00    -0.389 A  
HETATM    4  C   UNL     1     -11.103  16.241  68.594  1.00  0.00    -0.356 A  
HETATM    5  C   UNL     1     -11.346  15.094  67.831  1.00  0.00    -0.346 A  
HETATM    6  C   UNL     1     -11.122  15.096  66.451  1.00  0.00    -0.312 A  
HETATM    7  C   UNL     1     -10.646  16.272  65.852  1.00  0.00    -0.307 A  
HETATM    8  C   UNL     1     -10.395  17.416  66.616  1.00  0.00    -0.306 A  
BRANCH   6   9
HETATM    9  C   UNL     1     -11.280  13.852  65.689  1.00  0.00    -0.306 C  
HETATM   10  C   UNL     1     -10.623  13.586  64.551  1.00  0.00    -0.439 C  
BRANCH  10  11
HETATM   11  C   UNL     1     -10.643  12.222  63.976  1.00  0.00    -0.400 C  
HETATM   12  O   UNL     1     -11.572  11.719  63.367  1.00  0.00    -0.410 OA 
BRANCH  11  13
HETATM   13  O   UNL     1      -9.543  11.583  64.451  1.00  0.00    -0.219 OA 
BRANCH  13  14
HETATM   14  C   UNL     1      -9.743  10.186  64.690  1.00  0.00    -0.309 C  
BRANCH  14  15
HETATM   15  C   UNL     1      -8.677   9.585  65.600  1.00  0.00    -0.173 C  
HETATM   16  C   UNL     1      -8.088   8.291  65.003  1.00  0.00    -0.148 C  
HETATM   17  C   UNL     1      -7.407   8.526  63.651  1.00  0.00    -0.106 C  
HETATM   18  C   UNL     1      -7.095   7.648  65.971  1.00  0.00    -0.069 C  
ENDBRANCH  14  15
ENDBRANCH  13  14
ENDBRANCH  11  13
ENDBRANCH  10  11
ENDBRANCH   6   9
ENDBRANCH   2   3
TORSDOF 6
ENDMDL
MODEL      138
REMARK 921   NORMALIZED FREE ENERGY PREDICTED BY IDOCK:   -3.68 KCAL/MOL
REMARK 922        TOTAL FREE ENERGY PREDICTED BY IDOCK:   -5.76 KCAL/MOL
REMARK 923 INTER-LIGAND FREE ENERGY PREDICTED BY IDOCK:   -4.94 KCAL/MOL
REMARK 924 INTRA-LIGAND FREE ENERGY PREDICTED BY IDOCK:   -0.82 KCAL/MOL
REMARK 927      BINDING AFFINITY PREDICTED BY RF-SCORE:    0.00 PKD
ROOT
HETATM    1  C   UNL     1      -6.461  20.199  69.352  1.00  0.00    -0.295 C  
HETATM    2  O   UNL     1      -7.049  20.472  68.083  1.00  0.00    -0.269 OA 
ENDROOT
BRANCH   2   3
HETATM    3  C   UNL     1      -7.973  19.553  67.667  1.00  0.00    -0.285 A  
HETATM    4  C   UNL     1      -7.805  18.256  68.147  1.00  0.00    -0.299 A  
HETATM    5  C   UNL     1      -8.682  17.237  67.758  1.00  0.00    -0.226 A  
HETATM    6  C   UNL     1      -9.760  17.510  66.910  1.00  0.00    -0.291 A  
HETATM    7  C   UNL     1      -9.938  18.825  66.457  1.00  0.00    -0.415 A  
HETATM    8  C   UNL     1      -9.057  19.842  66.838  1.00  0.00    -0.452 A  
BRANCH   6   9
HETATM    9  C   UNL     1     -10.601  16.408  66.429  1.00  0.00    -0.236 C  
HETATM   10  C   UNL     1     -10.129  15.344  65.765  1.00  0.00    -0.391 C  
BRANCH  10  11
HETATM   11  C   UNL     1     -10.990  14.163  65.532  1.00  0.00    -0.310 C  
HETATM   12  O   UNL     1     -12.198  14.183  65.370  1.00  0.00    -0.395 OA 
BRANCH  11  13
HETATM   13  O   UNL     1     -10.219  13.068  65.760  1.00  0.00    -0.282 OA 
BRANCH  13  14
HETATM   14  C   UNL     1     -10.184  12.661  67.132  1.00  0.00    -0.225 C  
BRANCH  14  15
HETATM   15  C   UNL     1      -8.904  11.916  67.493  1.00  0.00    -0.169 C  
HETATM   16  C   UNL     1      -7.668  12.834  67.396  1.00  0.00    -0.165 C  
HETATM   17  C   UNL     1      -7.748  14.026  68.354  1.00  0.00    -0.138 C  
HETATM   18  C   UNL     1      -6.384  12.048  67.663  1.00  0.00    -0.099 C  
ENDBRANCH  14  15
ENDBRANCH  13  14
ENDBRANCH  11  13
ENDBRANCH  10  11
ENDBRANCH   6   9
ENDBRANCH   2   3
TORSDOF 6
ENDMDL
MODEL      139
REMARK 921   NORMALIZED FREE ENERGY PREDICTED BY IDOCK:   -3.68 KCAL/MOL
REMARK 922        TOTAL FREE ENERGY PREDICTED BY IDOCK:   -5.75 KCAL/MOL
REMARK 923 INTER-LIGAND FREE ENERGY PREDICTED BY IDOCK:   -5.30 KCAL/MOL
REMARK 924 INTRA-LIGAND FREE ENERGY PREDICTED BY IDOCK:   -0.44 KCAL/MOL
REMARK 927      BINDING AFFINITY PREDICTED BY RF-SCORE:    0.00 PKD
ROOT
HETATM    1  C   UNL     1     -11.103   4.980  72.750  1.00  0.00    -0.241 C  
HETATM    2  O   UNL     1     -12.081   5.864  72.209  1.00  0.00    -0.275 OA 
ENDROOT
BRANCH   2   3
HETATM    3  C   UNL     1     -11.619   6.712  71.240  1.00  0.00    -0.323 A  
HETATM    4  C   UNL     1     -11.260   6.121  70.030  1.00  0.00    -0.471 A  
HETATM    5  C   UNL     1     -10.750   6.899  68.985  1.00  0.00    -0.259 A  
HETATM    6  C   UNL     1     -10.623   8.284  69.124  1.00  0.00    -0.179 A  
HETATM    7  C   UNL     1     -11.016   8.874  70.336  1.00  0.00    -0.275 A  
HETATM    8  C   UNL     1     -11.518   8.096  71.383  1.00  0.00    -0.301 A  
BRANCH   6   9
HETATM    9  C   UNL     1      -9.986   9.065  68.059  1.00  0.00    -0.213 C  
HETATM   10  C   UNL     1     -10.227   8.881  66.753  1.00  0.00    -0.348 C  
BRANCH  10  11
HETATM   11  C   UNL     1      -9.742   9.861  65.755  1.00  0.00    -0.266 C  
HETATM   12  O   UNL     1      -9.120   9.597  64.741  1.00  0.00    -0.211 OA 
BRANCH  11  13
HETATM   13  O   UNL     1      -9.921  11.092  66.301  1.00  0.00    -0.210 OA 
BRANCH  13  14
HETATM   14  C   UNL     1     -11.030  11.812  65.754  1.00  0.00    -0.301 C  
BRANCH  14  15
HETATM   15  C   UNL     1     -10.609  13.099  65.053  1.00  0.00    -0.347 C  
HETATM   16  C   UNL     1     -11.192  14.343  65.756  1.00  0.00    -0.326 C  
HETATM   17  C   UNL     1     -10.713  14.473  67.205  1.00  0.00    -0.287 C  
HETATM   18  C   UNL     1     -10.843  15.616  64.986  1.00  0.00    -0.468 C  
ENDBRANCH  14  15
ENDBRANCH  13  14
ENDBRANCH  11  13
ENDBRANCH  10  11
ENDBRANCH   6   9
ENDBRANCH   2   3
TORSDOF 6
ENDMDL
MODEL      140
REMARK 921   NORMALIZED FREE ENERGY PREDICTED BY IDOCK:   -3.67 KCAL/MOL
REMARK 922        TOTAL FREE ENERGY PREDICTED BY IDOCK:   -5.74 KCAL/MOL
REMARK 923 INTER-LIGAND FREE ENERGY PREDICTED BY IDOCK:   -5.28 KCAL/MOL
REMARK 924 INTRA-LIGAND FREE ENERGY PREDICTED BY IDOCK:   -0.46 KCAL/MOL
REMARK 927      BINDING AFFINITY PREDICTED BY RF-SCORE:    0.00 PKD
ROOT
HETATM    1  C   UNL     1     -13.528  14.875  72.882  1.00  0.00    -0.451 C  
HETATM    2  O   UNL     1     -13.818  13.488  72.738  1.00  0.00    -0.730 OA 
ENDROOT
BRANCH   2   3
HETATM    3  C   UNL     1     -13.145  12.861  71.725  1.00  0.00    -0.360 A  
HETATM    4  C   UNL     1     -13.122  11.468  71.776  1.00  0.00    -0.503 A  
HETATM    5  C   UNL     1     -12.436  10.735  70.801  1.00  0.00    -0.481 A  
HETATM    6  C   UNL     1     -11.792  11.384  69.743  1.00  0.00    -0.435 A  
HETATM    7  C   UNL     1     -11.848  12.784  69.684  1.00  0.00    -0.384 A  
HETATM    8  C   UNL     1     -12.526  13.518  70.663  1.00  0.00    -0.405 A  
BRANCH   6   9
HETATM    9  C   UNL     1     -10.990  10.604  68.795  1.00  0.00    -0.292 C  
HETATM   10  C   UNL     1     -10.779   9.284  68.905  1.00  0.00    -0.182 C  
BRANCH  10  11
HETATM   11  C   UNL     1     -10.173   8.527  67.787  1.00  0.00    -0.225 C  
HETATM   12  O   UNL     1     -10.782   7.881  66.951  1.00  0.00    -0.333 OA 
BRANCH  11  13
HETATM   13  O   UNL     1      -8.834   8.505  68.013  1.00  0.00    -0.140 OA 
BRANCH  13  14
HETATM   14  C   UNL     1      -8.047   8.780  66.849  1.00  0.00    -0.101 C  
BRANCH  14  15
HETATM   15  C   UNL     1      -6.727   8.015  66.836  1.00  0.00    -0.064 C  
HETATM   16  C   UNL     1      -6.922   6.544  67.259  1.00  0.00    -0.075 C  
HETATM   17  C   UNL     1      -7.861   5.784  66.317  1.00  0.00    -0.101 C  
HETATM   18  C   UNL     1      -5.578   5.819  67.336  1.00  0.00    -0.012 C  
ENDBRANCH  14  15
ENDBRANCH  13  14
ENDBRANCH  11  13
ENDBRANCH  10  11
ENDBRANCH   6   9
ENDBRANCH   2   3
TORSDOF 6
ENDMDL
MODEL      141
REMARK 921   NORMALIZED FREE ENERGY PREDICTED BY IDOCK:   -3.66 KCAL/MOL
REMARK 922        TOTAL FREE ENERGY PREDICTED BY IDOCK:   -5.73 KCAL/MOL
REMARK 923 INTER-LIGAND FREE ENERGY PREDICTED BY IDOCK:   -5.31 KCAL/MOL
REMARK 924 INTRA-LIGAND FREE ENERGY PREDICTED BY IDOCK:   -0.42 KCAL/MOL
REMARK 927      BINDING AFFINITY PREDICTED BY RF-SCORE:    0.00 PKD
ROOT
HETATM    1  C   UNL     1      -8.709   2.303  73.813  1.00  0.00    -0.063 C  
HETATM    2  O   UNL     1      -9.321   2.317  72.526  1.00  0.00    -0.078 OA 
ENDROOT
BRANCH   2   3
HETATM    3  C   UNL     1      -9.941   3.491  72.196  1.00  0.00    -0.164 A  
HETATM    4  C   UNL     1     -10.628   4.131  73.226  1.00  0.00    -0.267 A  
HETATM    5  C   UNL     1     -11.318   5.324  72.983  1.00  0.00    -0.376 A  
HETATM    6  C   UNL     1     -11.302   5.911  71.714  1.00  0.00    -0.289 A  
HETATM    7  C   UNL     1     -10.582   5.274  70.692  1.00  0.00    -0.263 A  
HETATM    8  C   UNL     1      -9.899   4.078  70.932  1.00  0.00    -0.229 A  
BRANCH   6   9
HETATM    9  C   UNL     1     -12.119   7.101  71.455  1.00  0.00    -0.377 C  
HETATM   10  C   UNL     1     -11.855   8.312  71.964  1.00  0.00    -0.408 C  
BRANCH  10  11
HETATM   11  C   UNL     1     -12.572   9.507  71.465  1.00  0.00    -0.373 C  
HETATM   12  O   UNL     1     -13.766   9.576  71.229  1.00  0.00    -0.336 OA 
BRANCH  11  13
HETATM   13  O   UNL     1     -11.622  10.412  71.112  1.00  0.00    -0.333 OA 
BRANCH  13  14
HETATM   14  C   UNL     1     -12.071  11.381  70.160  1.00  0.00    -0.357 C  
BRANCH  14  15
HETATM   15  C   UNL     1     -11.746  10.991  68.723  1.00  0.00    -0.383 C  
HETATM   16  C   UNL     1     -11.427  12.229  67.859  1.00  0.00    -0.390 C  
HETATM   17  C   UNL     1     -10.211  13.005  68.373  1.00  0.00    -0.246 C  
HETATM   18  C   UNL     1     -11.200  11.830  66.401  1.00  0.00    -0.382 C  
ENDBRANCH  14  15
ENDBRANCH  13  14
ENDBRANCH  11  13
ENDBRANCH  10  11
ENDBRANCH   6   9
ENDBRANCH   2   3
TORSDOF 6
ENDMDL
MODEL      142
REMARK 921   NORMALIZED FREE ENERGY PREDICTED BY IDOCK:   -3.66 KCAL/MOL
REMARK 922        TOTAL FREE ENERGY PREDICTED BY IDOCK:   -5.73 KCAL/MOL
REMARK 923 INTER-LIGAND FREE ENERGY PREDICTED BY IDOCK:   -4.74 KCAL/MOL
REMARK 924 INTRA-LIGAND FREE ENERGY PREDICTED BY IDOCK:   -0.99 KCAL/MOL
REMARK 927      BINDING AFFINITY PREDICTED BY RF-SCORE:    0.00 PKD
ROOT
HETATM    1  C   UNL     1      -8.644  10.171  66.958  1.00  0.00    -0.129 C  
HETATM    2  O   UNL     1      -9.355  11.319  66.505  1.00  0.00    -0.175 OA 
ENDROOT
BRANCH   2   3
HETATM    3  C   UNL     1      -8.791  12.518  66.847  1.00  0.00    -0.203 A  
HETATM    4  C   UNL     1      -9.603  13.640  66.700  1.00  0.00    -0.289 A  
HETATM    5  C   UNL     1      -9.110  14.915  66.997  1.00  0.00    -0.255 A  
HETATM    6  C   UNL     1      -7.808  15.082  67.479  1.00  0.00    -0.203 A  
HETATM    7  C   UNL     1      -7.009  13.942  67.653  1.00  0.00    -0.189 A  
HETATM    8  C   UNL     1      -7.498  12.668  67.348  1.00  0.00    -0.146 A  
BRANCH   6   9
HETATM    9  C   UNL     1      -7.277  16.434  67.680  1.00  0.00    -0.156 C  
HETATM   10  C   UNL     1      -7.088  16.989  68.886  1.00  0.00    -0.233 C  
BRANCH  10  11
HETATM   11  C   UNL     1      -6.323  18.249  69.019  1.00  0.00    -0.242 C  
HETATM   12  O   UNL     1      -5.758  18.637  70.028  1.00  0.00    -0.237 OA 
BRANCH  11  13
HETATM   13  O   UNL     1      -6.568  18.974  67.896  1.00  0.00    -0.216 OA 
BRANCH  13  14
HETATM   14  C   UNL     1      -7.317  20.170  68.132  1.00  0.00    -0.244 C  
BRANCH  14  15
HETATM   15  C   UNL     1      -8.414  20.393  67.095  1.00  0.00    -0.393 C  
HETATM   16  C   UNL     1      -9.457  19.256  67.123  1.00  0.00    -0.388 C  
HETATM   17  C   UNL     1     -10.168  19.147  68.475  1.00  0.00    -0.448 C  
HETATM   18  C   UNL     1     -10.492  19.442  66.014  1.00  0.00    -0.596 C  
ENDBRANCH  14  15
ENDBRANCH  13  14
ENDBRANCH  11  13
ENDBRANCH  10  11
ENDBRANCH   6   9
ENDBRANCH   2   3
TORSDOF 6
ENDMDL
MODEL      143
REMARK 921   NORMALIZED FREE ENERGY PREDICTED BY IDOCK:   -3.66 KCAL/MOL
REMARK 922        TOTAL FREE ENERGY PREDICTED BY IDOCK:   -5.72 KCAL/MOL
REMARK 923 INTER-LIGAND FREE ENERGY PREDICTED BY IDOCK:   -5.82 KCAL/MOL
REMARK 924 INTRA-LIGAND FREE ENERGY PREDICTED BY IDOCK:    0.09 KCAL/MOL
REMARK 927      BINDING AFFINITY PREDICTED BY RF-SCORE:    0.00 PKD
ROOT
HETATM    1  C   UNL     1      -5.294  18.178  69.340  1.00  0.00    -0.198 C  
HETATM    2  O   UNL     1      -6.452  18.719  68.711  1.00  0.00    -0.235 OA 
ENDROOT
BRANCH   2   3
HETATM    3  C   UNL     1      -7.537  17.884  68.685  1.00  0.00    -0.283 A  
HETATM    4  C   UNL     1      -7.294  16.555  69.028  1.00  0.00    -0.228 A  
HETATM    5  C   UNL     1      -8.332  15.617  69.005  1.00  0.00    -0.235 A  
HETATM    6  C   UNL     1      -9.634  16.003  68.673  1.00  0.00    -0.222 A  
HETATM    7  C   UNL     1      -9.874  17.350  68.361  1.00  0.00    -0.316 A  
HETATM    8  C   UNL     1      -8.835  18.286  68.374  1.00  0.00    -0.321 A  
BRANCH   6   9
HETATM    9  C   UNL     1     -10.683  14.985  68.551  1.00  0.00    -0.244 C  
HETATM   10  C   UNL     1     -10.474  13.673  68.729  1.00  0.00    -0.214 C  
BRANCH  10  11
HETATM   11  C   UNL     1     -11.617  12.739  68.834  1.00  0.00    -0.316 C  
HETATM   12  O   UNL     1     -12.031  12.231  69.863  1.00  0.00    -0.324 OA 
BRANCH  11  13
HETATM   13  O   UNL     1     -11.952  12.391  67.565  1.00  0.00    -0.482 OA 
BRANCH  13  14
HETATM   14  C   UNL     1     -10.919  11.689  66.865  1.00  0.00    -0.292 C  
BRANCH  14  15
HETATM   15  C   UNL     1     -11.004  11.870  65.353  1.00  0.00    -0.352 C  
HETATM   16  C   UNL     1     -12.326  12.548  64.938  1.00  0.00    -0.539 C  
HETATM   17  C   UNL     1     -12.481  13.947  65.541  1.00  0.00    -0.541 C  
HETATM   18  C   UNL     1     -12.439  12.632  63.416  1.00  0.00    -0.474 C  
ENDBRANCH  14  15
ENDBRANCH  13  14
ENDBRANCH  11  13
ENDBRANCH  10  11
ENDBRANCH   6   9
ENDBRANCH   2   3
TORSDOF 6
ENDMDL
MODEL      144
REMARK 921   NORMALIZED FREE ENERGY PREDICTED BY IDOCK:   -3.64 KCAL/MOL
REMARK 922        TOTAL FREE ENERGY PREDICTED BY IDOCK:   -5.70 KCAL/MOL
REMARK 923 INTER-LIGAND FREE ENERGY PREDICTED BY IDOCK:   -5.00 KCAL/MOL
REMARK 924 INTRA-LIGAND FREE ENERGY PREDICTED BY IDOCK:   -0.71 KCAL/MOL
REMARK 927      BINDING AFFINITY PREDICTED BY RF-SCORE:    0.00 PKD
ROOT
HETATM    1  C   UNL     1     -13.529  12.588  72.028  1.00  0.00    -0.387 C  
HETATM    2  O   UNL     1     -13.092  13.853  72.516  1.00  0.00    -0.433 OA 
ENDROOT
BRANCH   2   3
HETATM    3  C   UNL     1     -12.481  14.649  71.586  1.00  0.00    -0.345 A  
HETATM    4  C   UNL     1     -12.549  14.209  70.265  1.00  0.00    -0.367 A  
HETATM    5  C   UNL     1     -11.932  14.938  69.243  1.00  0.00    -0.326 A  
HETATM    6  C   UNL     1     -11.267  16.136  69.523  1.00  0.00    -0.337 A  
HETATM    7  C   UNL     1     -11.231  16.586  70.852  1.00  0.00    -0.034 A  
HETATM    8  C   UNL     1     -11.841  15.853  71.875  1.00  0.00    -0.595 A  
BRANCH   6   9
HETATM    9  C   UNL     1     -10.536  16.826  68.456  1.00  0.00    -0.335 C  
HETATM   10  C   UNL     1      -9.906  16.196  67.454  1.00  0.00    -0.238 C  
BRANCH  10  11
HETATM   11  C   UNL     1      -9.405  16.956  66.287  1.00  0.00    -0.262 C  
HETATM   12  O   UNL     1      -9.913  17.962  65.820  1.00  0.00    -0.551 OA 
BRANCH  11  13
HETATM   13  O   UNL     1      -8.432  16.198  65.718  1.00  0.00    -0.202 OA 
BRANCH  13  14
HETATM   14  C   UNL     1      -7.533  15.608  66.661  1.00  0.00     0.130 C  
BRANCH  14  15
HETATM   15  C   UNL     1      -6.450  16.575  67.128  1.00  0.00    -0.229 C  
HETATM   16  C   UNL     1      -6.501  16.786  68.656  1.00  0.00    -0.165 C  
HETATM   17  C   UNL     1      -6.273  15.487  69.434  1.00  0.00    -0.132 C  
HETATM   18  C   UNL     1      -5.475  17.831  69.094  1.00  0.00    -0.190 C  
ENDBRANCH  14  15
ENDBRANCH  13  14
ENDBRANCH  11  13
ENDBRANCH  10  11
ENDBRANCH   6   9
ENDBRANCH   2   3
TORSDOF 6
ENDMDL
MODEL      145
REMARK 921   NORMALIZED FREE ENERGY PREDICTED BY IDOCK:   -3.62 KCAL/MOL
REMARK 922        TOTAL FREE ENERGY PREDICTED BY IDOCK:   -5.68 KCAL/MOL
REMARK 923 INTER-LIGAND FREE ENERGY PREDICTED BY IDOCK:   -5.12 KCAL/MOL
REMARK 924 INTRA-LIGAND FREE ENERGY PREDICTED BY IDOCK:   -0.56 KCAL/MOL
REMARK 927      BINDING AFFINITY PREDICTED BY RF-SCORE:    0.00 PKD
ROOT
HETATM    1  C   UNL     1      -9.243  10.328  62.758  1.00  0.00    -0.297 C  
HETATM    2  O   UNL     1      -9.643  10.941  63.981  1.00  0.00    -0.232 OA 
ENDROOT
BRANCH   2   3
HETATM    3  C   UNL     1      -9.672  10.104  65.063  1.00  0.00    -0.318 A  
HETATM    4  C   UNL     1     -10.488  10.499  66.121  1.00  0.00    -0.237 A  
HETATM    5  C   UNL     1     -10.565   9.725  67.284  1.00  0.00    -0.320 A  
HETATM    6  C   UNL     1      -9.852   8.527  67.391  1.00  0.00    -0.244 A  
HETATM    7  C   UNL     1      -9.057   8.123  66.307  1.00  0.00    -0.231 A  
HETATM    8  C   UNL     1      -8.973   8.900  65.148  1.00  0.00    -0.189 A  
BRANCH   6   9
HETATM    9  C   UNL     1      -9.862   7.789  68.658  1.00  0.00    -0.174 C  
HETATM   10  C   UNL     1     -10.496   6.621  68.836  1.00  0.00    -0.239 C  
BRANCH  10  11
HETATM   11  C   UNL     1     -10.258   5.817  70.056  1.00  0.00    -0.238 C  
HETATM   12  O   UNL     1     -10.238   4.600  70.115  1.00  0.00    -0.240 OA 
BRANCH  11  13
HETATM   13  O   UNL     1     -10.299   6.680  71.104  1.00  0.00    -0.204 OA 
BRANCH  13  14
HETATM   14  C   UNL     1     -11.331   6.390  72.053  1.00  0.00    -0.294 C  
BRANCH  14  15
HETATM   15  C   UNL     1     -12.680   6.980  71.655  1.00  0.00    -0.417 C  
HETATM   16  C   UNL     1     -12.862   8.405  72.218  1.00  0.00    -0.359 C  
HETATM   17  C   UNL     1     -11.802   9.380  71.697  1.00  0.00    -0.464 C  
HETATM   18  C   UNL     1     -14.256   8.943  71.895  1.00  0.00    -0.421 C  
ENDBRANCH  14  15
ENDBRANCH  13  14
ENDBRANCH  11  13
ENDBRANCH  10  11
ENDBRANCH   6   9
ENDBRANCH   2   3
TORSDOF 6
ENDMDL
MODEL      146
REMARK 921   NORMALIZED FREE ENERGY PREDICTED BY IDOCK:   -3.61 KCAL/MOL
REMARK 922        TOTAL FREE ENERGY PREDICTED BY IDOCK:   -5.66 KCAL/MOL
REMARK 923 INTER-LIGAND FREE ENERGY PREDICTED BY IDOCK:   -4.83 KCAL/MOL
REMARK 924 INTRA-LIGAND FREE ENERGY PREDICTED BY IDOCK:   -0.83 KCAL/MOL
REMARK 927      BINDING AFFINITY PREDICTED BY RF-SCORE:    0.00 PKD
ROOT
HETATM    1  C   UNL     1     -10.691   7.159  73.312  1.00  0.00    -0.361 C  
HETATM    2  O   UNL     1     -11.695   7.947  72.677  1.00  0.00    -0.370 OA 
ENDROOT
BRANCH   2   3
HETATM    3  C   UNL     1     -11.271   8.642  71.578  1.00  0.00    -0.290 A  
HETATM    4  C   UNL     1     -10.359   7.986  70.753  1.00  0.00    -0.214 A  
HETATM    5  C   UNL     1      -9.844   8.623  69.619  1.00  0.00    -0.186 A  
HETATM    6  C   UNL     1     -10.261   9.913  69.274  1.00  0.00    -0.222 A  
HETATM    7  C   UNL     1     -11.204  10.552  70.094  1.00  0.00    -0.389 A  
HETATM    8  C   UNL     1     -11.712   9.919  71.233  1.00  0.00    -0.472 A  
BRANCH   6   9
HETATM    9  C   UNL     1      -9.629  10.601  68.144  1.00  0.00    -0.165 C  
HETATM   10  C   UNL     1      -8.676  11.534  68.278  1.00  0.00    -0.162 C  
BRANCH  10  11
HETATM   11  C   UNL     1      -7.915  12.003  67.098  1.00  0.00    -0.175 C  
HETATM   12  O   UNL     1      -7.366  11.290  66.275  1.00  0.00    -0.101 OA 
BRANCH  11  13
HETATM   13  O   UNL     1      -7.759  13.344  67.243  1.00  0.00    -0.152 OA 
BRANCH  13  14
HETATM   14  C   UNL     1      -8.862  13.988  67.891  1.00  0.00    -0.185 C  
BRANCH  14  15
HETATM   15  C   UNL     1      -9.850  14.600  66.904  1.00  0.00    -0.252 C  
HETATM   16  C   UNL     1     -11.131  13.748  66.785  1.00  0.00    -0.316 C  
HETATM   17  C   UNL     1     -11.880  13.627  68.115  1.00  0.00    -0.407 C  
HETATM   18  C   UNL     1     -12.067  14.320  65.721  1.00  0.00    -0.414 C  
ENDBRANCH  14  15
ENDBRANCH  13  14
ENDBRANCH  11  13
ENDBRANCH  10  11
ENDBRANCH   6   9
ENDBRANCH   2   3
TORSDOF 6
ENDMDL
MODEL      147
REMARK 921   NORMALIZED FREE ENERGY PREDICTED BY IDOCK:   -3.60 KCAL/MOL
REMARK 922        TOTAL FREE ENERGY PREDICTED BY IDOCK:   -5.65 KCAL/MOL
REMARK 923 INTER-LIGAND FREE ENERGY PREDICTED BY IDOCK:   -4.90 KCAL/MOL
REMARK 924 INTRA-LIGAND FREE ENERGY PREDICTED BY IDOCK:   -0.75 KCAL/MOL
REMARK 927      BINDING AFFINITY PREDICTED BY RF-SCORE:    0.00 PKD
ROOT
HETATM    1  C   UNL     1      -7.289   7.540  71.992  1.00  0.00    -0.069 C  
HETATM    2  O   UNL     1      -8.534   8.057  72.452  1.00  0.00    -0.127 OA 
ENDROOT
BRANCH   2   3
HETATM    3  C   UNL     1      -9.279   8.697  71.498  1.00  0.00    -0.246 A  
HETATM    4  C   UNL     1      -8.766   8.672  70.203  1.00  0.00    -0.144 A  
HETATM    5  C   UNL     1      -9.439   9.321  69.162  1.00  0.00    -0.157 A  
HETATM    6  C   UNL     1     -10.652   9.976  69.396  1.00  0.00    -0.256 A  
HETATM    7  C   UNL     1     -11.176   9.968  70.698  1.00  0.00    -0.425 A  
HETATM    8  C   UNL     1     -10.499   9.327  71.741  1.00  0.00    -0.238 A  
BRANCH   6   9
HETATM    9  C   UNL     1     -11.284  10.740  68.316  1.00  0.00    -0.358 C  
HETATM   10  C   UNL     1     -11.485  12.065  68.358  1.00  0.00    -0.356 C  
BRANCH  10  11
HETATM   11  C   UNL     1     -11.897  12.799  67.141  1.00  0.00    -0.350 C  
HETATM   12  O   UNL     1     -12.330  13.939  67.108  1.00  0.00    -0.372 OA 
BRANCH  11  13
HETATM   13  O   UNL     1     -11.915  11.894  66.128  1.00  0.00    -0.537 OA 
BRANCH  13  14
HETATM   14  C   UNL     1     -11.078  12.247  65.022  1.00  0.00    -0.316 C  
BRANCH  14  15
HETATM   15  C   UNL     1      -9.616  11.877  65.248  1.00  0.00    -0.156 C  
HETATM   16  C   UNL     1      -9.295  10.474  64.692  1.00  0.00    -0.294 C  
HETATM   17  C   UNL     1      -9.529  10.375  63.182  1.00  0.00    -0.362 C  
HETATM   18  C   UNL     1      -7.855  10.078  65.014  1.00  0.00    -0.137 C  
ENDBRANCH  14  15
ENDBRANCH  13  14
ENDBRANCH  11  13
ENDBRANCH  10  11
ENDBRANCH   6   9
ENDBRANCH   2   3
TORSDOF 6
ENDMDL
MODEL      148
REMARK 921   NORMALIZED FREE ENERGY PREDICTED BY IDOCK:   -3.60 KCAL/MOL
REMARK 922        TOTAL FREE ENERGY PREDICTED BY IDOCK:   -5.64 KCAL/MOL
REMARK 923 INTER-LIGAND FREE ENERGY PREDICTED BY IDOCK:   -5.31 KCAL/MOL
REMARK 924 INTRA-LIGAND FREE ENERGY PREDICTED BY IDOCK:   -0.33 KCAL/MOL
REMARK 927      BINDING AFFINITY PREDICTED BY RF-SCORE:    0.00 PKD
ROOT
HETATM    1  C   UNL     1      -8.842   8.049  68.516  1.00  0.00    -0.134 C  
HETATM    2  O   UNL     1     -10.024   8.387  67.795  1.00  0.00    -0.166 OA 
ENDROOT
BRANCH   2   3
HETATM    3  C   UNL     1      -9.992   9.608  67.178  1.00  0.00    -0.194 A  
HETATM    4  C   UNL     1     -10.213  10.714  67.997  1.00  0.00    -0.202 A  
HETATM    5  C   UNL     1     -10.228  12.004  67.457  1.00  0.00    -0.211 A  
HETATM    6  C   UNL     1      -9.988  12.210  66.095  1.00  0.00    -0.253 A  
HETATM    7  C   UNL     1      -9.736  11.092  65.285  1.00  0.00    -0.285 A  
HETATM    8  C   UNL     1      -9.729   9.802  65.822  1.00  0.00    -0.340 A  
BRANCH   6   9
HETATM    9  C   UNL     1     -10.116  13.558  65.532  1.00  0.00    -0.283 C  
HETATM   10  C   UNL     1     -10.442  14.640  66.252  1.00  0.00    -0.302 C  
BRANCH  10  11
HETATM   11  C   UNL     1     -10.310  15.995  65.672  1.00  0.00    -0.392 C  
HETATM   12  O   UNL     1     -10.939  16.428  64.722  1.00  0.00    -0.664 OA 
BRANCH  11  13
HETATM   13  O   UNL     1      -9.215  16.559  66.246  1.00  0.00    -0.271 OA 
BRANCH  13  14
HETATM   14  C   UNL     1      -9.442  17.878  66.753  1.00  0.00    -0.287 C  
BRANCH  14  15
HETATM   15  C   UNL     1      -8.228  18.787  66.594  1.00  0.00    -0.298 C  
HETATM   16  C   UNL     1      -8.298  19.996  67.551  1.00  0.00    -0.381 C  
HETATM   17  C   UNL     1      -8.322  19.575  69.023  1.00  0.00    -0.222 C  
HETATM   18  C   UNL     1      -7.127  20.948  67.310  1.00  0.00    -0.430 C  
ENDBRANCH  14  15
ENDBRANCH  13  14
ENDBRANCH  11  13
ENDBRANCH  10  11
ENDBRANCH   6   9
ENDBRANCH   2   3
TORSDOF 6
ENDMDL
MODEL      149
REMARK 921   NORMALIZED FREE ENERGY PREDICTED BY IDOCK:   -3.59 KCAL/MOL
REMARK 922        TOTAL FREE ENERGY PREDICTED BY IDOCK:   -5.63 KCAL/MOL
REMARK 923 INTER-LIGAND FREE ENERGY PREDICTED BY IDOCK:   -5.14 KCAL/MOL
REMARK 924 INTRA-LIGAND FREE ENERGY PREDICTED BY IDOCK:   -0.49 KCAL/MOL
REMARK 927      BINDING AFFINITY PREDICTED BY RF-SCORE:    0.00 PKD
ROOT
HETATM    1  C   UNL     1     -13.581  14.623  72.757  1.00  0.00    -0.437 C  
HETATM    2  O   UNL     1     -13.739  13.214  72.617  1.00  0.00    -0.651 OA 
ENDROOT
BRANCH   2   3
HETATM    3  C   UNL     1     -13.095  12.666  71.541  1.00  0.00    -0.278 A  
HETATM    4  C   UNL     1     -13.181  11.281  71.416  1.00  0.00    -0.267 A  
HETATM    5  C   UNL     1     -12.534  10.623  70.365  1.00  0.00    -0.421 A  
HETATM    6  C   UNL     1     -11.819  11.346  69.404  1.00  0.00    -0.419 A  
HETATM    7  C   UNL     1     -11.765  12.743  69.521  1.00  0.00    -0.383 A  
HETATM    8  C   UNL     1     -12.405  13.400  70.577  1.00  0.00    -0.401 A  
BRANCH   6   9
HETATM    9  C   UNL     1     -11.060  10.629  68.374  1.00  0.00    -0.328 C  
HETATM   10  C   UNL     1     -11.004  11.007  67.089  1.00  0.00    -0.344 C  
BRANCH  10  11
HETATM   11  C   UNL     1     -10.027  10.385  66.167  1.00  0.00    -0.231 C  
HETATM   12  O   UNL     1      -9.605  10.881  65.136  1.00  0.00    -0.214 OA 
BRANCH  11  13
HETATM   13  O   UNL     1      -9.880   9.096  66.568  1.00  0.00    -0.219 OA 
BRANCH  13  14
HETATM   14  C   UNL     1      -8.523   8.641  66.565  1.00  0.00    -0.113 C  
BRANCH  14  15
HETATM   15  C   UNL     1      -8.329   7.372  65.741  1.00  0.00    -0.141 C  
HETATM   16  C   UNL     1      -7.975   7.698  64.275  1.00  0.00    -0.112 C  
HETATM   17  C   UNL     1      -6.670   8.488  64.150  1.00  0.00    -0.075 C  
HETATM   18  C   UNL     1      -7.881   6.420  63.442  1.00  0.00    -0.107 C  
ENDBRANCH  14  15
ENDBRANCH  13  14
ENDBRANCH  11  13
ENDBRANCH  10  11
ENDBRANCH   6   9
ENDBRANCH   2   3
TORSDOF 6
ENDMDL
MODEL      150
REMARK 921   NORMALIZED FREE ENERGY PREDICTED BY IDOCK:   -3.57 KCAL/MOL
REMARK 922        TOTAL FREE ENERGY PREDICTED BY IDOCK:   -5.60 KCAL/MOL
REMARK 923 INTER-LIGAND FREE ENERGY PREDICTED BY IDOCK:   -5.17 KCAL/MOL
REMARK 924 INTRA-LIGAND FREE ENERGY PREDICTED BY IDOCK:   -0.43 KCAL/MOL
REMARK 927      BINDING AFFINITY PREDICTED BY RF-SCORE:    0.00 PKD
ROOT
HETATM    1  C   UNL     1     -10.305   6.093  67.918  1.00  0.00    -0.203 C  
HETATM    2  O   UNL     1     -10.845   7.058  67.019  1.00  0.00    -0.348 OA 
ENDROOT
BRANCH   2   3
HETATM    3  C   UNL     1     -10.517   8.356  67.302  1.00  0.00    -0.303 A  
HETATM    4  C   UNL     1     -10.105   9.133  66.221  1.00  0.00    -0.319 A  
HETATM    5  C   UNL     1      -9.722  10.465  66.412  1.00  0.00    -0.250 A  
HETATM    6  C   UNL     1      -9.778  11.048  67.681  1.00  0.00    -0.184 A  
HETATM    7  C   UNL     1     -10.223  10.267  68.758  1.00  0.00    -0.205 A  
HETATM    8  C   UNL     1     -10.599   8.933  68.570  1.00  0.00    -0.183 A  
BRANCH   6   9
HETATM    9  C   UNL     1      -9.269  12.410  67.876  1.00  0.00    -0.192 C  
HETATM   10  C   UNL     1      -9.352  13.377  66.951  1.00  0.00    -0.253 C  
BRANCH  10  11
HETATM   11  C   UNL     1      -9.045  14.781  67.305  1.00  0.00    -0.204 C  
HETATM   12  O   UNL     1      -8.805  15.198  68.426  1.00  0.00    -0.163 OA 
BRANCH  11  13
HETATM   13  O   UNL     1      -9.308  15.527  66.201  1.00  0.00    -0.295 OA 
BRANCH  13  14
HETATM   14  C   UNL     1     -10.384  16.455  66.371  1.00  0.00    -0.313 C  
BRANCH  14  15
HETATM   15  C   UNL     1      -9.958  17.901  66.137  1.00  0.00    -0.288 C  
HETATM   16  C   UNL     1     -10.503  18.836  67.237  1.00  0.00    -0.489 C  
HETATM   17  C   UNL     1      -9.989  18.463  68.630  1.00  0.00    -0.415 C  
HETATM   18  C   UNL     1     -10.152  20.292  66.934  1.00  0.00    -0.565 C  
ENDBRANCH  14  15
ENDBRANCH  13  14
ENDBRANCH  11  13
ENDBRANCH  10  11
ENDBRANCH   6   9
ENDBRANCH   2   3
TORSDOF 6
ENDMDL
MODEL      151
REMARK 921   NORMALIZED FREE ENERGY PREDICTED BY IDOCK:   -3.56 KCAL/MOL
REMARK 922        TOTAL FREE ENERGY PREDICTED BY IDOCK:   -5.59 KCAL/MOL
REMARK 923 INTER-LIGAND FREE ENERGY PREDICTED BY IDOCK:   -5.11 KCAL/MOL
REMARK 924 INTRA-LIGAND FREE ENERGY PREDICTED BY IDOCK:   -0.48 KCAL/MOL
REMARK 927      BINDING AFFINITY PREDICTED BY RF-SCORE:    0.00 PKD
ROOT
HETATM    1  C   UNL     1     -10.263  20.035  68.323  1.00  0.00    -0.392 C  
HETATM    2  O   UNL     1      -9.075  19.250  68.348  1.00  0.00    -0.332 OA 
ENDROOT
BRANCH   2   3
HETATM    3  C   UNL     1      -9.276  17.899  68.265  1.00  0.00    -0.282 A  
HETATM    4  C   UNL     1     -10.531  17.442  68.661  1.00  0.00    -0.355 A  
HETATM    5  C   UNL     1     -10.826  16.074  68.640  1.00  0.00    -0.301 A  
HETATM    6  C   UNL     1      -9.881  15.148  68.189  1.00  0.00    -0.218 A  
HETATM    7  C   UNL     1      -8.631  15.622  67.762  1.00  0.00    -0.168 A  
HETATM    8  C   UNL     1      -8.332  16.987  67.791  1.00  0.00    -0.199 A  
BRANCH   6   9
HETATM    9  C   UNL     1     -10.173  13.713  68.276  1.00  0.00    -0.243 C  
HETATM   10  C   UNL     1     -11.076  13.087  67.510  1.00  0.00    -0.297 C  
BRANCH  10  11
HETATM   11  C   UNL     1     -11.139  11.609  67.481  1.00  0.00    -0.276 C  
HETATM   12  O   UNL     1     -11.962  10.919  68.058  1.00  0.00    -0.586 OA 
BRANCH  11  13
HETATM   13  O   UNL     1      -9.992  11.182  66.891  1.00  0.00    -0.190 OA 
BRANCH  13  14
HETATM   14  C   UNL     1     -10.196  10.537  65.629  1.00  0.00    -0.246 C  
BRANCH  14  15
HETATM   15  C   UNL     1      -9.183   9.429  65.364  1.00  0.00    -0.305 C  
HETATM   16  C   UNL     1      -9.077   8.461  66.561  1.00  0.00    -0.217 C  
HETATM   17  C   UNL     1     -10.404   7.759  66.865  1.00  0.00    -0.396 C  
HETATM   18  C   UNL     1      -7.989   7.415  66.319  1.00  0.00    -0.109 C  
ENDBRANCH  14  15
ENDBRANCH  13  14
ENDBRANCH  11  13
ENDBRANCH  10  11
ENDBRANCH   6   9
ENDBRANCH   2   3
TORSDOF 6
ENDMDL
MODEL      152
REMARK 921   NORMALIZED FREE ENERGY PREDICTED BY IDOCK:   -3.54 KCAL/MOL
REMARK 922        TOTAL FREE ENERGY PREDICTED BY IDOCK:   -5.57 KCAL/MOL
REMARK 923 INTER-LIGAND FREE ENERGY PREDICTED BY IDOCK:   -4.55 KCAL/MOL
REMARK 924 INTRA-LIGAND FREE ENERGY PREDICTED BY IDOCK:   -1.02 KCAL/MOL
REMARK 927      BINDING AFFINITY PREDICTED BY RF-SCORE:    0.00 PKD
ROOT
HETATM    1  C   UNL     1     -11.978  14.251  68.665  1.00  0.00    -0.313 C  
HETATM    2  O   UNL     1     -11.190  13.890  67.534  1.00  0.00    -0.284 OA 
ENDROOT
BRANCH   2   3
HETATM    3  C   UNL     1     -11.016  12.544  67.359  1.00  0.00    -0.259 A  
HETATM    4  C   UNL     1     -11.433  11.732  68.412  1.00  0.00    -0.354 A  
HETATM    5  C   UNL     1     -11.273  10.344  68.341  1.00  0.00    -0.318 A  
HETATM    6  C   UNL     1     -10.725   9.746  67.202  1.00  0.00    -0.273 A  
HETATM    7  C   UNL     1     -10.338  10.571  66.135  1.00  0.00    -0.276 A  
HETATM    8  C   UNL     1     -10.489  11.959  66.208  1.00  0.00    -0.274 A  
BRANCH   6   9
HETATM    9  C   UNL     1     -10.467   8.302  67.194  1.00  0.00    -0.386 C  
HETATM   10  C   UNL     1      -9.241   7.764  67.133  1.00  0.00    -0.174 C  
BRANCH  10  11
HETATM   11  C   UNL     1      -9.045   6.317  67.377  1.00  0.00    -0.111 C  
HETATM   12  O   UNL     1      -9.646   5.413  66.823  1.00  0.00    -0.130 OA 
BRANCH  11  13
HETATM   13  O   UNL     1      -8.252   6.213  68.476  1.00  0.00    -0.110 OA 
BRANCH  13  14
HETATM   14  C   UNL     1      -8.968   5.916  69.679  1.00  0.00    -0.130 C  
BRANCH  14  15
HETATM   15  C   UNL     1      -9.110   7.127  70.595  1.00  0.00    -0.158 C  
HETATM   16  C   UNL     1     -10.591   7.454  70.875  1.00  0.00    -0.234 C  
HETATM   17  C   UNL     1     -11.322   6.306  71.575  1.00  0.00    -0.352 C  
HETATM   18  C   UNL     1     -10.718   8.727  71.711  1.00  0.00    -0.413 C  
ENDBRANCH  14  15
ENDBRANCH  13  14
ENDBRANCH  11  13
ENDBRANCH  10  11
ENDBRANCH   6   9
ENDBRANCH   2   3
TORSDOF 6
ENDMDL
MODEL      153
REMARK 921   NORMALIZED FREE ENERGY PREDICTED BY IDOCK:   -3.52 KCAL/MOL
REMARK 922        TOTAL FREE ENERGY PREDICTED BY IDOCK:   -5.54 KCAL/MOL
REMARK 923 INTER-LIGAND FREE ENERGY PREDICTED BY IDOCK:   -5.13 KCAL/MOL
REMARK 924 INTRA-LIGAND FREE ENERGY PREDICTED BY IDOCK:   -0.41 KCAL/MOL
REMARK 927      BINDING AFFINITY PREDICTED BY RF-SCORE:    0.00 PKD
ROOT
HETATM    1  C   UNL     1     -12.814   7.078  71.606  1.00  0.00    -0.364 C  
HETATM    2  O   UNL     1     -11.657   6.284  71.355  1.00  0.00    -0.301 OA 
ENDROOT
BRANCH   2   3
HETATM    3  C   UNL     1     -10.942   6.643  70.245  1.00  0.00    -0.303 A  
HETATM    4  C   UNL     1      -9.917   7.565  70.450  1.00  0.00    -0.184 A  
HETATM    5  C   UNL     1      -9.145   8.017  69.375  1.00  0.00    -0.148 A  
HETATM    6  C   UNL     1      -9.365   7.527  68.084  1.00  0.00    -0.137 A  
HETATM    7  C   UNL     1     -10.379   6.576  67.893  1.00  0.00    -0.229 A  
HETATM    8  C   UNL     1     -11.156   6.130  68.967  1.00  0.00    -0.437 A  
BRANCH   6   9
HETATM    9  C   UNL     1      -8.619   8.094  66.956  1.00  0.00    -0.124 C  
HETATM   10  C   UNL     1      -9.167   8.877  66.015  1.00  0.00    -0.287 C  
BRANCH  10  11
HETATM   11  C   UNL     1      -8.310   9.608  65.056  1.00  0.00    -0.141 C  
HETATM   12  O   UNL     1      -7.239   9.224  64.620  1.00  0.00    -0.096 OA 
BRANCH  11  13
HETATM   13  O   UNL     1      -8.831  10.858  64.945  1.00  0.00    -0.183 OA 
BRANCH  13  14
HETATM   14  C   UNL     1     -10.208  10.879  64.555  1.00  0.00    -0.356 C  
BRANCH  14  15
HETATM   15  C   UNL     1     -11.031  11.887  65.350  1.00  0.00    -0.352 C  
HETATM   16  C   UNL     1     -11.783  12.861  64.420  1.00  0.00    -0.427 C  
HETATM   17  C   UNL     1     -12.771  12.143  63.496  1.00  0.00    -0.553 C  
HETATM   18  C   UNL     1     -12.523  13.925  65.232  1.00  0.00    -0.504 C  
ENDBRANCH  14  15
ENDBRANCH  13  14
ENDBRANCH  11  13
ENDBRANCH  10  11
ENDBRANCH   6   9
ENDBRANCH   2   3
TORSDOF 6
ENDMDL
MODEL      154
REMARK 921   NORMALIZED FREE ENERGY PREDICTED BY IDOCK:   -3.50 KCAL/MOL
REMARK 922        TOTAL FREE ENERGY PREDICTED BY IDOCK:   -5.51 KCAL/MOL
REMARK 923 INTER-LIGAND FREE ENERGY PREDICTED BY IDOCK:   -4.37 KCAL/MOL
REMARK 924 INTRA-LIGAND FREE ENERGY PREDICTED BY IDOCK:   -1.14 KCAL/MOL
REMARK 927      BINDING AFFINITY PREDICTED BY RF-SCORE:    0.00 PKD
ROOT
HETATM    1  C   UNL     1      -6.552   3.846  72.881  1.00  0.00    -0.040 C  
HETATM    2  O   UNL     1      -7.649   3.902  73.789  1.00  0.00    -0.075 OA 
ENDROOT
BRANCH   2   3
HETATM    3  C   UNL     1      -8.660   4.746  73.419  1.00  0.00    -0.102 A  
HETATM    4  C   UNL     1      -9.940   4.196  73.401  1.00  0.00    -0.177 A  
HETATM    5  C   UNL     1     -11.038   4.969  73.010  1.00  0.00    -0.378 A  
HETATM    6  C   UNL     1     -10.876   6.314  72.664  1.00  0.00    -0.273 A  
HETATM    7  C   UNL     1      -9.587   6.867  72.716  1.00  0.00    -0.166 A  
HETATM    8  C   UNL     1      -8.488   6.092  73.098  1.00  0.00    -0.118 A  
BRANCH   6   9
HETATM    9  C   UNL     1     -12.021   7.075  72.154  1.00  0.00    -0.299 C  
HETATM   10  C   UNL     1     -12.327   8.319  72.550  1.00  0.00    -0.335 C  
BRANCH  10  11
HETATM   11  C   UNL     1     -13.340   9.111  71.818  1.00  0.00    -0.406 C  
HETATM   12  O   UNL     1     -14.402   8.691  71.393  1.00  0.00    -0.386 OA 
BRANCH  11  13
HETATM   13  O   UNL     1     -12.761  10.304  71.522  1.00  0.00    -0.378 OA 
BRANCH  13  14
HETATM   14  C   UNL     1     -12.471  10.477  70.131  1.00  0.00    -0.226 C  
BRANCH  14  15
HETATM   15  C   UNL     1     -11.008  10.820  69.872  1.00  0.00    -0.304 C  
HETATM   16  C   UNL     1     -10.099   9.585  70.039  1.00  0.00    -0.279 C  
HETATM   17  C   UNL     1     -10.451   8.462  69.059  1.00  0.00    -0.216 C  
HETATM   18  C   UNL     1      -8.628   9.966  69.873  1.00  0.00    -0.216 C  
ENDBRANCH  14  15
ENDBRANCH  13  14
ENDBRANCH  11  13
ENDBRANCH  10  11
ENDBRANCH   6   9
ENDBRANCH   2   3
TORSDOF 6
ENDMDL
MODEL      155
REMARK 921   NORMALIZED FREE ENERGY PREDICTED BY IDOCK:   -3.50 KCAL/MOL
REMARK 922        TOTAL FREE ENERGY PREDICTED BY IDOCK:   -5.50 KCAL/MOL
REMARK 923 INTER-LIGAND FREE ENERGY PREDICTED BY IDOCK:   -4.82 KCAL/MOL
REMARK 924 INTRA-LIGAND FREE ENERGY PREDICTED BY IDOCK:   -0.68 KCAL/MOL
REMARK 927      BINDING AFFINITY PREDICTED BY RF-SCORE:    0.00 PKD
ROOT
HETATM    1  C   UNL     1      -9.898  13.788  67.247  1.00  0.00    -0.241 C  
HETATM    2  O   UNL     1      -9.076  12.644  67.031  1.00  0.00    -0.201 OA 
ENDROOT
BRANCH   2   3
HETATM    3  C   UNL     1      -9.119  11.708  68.027  1.00  0.00    -0.177 A  
HETATM    4  C   UNL     1     -10.389  11.354  68.480  1.00  0.00    -0.219 A  
HETATM    5  C   UNL     1     -10.538  10.426  69.516  1.00  0.00    -0.274 A  
HETATM    6  C   UNL     1      -9.421   9.811  70.089  1.00  0.00    -0.277 A  
HETATM    7  C   UNL     1      -8.148  10.151  69.604  1.00  0.00    -0.178 A  
HETATM    8  C   UNL     1      -7.998  11.085  68.575  1.00  0.00    -0.137 A  
BRANCH   6   9
HETATM    9  C   UNL     1      -9.594   8.924  71.244  1.00  0.00    -0.348 C  
HETATM   10  C   UNL     1     -10.745   8.793  71.919  1.00  0.00    -0.429 C  
BRANCH  10  11
HETATM   11  C   UNL     1     -10.915   7.705  72.908  1.00  0.00    -0.400 C  
HETATM   12  O   UNL     1     -10.228   7.530  73.900  1.00  0.00    -0.280 OA 
BRANCH  11  13
HETATM   13  O   UNL     1     -11.814   6.836  72.378  1.00  0.00    -0.259 OA 
BRANCH  13  14
HETATM   14  C   UNL     1     -11.310   5.505  72.224  1.00  0.00    -0.194 C  
BRANCH  14  15
HETATM   15  C   UNL     1     -10.055   5.447  71.360  1.00  0.00    -0.262 C  
HETATM   16  C   UNL     1     -10.400   5.192  69.878  1.00  0.00    -0.347 C  
HETATM   17  C   UNL     1     -11.274   6.299  69.282  1.00  0.00    -0.458 C  
HETATM   18  C   UNL     1      -9.129   5.038  69.043  1.00  0.00    -0.140 C  
ENDBRANCH  14  15
ENDBRANCH  13  14
ENDBRANCH  11  13
ENDBRANCH  10  11
ENDBRANCH   6   9
ENDBRANCH   2   3
TORSDOF 6
ENDMDL
MODEL      156
REMARK 921   NORMALIZED FREE ENERGY PREDICTED BY IDOCK:   -3.48 KCAL/MOL
REMARK 922        TOTAL FREE ENERGY PREDICTED BY IDOCK:   -5.48 KCAL/MOL
REMARK 923 INTER-LIGAND FREE ENERGY PREDICTED BY IDOCK:   -4.93 KCAL/MOL
REMARK 924 INTRA-LIGAND FREE ENERGY PREDICTED BY IDOCK:   -0.55 KCAL/MOL
REMARK 927      BINDING AFFINITY PREDICTED BY RF-SCORE:    0.00 PKD
ROOT
HETATM    1  C   UNL     1      -9.372   3.382  67.137  1.00  0.00    -0.193 C  
HETATM    2  O   UNL     1      -8.479   4.445  67.459  1.00  0.00    -0.102 OA 
ENDROOT
BRANCH   2   3
HETATM    3  C   UNL     1      -9.082   5.650  67.699  1.00  0.00    -0.106 A  
HETATM    4  C   UNL     1      -8.615   6.728  66.951  1.00  0.00    -0.116 A  
HETATM    5  C   UNL     1      -9.147   8.008  67.143  1.00  0.00    -0.159 A  
HETATM    6  C   UNL     1     -10.179   8.219  68.063  1.00  0.00    -0.265 A  
HETATM    7  C   UNL     1     -10.664   7.121  68.788  1.00  0.00    -0.199 A  
HETATM    8  C   UNL     1     -10.126   5.843  68.603  1.00  0.00    -0.213 A  
BRANCH   6   9
HETATM    9  C   UNL     1     -10.647   9.584  68.326  1.00  0.00    -0.260 C  
HETATM   10  C   UNL     1     -10.938  10.472  67.364  1.00  0.00    -0.352 C  
BRANCH  10  11
HETATM   11  C   UNL     1     -11.636  11.734  67.696  1.00  0.00    -0.294 C  
HETATM   12  O   UNL     1     -11.815  12.177  68.817  1.00  0.00    -0.305 OA 
BRANCH  11  13
HETATM   13  O   UNL     1     -12.221  12.168  66.549  1.00  0.00    -0.584 OA 
BRANCH  13  14
HETATM   14  C   UNL     1     -11.361  12.115  65.405  1.00  0.00    -0.338 C  
BRANCH  14  15
HETATM   15  C   UNL     1     -11.405  13.393  64.575  1.00  0.00    -0.391 C  
HETATM   16  C   UNL     1     -11.120  14.639  65.440  1.00  0.00    -0.349 C  
HETATM   17  C   UNL     1      -9.732  14.599  66.084  1.00  0.00    -0.344 C  
HETATM   18  C   UNL     1     -11.266  15.917  64.615  1.00  0.00    -0.361 C  
ENDBRANCH  14  15
ENDBRANCH  13  14
ENDBRANCH  11  13
ENDBRANCH  10  11
ENDBRANCH   6   9
ENDBRANCH   2   3
TORSDOF 6
ENDMDL
MODEL      157
REMARK 921   NORMALIZED FREE ENERGY PREDICTED BY IDOCK:   -3.47 KCAL/MOL
REMARK 922        TOTAL FREE ENERGY PREDICTED BY IDOCK:   -5.46 KCAL/MOL
REMARK 923 INTER-LIGAND FREE ENERGY PREDICTED BY IDOCK:   -5.06 KCAL/MOL
REMARK 924 INTRA-LIGAND FREE ENERGY PREDICTED BY IDOCK:   -0.40 KCAL/MOL
REMARK 927      BINDING AFFINITY PREDICTED BY RF-SCORE:    0.00 PKD
ROOT
HETATM    1  C   UNL     1     -10.151  15.799  65.470  1.00  0.00    -0.351 C  
HETATM    2  O   UNL     1     -11.058  15.861  66.567  1.00  0.00    -0.192 OA 
ENDROOT
BRANCH   2   3
HETATM    3  C   UNL     1     -11.329  14.657  67.159  1.00  0.00    -0.356 A  
HETATM    4  C   UNL     1     -11.613  14.696  68.523  1.00  0.00    -0.346 A  
HETATM    5  C   UNL     1     -11.876  13.515  69.225  1.00  0.00    -0.392 A  
HETATM    6  C   UNL     1     -11.891  12.282  68.566  1.00  0.00    -0.359 A  
HETATM    7  C   UNL     1     -11.635  12.257  67.187  1.00  0.00    -0.423 A  
HETATM    8  C   UNL     1     -11.363  13.436  66.486  1.00  0.00    -0.346 A  
BRANCH   6   9
HETATM    9  C   UNL     1     -12.062  11.048  69.340  1.00  0.00    -0.389 C  
HETATM   10  C   UNL     1     -11.148  10.574  70.199  1.00  0.00    -0.369 C  
BRANCH  10  11
HETATM   11  C   UNL     1     -11.490   9.468  71.122  1.00  0.00    -0.360 C  
HETATM   12  O   UNL     1     -12.268   9.535  72.058  1.00  0.00    -0.358 OA 
BRANCH  11  13
HETATM   13  O   UNL     1     -10.612   8.463  70.866  1.00  0.00    -0.198 OA 
BRANCH  13  14
HETATM   14  C   UNL     1      -9.762   8.142  71.971  1.00  0.00    -0.227 C  
BRANCH  14  15
HETATM   15  C   UNL     1      -8.371   8.753  71.842  1.00  0.00    -0.131 C  
HETATM   16  C   UNL     1      -7.293   7.844  72.469  1.00  0.00    -0.108 C  
HETATM   17  C   UNL     1      -7.218   6.473  71.792  1.00  0.00    -0.086 C  
HETATM   18  C   UNL     1      -5.920   8.515  72.419  1.00  0.00    -0.069 C  
ENDBRANCH  14  15
ENDBRANCH  13  14
ENDBRANCH  11  13
ENDBRANCH  10  11
ENDBRANCH   6   9
ENDBRANCH   2   3
TORSDOF 6
ENDMDL
MODEL      158
REMARK 921   NORMALIZED FREE ENERGY PREDICTED BY IDOCK:   -3.46 KCAL/MOL
REMARK 922        TOTAL FREE ENERGY PREDICTED BY IDOCK:   -5.46 KCAL/MOL
REMARK 923 INTER-LIGAND FREE ENERGY PREDICTED BY IDOCK:   -4.47 KCAL/MOL
REMARK 924 INTRA-LIGAND FREE ENERGY PREDICTED BY IDOCK:   -0.99 KCAL/MOL
REMARK 927      BINDING AFFINITY PREDICTED BY RF-SCORE:    0.00 PKD
ROOT
HETATM    1  C   UNL     1      -5.792  12.727  67.631  1.00  0.00    -0.141 C  
HETATM    2  O   UNL     1      -7.143  13.093  67.363  1.00  0.00    -0.157 OA 
ENDROOT
BRANCH   2   3
HETATM    3  C   UNL     1      -8.013  12.042  67.256  1.00  0.00    -0.174 A  
HETATM    4  C   UNL     1      -8.097  11.202  68.364  1.00  0.00    -0.141 A  
HETATM    5  C   UNL     1      -8.938  10.084  68.344  1.00  0.00    -0.121 A  
HETATM    6  C   UNL     1      -9.733   9.810  67.226  1.00  0.00    -0.213 A  
HETATM    7  C   UNL     1      -9.664  10.680  66.128  1.00  0.00    -0.253 A  
HETATM    8  C   UNL     1      -8.818  11.793  66.144  1.00  0.00    -0.107 A  
BRANCH   6   9
HETATM    9  C   UNL     1     -10.524   8.576  67.184  1.00  0.00    -0.370 C  
HETATM   10  C   UNL     1      -9.993   7.354  67.035  1.00  0.00    -0.301 C  
BRANCH  10  11
HETATM   11  C   UNL     1     -10.820   6.146  67.249  1.00  0.00    -0.352 C  
HETATM   12  O   UNL     1     -10.997   5.251  66.440  1.00  0.00    -0.235 OA 
BRANCH  11  13
HETATM   13  O   UNL     1     -11.507   6.345  68.403  1.00  0.00    -0.205 OA 
BRANCH  13  14
HETATM   14  C   UNL     1     -10.900   5.740  69.550  1.00  0.00    -0.340 C  
BRANCH  14  15
HETATM   15  C   UNL     1     -10.352   6.766  70.536  1.00  0.00    -0.226 C  
HETATM   16  C   UNL     1     -11.349   7.921  70.763  1.00  0.00    -0.283 C  
HETATM   17  C   UNL     1     -12.679   7.439  71.348  1.00  0.00    -0.408 C  
HETATM   18  C   UNL     1     -10.745   8.989  71.675  1.00  0.00    -0.441 C  
ENDBRANCH  14  15
ENDBRANCH  13  14
ENDBRANCH  11  13
ENDBRANCH  10  11
ENDBRANCH   6   9
ENDBRANCH   2   3
TORSDOF 6
ENDMDL
MODEL      159
REMARK 921   NORMALIZED FREE ENERGY PREDICTED BY IDOCK:   -3.45 KCAL/MOL
REMARK 922        TOTAL FREE ENERGY PREDICTED BY IDOCK:   -5.44 KCAL/MOL
REMARK 923 INTER-LIGAND FREE ENERGY PREDICTED BY IDOCK:   -4.99 KCAL/MOL
REMARK 924 INTRA-LIGAND FREE ENERGY PREDICTED BY IDOCK:   -0.45 KCAL/MOL
REMARK 927      BINDING AFFINITY PREDICTED BY RF-SCORE:    0.00 PKD
ROOT
HETATM    1  C   UNL     1     -12.483   7.625  71.967  1.00  0.00    -0.270 C  
HETATM    2  O   UNL     1     -13.538   8.583  72.000  1.00  0.00    -0.360 OA 
ENDROOT
BRANCH   2   3
HETATM    3  C   UNL     1     -13.170   9.855  71.658  1.00  0.00    -0.421 A  
HETATM    4  C   UNL     1     -12.260   9.968  70.609  1.00  0.00    -0.360 A  
HETATM    5  C   UNL     1     -11.801  11.225  70.201  1.00  0.00    -0.449 A  
HETATM    6  C   UNL     1     -12.273  12.390  70.815  1.00  0.00    -0.336 A  
HETATM    7  C   UNL     1     -13.213  12.267  71.850  1.00  0.00    -0.481 A  
HETATM    8  C   UNL     1     -13.665  11.010  72.263  1.00  0.00     0.184 A  
BRANCH   6   9
HETATM    9  C   UNL     1     -11.698  13.688  70.446  1.00  0.00    -0.223 C  
HETATM   10  C   UNL     1     -11.304  14.004  69.205  1.00  0.00    -0.323 C  
BRANCH  10  11
HETATM   11  C   UNL     1     -10.968  15.403  68.858  1.00  0.00    -0.261 C  
HETATM   12  O   UNL     1     -10.792  16.312  69.651  1.00  0.00    -0.303 OA 
BRANCH  11  13
HETATM   13  O   UNL     1     -11.122  15.517  67.513  1.00  0.00    -0.321 OA 
BRANCH  13  14
HETATM   14  C   UNL     1      -9.961  15.141  66.764  1.00  0.00    -0.239 C  
BRANCH  14  15
HETATM   15  C   UNL     1      -8.975  16.291  66.588  1.00  0.00    -0.283 C  
HETATM   16  C   UNL     1      -7.826  16.213  67.615  1.00  0.00    -0.165 C  
HETATM   17  C   UNL     1      -7.006  14.926  67.479  1.00  0.00    -0.203 C  
HETATM   18  C   UNL     1      -6.902  17.424  67.490  1.00  0.00    -0.173 C  
ENDBRANCH  14  15
ENDBRANCH  13  14
ENDBRANCH  11  13
ENDBRANCH  10  11
ENDBRANCH   6   9
ENDBRANCH   2   3
TORSDOF 6
ENDMDL
MODEL      160
REMARK 921   NORMALIZED FREE ENERGY PREDICTED BY IDOCK:   -3.44 KCAL/MOL
REMARK 922        TOTAL FREE ENERGY PREDICTED BY IDOCK:   -5.43 KCAL/MOL
REMARK 923 INTER-LIGAND FREE ENERGY PREDICTED BY IDOCK:   -4.93 KCAL/MOL
REMARK 924 INTRA-LIGAND FREE ENERGY PREDICTED BY IDOCK:   -0.50 KCAL/MOL
REMARK 927      BINDING AFFINITY PREDICTED BY RF-SCORE:    0.00 PKD
ROOT
HETATM    1  C   UNL     1      -7.655   5.118  64.394  1.00  0.00    -0.079 C  
HETATM    2  O   UNL     1      -8.478   5.147  65.557  1.00  0.00    -0.126 OA 
ENDROOT
BRANCH   2   3
HETATM    3  C   UNL     1      -8.936   6.387  65.908  1.00  0.00    -0.096 A  
HETATM    4  C   UNL     1     -10.078   6.414  66.707  1.00  0.00    -0.239 A  
HETATM    5  C   UNL     1     -10.641   7.634  67.097  1.00  0.00    -0.410 A  
HETATM    6  C   UNL     1     -10.051   8.845  66.721  1.00  0.00    -0.350 A  
HETATM    7  C   UNL     1      -8.884   8.806  65.942  1.00  0.00    -0.222 A  
HETATM    8  C   UNL     1      -8.325   7.587  65.545  1.00  0.00    -0.137 A  
BRANCH   6   9
HETATM    9  C   UNL     1     -10.717  10.109  67.048  1.00  0.00    -0.264 C  
HETATM   10  C   UNL     1     -10.797  11.150  66.208  1.00  0.00    -0.266 C  
BRANCH  10  11
HETATM   11  C   UNL     1     -11.690  12.291  66.509  1.00  0.00    -0.352 C  
HETATM   12  O   UNL     1     -12.456  12.824  65.724  1.00  0.00    -0.579 OA 
BRANCH  11  13
HETATM   13  O   UNL     1     -11.326  12.758  67.732  1.00  0.00    -0.258 OA 
BRANCH  13  14
HETATM   14  C   UNL     1     -10.318  13.773  67.686  1.00  0.00    -0.239 C  
BRANCH  14  15
HETATM   15  C   UNL     1     -10.866  15.162  67.997  1.00  0.00    -0.284 C  
HETATM   16  C   UNL     1     -10.144  16.251  67.176  1.00  0.00    -0.268 C  
HETATM   17  C   UNL     1     -10.315  16.056  65.667  1.00  0.00    -0.414 C  
HETATM   18  C   UNL     1     -10.635  17.644  67.571  1.00  0.00    -0.345 C  
ENDBRANCH  14  15
ENDBRANCH  13  14
ENDBRANCH  11  13
ENDBRANCH  10  11
ENDBRANCH   6   9
ENDBRANCH   2   3
TORSDOF 6
ENDMDL
MODEL      161
REMARK 921   NORMALIZED FREE ENERGY PREDICTED BY IDOCK:   -3.44 KCAL/MOL
REMARK 922        TOTAL FREE ENERGY PREDICTED BY IDOCK:   -5.43 KCAL/MOL
REMARK 923 INTER-LIGAND FREE ENERGY PREDICTED BY IDOCK:   -4.86 KCAL/MOL
REMARK 924 INTRA-LIGAND FREE ENERGY PREDICTED BY IDOCK:   -0.57 KCAL/MOL
REMARK 927      BINDING AFFINITY PREDICTED BY RF-SCORE:    0.00 PKD
ROOT
HETATM    1  C   UNL     1      -9.541  13.327  66.951  1.00  0.00    -0.249 C  
HETATM    2  O   UNL     1     -10.847  12.788  67.137  1.00  0.00    -0.249 OA 
ENDROOT
BRANCH   2   3
HETATM    3  C   UNL     1     -11.004  12.035  68.269  1.00  0.00    -0.234 A  
HETATM    4  C   UNL     1     -10.146  10.945  68.402  1.00  0.00    -0.196 A  
HETATM    5  C   UNL     1     -10.245  10.097  69.510  1.00  0.00    -0.258 A  
HETATM    6  C   UNL     1     -11.181  10.348  70.518  1.00  0.00    -0.395 A  
HETATM    7  C   UNL     1     -12.019  11.466  70.390  1.00  0.00    -0.465 A  
HETATM    8  C   UNL     1     -11.926  12.309  69.278  1.00  0.00    -0.308 A  
BRANCH   6   9
HETATM    9  C   UNL     1     -11.340   9.387  71.615  1.00  0.00    -0.452 C  
HETATM   10  C   UNL     1     -11.368   8.058  71.445  1.00  0.00    -0.292 C  
BRANCH  10  11
HETATM   11  C   UNL     1     -11.282   7.151  72.611  1.00  0.00    -0.293 C  
HETATM   12  O   UNL     1     -10.855   7.446  73.714  1.00  0.00    -0.321 OA 
BRANCH  11  13
HETATM   13  O   UNL     1     -11.550   5.901  72.151  1.00  0.00    -0.296 OA 
BRANCH  13  14
HETATM   14  C   UNL     1     -11.072   4.856  73.005  1.00  0.00    -0.295 C  
BRANCH  14  15
HETATM   15  C   UNL     1     -10.179   3.859  72.274  1.00  0.00    -0.216 C  
HETATM   16  C   UNL     1      -8.946   4.552  71.657  1.00  0.00    -0.158 C  
HETATM   17  C   UNL     1      -8.060   5.220  72.712  1.00  0.00    -0.109 C  
HETATM   18  C   UNL     1      -8.114   3.559  70.845  1.00  0.00    -0.071 C  
ENDBRANCH  14  15
ENDBRANCH  13  14
ENDBRANCH  11  13
ENDBRANCH  10  11
ENDBRANCH   6   9
ENDBRANCH   2   3
TORSDOF 6
ENDMDL
MODEL      162
REMARK 921   NORMALIZED FREE ENERGY PREDICTED BY IDOCK:   -3.43 KCAL/MOL
REMARK 922        TOTAL FREE ENERGY PREDICTED BY IDOCK:   -5.41 KCAL/MOL
REMARK 923 INTER-LIGAND FREE ENERGY PREDICTED BY IDOCK:   -4.96 KCAL/MOL
REMARK 924 INTRA-LIGAND FREE ENERGY PREDICTED BY IDOCK:   -0.46 KCAL/MOL
REMARK 927      BINDING AFFINITY PREDICTED BY RF-SCORE:    0.00 PKD
ROOT
HETATM    1  C   UNL     1      -9.321   4.643  72.690  1.00  0.00    -0.130 C  
HETATM    2  O   UNL     1     -10.307   4.357  71.701  1.00  0.00    -0.151 OA 
ENDROOT
BRANCH   2   3
HETATM    3  C   UNL     1     -10.247   5.145  70.584  1.00  0.00    -0.256 A  
HETATM    4  C   UNL     1     -10.583   6.486  70.762  1.00  0.00    -0.278 A  
HETATM    5  C   UNL     1     -10.580   7.367  69.676  1.00  0.00    -0.243 A  
HETATM    6  C   UNL     1     -10.207   6.927  68.402  1.00  0.00    -0.191 A  
HETATM    7  C   UNL     1      -9.840   5.583  68.240  1.00  0.00    -0.185 A  
HETATM    8  C   UNL     1      -9.852   4.699  69.323  1.00  0.00    -0.260 A  
BRANCH   6   9
HETATM    9  C   UNL     1     -10.315   7.840  67.259  1.00  0.00    -0.371 C  
HETATM   10  C   UNL     1     -10.294   9.176  67.367  1.00  0.00    -0.330 C  
BRANCH  10  11
HETATM   11  C   UNL     1     -10.158  10.024  66.161  1.00  0.00    -0.247 C  
HETATM   12  O   UNL     1      -9.779   9.648  65.065  1.00  0.00    -0.289 OA 
BRANCH  11  13
HETATM   13  O   UNL     1     -10.312  11.310  66.570  1.00  0.00    -0.224 OA 
BRANCH  13  14
HETATM   14  C   UNL     1     -11.455  11.518  67.406  1.00  0.00    -0.274 C  
BRANCH  14  15
HETATM   15  C   UNL     1     -11.486  12.911  68.025  1.00  0.00    -0.361 C  
HETATM   16  C   UNL     1     -11.320  14.010  66.955  1.00  0.00    -0.343 C  
HETATM   17  C   UNL     1     -12.441  13.985  65.911  1.00  0.00    -0.513 C  
HETATM   18  C   UNL     1     -11.255  15.393  67.602  1.00  0.00    -0.311 C  
ENDBRANCH  14  15
ENDBRANCH  13  14
ENDBRANCH  11  13
ENDBRANCH  10  11
ENDBRANCH   6   9
ENDBRANCH   2   3
TORSDOF 6
ENDMDL
MODEL      163
REMARK 921   NORMALIZED FREE ENERGY PREDICTED BY IDOCK:   -3.42 KCAL/MOL
REMARK 922        TOTAL FREE ENERGY PREDICTED BY IDOCK:   -5.40 KCAL/MOL
REMARK 923 INTER-LIGAND FREE ENERGY PREDICTED BY IDOCK:   -5.01 KCAL/MOL
REMARK 924 INTRA-LIGAND FREE ENERGY PREDICTED BY IDOCK:   -0.39 KCAL/MOL
REMARK 927      BINDING AFFINITY PREDICTED BY RF-SCORE:    0.00 PKD
ROOT
HETATM    1  C   UNL     1      -7.672   7.106  63.969  1.00  0.00    -0.123 C  
HETATM    2  O   UNL     1      -7.432   8.417  63.465  1.00  0.00    -0.105 OA 
ENDROOT
BRANCH   2   3
HETATM    3  C   UNL     1      -8.113   9.414  64.108  1.00  0.00    -0.145 A  
HETATM    4  C   UNL     1      -7.628   9.774  65.365  1.00  0.00    -0.121 A  
HETATM    5  C   UNL     1      -8.272  10.765  66.115  1.00  0.00    -0.163 A  
HETATM    6  C   UNL     1      -9.389  11.433  65.604  1.00  0.00    -0.242 A  
HETATM    7  C   UNL     1      -9.849  11.085  64.325  1.00  0.00    -0.355 A  
HETATM    8  C   UNL     1      -9.212  10.089  63.578  1.00  0.00    -0.315 A  
BRANCH   6   9
HETATM    9  C   UNL     1     -10.111  12.389  66.449  1.00  0.00    -0.252 C  
HETATM   10  C   UNL     1     -10.155  13.708  66.214  1.00  0.00    -0.301 C  
BRANCH  10  11
HETATM   11  C   UNL     1     -11.099  14.571  66.959  1.00  0.00    -0.322 C  
HETATM   12  O   UNL     1     -12.298  14.383  67.075  1.00  0.00    -0.353 OA 
BRANCH  11  13
HETATM   13  O   UNL     1     -10.420  15.704  67.279  1.00  0.00    -0.279 OA 
BRANCH  13  14
HETATM   14  C   UNL     1     -10.148  16.551  66.158  1.00  0.00    -0.348 C  
BRANCH  14  15
HETATM   15  C   UNL     1      -9.044  17.564  66.439  1.00  0.00    -0.264 C  
HETATM   16  C   UNL     1      -9.554  19.013  66.292  1.00  0.00    -0.367 C  
HETATM   17  C   UNL     1     -10.685  19.337  67.272  1.00  0.00    -0.594 C  
HETATM   18  C   UNL     1      -8.412  20.012  66.480  1.00  0.00    -0.359 C  
ENDBRANCH  14  15
ENDBRANCH  13  14
ENDBRANCH  11  13
ENDBRANCH  10  11
ENDBRANCH   6   9
ENDBRANCH   2   3
TORSDOF 6
ENDMDL
MODEL      164
REMARK 921   NORMALIZED FREE ENERGY PREDICTED BY IDOCK:   -3.40 KCAL/MOL
REMARK 922        TOTAL FREE ENERGY PREDICTED BY IDOCK:   -5.37 KCAL/MOL
REMARK 923 INTER-LIGAND FREE ENERGY PREDICTED BY IDOCK:   -5.06 KCAL/MOL
REMARK 924 INTRA-LIGAND FREE ENERGY PREDICTED BY IDOCK:   -0.31 KCAL/MOL
REMARK 927      BINDING AFFINITY PREDICTED BY RF-SCORE:    0.00 PKD
ROOT
HETATM    1  C   UNL     1      -8.986   2.103  73.253  1.00  0.00    -0.069 C  
HETATM    2  O   UNL     1     -10.229   2.739  73.536  1.00  0.00    -0.104 OA 
ENDROOT
BRANCH   2   3
HETATM    3  C   UNL     1     -10.424   3.932  72.896  1.00  0.00    -0.168 A  
HETATM    4  C   UNL     1     -10.948   4.964  73.671  1.00  0.00    -0.387 A  
HETATM    5  C   UNL     1     -11.210   6.215  73.102  1.00  0.00    -0.146 A  
HETATM    6  C   UNL     1     -10.920   6.461  71.757  1.00  0.00    -0.298 A  
HETATM    7  C   UNL     1     -10.364   5.424  70.992  1.00  0.00    -0.307 A  
HETATM    8  C   UNL     1     -10.109   4.171  71.558  1.00  0.00    -0.184 A  
BRANCH   6   9
HETATM    9  C   UNL     1     -11.303   7.743  71.155  1.00  0.00    -0.290 C  
HETATM   10  C   UNL     1     -10.626   8.885  71.339  1.00  0.00    -0.374 C  
BRANCH  10  11
HETATM   11  C   UNL     1     -10.923  10.074  70.510  1.00  0.00    -0.326 C  
HETATM   12  O   UNL     1     -10.240  10.490  69.589  1.00  0.00    -0.226 OA 
BRANCH  11  13
HETATM   13  O   UNL     1     -11.954  10.722  71.113  1.00  0.00    -0.329 OA 
BRANCH  13  14
HETATM   14  C   UNL     1     -12.326  11.944  70.468  1.00  0.00    -0.284 C  
BRANCH  14  15
HETATM   15  C   UNL     1     -13.002  12.929  71.416  1.00  0.00    -0.362 C  
HETATM   16  C   UNL     1     -12.221  14.256  71.504  1.00  0.00    -0.378 C  
HETATM   17  C   UNL     1     -12.123  14.969  70.152  1.00  0.00    -0.378 C  
HETATM   18  C   UNL     1     -12.856  15.193  72.531  1.00  0.00    -0.449 C  
ENDBRANCH  14  15
ENDBRANCH  13  14
ENDBRANCH  11  13
ENDBRANCH  10  11
ENDBRANCH   6   9
ENDBRANCH   2   3
TORSDOF 6
ENDMDL
MODEL      165
REMARK 921   NORMALIZED FREE ENERGY PREDICTED BY IDOCK:   -3.39 KCAL/MOL
REMARK 922        TOTAL FREE ENERGY PREDICTED BY IDOCK:   -5.36 KCAL/MOL
REMARK 923 INTER-LIGAND FREE ENERGY PREDICTED BY IDOCK:   -4.41 KCAL/MOL
REMARK 924 INTRA-LIGAND FREE ENERGY PREDICTED BY IDOCK:   -0.95 KCAL/MOL
REMARK 927      BINDING AFFINITY PREDICTED BY RF-SCORE:    0.00 PKD
ROOT
HETATM    1  C   UNL     1     -13.012  15.351  71.147  1.00  0.00    -0.479 C  
HETATM    2  O   UNL     1     -12.126  14.710  70.233  1.00  0.00    -0.281 OA 
ENDROOT
BRANCH   2   3
HETATM    3  C   UNL     1     -12.004  13.358  70.401  1.00  0.00    -0.285 A  
HETATM    4  C   UNL     1     -12.813  12.788  71.382  1.00  0.00    -0.371 A  
HETATM    5  C   UNL     1     -12.743  11.417  71.650  1.00  0.00    -0.427 A  
HETATM    6  C   UNL     1     -11.887  10.590  70.916  1.00  0.00    -0.455 A  
HETATM    7  C   UNL     1     -11.100  11.169  69.909  1.00  0.00    -0.234 A  
HETATM    8  C   UNL     1     -11.163  12.541  69.647  1.00  0.00    -0.090 A  
BRANCH   6   9
HETATM    9  C   UNL     1     -11.750   9.177  71.286  1.00  0.00    -0.396 C  
HETATM   10  C   UNL     1     -11.323   8.224  70.445  1.00  0.00    -0.177 C  
BRANCH  10  11
HETATM   11  C   UNL     1     -10.976   6.878  70.952  1.00  0.00    -0.253 C  
HETATM   12  O   UNL     1     -11.274   6.429  72.046  1.00  0.00    -0.253 OA 
BRANCH  11  13
HETATM   13  O   UNL     1     -10.086   6.349  70.073  1.00  0.00    -0.167 OA 
BRANCH  13  14
HETATM   14  C   UNL     1      -8.718   6.537  70.450  1.00  0.00    -0.147 C  
BRANCH  14  15
HETATM   15  C   UNL     1      -7.933   7.356  69.431  1.00  0.00    -0.124 C  
HETATM   16  C   UNL     1      -8.067   8.870  69.698  1.00  0.00    -0.104 C  
HETATM   17  C   UNL     1      -7.525   9.272  71.073  1.00  0.00    -0.091 C  
HETATM   18  C   UNL     1      -7.357   9.679  68.612  1.00  0.00    -0.074 C  
ENDBRANCH  14  15
ENDBRANCH  13  14
ENDBRANCH  11  13
ENDBRANCH  10  11
ENDBRANCH   6   9
ENDBRANCH   2   3
TORSDOF 6
ENDMDL
MODEL      166
REMARK 921   NORMALIZED FREE ENERGY PREDICTED BY IDOCK:   -3.39 KCAL/MOL
REMARK 922        TOTAL FREE ENERGY PREDICTED BY IDOCK:   -5.36 KCAL/MOL
REMARK 923 INTER-LIGAND FREE ENERGY PREDICTED BY IDOCK:   -4.99 KCAL/MOL
REMARK 924 INTRA-LIGAND FREE ENERGY PREDICTED BY IDOCK:   -0.36 KCAL/MOL
REMARK 927      BINDING AFFINITY PREDICTED BY RF-SCORE:    0.00 PKD
ROOT
HETATM    1  C   UNL     1      -8.588   6.753  65.673  1.00  0.00    -0.117 C  
HETATM    2  O   UNL     1      -8.373   7.822  64.756  1.00  0.00    -0.130 OA 
ENDROOT
BRANCH   2   3
HETATM    3  C   UNL     1      -8.730   9.059  65.220  1.00  0.00    -0.193 A  
HETATM    4  C   UNL     1      -8.043   9.511  66.345  1.00  0.00    -0.111 A  
HETATM    5  C   UNL     1      -8.354  10.751  66.913  1.00  0.00    -0.132 A  
HETATM    6  C   UNL     1      -9.332  11.572  66.343  1.00  0.00    -0.222 A  
HETATM    7  C   UNL     1      -9.995  11.121  65.192  1.00  0.00    -0.323 A  
HETATM    8  C   UNL     1      -9.691   9.877  64.628  1.00  0.00    -0.265 A  
BRANCH   6   9
HETATM    9  C   UNL     1      -9.717  12.817  67.016  1.00  0.00    -0.224 C  
HETATM   10  C   UNL     1     -10.752  13.580  66.638  1.00  0.00    -0.282 C  
BRANCH  10  11
HETATM   11  C   UNL     1     -11.229  14.680  67.506  1.00  0.00    -0.333 C  
HETATM   12  O   UNL     1     -12.239  14.663  68.189  1.00  0.00    -0.216 OA 
BRANCH  11  13
HETATM   13  O   UNL     1     -10.462  15.764  67.217  1.00  0.00    -0.294 OA 
BRANCH  13  14
HETATM   14  C   UNL     1     -10.679  16.875  68.092  1.00  0.00    -0.375 C  
BRANCH  14  15
HETATM   15  C   UNL     1     -10.550  18.219  67.382  1.00  0.00    -0.425 C  
HETATM   16  C   UNL     1      -9.737  19.227  68.222  1.00  0.00    -0.459 C  
HETATM   17  C   UNL     1      -8.307  18.749  68.487  1.00  0.00    -0.379 C  
HETATM   18  C   UNL     1      -9.702  20.596  67.542  1.00  0.00    -0.509 C  
ENDBRANCH  14  15
ENDBRANCH  13  14
ENDBRANCH  11  13
ENDBRANCH  10  11
ENDBRANCH   6   9
ENDBRANCH   2   3
TORSDOF 6
ENDMDL
MODEL      167
REMARK 921   NORMALIZED FREE ENERGY PREDICTED BY IDOCK:   -3.37 KCAL/MOL
REMARK 922        TOTAL FREE ENERGY PREDICTED BY IDOCK:   -5.34 KCAL/MOL
REMARK 923 INTER-LIGAND FREE ENERGY PREDICTED BY IDOCK:   -4.74 KCAL/MOL
REMARK 924 INTRA-LIGAND FREE ENERGY PREDICTED BY IDOCK:   -0.59 KCAL/MOL
REMARK 927      BINDING AFFINITY PREDICTED BY RF-SCORE:    0.00 PKD
ROOT
HETATM    1  C   UNL     1     -12.265  14.602  64.445  1.00  0.00    -0.452 C  
HETATM    2  O   UNL     1     -11.811  13.425  63.783  1.00  0.00    -0.446 OA 
ENDROOT
BRANCH   2   3
HETATM    3  C   UNL     1     -11.343  12.442  64.613  1.00  0.00    -0.315 A  
HETATM    4  C   UNL     1     -11.670  12.573  65.961  1.00  0.00    -0.472 A  
HETATM    5  C   UNL     1     -11.216  11.635  66.894  1.00  0.00    -0.376 A  
HETATM    6  C   UNL     1     -10.457  10.534  66.487  1.00  0.00    -0.276 A  
HETATM    7  C   UNL     1     -10.160  10.395  65.122  1.00  0.00    -0.379 A  
HETATM    8  C   UNL     1     -10.606  11.336  64.190  1.00  0.00    -0.437 A  
BRANCH   6   9
HETATM    9  C   UNL     1      -9.901   9.624  67.494  1.00  0.00    -0.213 C  
HETATM   10  C   UNL     1     -10.593   9.160  68.543  1.00  0.00    -0.209 C  
BRANCH  10  11
HETATM   11  C   UNL     1     -10.051   8.060  69.372  1.00  0.00    -0.197 C  
HETATM   12  O   UNL     1     -10.222   7.920  70.571  1.00  0.00    -0.196 OA 
BRANCH  11  13
HETATM   13  O   UNL     1      -9.159   7.391  68.596  1.00  0.00    -0.135 OA 
BRANCH  13  14
HETATM   14  C   UNL     1      -9.538   6.041  68.312  1.00  0.00    -0.119 C  
BRANCH  14  15
HETATM   15  C   UNL     1      -9.690   5.772  66.819  1.00  0.00    -0.172 C  
HETATM   16  C   UNL     1      -8.369   5.275  66.196  1.00  0.00    -0.115 C  
HETATM   17  C   UNL     1      -7.888   3.960  66.816  1.00  0.00    -0.089 C  
HETATM   18  C   UNL     1      -8.512   5.106  64.683  1.00  0.00    -0.146 C  
ENDBRANCH  14  15
ENDBRANCH  13  14
ENDBRANCH  11  13
ENDBRANCH  10  11
ENDBRANCH   6   9
ENDBRANCH   2   3
TORSDOF 6
ENDMDL
MODEL      168
REMARK 921   NORMALIZED FREE ENERGY PREDICTED BY IDOCK:   -3.31 KCAL/MOL
REMARK 922        TOTAL FREE ENERGY PREDICTED BY IDOCK:   -5.25 KCAL/MOL
REMARK 923 INTER-LIGAND FREE ENERGY PREDICTED BY IDOCK:   -4.58 KCAL/MOL
REMARK 924 INTRA-LIGAND FREE ENERGY PREDICTED BY IDOCK:   -0.67 KCAL/MOL
REMARK 927      BINDING AFFINITY PREDICTED BY RF-SCORE:    0.00 PKD
ROOT
HETATM    1  C   UNL     1     -10.677   4.709  73.355  1.00  0.00    -0.253 C  
HETATM    2  O   UNL     1     -11.758   5.406  72.741  1.00  0.00    -0.295 OA 
ENDROOT
BRANCH   2   3
HETATM    3  C   UNL     1     -11.407   6.557  72.090  1.00  0.00    -0.282 A  
HETATM    4  C   UNL     1     -11.317   6.472  70.703  1.00  0.00    -0.409 A  
HETATM    5  C   UNL     1     -10.937   7.587  69.948  1.00  0.00    -0.223 A  
HETATM    6  C   UNL     1     -10.675   8.813  70.569  1.00  0.00    -0.259 A  
HETATM    7  C   UNL     1     -10.799   8.896  71.964  1.00  0.00    -0.404 A  
HETATM    8  C   UNL     1     -11.170   7.779  72.720  1.00  0.00    -0.456 A  
BRANCH   6   9
HETATM    9  C   UNL     1     -10.175   9.937  69.771  1.00  0.00    -0.278 C  
HETATM   10  C   UNL     1     -10.689  10.299  68.587  1.00  0.00    -0.255 C  
BRANCH  10  11
HETATM   11  C   UNL     1     -10.300  11.584  67.962  1.00  0.00    -0.190 C  
HETATM   12  O   UNL     1     -10.004  12.605  68.558  1.00  0.00    -0.219 OA 
BRANCH  11  13
HETATM   13  O   UNL     1     -10.558  11.463  66.634  1.00  0.00    -0.237 OA 
BRANCH  13  14
HETATM   14  C   UNL     1     -10.390  10.134  66.130  1.00  0.00    -0.167 C  
BRANCH  14  15
HETATM   15  C   UNL     1      -9.354  10.053  65.015  1.00  0.00    -0.314 C  
HETATM   16  C   UNL     1      -7.948   9.743  65.570  1.00  0.00    -0.123 C  
HETATM   17  C   UNL     1      -7.891   8.398  66.301  1.00  0.00    -0.098 C  
HETATM   18  C   UNL     1      -6.906   9.762  64.452  1.00  0.00    -0.119 C  
ENDBRANCH  14  15
ENDBRANCH  13  14
ENDBRANCH  11  13
ENDBRANCH  10  11
ENDBRANCH   6   9
ENDBRANCH   2   3
TORSDOF 6
ENDMDL
MODEL      169
REMARK 921   NORMALIZED FREE ENERGY PREDICTED BY IDOCK:   -3.31 KCAL/MOL
REMARK 922        TOTAL FREE ENERGY PREDICTED BY IDOCK:   -5.25 KCAL/MOL
REMARK 923 INTER-LIGAND FREE ENERGY PREDICTED BY IDOCK:   -4.71 KCAL/MOL
REMARK 924 INTRA-LIGAND FREE ENERGY PREDICTED BY IDOCK:   -0.54 KCAL/MOL
REMARK 927      BINDING AFFINITY PREDICTED BY RF-SCORE:    0.00 PKD
ROOT
HETATM    1  C   UNL     1     -12.407  14.458  65.094  1.00  0.00    -0.381 C  
HETATM    2  O   UNL     1     -11.252  14.148  64.319  1.00  0.00    -0.312 OA 
ENDROOT
BRANCH   2   3
HETATM    3  C   UNL     1     -10.795  12.865  64.454  1.00  0.00    -0.380 A  
HETATM    4  C   UNL     1     -10.805  12.345  65.747  1.00  0.00    -0.312 A  
HETATM    5  C   UNL     1     -10.332  11.052  65.994  1.00  0.00    -0.311 A  
HETATM    6  C   UNL     1      -9.874  10.248  64.946  1.00  0.00    -0.404 A  
HETATM    7  C   UNL     1      -9.898  10.769  63.643  1.00  0.00    -0.406 A  
HETATM    8  C   UNL     1     -10.363  12.065  63.397  1.00  0.00    -0.468 A  
BRANCH   6   9
HETATM    9  C   UNL     1      -9.283   8.938  65.241  1.00  0.00    -0.158 C  
HETATM   10  C   UNL     1      -9.464   8.281  66.395  1.00  0.00    -0.287 C  
BRANCH  10  11
HETATM   11  C   UNL     1      -9.046   6.867  66.526  1.00  0.00    -0.155 C  
HETATM   12  O   UNL     1      -9.716   5.894  66.222  1.00  0.00    -0.154 OA 
BRANCH  11  13
HETATM   13  O   UNL     1      -7.895   6.867  67.246  1.00  0.00    -0.106 OA 
BRANCH  13  14
HETATM   14  C   UNL     1      -7.836   7.894  68.242  1.00  0.00    -0.120 C  
BRANCH  14  15
HETATM   15  C   UNL     1      -8.202   7.387  69.633  1.00  0.00    -0.130 C  
HETATM   16  C   UNL     1      -8.484   8.553  70.604  1.00  0.00    -0.158 C  
HETATM   17  C   UNL     1      -9.659   9.423  70.147  1.00  0.00    -0.275 C  
HETATM   18  C   UNL     1      -8.751   8.032  72.016  1.00  0.00    -0.197 C  
ENDBRANCH  14  15
ENDBRANCH  13  14
ENDBRANCH  11  13
ENDBRANCH  10  11
ENDBRANCH   6   9
ENDBRANCH   2   3
TORSDOF 6
ENDMDL
MODEL      170
REMARK 921   NORMALIZED FREE ENERGY PREDICTED BY IDOCK:   -3.30 KCAL/MOL
REMARK 922        TOTAL FREE ENERGY PREDICTED BY IDOCK:   -5.24 KCAL/MOL
REMARK 923 INTER-LIGAND FREE ENERGY PREDICTED BY IDOCK:   -5.04 KCAL/MOL
REMARK 924 INTRA-LIGAND FREE ENERGY PREDICTED BY IDOCK:   -0.19 KCAL/MOL
REMARK 927      BINDING AFFINITY PREDICTED BY RF-SCORE:    0.00 PKD
ROOT
HETATM    1  C   UNL     1      -9.831   3.862  72.132  1.00  0.00    -0.166 C  
HETATM    2  O   UNL     1     -10.581   4.820  72.874  1.00  0.00    -0.196 OA 
ENDROOT
BRANCH   2   3
HETATM    3  C   UNL     1     -10.926   5.946  72.178  1.00  0.00    -0.266 A  
HETATM    4  C   UNL     1     -10.982   7.128  72.915  1.00  0.00    -0.359 A  
HETATM    5  C   UNL     1     -11.351   8.329  72.301  1.00  0.00    -0.446 A  
HETATM    6  C   UNL     1     -11.636   8.372  70.933  1.00  0.00    -0.288 A  
HETATM    7  C   UNL     1     -11.546   7.183  70.193  1.00  0.00    -0.211 A  
HETATM    8  C   UNL     1     -11.186   5.980  70.809  1.00  0.00    -0.340 A  
BRANCH   6   9
HETATM    9  C   UNL     1     -12.125   9.618  70.333  1.00  0.00    -0.115 C  
HETATM   10  C   UNL     1     -11.334  10.648  70.002  1.00  0.00    -0.400 C  
BRANCH  10  11
HETATM   11  C   UNL     1     -11.857  11.762  69.180  1.00  0.00    -0.326 C  
HETATM   12  O   UNL     1     -12.095  12.890  69.577  1.00  0.00    -0.285 OA 
BRANCH  11  13
HETATM   13  O   UNL     1     -12.227  11.225  67.988  1.00  0.00    -0.621 OA 
BRANCH  13  14
HETATM   14  C   UNL     1     -11.241  11.364  66.960  1.00  0.00    -0.283 C  
BRANCH  14  15
HETATM   15  C   UNL     1      -9.867  10.860  67.390  1.00  0.00    -0.199 C  
HETATM   16  C   UNL     1      -9.870   9.334  67.617  1.00  0.00    -0.221 C  
HETATM   17  C   UNL     1     -10.230   8.554  66.349  1.00  0.00    -0.193 C  
HETATM   18  C   UNL     1      -8.514   8.861  68.141  1.00  0.00    -0.129 C  
ENDBRANCH  14  15
ENDBRANCH  13  14
ENDBRANCH  11  13
ENDBRANCH  10  11
ENDBRANCH   6   9
ENDBRANCH   2   3
TORSDOF 6
ENDMDL
MODEL      171
REMARK 921   NORMALIZED FREE ENERGY PREDICTED BY IDOCK:   -3.30 KCAL/MOL
REMARK 922        TOTAL FREE ENERGY PREDICTED BY IDOCK:   -5.24 KCAL/MOL
REMARK 923 INTER-LIGAND FREE ENERGY PREDICTED BY IDOCK:   -4.24 KCAL/MOL
REMARK 924 INTRA-LIGAND FREE ENERGY PREDICTED BY IDOCK:   -1.00 KCAL/MOL
REMARK 927      BINDING AFFINITY PREDICTED BY RF-SCORE:    0.00 PKD
ROOT
HETATM    1  C   UNL     1     -11.808  12.465  68.561  1.00  0.00    -0.304 C  
HETATM    2  O   UNL     1     -11.672  11.390  67.635  1.00  0.00    -0.546 OA 
ENDROOT
BRANCH   2   3
HETATM    3  C   UNL     1     -11.161  10.236  68.163  1.00  0.00    -0.264 A  
HETATM    4  C   UNL     1     -10.583   9.352  67.254  1.00  0.00    -0.314 A  
HETATM    5  C   UNL     1     -10.056   8.131  67.691  1.00  0.00    -0.267 A  
HETATM    6  C   UNL     1     -10.070   7.794  69.048  1.00  0.00    -0.198 A  
HETATM    7  C   UNL     1     -10.625   8.706  69.959  1.00  0.00    -0.233 A  
HETATM    8  C   UNL     1     -11.160   9.922  69.521  1.00  0.00    -0.255 A  
BRANCH   6   9
HETATM    9  C   UNL     1      -9.611   6.466  69.470  1.00  0.00    -0.154 C  
HETATM   10  C   UNL     1     -10.209   5.322  69.110  1.00  0.00    -0.281 C  
BRANCH  10  11
HETATM   11  C   UNL     1      -9.552   4.020  69.366  1.00  0.00    -0.187 C  
HETATM   12  O   UNL     1      -9.696   3.007  68.704  1.00  0.00    -0.095 OA 
BRANCH  11  13
HETATM   13  O   UNL     1      -8.958   4.117  70.584  1.00  0.00    -0.085 OA 
BRANCH  13  14
HETATM   14  C   UNL     1      -9.691   3.482  71.637  1.00  0.00    -0.163 C  
BRANCH  14  15
HETATM   15  C   UNL     1      -9.621   4.251  72.952  1.00  0.00    -0.159 C  
HETATM   16  C   UNL     1     -10.409   5.575  72.876  1.00  0.00    -0.227 C  
HETATM   17  C   UNL     1     -11.898   5.354  72.593  1.00  0.00    -0.145 C  
HETATM   18  C   UNL     1     -10.247   6.379  74.166  1.00  0.00    -0.361 C  
ENDBRANCH  14  15
ENDBRANCH  13  14
ENDBRANCH  11  13
ENDBRANCH  10  11
ENDBRANCH   6   9
ENDBRANCH   2   3
TORSDOF 6
ENDMDL
MODEL      172
REMARK 921   NORMALIZED FREE ENERGY PREDICTED BY IDOCK:   -3.29 KCAL/MOL
REMARK 922        TOTAL FREE ENERGY PREDICTED BY IDOCK:   -5.22 KCAL/MOL
REMARK 923 INTER-LIGAND FREE ENERGY PREDICTED BY IDOCK:   -4.67 KCAL/MOL
REMARK 924 INTRA-LIGAND FREE ENERGY PREDICTED BY IDOCK:   -0.55 KCAL/MOL
REMARK 927      BINDING AFFINITY PREDICTED BY RF-SCORE:    0.00 PKD
ROOT
HETATM    1  C   UNL     1      -9.395  20.293  67.172  1.00  0.00    -0.405 C  
HETATM    2  O   UNL     1      -9.183  19.731  68.464  1.00  0.00    -0.332 OA 
ENDROOT
BRANCH   2   3
HETATM    3  C   UNL     1      -9.212  18.363  68.509  1.00  0.00    -0.328 A  
HETATM    4  C   UNL     1      -7.974  17.726  68.568  1.00  0.00    -0.294 A  
HETATM    5  C   UNL     1      -7.897  16.330  68.589  1.00  0.00    -0.202 A  
HETATM    6  C   UNL     1      -9.058  15.551  68.587  1.00  0.00    -0.202 A  
HETATM    7  C   UNL     1     -10.300  16.203  68.560  1.00  0.00    -0.254 A  
HETATM    8  C   UNL     1     -10.378  17.599  68.529  1.00  0.00    -0.370 A  
BRANCH   6   9
HETATM    9  C   UNL     1      -8.952  14.091  68.500  1.00  0.00    -0.160 C  
HETATM   10  C   UNL     1      -8.045  13.452  67.748  1.00  0.00    -0.173 C  
BRANCH  10  11
HETATM   11  C   UNL     1      -7.837  11.994  67.901  1.00  0.00    -0.144 C  
HETATM   12  O   UNL     1      -7.550  11.420  68.937  1.00  0.00    -0.124 OA 
BRANCH  11  13
HETATM   13  O   UNL     1      -7.800  11.473  66.647  1.00  0.00    -0.154 OA 
BRANCH  13  14
HETATM   14  C   UNL     1      -9.070  11.468  65.986  1.00  0.00    -0.198 C  
BRANCH  14  15
HETATM   15  C   UNL     1      -9.635  10.063  65.805  1.00  0.00    -0.291 C  
HETATM   16  C   UNL     1     -10.062   9.448  67.154  1.00  0.00    -0.292 C  
HETATM   17  C   UNL     1     -11.160  10.260  67.847  1.00  0.00    -0.341 C  
HETATM   18  C   UNL     1     -10.533   8.005  66.969  1.00  0.00    -0.410 C  
ENDBRANCH  14  15
ENDBRANCH  13  14
ENDBRANCH  11  13
ENDBRANCH  10  11
ENDBRANCH   6   9
ENDBRANCH   2   3
TORSDOF 6
ENDMDL
MODEL      173
REMARK 921   NORMALIZED FREE ENERGY PREDICTED BY IDOCK:   -3.28 KCAL/MOL
REMARK 922        TOTAL FREE ENERGY PREDICTED BY IDOCK:   -5.21 KCAL/MOL
REMARK 923 INTER-LIGAND FREE ENERGY PREDICTED BY IDOCK:   -4.36 KCAL/MOL
REMARK 924 INTRA-LIGAND FREE ENERGY PREDICTED BY IDOCK:   -0.85 KCAL/MOL
REMARK 927      BINDING AFFINITY PREDICTED BY RF-SCORE:    0.00 PKD
ROOT
HETATM    1  C   UNL     1     -12.814  14.568  71.297  1.00  0.00    -0.332 C  
HETATM    2  O   UNL     1     -12.545  14.761  69.911  1.00  0.00    -0.273 OA 
ENDROOT
BRANCH   2   3
HETATM    3  C   UNL     1     -12.078  13.655  69.255  1.00  0.00    -0.314 A  
HETATM    4  C   UNL     1     -12.030  12.477  69.999  1.00  0.00    -0.372 A  
HETATM    5  C   UNL     1     -11.542  11.298  69.427  1.00  0.00    -0.390 A  
HETATM    6  C   UNL     1     -11.126  11.271  68.092  1.00  0.00    -0.319 A  
HETATM    7  C   UNL     1     -11.208  12.455  67.343  1.00  0.00    -0.351 A  
HETATM    8  C   UNL     1     -11.688  13.637  67.916  1.00  0.00    -0.395 A  
BRANCH   6   9
HETATM    9  C   UNL     1     -10.518  10.054  67.546  1.00  0.00    -0.307 C  
HETATM   10  C   UNL     1     -10.116   9.927  66.274  1.00  0.00    -0.311 C  
BRANCH  10  11
HETATM   11  C   UNL     1      -9.291   8.769  65.860  1.00  0.00    -0.218 C  
HETATM   12  O   UNL     1      -9.444   7.617  66.229  1.00  0.00    -0.176 OA 
BRANCH  11  13
HETATM   13  O   UNL     1      -8.222   9.273  65.191  1.00  0.00    -0.127 OA 
BRANCH  13  14
HETATM   14  C   UNL     1      -7.035   9.366  65.985  1.00  0.00    -0.090 C  
BRANCH  14  15
HETATM   15  C   UNL     1      -6.741  10.791  66.441  1.00  0.00    -0.131 C  
HETATM   16  C   UNL     1      -7.347  11.075  67.832  1.00  0.00    -0.092 C  
HETATM   17  C   UNL     1      -6.777  10.157  68.917  1.00  0.00    -0.053 C  
HETATM   18  C   UNL     1      -7.130  12.535  68.231  1.00  0.00    -0.104 C  
ENDBRANCH  14  15
ENDBRANCH  13  14
ENDBRANCH  11  13
ENDBRANCH  10  11
ENDBRANCH   6   9
ENDBRANCH   2   3
TORSDOF 6
ENDMDL
MODEL      174
REMARK 921   NORMALIZED FREE ENERGY PREDICTED BY IDOCK:   -3.27 KCAL/MOL
REMARK 922        TOTAL FREE ENERGY PREDICTED BY IDOCK:   -5.20 KCAL/MOL
REMARK 923 INTER-LIGAND FREE ENERGY PREDICTED BY IDOCK:   -4.81 KCAL/MOL
REMARK 924 INTRA-LIGAND FREE ENERGY PREDICTED BY IDOCK:   -0.39 KCAL/MOL
REMARK 927      BINDING AFFINITY PREDICTED BY RF-SCORE:    0.00 PKD
ROOT
HETATM    1  C   UNL     1     -10.035   2.985  64.925  1.00  0.00     0.097 C  
HETATM    2  O   UNL     1      -8.986   3.711  65.558  1.00  0.00    -0.126 OA 
ENDROOT
BRANCH   2   3
HETATM    3  C   UNL     1      -9.295   4.209  66.795  1.00  0.00    -0.176 A  
HETATM    4  C   UNL     1     -10.242   5.230  66.824  1.00  0.00    -0.287 A  
HETATM    5  C   UNL     1     -10.606   5.824  68.037  1.00  0.00    -0.295 A  
HETATM    6  C   UNL     1     -10.052   5.382  69.242  1.00  0.00    -0.301 A  
HETATM    7  C   UNL     1      -9.122   4.331  69.205  1.00  0.00    -0.185 A  
HETATM    8  C   UNL     1      -8.751   3.743  67.992  1.00  0.00    -0.125 A  
BRANCH   6   9
HETATM    9  C   UNL     1     -10.365   6.089  70.488  1.00  0.00    -0.279 C  
HETATM   10  C   UNL     1     -11.576   6.584  70.781  1.00  0.00    -0.437 C  
BRANCH  10  11
HETATM   11  C   UNL     1     -11.880   7.062  72.149  1.00  0.00    -0.275 C  
HETATM   12  O   UNL     1     -11.416   6.609  73.181  1.00  0.00    -0.078 OA 
BRANCH  11  13
HETATM   13  O   UNL     1     -12.924   7.923  72.036  1.00  0.00    -0.302 OA 
BRANCH  13  14
HETATM   14  C   UNL     1     -12.588   9.159  71.398  1.00  0.00    -0.323 C  
BRANCH  14  15
HETATM   15  C   UNL     1     -13.530  10.296  71.781  1.00  0.00    -0.387 C  
HETATM   16  C   UNL     1     -12.793  11.650  71.829  1.00  0.00    -0.418 C  
HETATM   17  C   UNL     1     -12.190  12.037  70.475  1.00  0.00    -0.414 C  
HETATM   18  C   UNL     1     -13.727  12.761  72.309  1.00  0.00    -0.495 C  
ENDBRANCH  14  15
ENDBRANCH  13  14
ENDBRANCH  11  13
ENDBRANCH  10  11
ENDBRANCH   6   9
ENDBRANCH   2   3
TORSDOF 6
ENDMDL
MODEL      175
REMARK 921   NORMALIZED FREE ENERGY PREDICTED BY IDOCK:   -3.26 KCAL/MOL
REMARK 922        TOTAL FREE ENERGY PREDICTED BY IDOCK:   -5.18 KCAL/MOL
REMARK 923 INTER-LIGAND FREE ENERGY PREDICTED BY IDOCK:   -4.72 KCAL/MOL
REMARK 924 INTRA-LIGAND FREE ENERGY PREDICTED BY IDOCK:   -0.47 KCAL/MOL
REMARK 927      BINDING AFFINITY PREDICTED BY RF-SCORE:    0.00 PKD
ROOT
HETATM    1  C   UNL     1      -9.082   4.465  67.514  1.00  0.00    -0.129 C  
HETATM    2  O   UNL     1     -10.397   4.947  67.778  1.00  0.00    -0.106 OA 
ENDROOT
BRANCH   2   3
HETATM    3  C   UNL     1     -10.467   6.272  68.112  1.00  0.00    -0.226 A  
HETATM    4  C   UNL     1     -10.581   7.166  67.049  1.00  0.00    -0.413 A  
HETATM    5  C   UNL     1     -10.633   8.544  67.284  1.00  0.00    -0.315 A  
HETATM    6  C   UNL     1     -10.606   9.046  68.589  1.00  0.00    -0.194 A  
HETATM    7  C   UNL     1     -10.523   8.136  69.654  1.00  0.00    -0.224 A  
HETATM    8  C   UNL     1     -10.463   6.759  69.419  1.00  0.00    -0.244 A  
BRANCH   6   9
HETATM    9  C   UNL     1     -10.551  10.495  68.808  1.00  0.00    -0.233 C  
HETATM   10  C   UNL     1     -11.544  11.336  68.485  1.00  0.00    -0.384 C  
BRANCH  10  11
HETATM   11  C   UNL     1     -11.522  12.738  68.958  1.00  0.00    -0.309 C  
HETATM   12  O   UNL     1     -12.111  13.171  69.933  1.00  0.00    -0.314 OA 
BRANCH  11  13
HETATM   13  O   UNL     1     -10.922  13.468  67.982  1.00  0.00    -0.239 OA 
BRANCH  13  14
HETATM   14  C   UNL     1      -9.675  14.049  68.378  1.00  0.00    -0.223 C  
BRANCH  14  15
HETATM   15  C   UNL     1      -9.406  15.387  67.698  1.00  0.00    -0.203 C  
HETATM   16  C   UNL     1     -10.589  16.361  67.876  1.00  0.00    -0.320 C  
HETATM   17  C   UNL     1     -10.866  16.682  69.347  1.00  0.00    -0.295 C  
HETATM   18  C   UNL     1     -10.346  17.659  67.106  1.00  0.00    -0.343 C  
ENDBRANCH  14  15
ENDBRANCH  13  14
ENDBRANCH  11  13
ENDBRANCH  10  11
ENDBRANCH   6   9
ENDBRANCH   2   3
TORSDOF 6
ENDMDL
MODEL      176
REMARK 921   NORMALIZED FREE ENERGY PREDICTED BY IDOCK:   -3.24 KCAL/MOL
REMARK 922        TOTAL FREE ENERGY PREDICTED BY IDOCK:   -5.17 KCAL/MOL
REMARK 923 INTER-LIGAND FREE ENERGY PREDICTED BY IDOCK:   -4.78 KCAL/MOL
REMARK 924 INTRA-LIGAND FREE ENERGY PREDICTED BY IDOCK:   -0.38 KCAL/MOL
REMARK 927      BINDING AFFINITY PREDICTED BY RF-SCORE:    0.00 PKD
ROOT
HETATM    1  C   UNL     1      -9.630   4.556  68.897  1.00  0.00    -0.166 C  
HETATM    2  O   UNL     1     -10.242   5.252  67.814  1.00  0.00    -0.177 OA 
ENDROOT
BRANCH   2   3
HETATM    3  C   UNL     1     -10.389   6.599  68.005  1.00  0.00    -0.191 A  
HETATM    4  C   UNL     1     -10.389   7.033  69.330  1.00  0.00    -0.210 A  
HETATM    5  C   UNL     1     -10.561   8.388  69.631  1.00  0.00    -0.219 A  
HETATM    6  C   UNL     1     -10.700   9.334  68.611  1.00  0.00    -0.180 A  
HETATM    7  C   UNL     1     -10.666   8.891  67.280  1.00  0.00    -0.219 A  
HETATM    8  C   UNL     1     -10.503   7.535  66.978  1.00  0.00    -0.409 A  
BRANCH   6   9
HETATM    9  C   UNL     1     -10.987  10.731  68.951  1.00  0.00    -0.289 C  
HETATM   10  C   UNL     1     -10.309  11.775  68.452  1.00  0.00    -0.223 C  
BRANCH  10  11
HETATM   11  C   UNL     1     -10.809  13.154  68.644  1.00  0.00    -0.259 C  
HETATM   12  O   UNL     1     -10.695  14.071  67.849  1.00  0.00    -0.236 OA 
BRANCH  11  13
HETATM   13  O   UNL     1     -11.201  13.249  69.942  1.00  0.00    -0.069 OA 
BRANCH  13  14
HETATM   14  C   UNL     1     -12.566  13.646  70.106  1.00  0.00    -0.151 C  
BRANCH  14  15
HETATM   15  C   UNL     1     -12.905  14.007  71.549  1.00  0.00    -0.440 C  
HETATM   16  C   UNL     1     -11.907  15.033  72.124  1.00  0.00    -0.448 C  
HETATM   17  C   UNL     1     -11.909  16.352  71.345  1.00  0.00    -0.234 C  
HETATM   18  C   UNL     1     -12.202  15.309  73.599  1.00  0.00    -0.662 C  
ENDBRANCH  14  15
ENDBRANCH  13  14
ENDBRANCH  11  13
ENDBRANCH  10  11
ENDBRANCH   6   9
ENDBRANCH   2   3
TORSDOF 6
ENDMDL
MODEL      177
REMARK 921   NORMALIZED FREE ENERGY PREDICTED BY IDOCK:   -3.24 KCAL/MOL
REMARK 922        TOTAL FREE ENERGY PREDICTED BY IDOCK:   -5.16 KCAL/MOL
REMARK 923 INTER-LIGAND FREE ENERGY PREDICTED BY IDOCK:   -4.60 KCAL/MOL
REMARK 924 INTRA-LIGAND FREE ENERGY PREDICTED BY IDOCK:   -0.56 KCAL/MOL
REMARK 927      BINDING AFFINITY PREDICTED BY RF-SCORE:    0.00 PKD
ROOT
HETATM    1  C   UNL     1     -13.308   7.069  71.615  1.00  0.00    -0.285 C  
HETATM    2  O   UNL     1     -12.102   6.530  71.079  1.00  0.00    -0.352 OA 
ENDROOT
BRANCH   2   3
HETATM    3  C   UNL     1     -11.324   7.427  70.398  1.00  0.00    -0.249 A  
HETATM    4  C   UNL     1     -11.122   8.657  71.020  1.00  0.00    -0.316 A  
HETATM    5  C   UNL     1     -10.363   9.652  70.392  1.00  0.00    -0.350 A  
HETATM    6  C   UNL     1      -9.768   9.416  69.149  1.00  0.00    -0.165 A  
HETATM    7  C   UNL     1      -9.952   8.163  68.546  1.00  0.00    -0.204 A  
HETATM    8  C   UNL     1     -10.717   7.171  69.169  1.00  0.00    -0.216 A  
BRANCH   6   9
HETATM    9  C   UNL     1      -9.069  10.507  68.462  1.00  0.00    -0.154 C  
HETATM   10  C   UNL     1      -9.443  11.793  68.530  1.00  0.00    -0.165 C  
BRANCH  10  11
HETATM   11  C   UNL     1      -8.554  12.860  68.019  1.00  0.00    -0.186 C  
HETATM   12  O   UNL     1      -7.336  12.816  67.981  1.00  0.00    -0.093 OA 
BRANCH  11  13
HETATM   13  O   UNL     1      -9.334  13.955  67.824  1.00  0.00    -0.191 OA 
BRANCH  13  14
HETATM   14  C   UNL     1      -9.210  14.528  66.518  1.00  0.00    -0.255 C  
BRANCH  14  15
HETATM   15  C   UNL     1     -10.529  15.083  65.991  1.00  0.00    -0.326 C  
HETATM   16  C   UNL     1     -11.111  14.193  64.873  1.00  0.00    -0.389 C  
HETATM   17  C   UNL     1     -11.411  12.771  65.354  1.00  0.00    -0.363 C  
HETATM   18  C   UNL     1     -12.379  14.815  64.288  1.00  0.00    -0.345 C  
ENDBRANCH  14  15
ENDBRANCH  13  14
ENDBRANCH  11  13
ENDBRANCH  10  11
ENDBRANCH   6   9
ENDBRANCH   2   3
TORSDOF 6
ENDMDL
MODEL      178
REMARK 921   NORMALIZED FREE ENERGY PREDICTED BY IDOCK:   -3.24 KCAL/MOL
REMARK 922        TOTAL FREE ENERGY PREDICTED BY IDOCK:   -5.16 KCAL/MOL
REMARK 923 INTER-LIGAND FREE ENERGY PREDICTED BY IDOCK:   -4.40 KCAL/MOL
REMARK 924 INTRA-LIGAND FREE ENERGY PREDICTED BY IDOCK:   -0.76 KCAL/MOL
REMARK 927      BINDING AFFINITY PREDICTED BY RF-SCORE:    0.00 PKD
ROOT
HETATM    1  C   UNL     1     -10.156   4.154  65.237  1.00  0.00    -0.202 C  
HETATM    2  O   UNL     1      -9.263   3.309  65.956  1.00  0.00    -0.153 OA 
ENDROOT
BRANCH   2   3
HETATM    3  C   UNL     1      -9.384   3.369  67.318  1.00  0.00    -0.201 A  
HETATM    4  C   UNL     1      -9.661   4.625  67.853  1.00  0.00    -0.205 A  
HETATM    5  C   UNL     1      -9.777   4.796  69.237  1.00  0.00    -0.266 A  
HETATM    6  C   UNL     1      -9.651   3.705  70.103  1.00  0.00    -0.242 A  
HETATM    7  C   UNL     1      -9.404   2.438  69.551  1.00  0.00    -0.164 A  
HETATM    8  C   UNL     1      -9.280   2.269  68.169  1.00  0.00    -0.247 A  
BRANCH   6   9
HETATM    9  C   UNL     1      -9.668   3.924  71.553  1.00  0.00    -0.247 C  
HETATM   10  C   UNL     1      -9.152   5.007  72.150  1.00  0.00    -0.147 C  
BRANCH  10  11
HETATM   11  C   UNL     1      -9.424   5.277  73.580  1.00  0.00    -0.133 C  
HETATM   12  O   UNL     1      -8.790   4.833  74.522  1.00  0.00    -0.111 OA 
BRANCH  11  13
HETATM   13  O   UNL     1     -10.625   5.908  73.635  1.00  0.00    -0.250 OA 
BRANCH  13  14
HETATM   14  C   UNL     1     -10.532   7.335  73.562  1.00  0.00    -0.374 C  
BRANCH  14  15
HETATM   15  C   UNL     1     -11.248   7.911  72.344  1.00  0.00    -0.409 C  
HETATM   16  C   UNL     1     -10.443   9.062  71.706  1.00  0.00    -0.418 C  
HETATM   17  C   UNL     1      -9.065   8.609  71.214  1.00  0.00    -0.272 C  
HETATM   18  C   UNL     1     -11.218   9.692  70.550  1.00  0.00    -0.359 C  
ENDBRANCH  14  15
ENDBRANCH  13  14
ENDBRANCH  11  13
ENDBRANCH  10  11
ENDBRANCH   6   9
ENDBRANCH   2   3
TORSDOF 6
ENDMDL
MODEL      179
REMARK 921   NORMALIZED FREE ENERGY PREDICTED BY IDOCK:   -3.24 KCAL/MOL
REMARK 922        TOTAL FREE ENERGY PREDICTED BY IDOCK:   -5.16 KCAL/MOL
REMARK 923 INTER-LIGAND FREE ENERGY PREDICTED BY IDOCK:   -4.83 KCAL/MOL
REMARK 924 INTRA-LIGAND FREE ENERGY PREDICTED BY IDOCK:   -0.33 KCAL/MOL
REMARK 927      BINDING AFFINITY PREDICTED BY RF-SCORE:    0.00 PKD
ROOT
HETATM    1  C   UNL     1      -9.725  19.685  66.318  1.00  0.00    -0.423 C  
HETATM    2  O   UNL     1      -8.749  18.687  66.604  1.00  0.00    -0.284 OA 
ENDROOT
BRANCH   2   3
HETATM    3  C   UNL     1      -9.256  17.496  67.049  1.00  0.00    -0.248 A  
HETATM    4  C   UNL     1      -9.043  16.394  66.223  1.00  0.00    -0.362 A  
HETATM    5  C   UNL     1      -9.546  15.137  66.576  1.00  0.00    -0.293 A  
HETATM    6  C   UNL     1     -10.240  14.958  67.777  1.00  0.00    -0.236 A  
HETATM    7  C   UNL     1     -10.422  16.068  68.616  1.00  0.00    -0.251 A  
HETATM    8  C   UNL     1      -9.927  17.327  68.259  1.00  0.00    -0.313 A  
BRANCH   6   9
HETATM    9  C   UNL     1     -10.851  13.659  68.075  1.00  0.00    -0.261 C  
HETATM   10  C   UNL     1     -10.283  12.729  68.855  1.00  0.00    -0.003 C  
BRANCH  10  11
HETATM   11  C   UNL     1     -11.062  11.554  69.309  1.00  0.00    -0.246 C  
HETATM   12  O   UNL     1     -12.276  11.493  69.392  1.00  0.00    -0.289 OA 
BRANCH  11  13
HETATM   13  O   UNL     1     -10.167  10.668  69.819  1.00  0.00    -0.183 OA 
BRANCH  13  14
HETATM   14  C   UNL     1     -10.753   9.435  70.247  1.00  0.00    -0.253 C  
BRANCH  14  15
HETATM   15  C   UNL     1     -10.616   8.326  69.210  1.00  0.00    -0.191 C  
HETATM   16  C   UNL     1     -10.587   6.932  69.873  1.00  0.00    -0.256 C  
HETATM   17  C   UNL     1     -11.870   6.628  70.652  1.00  0.00    -0.443 C  
HETATM   18  C   UNL     1     -10.349   5.840  68.831  1.00  0.00    -0.295 C  
ENDBRANCH  14  15
ENDBRANCH  13  14
ENDBRANCH  11  13
ENDBRANCH  10  11
ENDBRANCH   6   9
ENDBRANCH   2   3
TORSDOF 6
ENDMDL
MODEL      180
REMARK 921   NORMALIZED FREE ENERGY PREDICTED BY IDOCK:   -3.24 KCAL/MOL
REMARK 922        TOTAL FREE ENERGY PREDICTED BY IDOCK:   -5.15 KCAL/MOL
REMARK 923 INTER-LIGAND FREE ENERGY PREDICTED BY IDOCK:   -4.14 KCAL/MOL
REMARK 924 INTRA-LIGAND FREE ENERGY PREDICTED BY IDOCK:   -1.01 KCAL/MOL
REMARK 927      BINDING AFFINITY PREDICTED BY RF-SCORE:    0.00 PKD
ROOT
HETATM    1  C   UNL     1      -7.740   8.210  72.523  1.00  0.00    -0.128 C  
HETATM    2  O   UNL     1      -9.049   8.767  72.432  1.00  0.00    -0.366 OA 
ENDROOT
BRANCH   2   3
HETATM    3  C   UNL     1      -9.455   9.077  71.162  1.00  0.00    -0.278 A  
HETATM    4  C   UNL     1      -8.540   8.814  70.146  1.00  0.00    -0.149 A  
HETATM    5  C   UNL     1      -8.850   9.121  68.816  1.00  0.00    -0.132 A  
HETATM    6  C   UNL     1     -10.094   9.663  68.482  1.00  0.00    -0.195 A  
HETATM    7  C   UNL     1     -11.021   9.894  69.509  1.00  0.00    -0.274 A  
HETATM    8  C   UNL     1     -10.709   9.596  70.839  1.00  0.00    -0.402 A  
BRANCH   6   9
HETATM    9  C   UNL     1     -10.357  10.077  67.099  1.00  0.00    -0.300 C  
HETATM   10  C   UNL     1     -10.300  11.348  66.677  1.00  0.00    -0.272 C  
BRANCH  10  11
HETATM   11  C   UNL     1     -10.332  11.659  65.231  1.00  0.00    -0.269 C  
HETATM   12  O   UNL     1     -10.486  12.766  64.743  1.00  0.00    -0.306 OA 
BRANCH  11  13
HETATM   13  O   UNL     1     -10.387  10.469  64.578  1.00  0.00    -0.348 OA 
BRANCH  13  14
HETATM   14  C   UNL     1      -9.373  10.309  63.581  1.00  0.00    -0.296 C  
BRANCH  14  15
HETATM   15  C   UNL     1      -7.968  10.260  64.172  1.00  0.00    -0.126 C  
HETATM   16  C   UNL     1      -7.728   8.951  64.952  1.00  0.00    -0.112 C  
HETATM   17  C   UNL     1      -7.857   7.709  64.066  1.00  0.00    -0.127 C  
HETATM   18  C   UNL     1      -6.353   8.961  65.621  1.00  0.00    -0.060 C  
ENDBRANCH  14  15
ENDBRANCH  13  14
ENDBRANCH  11  13
ENDBRANCH  10  11
ENDBRANCH   6   9
ENDBRANCH   2   3
TORSDOF 6
ENDMDL
MODEL      181
REMARK 921   NORMALIZED FREE ENERGY PREDICTED BY IDOCK:   -3.22 KCAL/MOL
REMARK 922        TOTAL FREE ENERGY PREDICTED BY IDOCK:   -5.13 KCAL/MOL
REMARK 923 INTER-LIGAND FREE ENERGY PREDICTED BY IDOCK:   -4.72 KCAL/MOL
REMARK 924 INTRA-LIGAND FREE ENERGY PREDICTED BY IDOCK:   -0.41 KCAL/MOL
REMARK 927      BINDING AFFINITY PREDICTED BY RF-SCORE:    0.00 PKD
ROOT
HETATM    1  C   UNL     1     -12.422  13.996  64.913  1.00  0.00    -0.396 C  
HETATM    2  O   UNL     1     -11.181  13.400  64.546  1.00  0.00    -0.342 OA 
ENDROOT
BRANCH   2   3
HETATM    3  C   UNL     1     -10.871  12.252  65.224  1.00  0.00    -0.293 A  
HETATM    4  C   UNL     1     -11.395  12.140  66.510  1.00  0.00    -0.405 A  
HETATM    5  C   UNL     1     -11.114  11.017  67.295  1.00  0.00    -0.359 A  
HETATM    6  C   UNL     1     -10.331   9.973  66.791  1.00  0.00    -0.283 A  
HETATM    7  C   UNL     1      -9.835  10.081  65.483  1.00  0.00    -0.373 A  
HETATM    8  C   UNL     1     -10.109  11.208  64.701  1.00  0.00    -0.358 A  
BRANCH   6   9
HETATM    9  C   UNL     1      -9.960   8.857  67.667  1.00  0.00    -0.248 C  
HETATM   10  C   UNL     1     -10.398   8.719  68.926  1.00  0.00    -0.229 C  
BRANCH  10  11
HETATM   11  C   UNL     1     -10.183   7.452  69.660  1.00  0.00    -0.210 C  
HETATM   12  O   UNL     1     -10.645   6.365  69.356  1.00  0.00    -0.207 OA 
BRANCH  11  13
HETATM   13  O   UNL     1      -9.579   7.779  70.832  1.00  0.00    -0.167 OA 
BRANCH  13  14
HETATM   14  C   UNL     1     -10.306   7.362  71.993  1.00  0.00    -0.193 C  
BRANCH  14  15
HETATM   15  C   UNL     1      -9.501   6.428  72.889  1.00  0.00    -0.150 C  
HETATM   16  C   UNL     1     -10.407   5.393  73.587  1.00  0.00    -0.263 C  
HETATM   17  C   UNL     1     -11.144   4.493  72.590  1.00  0.00    -0.091 C  
HETATM   18  C   UNL     1      -9.600   4.529  74.556  1.00  0.00    -0.153 C  
ENDBRANCH  14  15
ENDBRANCH  13  14
ENDBRANCH  11  13
ENDBRANCH  10  11
ENDBRANCH   6   9
ENDBRANCH   2   3
TORSDOF 6
ENDMDL
MODEL      182
REMARK 921   NORMALIZED FREE ENERGY PREDICTED BY IDOCK:   -3.19 KCAL/MOL
REMARK 922        TOTAL FREE ENERGY PREDICTED BY IDOCK:   -5.10 KCAL/MOL
REMARK 923 INTER-LIGAND FREE ENERGY PREDICTED BY IDOCK:   -4.57 KCAL/MOL
REMARK 924 INTRA-LIGAND FREE ENERGY PREDICTED BY IDOCK:   -0.53 KCAL/MOL
REMARK 927      BINDING AFFINITY PREDICTED BY RF-SCORE:    0.00 PKD
ROOT
HETATM    1  C   UNL     1     -12.260  15.088  64.373  1.00  0.00    -0.337 C  
HETATM    2  O   UNL     1     -12.136  13.856  63.668  1.00  0.00    -0.454 OA 
ENDROOT
BRANCH   2   3
HETATM    3  C   UNL     1     -11.494  12.861  64.355  1.00  0.00    -0.357 A  
HETATM    4  C   UNL     1     -10.686  12.016  63.596  1.00  0.00    -0.506 A  
HETATM    5  C   UNL     1     -10.009  10.952  64.201  1.00  0.00    -0.403 A  
HETATM    6  C   UNL     1     -10.104  10.738  65.579  1.00  0.00    -0.335 A  
HETATM    7  C   UNL     1     -10.894  11.613  66.339  1.00  0.00    -0.333 A  
HETATM    8  C   UNL     1     -11.578  12.672  65.734  1.00  0.00    -0.431 A  
BRANCH   6   9
HETATM    9  C   UNL     1      -9.474   9.554  66.174  1.00  0.00    -0.281 C  
HETATM   10  C   UNL     1     -10.147   8.451  66.529  1.00  0.00    -0.317 C  
BRANCH  10  11
HETATM   11  C   UNL     1      -9.420   7.213  66.889  1.00  0.00    -0.159 C  
HETATM   12  O   UNL     1      -8.825   6.484  66.114  1.00  0.00    -0.146 OA 
BRANCH  11  13
HETATM   13  O   UNL     1      -9.737   6.937  68.181  1.00  0.00    -0.130 OA 
BRANCH  13  14
HETATM   14  C   UNL     1      -8.870   7.559  69.135  1.00  0.00    -0.136 C  
BRANCH  14  15
HETATM   15  C   UNL     1      -7.395   7.325  68.831  1.00  0.00    -0.095 C  
HETATM   16  C   UNL     1      -6.665   8.647  68.516  1.00  0.00    -0.060 C  
HETATM   17  C   UNL     1      -6.705   9.632  69.688  1.00  0.00    -0.054 C  
HETATM   18  C   UNL     1      -5.213   8.385  68.117  1.00  0.00    -0.034 C  
ENDBRANCH  14  15
ENDBRANCH  13  14
ENDBRANCH  11  13
ENDBRANCH  10  11
ENDBRANCH   6   9
ENDBRANCH   2   3
TORSDOF 6
ENDMDL
MODEL      183
REMARK 921   NORMALIZED FREE ENERGY PREDICTED BY IDOCK:   -3.18 KCAL/MOL
REMARK 922        TOTAL FREE ENERGY PREDICTED BY IDOCK:   -5.07 KCAL/MOL
REMARK 923 INTER-LIGAND FREE ENERGY PREDICTED BY IDOCK:   -4.68 KCAL/MOL
REMARK 924 INTRA-LIGAND FREE ENERGY PREDICTED BY IDOCK:   -0.39 KCAL/MOL
REMARK 927      BINDING AFFINITY PREDICTED BY RF-SCORE:    0.00 PKD
ROOT
HETATM    1  C   UNL     1      -8.989   9.555  62.746  1.00  0.00    -0.229 C  
HETATM    2  O   UNL     1      -8.635   9.807  64.103  1.00  0.00    -0.163 OA 
ENDROOT
BRANCH   2   3
HETATM    3  C   UNL     1      -9.163  10.952  64.633  1.00  0.00    -0.197 A  
HETATM    4  C   UNL     1      -8.865  11.201  65.971  1.00  0.00    -0.196 A  
HETATM    5  C   UNL     1      -9.380  12.332  66.613  1.00  0.00    -0.228 A  
HETATM    6  C   UNL     1     -10.174  13.248  65.916  1.00  0.00    -0.295 A  
HETATM    7  C   UNL     1     -10.442  13.004  64.561  1.00  0.00    -0.413 A  
HETATM    8  C   UNL     1      -9.935  11.870  63.920  1.00  0.00    -0.354 A  
BRANCH   6   9
HETATM    9  C   UNL     1     -10.792  14.367  66.635  1.00  0.00    -0.304 C  
HETATM   10  C   UNL     1     -10.496  14.696  67.900  1.00  0.00    -0.242 C  
BRANCH  10  11
HETATM   11  C   UNL     1     -10.970  15.976  68.473  1.00  0.00    -0.326 C  
HETATM   12  O   UNL     1     -10.503  17.077  68.240  1.00  0.00    -0.324 OA 
BRANCH  11  13
HETATM   13  O   UNL     1     -11.849  15.658  69.459  1.00  0.00    -0.347 OA 
BRANCH  13  14
HETATM   14  C   UNL     1     -12.486  14.389  69.279  1.00  0.00    -0.028 C  
BRANCH  14  15
HETATM   15  C   UNL     1     -12.344  13.481  70.497  1.00  0.00    -0.412 C  
HETATM   16  C   UNL     1     -12.893  12.067  70.214  1.00  0.00     0.233 C  
HETATM   17  C   UNL     1     -12.147  11.367  69.075  1.00  0.00    -0.316 C  
HETATM   18  C   UNL     1     -12.835  11.201  71.472  1.00  0.00    -0.542 C  
ENDBRANCH  14  15
ENDBRANCH  13  14
ENDBRANCH  11  13
ENDBRANCH  10  11
ENDBRANCH   6   9
ENDBRANCH   2   3
TORSDOF 6
ENDMDL
MODEL      184
REMARK 921   NORMALIZED FREE ENERGY PREDICTED BY IDOCK:   -3.17 KCAL/MOL
REMARK 922        TOTAL FREE ENERGY PREDICTED BY IDOCK:   -5.07 KCAL/MOL
REMARK 923 INTER-LIGAND FREE ENERGY PREDICTED BY IDOCK:   -4.85 KCAL/MOL
REMARK 924 INTRA-LIGAND FREE ENERGY PREDICTED BY IDOCK:   -0.22 KCAL/MOL
REMARK 927      BINDING AFFINITY PREDICTED BY RF-SCORE:    0.00 PKD
ROOT
HETATM    1  C   UNL     1      -8.669   9.308  62.494  1.00  0.00    -0.230 C  
HETATM    2  O   UNL     1      -8.156   8.967  63.779  1.00  0.00    -0.147 OA 
ENDROOT
BRANCH   2   3
HETATM    3  C   UNL     1      -8.891   9.433  64.835  1.00  0.00    -0.202 A  
HETATM    4  C   UNL     1      -9.135   8.522  65.860  1.00  0.00    -0.237 A  
HETATM    5  C   UNL     1      -9.900   8.894  66.971  1.00  0.00    -0.277 A  
HETATM    6  C   UNL     1     -10.403  10.193  67.088  1.00  0.00    -0.295 A  
HETATM    7  C   UNL     1     -10.125  11.112  66.064  1.00  0.00    -0.292 A  
HETATM    8  C   UNL     1      -9.368  10.739  64.950  1.00  0.00    -0.261 A  
BRANCH   6   9
HETATM    9  C   UNL     1     -11.291  10.530  68.205  1.00  0.00    -0.332 C  
HETATM   10  C   UNL     1     -11.199   9.979  69.424  1.00  0.00    -0.235 C  
BRANCH  10  11
HETATM   11  C   UNL     1     -11.961  10.542  70.561  1.00  0.00    -0.342 C  
HETATM   12  O   UNL     1     -12.586  11.588  70.552  1.00  0.00    -0.270 OA 
BRANCH  11  13
HETATM   13  O   UNL     1     -11.640   9.797  71.651  1.00  0.00    -0.375 OA 
BRANCH  13  14
HETATM   14  C   UNL     1     -11.407   8.415  71.359  1.00  0.00    -0.264 C  
BRANCH  14  15
HETATM   15  C   UNL     1      -9.957   8.001  71.587  1.00  0.00    -0.237 C  
HETATM   16  C   UNL     1      -9.653   7.810  73.087  1.00  0.00    -0.337 C  
HETATM   17  C   UNL     1     -10.512   6.714  73.724  1.00  0.00    -0.357 C  
HETATM   18  C   UNL     1      -8.173   7.492  73.305  1.00  0.00    -0.163 C  
ENDBRANCH  14  15
ENDBRANCH  13  14
ENDBRANCH  11  13
ENDBRANCH  10  11
ENDBRANCH   6   9
ENDBRANCH   2   3
TORSDOF 6
ENDMDL
MODEL      185
REMARK 921   NORMALIZED FREE ENERGY PREDICTED BY IDOCK:   -3.15 KCAL/MOL
REMARK 922        TOTAL FREE ENERGY PREDICTED BY IDOCK:   -5.04 KCAL/MOL
REMARK 923 INTER-LIGAND FREE ENERGY PREDICTED BY IDOCK:   -3.91 KCAL/MOL
REMARK 924 INTRA-LIGAND FREE ENERGY PREDICTED BY IDOCK:   -1.13 KCAL/MOL
REMARK 927      BINDING AFFINITY PREDICTED BY RF-SCORE:    0.00 PKD
ROOT
HETATM    1  C   UNL     1      -9.174   5.233  72.001  1.00  0.00    -0.137 C  
HETATM    2  O   UNL     1      -9.397   4.847  70.648  1.00  0.00    -0.145 OA 
ENDROOT
BRANCH   2   3
HETATM    3  C   UNL     1      -9.141   5.820  69.721  1.00  0.00    -0.136 A  
HETATM    4  C   UNL     1     -10.243   6.550  69.279  1.00  0.00    -0.216 A  
HETATM    5  C   UNL     1     -10.089   7.549  68.312  1.00  0.00    -0.209 A  
HETATM    6  C   UNL     1      -8.825   7.856  67.799  1.00  0.00    -0.122 A  
HETATM    7  C   UNL     1      -7.718   7.137  68.274  1.00  0.00    -0.120 A  
HETATM    8  C   UNL     1      -7.872   6.132  69.234  1.00  0.00    -0.104 A  
BRANCH   6   9
HETATM    9  C   UNL     1      -8.702   8.830  66.709  1.00  0.00    -0.134 C  
HETATM   10  C   UNL     1      -9.607   8.973  65.731  1.00  0.00    -0.287 C  
BRANCH  10  11
HETATM   11  C   UNL     1      -9.542  10.133  64.814  1.00  0.00    -0.314 C  
HETATM   12  O   UNL     1      -8.582  10.453  64.135  1.00  0.00    -0.177 OA 
BRANCH  11  13
HETATM   13  O   UNL     1     -10.652  10.880  65.052  1.00  0.00    -0.286 OA 
BRANCH  13  14
HETATM   14  C   UNL     1     -10.414  12.023  65.879  1.00  0.00    -0.255 C  
BRANCH  14  15
HETATM   15  C   UNL     1     -11.412  12.140  67.026  1.00  0.00    -0.415 C  
HETATM   16  C   UNL     1     -11.063  11.177  68.179  1.00  0.00    -0.324 C  
HETATM   17  C   UNL     1      -9.686  11.463  68.785  1.00  0.00    -0.155 C  
HETATM   18  C   UNL     1     -12.126  11.234  69.276  1.00  0.00    -0.372 C  
ENDBRANCH  14  15
ENDBRANCH  13  14
ENDBRANCH  11  13
ENDBRANCH  10  11
ENDBRANCH   6   9
ENDBRANCH   2   3
TORSDOF 6
ENDMDL
MODEL      186
REMARK 921   NORMALIZED FREE ENERGY PREDICTED BY IDOCK:   -3.14 KCAL/MOL
REMARK 922        TOTAL FREE ENERGY PREDICTED BY IDOCK:   -5.03 KCAL/MOL
REMARK 923 INTER-LIGAND FREE ENERGY PREDICTED BY IDOCK:   -4.68 KCAL/MOL
REMARK 924 INTRA-LIGAND FREE ENERGY PREDICTED BY IDOCK:   -0.35 KCAL/MOL
REMARK 927      BINDING AFFINITY PREDICTED BY RF-SCORE:    0.00 PKD
ROOT
HETATM    1  C   UNL     1     -10.332   3.859  72.859  1.00  0.00    -0.168 C  
HETATM    2  O   UNL     1     -11.169   4.854  73.442  1.00  0.00    -0.318 OA 
ENDROOT
BRANCH   2   3
HETATM    3  C   UNL     1     -11.141   6.070  72.814  1.00  0.00    -0.269 A  
HETATM    4  C   UNL     1     -11.853   6.157  71.619  1.00  0.00    -0.241 A  
HETATM    5  C   UNL     1     -11.863   7.349  70.887  1.00  0.00    -0.320 A  
HETATM    6  C   UNL     1     -11.190   8.481  71.357  1.00  0.00    -0.327 A  
HETATM    7  C   UNL     1     -10.502   8.391  72.577  1.00  0.00    -0.372 A  
HETATM    8  C   UNL     1     -10.484   7.197  73.305  1.00  0.00    -0.391 A  
BRANCH   6   9
HETATM    9  C   UNL     1     -11.124   9.685  70.522  1.00  0.00    -0.369 C  
HETATM   10  C   UNL     1     -10.757   9.680  69.233  1.00  0.00    -0.246 C  
BRANCH  10  11
HETATM   11  C   UNL     1     -10.952  10.883  68.393  1.00  0.00    -0.237 C  
HETATM   12  O   UNL     1     -11.733  10.984  67.463  1.00  0.00    -0.565 OA 
BRANCH  11  13
HETATM   13  O   UNL     1      -9.950  11.744  68.710  1.00  0.00    -0.194 OA 
BRANCH  13  14
HETATM   14  C   UNL     1      -9.150  12.137  67.591  1.00  0.00    -0.181 C  
BRANCH  14  15
HETATM   15  C   UNL     1      -8.498  13.502  67.783  1.00  0.00    -0.184 C  
HETATM   16  C   UNL     1      -7.029  13.368  68.237  1.00  0.00    -0.108 C  
HETATM   17  C   UNL     1      -6.165  12.626  67.214  1.00  0.00    -0.094 C  
HETATM   18  C   UNL     1      -6.421  14.742  68.521  1.00  0.00    -0.092 C  
ENDBRANCH  14  15
ENDBRANCH  13  14
ENDBRANCH  11  13
ENDBRANCH  10  11
ENDBRANCH   6   9
ENDBRANCH   2   3
TORSDOF 6
ENDMDL
MODEL      187
REMARK 921   NORMALIZED FREE ENERGY PREDICTED BY IDOCK:   -3.12 KCAL/MOL
REMARK 922        TOTAL FREE ENERGY PREDICTED BY IDOCK:   -5.00 KCAL/MOL
REMARK 923 INTER-LIGAND FREE ENERGY PREDICTED BY IDOCK:   -4.33 KCAL/MOL
REMARK 924 INTRA-LIGAND FREE ENERGY PREDICTED BY IDOCK:   -0.67 KCAL/MOL
REMARK 927      BINDING AFFINITY PREDICTED BY RF-SCORE:    0.00 PKD
ROOT
HETATM    1  C   UNL     1      -8.883   4.384  64.603  1.00  0.00    -0.147 C  
HETATM    2  O   UNL     1      -8.443   3.958  65.890  1.00  0.00    -0.108 OA 
ENDROOT
BRANCH   2   3
HETATM    3  C   UNL     1      -9.182   4.434  66.938  1.00  0.00    -0.140 A  
HETATM    4  C   UNL     1      -9.944   5.572  66.682  1.00  0.00    -0.213 A  
HETATM    5  C   UNL     1     -10.714   6.153  67.696  1.00  0.00    -0.388 A  
HETATM    6  C   UNL     1     -10.758   5.583  68.972  1.00  0.00    -0.231 A  
HETATM    7  C   UNL     1     -10.012   4.419  69.211  1.00  0.00    -0.144 A  
HETATM    8  C   UNL     1      -9.236   3.843  68.200  1.00  0.00    -0.207 A  
BRANCH   6   9
HETATM    9  C   UNL     1     -11.483   6.267  70.047  1.00  0.00    -0.460 C  
HETATM   10  C   UNL     1     -10.958   7.247  70.796  1.00  0.00    -0.273 C  
BRANCH  10  11
HETATM   11  C   UNL     1     -11.820   8.055  71.687  1.00  0.00    -0.289 C  
HETATM   12  O   UNL     1     -12.296   9.146  71.422  1.00  0.00    -0.308 OA 
BRANCH  11  13
HETATM   13  O   UNL     1     -11.783   7.459  72.908  1.00  0.00    -0.208 OA 
BRANCH  13  14
HETATM   14  C   UNL     1     -10.646   6.612  73.104  1.00  0.00    -0.273 C  
BRANCH  14  15
HETATM   15  C   UNL     1     -11.002   5.298  73.790  1.00  0.00    -0.259 C  
HETATM   16  C   UNL     1     -10.675   4.085  72.894  1.00  0.00    -0.217 C  
HETATM   17  C   UNL     1      -9.185   3.995  72.552  1.00  0.00    -0.148 C  
HETATM   18  C   UNL     1     -11.128   2.783  73.555  1.00  0.00    -0.315 C  
ENDBRANCH  14  15
ENDBRANCH  13  14
ENDBRANCH  11  13
ENDBRANCH  10  11
ENDBRANCH   6   9
ENDBRANCH   2   3
TORSDOF 6
ENDMDL
MODEL      188
REMARK 921   NORMALIZED FREE ENERGY PREDICTED BY IDOCK:   -3.12 KCAL/MOL
REMARK 922        TOTAL FREE ENERGY PREDICTED BY IDOCK:   -4.99 KCAL/MOL
REMARK 923 INTER-LIGAND FREE ENERGY PREDICTED BY IDOCK:   -4.71 KCAL/MOL
REMARK 924 INTRA-LIGAND FREE ENERGY PREDICTED BY IDOCK:   -0.28 KCAL/MOL
REMARK 927      BINDING AFFINITY PREDICTED BY RF-SCORE:    0.00 PKD
ROOT
HETATM    1  C   UNL     1      -5.762   9.672  67.604  1.00  0.00    -0.040 C  
HETATM    2  O   UNL     1      -5.224  10.895  68.099  1.00  0.00    -0.037 OA 
ENDROOT
BRANCH   2   3
HETATM    3  C   UNL     1      -6.067  11.970  68.016  1.00  0.00    -0.058 A  
HETATM    4  C   UNL     1      -7.288  11.742  67.385  1.00  0.00    -0.136 A  
HETATM    5  C   UNL     1      -8.208  12.784  67.226  1.00  0.00    -0.181 A  
HETATM    6  C   UNL     1      -7.933  14.061  67.726  1.00  0.00    -0.175 A  
HETATM    7  C   UNL     1      -6.714  14.271  68.388  1.00  0.00    -0.104 A  
HETATM    8  C   UNL     1      -5.790  13.232  68.540  1.00  0.00    -0.083 A  
BRANCH   6   9
HETATM    9  C   UNL     1      -8.863  15.162  67.454  1.00  0.00    -0.199 C  
HETATM   10  C   UNL     1      -9.211  15.557  66.221  1.00  0.00    -0.364 C  
BRANCH  10  11
HETATM   11  C   UNL     1     -10.333  16.501  66.025  1.00  0.00    -0.345 C  
HETATM   12  O   UNL     1     -10.809  17.230  66.879  1.00  0.00    -0.173 OA 
BRANCH  11  13
HETATM   13  O   UNL     1     -10.862  16.230  64.803  1.00  0.00    -0.671 OA 
BRANCH  13  14
HETATM   14  C   UNL     1     -11.589  14.999  64.748  1.00  0.00    -0.395 C  
BRANCH  14  15
HETATM   15  C   UNL     1     -10.694  13.798  64.460  1.00  0.00    -0.405 C  
HETATM   16  C   UNL     1     -11.453  12.468  64.651  1.00  0.00    -0.377 C  
HETATM   17  C   UNL     1     -12.653  12.338  63.708  1.00  0.00    -0.577 C  
HETATM   18  C   UNL     1     -10.517  11.275  64.455  1.00  0.00    -0.396 C  
ENDBRANCH  14  15
ENDBRANCH  13  14
ENDBRANCH  11  13
ENDBRANCH  10  11
ENDBRANCH   6   9
ENDBRANCH   2   3
TORSDOF 6
ENDMDL
MODEL      189
REMARK 921   NORMALIZED FREE ENERGY PREDICTED BY IDOCK:   -3.11 KCAL/MOL
REMARK 922        TOTAL FREE ENERGY PREDICTED BY IDOCK:   -4.99 KCAL/MOL
REMARK 923 INTER-LIGAND FREE ENERGY PREDICTED BY IDOCK:   -4.53 KCAL/MOL
REMARK 924 INTRA-LIGAND FREE ENERGY PREDICTED BY IDOCK:   -0.45 KCAL/MOL
REMARK 927      BINDING AFFINITY PREDICTED BY RF-SCORE:    0.00 PKD
ROOT
HETATM    1  C   UNL     1     -11.955  14.960  64.547  1.00  0.00    -0.410 C  
HETATM    2  O   UNL     1     -12.320  13.620  64.228  1.00  0.00    -0.563 OA 
ENDROOT
BRANCH   2   3
HETATM    3  C   UNL     1     -11.746  12.663  65.021  1.00  0.00    -0.359 A  
HETATM    4  C   UNL     1     -11.984  12.778  66.389  1.00  0.00    -0.443 A  
HETATM    5  C   UNL     1     -11.418  11.865  67.285  1.00  0.00    -0.385 A  
HETATM    6  C   UNL     1     -10.634  10.804  66.822  1.00  0.00    -0.307 A  
HETATM    7  C   UNL     1     -10.427  10.679  65.440  1.00  0.00    -0.254 A  
HETATM    8  C   UNL     1     -10.985  11.596  64.544  1.00  0.00    -0.376 A  
BRANCH   6   9
HETATM    9  C   UNL     1      -9.963   9.924  67.785  1.00  0.00    -0.201 C  
HETATM   10  C   UNL     1      -9.624  10.298  69.027  1.00  0.00    -0.210 C  
BRANCH  10  11
HETATM   11  C   UNL     1      -9.179   9.292  70.017  1.00  0.00    -0.210 C  
HETATM   12  O   UNL     1      -9.094   9.466  71.221  1.00  0.00    -0.277 OA 
BRANCH  11  13
HETATM   13  O   UNL     1      -8.678   8.245  69.310  1.00  0.00    -0.136 OA 
BRANCH  13  14
HETATM   14  C   UNL     1      -8.940   6.969  69.903  1.00  0.00    -0.142 C  
BRANCH  14  15
HETATM   15  C   UNL     1      -7.666   6.228  70.294  1.00  0.00    -0.098 C  
HETATM   16  C   UNL     1      -7.595   4.836  69.632  1.00  0.00    -0.055 C  
HETATM   17  C   UNL     1      -7.588   4.915  68.103  1.00  0.00    -0.082 C  
HETATM   18  C   UNL     1      -6.363   4.068  70.111  1.00  0.00    -0.027 C  
ENDBRANCH  14  15
ENDBRANCH  13  14
ENDBRANCH  11  13
ENDBRANCH  10  11
ENDBRANCH   6   9
ENDBRANCH   2   3
TORSDOF 6
ENDMDL
MODEL      190
REMARK 921   NORMALIZED FREE ENERGY PREDICTED BY IDOCK:   -3.06 KCAL/MOL
REMARK 922        TOTAL FREE ENERGY PREDICTED BY IDOCK:   -4.92 KCAL/MOL
REMARK 923 INTER-LIGAND FREE ENERGY PREDICTED BY IDOCK:   -4.72 KCAL/MOL
REMARK 924 INTRA-LIGAND FREE ENERGY PREDICTED BY IDOCK:   -0.20 KCAL/MOL
REMARK 927      BINDING AFFINITY PREDICTED BY RF-SCORE:    0.00 PKD
ROOT
HETATM    1  C   UNL     1      -5.161  15.501  71.638  1.00  0.00    -0.084 C  
HETATM    2  O   UNL     1      -5.505  16.200  70.445  1.00  0.00    -0.168 OA 
ENDROOT
BRANCH   2   3
HETATM    3  C   UNL     1      -6.548  15.661  69.742  1.00  0.00    -0.160 A  
HETATM    4  C   UNL     1      -7.446  16.570  69.186  1.00  0.00    -0.218 A  
HETATM    5  C   UNL     1      -8.561  16.118  68.473  1.00  0.00    -0.202 A  
HETATM    6  C   UNL     1      -8.776  14.750  68.276  1.00  0.00    -0.170 A  
HETATM    7  C   UNL     1      -7.849  13.844  68.813  1.00  0.00    -0.079 A  
HETATM    8  C   UNL     1      -6.738  14.295  69.534  1.00  0.00    -0.130 A  
BRANCH   6   9
HETATM    9  C   UNL     1     -10.006  14.296  67.620  1.00  0.00    -0.225 C  
HETATM   10  C   UNL     1     -10.234  13.025  67.260  1.00  0.00    -0.239 C  
BRANCH  10  11
HETATM   11  C   UNL     1     -11.585  12.598  66.832  1.00  0.00    -0.373 C  
HETATM   12  O   UNL     1     -11.952  12.439  65.680  1.00  0.00    -0.447 OA 
BRANCH  11  13
HETATM   13  O   UNL     1     -12.376  12.646  67.936  1.00  0.00    -0.218 OA 
BRANCH  13  14
HETATM   14  C   UNL     1     -11.757  12.115  69.113  1.00  0.00    -0.328 C  
BRANCH  14  15
HETATM   15  C   UNL     1     -12.509  10.918  69.686  1.00  0.00    -0.198 C  
HETATM   16  C   UNL     1     -12.463  10.907  71.228  1.00  0.00    -0.493 C  
HETATM   17  C   UNL     1     -13.114  12.149  71.842  1.00  0.00    -0.475 C  
HETATM   18  C   UNL     1     -13.135   9.650  71.782  1.00  0.00    -0.514 C  
ENDBRANCH  14  15
ENDBRANCH  13  14
ENDBRANCH  11  13
ENDBRANCH  10  11
ENDBRANCH   6   9
ENDBRANCH   2   3
TORSDOF 6
ENDMDL
MODEL      191
REMARK 921   NORMALIZED FREE ENERGY PREDICTED BY IDOCK:   -3.05 KCAL/MOL
REMARK 922        TOTAL FREE ENERGY PREDICTED BY IDOCK:   -4.90 KCAL/MOL
REMARK 923 INTER-LIGAND FREE ENERGY PREDICTED BY IDOCK:   -4.31 KCAL/MOL
REMARK 924 INTRA-LIGAND FREE ENERGY PREDICTED BY IDOCK:   -0.59 KCAL/MOL
REMARK 927      BINDING AFFINITY PREDICTED BY RF-SCORE:    0.00 PKD
ROOT
HETATM    1  C   UNL     1      -9.400   3.255  68.693  1.00  0.00    -0.169 C  
HETATM    2  O   UNL     1      -9.390   3.679  67.332  1.00  0.00    -0.176 OA 
ENDROOT
BRANCH   2   3
HETATM    3  C   UNL     1      -9.639   5.011  67.143  1.00  0.00    -0.152 A  
HETATM    4  C   UNL     1      -8.830   5.658  66.211  1.00  0.00    -0.137 A  
HETATM    5  C   UNL     1      -8.987   7.027  65.965  1.00  0.00    -0.135 A  
HETATM    6  C   UNL     1      -9.980   7.760  66.623  1.00  0.00    -0.299 A  
HETATM    7  C   UNL     1     -10.810   7.091  67.536  1.00  0.00    -0.338 A  
HETATM    8  C   UNL     1     -10.648   5.726  67.788  1.00  0.00    -0.310 A  
BRANCH   6   9
HETATM    9  C   UNL     1     -10.056   9.212  66.432  1.00  0.00    -0.345 C  
HETATM   10  C   UNL     1     -10.990   9.991  66.996  1.00  0.00    -0.119 C  
BRANCH  10  11
HETATM   11  C   UNL     1     -10.858  11.464  66.960  1.00  0.00    -0.282 C  
HETATM   12  O   UNL     1     -11.096  12.178  66.000  1.00  0.00    -0.288 OA 
BRANCH  11  13
HETATM   13  O   UNL     1     -10.216  11.826  68.101  1.00  0.00    -0.190 OA 
BRANCH  13  14
HETATM   14  C   UNL     1     -10.721  11.184  69.277  1.00  0.00    -0.199 C  
BRANCH  14  15
HETATM   15  C   UNL     1      -9.742  10.173  69.863  1.00  0.00    -0.195 C  
HETATM   16  C   UNL     1     -10.341   9.451  71.089  1.00  0.00    -0.377 C  
HETATM   17  C   UNL     1     -11.607   8.663  70.743  1.00  0.00    -0.273 C  
HETATM   18  C   UNL     1      -9.313   8.514  71.723  1.00  0.00    -0.323 C  
ENDBRANCH  14  15
ENDBRANCH  13  14
ENDBRANCH  11  13
ENDBRANCH  10  11
ENDBRANCH   6   9
ENDBRANCH   2   3
TORSDOF 6
ENDMDL
MODEL      192
REMARK 921   NORMALIZED FREE ENERGY PREDICTED BY IDOCK:   -3.03 KCAL/MOL
REMARK 922        TOTAL FREE ENERGY PREDICTED BY IDOCK:   -4.88 KCAL/MOL
REMARK 923 INTER-LIGAND FREE ENERGY PREDICTED BY IDOCK:   -4.17 KCAL/MOL
REMARK 924 INTRA-LIGAND FREE ENERGY PREDICTED BY IDOCK:   -0.71 KCAL/MOL
REMARK 927      BINDING AFFINITY PREDICTED BY RF-SCORE:    0.00 PKD
ROOT
HETATM    1  C   UNL     1      -5.954  14.447  67.843  1.00  0.00    -0.138 C  
HETATM    2  O   UNL     1      -5.950  13.183  67.186  1.00  0.00    -0.318 OA 
ENDROOT
BRANCH   2   3
HETATM    3  C   UNL     1      -6.714  12.219  67.787  1.00  0.00    -0.107 A  
HETATM    4  C   UNL     1      -7.839  11.801  67.078  1.00  0.00    -0.161 A  
HETATM    5  C   UNL     1      -8.700  10.840  67.619  1.00  0.00    -0.126 A  
HETATM    6  C   UNL     1      -8.430  10.259  68.862  1.00  0.00    -0.138 A  
HETATM    7  C   UNL     1      -7.278  10.665  69.553  1.00  0.00    -0.140 A  
HETATM    8  C   UNL     1      -6.421  11.631  69.017  1.00  0.00    -0.082 A  
BRANCH   6   9
HETATM    9  C   UNL     1      -9.401   9.336  69.457  1.00  0.00    -0.177 C  
HETATM   10  C   UNL     1     -10.259   9.679  70.428  1.00  0.00    -0.348 C  
BRANCH  10  11
HETATM   11  C   UNL     1     -11.368   8.774  70.803  1.00  0.00    -0.272 C  
HETATM   12  O   UNL     1     -12.503   9.116  71.088  1.00  0.00    -0.305 OA 
BRANCH  11  13
HETATM   13  O   UNL     1     -10.821   7.544  70.986  1.00  0.00    -0.230 OA 
BRANCH  13  14
HETATM   14  C   UNL     1     -11.385   6.529  70.149  1.00  0.00    -0.402 C  
BRANCH  14  15
HETATM   15  C   UNL     1     -10.327   5.741  69.384  1.00  0.00    -0.332 C  
HETATM   16  C   UNL     1     -10.692   5.608  67.891  1.00  0.00    -0.241 C  
HETATM   17  C   UNL     1     -10.798   6.966  67.191  1.00  0.00    -0.447 C  
HETATM   18  C   UNL     1      -9.674   4.733  67.159  1.00  0.00    -0.207 C  
ENDBRANCH  14  15
ENDBRANCH  13  14
ENDBRANCH  11  13
ENDBRANCH  10  11
ENDBRANCH   6   9
ENDBRANCH   2   3
TORSDOF 6
ENDMDL
MODEL      193
REMARK 921   NORMALIZED FREE ENERGY PREDICTED BY IDOCK:   -3.02 KCAL/MOL
REMARK 922        TOTAL FREE ENERGY PREDICTED BY IDOCK:   -4.86 KCAL/MOL
REMARK 923 INTER-LIGAND FREE ENERGY PREDICTED BY IDOCK:   -4.68 KCAL/MOL
REMARK 924 INTRA-LIGAND FREE ENERGY PREDICTED BY IDOCK:   -0.19 KCAL/MOL
REMARK 927      BINDING AFFINITY PREDICTED BY RF-SCORE:    0.00 PKD
ROOT
HETATM    1  C   UNL     1     -10.327  18.085  66.689  1.00  0.00    -0.371 C  
HETATM    2  O   UNL     1      -9.875  17.075  65.792  1.00  0.00    -0.525 OA 
ENDROOT
BRANCH   2   3
HETATM    3  C   UNL     1     -10.004  15.794  66.257  1.00  0.00    -0.295 A  
HETATM    4  C   UNL     1     -11.085  15.068  65.760  1.00  0.00    -0.346 A  
HETATM    5  C   UNL     1     -11.319  13.759  66.193  1.00  0.00    -0.320 A  
HETATM    6  C   UNL     1     -10.454  13.145  67.105  1.00  0.00    -0.247 A  
HETATM    7  C   UNL     1      -9.351  13.873  67.575  1.00  0.00    -0.217 A  
HETATM    8  C   UNL     1      -9.121  15.185  67.149  1.00  0.00    -0.226 A  
BRANCH   6   9
HETATM    9  C   UNL     1     -10.778  11.813  67.628  1.00  0.00    -0.254 C  
HETATM   10  C   UNL     1      -9.873  10.979  68.158  1.00  0.00    -0.185 C  
BRANCH  10  11
HETATM   11  C   UNL     1     -10.307   9.766  68.886  1.00  0.00    -0.210 C  
HETATM   12  O   UNL     1      -9.741   8.686  68.872  1.00  0.00    -0.164 OA 
BRANCH  11  13
HETATM   13  O   UNL     1     -11.551  10.024  69.366  1.00  0.00    -0.150 OA 
BRANCH  13  14
HETATM   14  C   UNL     1     -12.055   9.011  70.243  1.00  0.00     0.288 C  
BRANCH  14  15
HETATM   15  C   UNL     1     -11.192   8.825  71.486  1.00  0.00    -0.377 C  
HETATM   16  C   UNL     1     -11.398   7.430  72.114  1.00  0.00    -0.311 C  
HETATM   17  C   UNL     1     -11.015   6.296  71.158  1.00  0.00    -0.336 C  
HETATM   18  C   UNL     1     -10.602   7.296  73.412  1.00  0.00    -0.435 C  
ENDBRANCH  14  15
ENDBRANCH  13  14
ENDBRANCH  11  13
ENDBRANCH  10  11
ENDBRANCH   6   9
ENDBRANCH   2   3
TORSDOF 6
ENDMDL
MODEL      194
REMARK 921   NORMALIZED FREE ENERGY PREDICTED BY IDOCK:   -3.02 KCAL/MOL
REMARK 922        TOTAL FREE ENERGY PREDICTED BY IDOCK:   -4.86 KCAL/MOL
REMARK 923 INTER-LIGAND FREE ENERGY PREDICTED BY IDOCK:   -4.45 KCAL/MOL
REMARK 924 INTRA-LIGAND FREE ENERGY PREDICTED BY IDOCK:   -0.41 KCAL/MOL
REMARK 927      BINDING AFFINITY PREDICTED BY RF-SCORE:    0.00 PKD
ROOT
HETATM    1  C   UNL     1      -6.831   4.370  70.914  1.00  0.00    -0.036 C  
HETATM    2  O   UNL     1      -7.793   5.047  71.718  1.00  0.00    -0.103 OA 
ENDROOT
BRANCH   2   3
HETATM    3  C   UNL     1      -8.404   6.111  71.112  1.00  0.00    -0.124 A  
HETATM    4  C   UNL     1      -9.732   5.922  70.736  1.00  0.00    -0.212 A  
HETATM    5  C   UNL     1     -10.436   6.940  70.085  1.00  0.00    -0.233 A  
HETATM    6  C   UNL     1      -9.831   8.175  69.831  1.00  0.00    -0.186 A  
HETATM    7  C   UNL     1      -8.503   8.366  70.242  1.00  0.00    -0.126 A  
HETATM    8  C   UNL     1      -7.796   7.346  70.885  1.00  0.00    -0.096 A  
BRANCH   6   9
HETATM    9  C   UNL     1     -10.550   9.188  69.052  1.00  0.00    -0.219 C  
HETATM   10  C   UNL     1     -10.439  10.508  69.260  1.00  0.00    -0.258 C  
BRANCH  10  11
HETATM   11  C   UNL     1     -10.996  11.471  68.284  1.00  0.00    -0.224 C  
HETATM   12  O   UNL     1     -12.130  11.456  67.836  1.00  0.00    -0.646 OA 
BRANCH  11  13
HETATM   13  O   UNL     1      -9.951  12.209  67.827  1.00  0.00    -0.190 OA 
BRANCH  13  14
HETATM   14  C   UNL     1      -9.975  12.431  66.413  1.00  0.00    -0.242 C  
BRANCH  14  15
HETATM   15  C   UNL     1     -10.113  13.906  66.050  1.00  0.00    -0.324 C  
HETATM   16  C   UNL     1     -11.121  14.113  64.900  1.00  0.00    -0.389 C  
HETATM   17  C   UNL     1     -12.529  13.633  65.263  1.00  0.00    -0.517 C  
HETATM   18  C   UNL     1     -11.174  15.583  64.483  1.00  0.00    -0.327 C  
ENDBRANCH  14  15
ENDBRANCH  13  14
ENDBRANCH  11  13
ENDBRANCH  10  11
ENDBRANCH   6   9
ENDBRANCH   2   3
TORSDOF 6
ENDMDL
MODEL      195
REMARK 921   NORMALIZED FREE ENERGY PREDICTED BY IDOCK:   -3.01 KCAL/MOL
REMARK 922        TOTAL FREE ENERGY PREDICTED BY IDOCK:   -4.85 KCAL/MOL
REMARK 923 INTER-LIGAND FREE ENERGY PREDICTED BY IDOCK:   -4.37 KCAL/MOL
REMARK 924 INTRA-LIGAND FREE ENERGY PREDICTED BY IDOCK:   -0.48 KCAL/MOL
REMARK 927      BINDING AFFINITY PREDICTED BY RF-SCORE:    0.00 PKD
ROOT
HETATM    1  C   UNL     1     -10.014   5.205  72.144  1.00  0.00    -0.187 C  
HETATM    2  O   UNL     1     -10.611   5.297  70.854  1.00  0.00    -0.236 OA 
ENDROOT
BRANCH   2   3
HETATM    3  C   UNL     1     -10.452   6.505  70.230  1.00  0.00    -0.216 A  
HETATM    4  C   UNL     1     -11.120   7.584  70.805  1.00  0.00    -0.280 A  
HETATM    5  C   UNL     1     -11.042   8.855  70.226  1.00  0.00    -0.251 A  
HETATM    6  C   UNL     1     -10.267   9.072  69.083  1.00  0.00    -0.213 A  
HETATM    7  C   UNL     1      -9.573   7.985  68.530  1.00  0.00    -0.159 A  
HETATM    8  C   UNL     1      -9.657   6.712  69.103  1.00  0.00    -0.136 A  
BRANCH   6   9
HETATM    9  C   UNL     1     -10.287  10.386  68.432  1.00  0.00    -0.198 C  
HETATM   10  C   UNL     1     -11.204  10.756  67.527  1.00  0.00    -0.346 C  
BRANCH  10  11
HETATM   11  C   UNL     1     -11.308  12.170  67.101  1.00  0.00    -0.331 C  
HETATM   12  O   UNL     1     -12.161  12.631  66.361  1.00  0.00    -0.530 OA 
BRANCH  11  13
HETATM   13  O   UNL     1     -10.162  12.782  67.500  1.00  0.00    -0.213 OA 
BRANCH  13  14
HETATM   14  C   UNL     1      -9.738  13.838  66.633  1.00  0.00    -0.289 C  
BRANCH  14  15
HETATM   15  C   UNL     1      -9.385  15.115  67.388  1.00  0.00    -0.200 C  
HETATM   16  C   UNL     1      -8.232  14.881  68.386  1.00  0.00    -0.151 C  
HETATM   17  C   UNL     1      -6.943  14.427  67.695  1.00  0.00    -0.203 C  
HETATM   18  C   UNL     1      -7.956  16.142  69.204  1.00  0.00    -0.233 C  
ENDBRANCH  14  15
ENDBRANCH  13  14
ENDBRANCH  11  13
ENDBRANCH  10  11
ENDBRANCH   6   9
ENDBRANCH   2   3
TORSDOF 6
ENDMDL
MODEL      196
REMARK 921   NORMALIZED FREE ENERGY PREDICTED BY IDOCK:   -3.01 KCAL/MOL
REMARK 922        TOTAL FREE ENERGY PREDICTED BY IDOCK:   -4.84 KCAL/MOL
REMARK 923 INTER-LIGAND FREE ENERGY PREDICTED BY IDOCK:   -4.48 KCAL/MOL
REMARK 924 INTRA-LIGAND FREE ENERGY PREDICTED BY IDOCK:   -0.36 KCAL/MOL
REMARK 927      BINDING AFFINITY PREDICTED BY RF-SCORE:    0.00 PKD
ROOT
HETATM    1  C   UNL     1     -10.157  11.734  63.284  1.00  0.00    -0.420 C  
HETATM    2  O   UNL     1     -11.125  12.253  64.192  1.00  0.00    -0.313 OA 
ENDROOT
BRANCH   2   3
HETATM    3  C   UNL     1     -11.103  11.692  65.440  1.00  0.00    -0.239 A  
HETATM    4  C   UNL     1     -10.391  10.500  65.562  1.00  0.00    -0.287 A  
HETATM    5  C   UNL     1     -10.331   9.833  66.791  1.00  0.00    -0.289 A  
HETATM    6  C   UNL     1     -10.954  10.367  67.923  1.00  0.00    -0.354 A  
HETATM    7  C   UNL     1     -11.642  11.584  67.796  1.00  0.00    -0.338 A  
HETATM    8  C   UNL     1     -11.709  12.246  66.567  1.00  0.00    -0.420 A  
BRANCH   6   9
HETATM    9  C   UNL     1     -10.971   9.599  69.172  1.00  0.00    -0.177 C  
HETATM   10  C   UNL     1     -10.496   8.350  69.286  1.00  0.00    -0.223 C  
BRANCH  10  11
HETATM   11  C   UNL     1     -10.320   7.735  70.621  1.00  0.00    -0.202 C  
HETATM   12  O   UNL     1      -9.989   8.320  71.638  1.00  0.00    -0.182 OA 
BRANCH  11  13
HETATM   13  O   UNL     1     -10.371   6.389  70.438  1.00  0.00    -0.193 OA 
BRANCH  13  14
HETATM   14  C   UNL     1      -9.135   5.721  70.712  1.00  0.00    -0.148 C  
BRANCH  14  15
HETATM   15  C   UNL     1      -9.336   4.338  71.323  1.00  0.00    -0.214 C  
HETATM   16  C   UNL     1      -9.330   3.236  70.243  1.00  0.00    -0.242 C  
HETATM   17  C   UNL     1      -8.006   3.174  69.478  1.00  0.00    -0.058 C  
HETATM   18  C   UNL     1      -9.631   1.870  70.859  1.00  0.00    -0.182 C  
ENDBRANCH  14  15
ENDBRANCH  13  14
ENDBRANCH  11  13
ENDBRANCH  10  11
ENDBRANCH   6   9
ENDBRANCH   2   3
TORSDOF 6
ENDMDL
MODEL      197
REMARK 921   NORMALIZED FREE ENERGY PREDICTED BY IDOCK:   -2.98 KCAL/MOL
REMARK 922        TOTAL FREE ENERGY PREDICTED BY IDOCK:   -4.80 KCAL/MOL
REMARK 923 INTER-LIGAND FREE ENERGY PREDICTED BY IDOCK:   -4.40 KCAL/MOL
REMARK 924 INTRA-LIGAND FREE ENERGY PREDICTED BY IDOCK:   -0.40 KCAL/MOL
REMARK 927      BINDING AFFINITY PREDICTED BY RF-SCORE:    0.00 PKD
ROOT
HETATM    1  C   UNL     1      -9.087   3.517  62.900  1.00  0.00    -0.095 C  
HETATM    2  O   UNL     1      -8.107   3.373  63.925  1.00  0.00    -0.087 OA 
ENDROOT
BRANCH   2   3
HETATM    3  C   UNL     1      -8.427   3.968  65.115  1.00  0.00    -0.113 A  
HETATM    4  C   UNL     1      -9.773   4.272  65.305  1.00  0.00    -0.201 A  
HETATM    5  C   UNL     1     -10.197   4.907  66.477  1.00  0.00    -0.305 A  
HETATM    6  C   UNL     1      -9.285   5.216  67.491  1.00  0.00    -0.124 A  
HETATM    7  C   UNL     1      -7.937   4.877  67.303  1.00  0.00    -0.095 A  
HETATM    8  C   UNL     1      -7.511   4.250  66.128  1.00  0.00    -0.085 A  
BRANCH   6   9
HETATM    9  C   UNL     1      -9.732   5.977  68.662  1.00  0.00    -0.149 C  
HETATM   10  C   UNL     1     -10.595   5.506  69.574  1.00  0.00    -0.366 C  
BRANCH  10  11
HETATM   11  C   UNL     1     -10.807   6.227  70.849  1.00  0.00    -0.272 C  
HETATM   12  O   UNL     1     -11.388   5.790  71.827  1.00  0.00    -0.253 OA 
BRANCH  11  13
HETATM   13  O   UNL     1     -10.439   7.516  70.632  1.00  0.00    -0.212 OA 
BRANCH  13  14
HETATM   14  C   UNL     1     -11.276   8.475  71.287  1.00  0.00    -0.265 C  
BRANCH  14  15
HETATM   15  C   UNL     1     -11.007   9.904  70.827  1.00  0.00    -0.407 C  
HETATM   16  C   UNL     1     -12.320  10.664  70.544  1.00  0.00    -0.448 C  
HETATM   17  C   UNL     1     -13.209  10.777  71.786  1.00  0.00    -0.523 C  
HETATM   18  C   UNL     1     -12.032  12.059  69.991  1.00  0.00    -0.400 C  
ENDBRANCH  14  15
ENDBRANCH  13  14
ENDBRANCH  11  13
ENDBRANCH  10  11
ENDBRANCH   6   9
ENDBRANCH   2   3
TORSDOF 6
ENDMDL
MODEL      198
REMARK 921   NORMALIZED FREE ENERGY PREDICTED BY IDOCK:   -2.97 KCAL/MOL
REMARK 922        TOTAL FREE ENERGY PREDICTED BY IDOCK:   -4.79 KCAL/MOL
REMARK 923 INTER-LIGAND FREE ENERGY PREDICTED BY IDOCK:   -3.94 KCAL/MOL
REMARK 924 INTRA-LIGAND FREE ENERGY PREDICTED BY IDOCK:   -0.85 KCAL/MOL
REMARK 927      BINDING AFFINITY PREDICTED BY RF-SCORE:    0.00 PKD
ROOT
HETATM    1  C   UNL     1     -12.266  13.892  69.112  1.00  0.00    -0.267 C  
HETATM    2  O   UNL     1     -11.229  13.911  68.135  1.00  0.00    -0.247 OA 
ENDROOT
BRANCH   2   3
HETATM    3  C   UNL     1     -10.909  12.688  67.612  1.00  0.00    -0.221 A  
HETATM    4  C   UNL     1     -10.996  11.606  68.486  1.00  0.00    -0.264 A  
HETATM    5  C   UNL     1     -10.662  10.318  68.055  1.00  0.00    -0.299 A  
HETATM    6  C   UNL     1     -10.269  10.088  66.733  1.00  0.00    -0.295 A  
HETATM    7  C   UNL     1     -10.216  11.179  65.852  1.00  0.00    -0.303 A  
HETATM    8  C   UNL     1     -10.541  12.469  66.285  1.00  0.00    -0.273 A  
BRANCH   6   9
HETATM    9  C   UNL     1      -9.821   8.751  66.331  1.00  0.00    -0.352 C  
HETATM   10  C   UNL     1      -8.635   8.502  65.758  1.00  0.00    -0.190 C  
BRANCH  10  11
HETATM   11  C   UNL     1      -8.151   7.111  65.609  1.00  0.00    -0.133 C  
HETATM   12  O   UNL     1      -8.645   6.258  64.893  1.00  0.00    -0.069 OA 
BRANCH  11  13
HETATM   13  O   UNL     1      -7.219   6.918  66.578  1.00  0.00    -0.069 OA 
BRANCH  13  14
HETATM   14  C   UNL     1      -7.510   5.822  67.451  1.00  0.00    -0.081 C  
BRANCH  14  15
HETATM   15  C   UNL     1      -8.459   6.205  68.582  1.00  0.00    -0.114 C  
HETATM   16  C   UNL     1      -9.836   5.528  68.418  1.00  0.00    -0.186 C  
HETATM   17  C   UNL     1      -9.743   4.000  68.442  1.00  0.00    -0.135 C  
HETATM   18  C   UNL     1     -10.805   5.999  69.503  1.00  0.00    -0.439 C  
ENDBRANCH  14  15
ENDBRANCH  13  14
ENDBRANCH  11  13
ENDBRANCH  10  11
ENDBRANCH   6   9
ENDBRANCH   2   3
TORSDOF 6
ENDMDL
MODEL      199
REMARK 921   NORMALIZED FREE ENERGY PREDICTED BY IDOCK:   -2.95 KCAL/MOL
REMARK 922        TOTAL FREE ENERGY PREDICTED BY IDOCK:   -4.77 KCAL/MOL
REMARK 923 INTER-LIGAND FREE ENERGY PREDICTED BY IDOCK:   -4.43 KCAL/MOL
REMARK 924 INTRA-LIGAND FREE ENERGY PREDICTED BY IDOCK:   -0.34 KCAL/MOL
REMARK 927      BINDING AFFINITY PREDICTED BY RF-SCORE:    0.00 PKD
ROOT
HETATM    1  C   UNL     1      -8.698   5.516  68.843  1.00  0.00    -0.102 C  
HETATM    2  O   UNL     1      -8.093   6.149  67.719  1.00  0.00    -0.111 OA 
ENDROOT
BRANCH   2   3
HETATM    3  C   UNL     1      -8.307   7.498  67.633  1.00  0.00    -0.118 A  
HETATM    4  C   UNL     1      -7.288   8.312  68.123  1.00  0.00    -0.096 A  
HETATM    5  C   UNL     1      -7.424   9.705  68.105  1.00  0.00    -0.082 A  
HETATM    6  C   UNL     1      -8.567  10.303  67.566  1.00  0.00    -0.118 A  
HETATM    7  C   UNL     1      -9.573   9.475  67.047  1.00  0.00    -0.214 A  
HETATM    8  C   UNL     1      -9.442   8.083  67.072  1.00  0.00    -0.223 A  
BRANCH   6   9
HETATM    9  C   UNL     1      -8.735  11.757  67.656  1.00  0.00    -0.159 C  
HETATM   10  C   UNL     1      -9.832  12.408  67.242  1.00  0.00    -0.207 C  
BRANCH  10  11
HETATM   11  C   UNL     1     -10.033  13.833  67.589  1.00  0.00    -0.238 C  
HETATM   12  O   UNL     1      -9.176  14.593  68.007  1.00  0.00    -0.187 OA 
BRANCH  11  13
HETATM   13  O   UNL     1     -11.374  14.052  67.569  1.00  0.00    -0.293 OA 
BRANCH  13  14
HETATM   14  C   UNL     1     -11.888  14.375  66.273  1.00  0.00    -0.379 C  
BRANCH  14  15
HETATM   15  C   UNL     1     -12.479  13.166  65.555  1.00  0.00    -0.516 C  
HETATM   16  C   UNL     1     -12.010  13.095  64.087  1.00  0.00    -0.499 C  
HETATM   17  C   UNL     1     -10.490  12.960  63.964  1.00  0.00    -0.395 C  
HETATM   18  C   UNL     1     -12.688  11.936  63.356  1.00  0.00    -0.496 C  
ENDBRANCH  14  15
ENDBRANCH  13  14
ENDBRANCH  11  13
ENDBRANCH  10  11
ENDBRANCH   6   9
ENDBRANCH   2   3
TORSDOF 6
ENDMDL
MODEL      200
REMARK 921   NORMALIZED FREE ENERGY PREDICTED BY IDOCK:   -2.93 KCAL/MOL
REMARK 922        TOTAL FREE ENERGY PREDICTED BY IDOCK:   -4.74 KCAL/MOL
REMARK 923 INTER-LIGAND FREE ENERGY PREDICTED BY IDOCK:   -4.07 KCAL/MOL
REMARK 924 INTRA-LIGAND FREE ENERGY PREDICTED BY IDOCK:   -0.67 KCAL/MOL
REMARK 927      BINDING AFFINITY PREDICTED BY RF-SCORE:    0.00 PKD
ROOT
HETATM    1  C   UNL     1      -6.295  10.189  63.777  1.00  0.00    -0.131 C  
HETATM    2  O   UNL     1      -7.719  10.214  63.782  1.00  0.00    -0.149 OA 
ENDROOT
BRANCH   2   3
HETATM    3  C   UNL     1      -8.299   9.765  64.937  1.00  0.00    -0.148 A  
HETATM    4  C   UNL     1      -8.337   8.383  65.106  1.00  0.00    -0.177 A  
HETATM    5  C   UNL     1      -8.934   7.824  66.241  1.00  0.00    -0.209 A  
HETATM    6  C   UNL     1      -9.471   8.642  67.240  1.00  0.00    -0.198 A  
HETATM    7  C   UNL     1      -9.400  10.033  67.075  1.00  0.00    -0.180 A  
HETATM    8  C   UNL     1      -8.811  10.592  65.937  1.00  0.00    -0.187 A  
BRANCH   6   9
HETATM    9  C   UNL     1     -10.187   8.035  68.367  1.00  0.00    -0.239 C  
HETATM   10  C   UNL     1     -10.786   6.837  68.312  1.00  0.00    -0.290 C  
BRANCH  10  11
HETATM   11  C   UNL     1     -11.270   6.184  69.549  1.00  0.00    -0.411 C  
HETATM   12  O   UNL     1     -12.211   6.555  70.230  1.00  0.00    -0.278 OA 
BRANCH  11  13
HETATM   13  O   UNL     1     -10.340   5.254  69.888  1.00  0.00    -0.272 OA 
BRANCH  13  14
HETATM   14  C   UNL     1     -10.146   5.118  71.300  1.00  0.00    -0.210 C  
BRANCH  14  15
HETATM   15  C   UNL     1      -9.021   6.000  71.829  1.00  0.00    -0.138 C  
HETATM   16  C   UNL     1      -9.572   7.256  72.536  1.00  0.00    -0.186 C  
HETATM   17  C   UNL     1     -10.445   6.912  73.746  1.00  0.00    -0.390 C  
HETATM   18  C   UNL     1      -8.434   8.178  72.972  1.00  0.00    -0.272 C  
ENDBRANCH  14  15
ENDBRANCH  13  14
ENDBRANCH  11  13
ENDBRANCH  10  11
ENDBRANCH   6   9
ENDBRANCH   2   3
TORSDOF 6
ENDMDL
MODEL      201
REMARK 921   NORMALIZED FREE ENERGY PREDICTED BY IDOCK:   -2.92 KCAL/MOL
REMARK 922        TOTAL FREE ENERGY PREDICTED BY IDOCK:   -4.72 KCAL/MOL
REMARK 923 INTER-LIGAND FREE ENERGY PREDICTED BY IDOCK:   -4.04 KCAL/MOL
REMARK 924 INTRA-LIGAND FREE ENERGY PREDICTED BY IDOCK:   -0.68 KCAL/MOL
REMARK 927      BINDING AFFINITY PREDICTED BY RF-SCORE:    0.00 PKD
ROOT
HETATM    1  C   UNL     1      -6.888  12.532  67.642  1.00  0.00    -0.136 C  
HETATM    2  O   UNL     1      -6.009  11.764  68.459  1.00  0.00    -0.049 OA 
ENDROOT
BRANCH   2   3
HETATM    3  C   UNL     1      -6.626  10.851  69.270  1.00  0.00    -0.079 A  
HETATM    4  C   UNL     1      -7.990  10.662  69.051  1.00  0.00    -0.140 A  
HETATM    5  C   UNL     1      -8.718   9.771  69.847  1.00  0.00    -0.238 A  
HETATM    6  C   UNL     1      -8.085   9.031  70.850  1.00  0.00    -0.203 A  
HETATM    7  C   UNL     1      -6.706   9.205  71.041  1.00  0.00    -0.093 A  
HETATM    8  C   UNL     1      -5.979  10.102  70.252  1.00  0.00    -0.081 A  
BRANCH   6   9
HETATM    9  C   UNL     1      -8.886   8.185  71.741  1.00  0.00    -0.206 C  
HETATM   10  C   UNL     1     -10.201   7.975  71.589  1.00  0.00    -0.256 C  
BRANCH  10  11
HETATM   11  C   UNL     1     -10.888   6.923  72.370  1.00  0.00    -0.235 C  
HETATM   12  O   UNL     1     -10.907   6.835  73.586  1.00  0.00    -0.290 OA 
BRANCH  11  13
HETATM   13  O   UNL     1     -11.284   5.975  71.482  1.00  0.00    -0.277 OA 
BRANCH  13  14
HETATM   14  C   UNL     1     -11.518   6.480  70.163  1.00  0.00    -0.415 C  
BRANCH  14  15
HETATM   15  C   UNL     1     -10.658   5.792  69.107  1.00  0.00    -0.365 C  
HETATM   16  C   UNL     1     -10.962   6.329  67.693  1.00  0.00    -0.438 C  
HETATM   17  C   UNL     1     -10.675   7.828  67.562  1.00  0.00    -0.265 C  
HETATM   18  C   UNL     1     -10.166   5.562  66.638  1.00  0.00    -0.279 C  
ENDBRANCH  14  15
ENDBRANCH  13  14
ENDBRANCH  11  13
ENDBRANCH  10  11
ENDBRANCH   6   9
ENDBRANCH   2   3
TORSDOF 6
ENDMDL
MODEL      202
REMARK 921   NORMALIZED FREE ENERGY PREDICTED BY IDOCK:   -2.90 KCAL/MOL
REMARK 922        TOTAL FREE ENERGY PREDICTED BY IDOCK:   -4.71 KCAL/MOL
REMARK 923 INTER-LIGAND FREE ENERGY PREDICTED BY IDOCK:   -4.43 KCAL/MOL
REMARK 924 INTRA-LIGAND FREE ENERGY PREDICTED BY IDOCK:   -0.27 KCAL/MOL
REMARK 927      BINDING AFFINITY PREDICTED BY RF-SCORE:    0.00 PKD
ROOT
HETATM    1  C   UNL     1     -12.889   6.812  71.739  1.00  0.00    -0.259 C  
HETATM    2  O   UNL     1     -11.726   6.331  71.071  1.00  0.00    -0.319 OA 
ENDROOT
BRANCH   2   3
HETATM    3  C   UNL     1     -10.940   7.302  70.512  1.00  0.00    -0.260 A  
HETATM    4  C   UNL     1     -10.546   8.334  71.361  1.00  0.00    -0.279 A  
HETATM    5  C   UNL     1      -9.764   9.389  70.879  1.00  0.00    -0.320 A  
HETATM    6  C   UNL     1      -9.337   9.409  69.547  1.00  0.00    -0.187 A  
HETATM    7  C   UNL     1      -9.713   8.349  68.708  1.00  0.00    -0.168 A  
HETATM    8  C   UNL     1     -10.502   7.299  69.188  1.00  0.00    -0.222 A  
BRANCH   6   9
HETATM    9  C   UNL     1      -8.611  10.576  69.036  1.00  0.00    -0.160 C  
HETATM   10  C   UNL     1      -9.197  11.599  68.398  1.00  0.00    -0.182 C  
BRANCH  10  11
HETATM   11  C   UNL     1      -8.446  12.847  68.133  1.00  0.00    -0.176 C  
HETATM   12  O   UNL     1      -7.236  12.979  68.201  1.00  0.00    -0.092 OA 
BRANCH  11  13
HETATM   13  O   UNL     1      -9.367  13.840  68.030  1.00  0.00    -0.186 OA 
BRANCH  13  14
HETATM   14  C   UNL     1     -10.695  13.374  67.771  1.00  0.00    -0.248 C  
BRANCH  14  15
HETATM   15  C   UNL     1     -11.656  13.662  68.919  1.00  0.00    -0.362 C  
HETATM   16  C   UNL     1     -11.418  15.065  69.517  1.00  0.00    -0.317 C  
HETATM   17  C   UNL     1     -11.634  16.182  68.492  1.00  0.00    -0.265 C  
HETATM   18  C   UNL     1     -12.321  15.299  70.728  1.00  0.00    -0.433 C  
ENDBRANCH  14  15
ENDBRANCH  13  14
ENDBRANCH  11  13
ENDBRANCH  10  11
ENDBRANCH   6   9
ENDBRANCH   2   3
TORSDOF 6
ENDMDL
MODEL      203
REMARK 921   NORMALIZED FREE ENERGY PREDICTED BY IDOCK:   -2.90 KCAL/MOL
REMARK 922        TOTAL FREE ENERGY PREDICTED BY IDOCK:   -4.70 KCAL/MOL
REMARK 923 INTER-LIGAND FREE ENERGY PREDICTED BY IDOCK:   -4.33 KCAL/MOL
REMARK 924 INTRA-LIGAND FREE ENERGY PREDICTED BY IDOCK:   -0.37 KCAL/MOL
REMARK 927      BINDING AFFINITY PREDICTED BY RF-SCORE:    0.00 PKD
ROOT
HETATM    1  C   UNL     1      -5.324  11.908  68.700  1.00  0.00    -0.049 C  
HETATM    2  O   UNL     1      -6.533  12.301  69.343  1.00  0.00    -0.105 OA 
ENDROOT
BRANCH   2   3
HETATM    3  C   UNL     1      -7.123  13.421  68.824  1.00  0.00    -0.101 A  
HETATM    4  C   UNL     1      -7.777  13.258  67.604  1.00  0.00    -0.171 A  
HETATM    5  C   UNL     1      -8.388  14.349  66.977  1.00  0.00    -0.172 A  
HETATM    6  C   UNL     1      -8.384  15.612  67.578  1.00  0.00    -0.186 A  
HETATM    7  C   UNL     1      -7.750  15.758  68.822  1.00  0.00    -0.177 A  
HETATM    8  C   UNL     1      -7.132  14.670  69.445  1.00  0.00    -0.157 A  
BRANCH   6   9
HETATM    9  C   UNL     1      -8.935  16.762  66.854  1.00  0.00    -0.244 C  
HETATM   10  C   UNL     1     -10.133  17.304  67.116  1.00  0.00    -0.297 C  
BRANCH  10  11
HETATM   11  C   UNL     1     -10.514  18.604  66.519  1.00  0.00    -0.420 C  
HETATM   12  O   UNL     1     -10.910  18.776  65.379  1.00  0.00    -0.563 OA 
BRANCH  11  13
HETATM   13  O   UNL     1     -10.122  19.564  67.397  1.00  0.00    -0.357 OA 
BRANCH  13  14
HETATM   14  C   UNL     1      -9.297  20.578  66.814  1.00  0.00    -0.244 C  
BRANCH  14  15
HETATM   15  C   UNL     1      -8.008  20.020  66.221  1.00  0.00    -0.323 C  
HETATM   16  C   UNL     1      -6.817  20.972  66.459  1.00  0.00    -0.240 C  
HETATM   17  C   UNL     1      -6.536  21.197  67.947  1.00  0.00    -0.320 C  
HETATM   18  C   UNL     1      -5.556  20.447  65.773  1.00  0.00    -0.210 C  
ENDBRANCH  14  15
ENDBRANCH  13  14
ENDBRANCH  11  13
ENDBRANCH  10  11
ENDBRANCH   6   9
ENDBRANCH   2   3
TORSDOF 6
ENDMDL
MODEL      204
REMARK 921   NORMALIZED FREE ENERGY PREDICTED BY IDOCK:   -2.90 KCAL/MOL
REMARK 922        TOTAL FREE ENERGY PREDICTED BY IDOCK:   -4.70 KCAL/MOL
REMARK 923 INTER-LIGAND FREE ENERGY PREDICTED BY IDOCK:   -4.33 KCAL/MOL
REMARK 924 INTRA-LIGAND FREE ENERGY PREDICTED BY IDOCK:   -0.37 KCAL/MOL
REMARK 927      BINDING AFFINITY PREDICTED BY RF-SCORE:    0.00 PKD
ROOT
HETATM    1  C   UNL     1      -8.967   2.281  73.226  1.00  0.00    -0.070 C  
HETATM    2  O   UNL     1      -9.367   2.093  71.872  1.00  0.00    -0.084 OA 
ENDROOT
BRANCH   2   3
HETATM    3  C   UNL     1      -9.700   3.240  71.204  1.00  0.00    -0.142 A  
HETATM    4  C   UNL     1     -10.092   4.317  71.997  1.00  0.00    -0.244 A  
HETATM    5  C   UNL     1     -10.478   5.526  71.409  1.00  0.00    -0.305 A  
HETATM    6  C   UNL     1     -10.444   5.686  70.020  1.00  0.00    -0.367 A  
HETATM    7  C   UNL     1     -10.017   4.606  69.233  1.00  0.00    -0.231 A  
HETATM    8  C   UNL     1      -9.639   3.394  69.820  1.00  0.00    -0.180 A  
BRANCH   6   9
HETATM    9  C   UNL     1     -10.955   6.923  69.419  1.00  0.00    -0.274 C  
HETATM   10  C   UNL     1     -10.320   8.102  69.484  1.00  0.00    -0.222 C  
BRANCH  10  11
HETATM   11  C   UNL     1     -10.767   9.241  68.651  1.00  0.00    -0.143 C  
HETATM   12  O   UNL     1     -10.529   9.393  67.465  1.00  0.00    -0.248 OA 
BRANCH  11  13
HETATM   13  O   UNL     1     -11.280  10.167  69.502  1.00  0.00    -0.238 OA 
BRANCH  13  14
HETATM   14  C   UNL     1     -11.894  11.280  68.844  1.00  0.00    -0.345 C  
BRANCH  14  15
HETATM   15  C   UNL     1     -11.228  12.608  69.188  1.00  0.00    -0.300 C  
HETATM   16  C   UNL     1     -10.811  13.377  67.917  1.00  0.00    -0.263 C  
HETATM   17  C   UNL     1     -12.006  13.721  67.023  1.00  0.00    -0.452 C  
HETATM   18  C   UNL     1     -10.058  14.658  68.279  1.00  0.00    -0.228 C  
ENDBRANCH  14  15
ENDBRANCH  13  14
ENDBRANCH  11  13
ENDBRANCH  10  11
ENDBRANCH   6   9
ENDBRANCH   2   3
TORSDOF 6
ENDMDL
MODEL      205
REMARK 921   NORMALIZED FREE ENERGY PREDICTED BY IDOCK:   -2.90 KCAL/MOL
REMARK 922        TOTAL FREE ENERGY PREDICTED BY IDOCK:   -4.70 KCAL/MOL
REMARK 923 INTER-LIGAND FREE ENERGY PREDICTED BY IDOCK:   -4.29 KCAL/MOL
REMARK 924 INTRA-LIGAND FREE ENERGY PREDICTED BY IDOCK:   -0.41 KCAL/MOL
REMARK 927      BINDING AFFINITY PREDICTED BY RF-SCORE:    0.00 PKD
ROOT
HETATM    1  C   UNL     1      -7.171   7.098  64.858  1.00  0.00    -0.071 C  
HETATM    2  O   UNL     1      -8.232   6.508  65.603  1.00  0.00    -0.125 OA 
ENDROOT
BRANCH   2   3
HETATM    3  C   UNL     1      -8.776   7.313  66.567  1.00  0.00    -0.133 A  
HETATM    4  C   UNL     1      -9.382   8.484  66.115  1.00  0.00    -0.279 A  
HETATM    5  C   UNL     1      -9.943   9.386  67.024  1.00  0.00    -0.282 A  
HETATM    6  C   UNL     1      -9.937   9.114  68.396  1.00  0.00    -0.202 A  
HETATM    7  C   UNL     1      -9.353   7.917  68.837  1.00  0.00    -0.150 A  
HETATM    8  C   UNL     1      -8.784   7.018  67.930  1.00  0.00    -0.125 A  
BRANCH   6   9
HETATM    9  C   UNL     1     -10.434  10.123  69.338  1.00  0.00    -0.254 C  
HETATM   10  C   UNL     1     -11.691  10.588  69.339  1.00  0.00    -0.295 C  
BRANCH  10  11
HETATM   11  C   UNL     1     -12.184  11.412  70.465  1.00  0.00    -0.386 C  
HETATM   12  O   UNL     1     -13.082  11.108  71.231  1.00  0.00    -0.366 OA 
BRANCH  11  13
HETATM   13  O   UNL     1     -11.610  12.636  70.331  1.00  0.00    -0.120 OA 
BRANCH  13  14
HETATM   14  C   UNL     1     -12.275  13.487  69.392  1.00  0.00    -0.228 C  
BRANCH  14  15
HETATM   15  C   UNL     1     -11.441  13.753  68.144  1.00  0.00    -0.348 C  
HETATM   16  C   UNL     1     -11.433  15.252  67.777  1.00  0.00    -0.312 C  
HETATM   17  C   UNL     1     -10.830  16.122  68.884  1.00  0.00    -0.305 C  
HETATM   18  C   UNL     1     -10.676  15.489  66.471  1.00  0.00    -0.304 C  
ENDBRANCH  14  15
ENDBRANCH  13  14
ENDBRANCH  11  13
ENDBRANCH  10  11
ENDBRANCH   6   9
ENDBRANCH   2   3
TORSDOF 6
ENDMDL
MODEL      206
REMARK 921   NORMALIZED FREE ENERGY PREDICTED BY IDOCK:   -2.90 KCAL/MOL
REMARK 922        TOTAL FREE ENERGY PREDICTED BY IDOCK:   -4.70 KCAL/MOL
REMARK 923 INTER-LIGAND FREE ENERGY PREDICTED BY IDOCK:   -4.34 KCAL/MOL
REMARK 924 INTRA-LIGAND FREE ENERGY PREDICTED BY IDOCK:   -0.36 KCAL/MOL
REMARK 927      BINDING AFFINITY PREDICTED BY RF-SCORE:    0.00 PKD
ROOT
HETATM    1  C   UNL     1     -14.250   7.685  71.641  1.00  0.00    -0.454 C  
HETATM    2  O   UNL     1     -12.988   7.038  71.782  1.00  0.00    -0.359 OA 
ENDROOT
BRANCH   2   3
HETATM    3  C   UNL     1     -11.978   7.574  71.030  1.00  0.00    -0.290 A  
HETATM    4  C   UNL     1     -11.624   8.888  71.330  1.00  0.00    -0.371 A  
HETATM    5  C   UNL     1     -10.622   9.536  70.599  1.00  0.00    -0.374 A  
HETATM    6  C   UNL     1      -9.936   8.867  69.581  1.00  0.00    -0.193 A  
HETATM    7  C   UNL     1     -10.279   7.533  69.308  1.00  0.00    -0.201 A  
HETATM    8  C   UNL     1     -11.287   6.888  70.032  1.00  0.00    -0.343 A  
BRANCH   6   9
HETATM    9  C   UNL     1      -8.967   9.597  68.758  1.00  0.00    -0.134 C  
HETATM   10  C   UNL     1      -8.899  10.934  68.695  1.00  0.00    -0.158 C  
BRANCH  10  11
HETATM   11  C   UNL     1      -7.747  11.597  68.044  1.00  0.00    -0.121 C  
HETATM   12  O   UNL     1      -6.859  11.036  67.425  1.00  0.00    -0.074 OA 
BRANCH  11  13
HETATM   13  O   UNL     1      -7.754  12.889  68.463  1.00  0.00    -0.129 OA 
BRANCH  13  14
HETATM   14  C   UNL     1      -8.552  13.756  67.650  1.00  0.00    -0.187 C  
BRANCH  14  15
HETATM   15  C   UNL     1      -8.191  15.227  67.826  1.00  0.00    -0.157 C  
HETATM   16  C   UNL     1      -9.115  16.140  66.994  1.00  0.00    -0.228 C  
HETATM   17  C   UNL     1     -10.585  16.013  67.402  1.00  0.00    -0.316 C  
HETATM   18  C   UNL     1      -8.678  17.601  67.104  1.00  0.00    -0.252 C  
ENDBRANCH  14  15
ENDBRANCH  13  14
ENDBRANCH  11  13
ENDBRANCH  10  11
ENDBRANCH   6   9
ENDBRANCH   2   3
TORSDOF 6
ENDMDL
MODEL      207
REMARK 921   NORMALIZED FREE ENERGY PREDICTED BY IDOCK:   -2.89 KCAL/MOL
REMARK 922        TOTAL FREE ENERGY PREDICTED BY IDOCK:   -4.69 KCAL/MOL
REMARK 923 INTER-LIGAND FREE ENERGY PREDICTED BY IDOCK:   -4.38 KCAL/MOL
REMARK 924 INTRA-LIGAND FREE ENERGY PREDICTED BY IDOCK:   -0.32 KCAL/MOL
REMARK 927      BINDING AFFINITY PREDICTED BY RF-SCORE:    0.00 PKD
ROOT
HETATM    1  C   UNL     1      -6.857   4.350  72.123  1.00  0.00    -0.050 C  
HETATM    2  O   UNL     1      -7.662   4.945  73.137  1.00  0.00    -0.090 OA 
ENDROOT
BRANCH   2   3
HETATM    3  C   UNL     1      -8.536   5.900  72.692  1.00  0.00    -0.119 A  
HETATM    4  C   UNL     1      -9.839   5.471  72.450  1.00  0.00    -0.189 A  
HETATM    5  C   UNL     1     -10.801   6.366  71.968  1.00  0.00    -0.277 A  
HETATM    6  C   UNL     1     -10.480   7.710  71.752  1.00  0.00    -0.241 A  
HETATM    7  C   UNL     1      -9.173   8.138  72.029  1.00  0.00    -0.253 A  
HETATM    8  C   UNL     1      -8.209   7.242  72.504  1.00  0.00    -0.122 A  
BRANCH   6   9
HETATM    9  C   UNL     1     -11.471   8.603  71.144  1.00  0.00    -0.332 C  
HETATM   10  C   UNL     1     -11.572   9.910  71.428  1.00  0.00    -0.428 C  
BRANCH  10  11
HETATM   11  C   UNL     1     -12.423  10.793  70.601  1.00  0.00    -0.370 C  
HETATM   12  O   UNL     1     -13.500  10.494  70.114  1.00  0.00     0.096 OA 
BRANCH  11  13
HETATM   13  O   UNL     1     -11.677  11.891  70.310  1.00  0.00    -0.303 OA 
BRANCH  13  14
HETATM   14  C   UNL     1     -11.869  12.385  68.981  1.00  0.00    -0.300 C  
BRANCH  14  15
HETATM   15  C   UNL     1     -11.880  13.908  68.914  1.00  0.00    -0.393 C  
HETATM   16  C   UNL     1     -11.361  14.419  67.553  1.00  0.00    -0.345 C  
HETATM   17  C   UNL     1     -12.220  13.937  66.381  1.00  0.00    -0.487 C  
HETATM   18  C   UNL     1     -11.285  15.945  67.538  1.00  0.00    -0.171 C  
ENDBRANCH  14  15
ENDBRANCH  13  14
ENDBRANCH  11  13
ENDBRANCH  10  11
ENDBRANCH   6   9
ENDBRANCH   2   3
TORSDOF 6
ENDMDL
MODEL      208
REMARK 921   NORMALIZED FREE ENERGY PREDICTED BY IDOCK:   -2.89 KCAL/MOL
REMARK 922        TOTAL FREE ENERGY PREDICTED BY IDOCK:   -4.68 KCAL/MOL
REMARK 923 INTER-LIGAND FREE ENERGY PREDICTED BY IDOCK:   -4.31 KCAL/MOL
REMARK 924 INTRA-LIGAND FREE ENERGY PREDICTED BY IDOCK:   -0.38 KCAL/MOL
REMARK 927      BINDING AFFINITY PREDICTED BY RF-SCORE:    0.00 PKD
ROOT
HETATM    1  C   UNL     1      -9.971   4.401  70.624  1.00  0.00    -0.183 C  
HETATM    2  O   UNL     1     -10.396   5.436  71.506  1.00  0.00    -0.211 OA 
ENDROOT
BRANCH   2   3
HETATM    3  C   UNL     1     -10.369   6.696  70.971  1.00  0.00    -0.207 A  
HETATM    4  C   UNL     1     -10.596   6.782  69.599  1.00  0.00    -0.267 A  
HETATM    5  C   UNL     1     -10.562   8.022  68.952  1.00  0.00    -0.160 A  
HETATM    6  C   UNL     1     -10.333   9.197  69.675  1.00  0.00    -0.226 A  
HETATM    7  C   UNL     1     -10.137   9.102  71.061  1.00  0.00    -0.373 A  
HETATM    8  C   UNL     1     -10.162   7.862  71.707  1.00  0.00    -0.247 A  
BRANCH   6   9
HETATM    9  C   UNL     1     -10.194  10.471  68.962  1.00  0.00    -0.233 C  
HETATM   10  C   UNL     1      -9.067  10.867  68.354  1.00  0.00    -0.164 C  
BRANCH  10  11
HETATM   11  C   UNL     1      -9.073  12.040  67.451  1.00  0.00    -0.178 C  
HETATM   12  O   UNL     1      -8.793  12.028  66.265  1.00  0.00    -0.171 OA 
BRANCH  11  13
HETATM   13  O   UNL     1      -9.223  13.136  68.239  1.00  0.00    -0.207 OA 
BRANCH  13  14
HETATM   14  C   UNL     1     -10.293  13.997  67.835  1.00  0.00    -0.239 C  
BRANCH  14  15
HETATM   15  C   UNL     1      -9.810  15.202  67.036  1.00  0.00    -0.233 C  
HETATM   16  C   UNL     1     -10.633  16.466  67.364  1.00  0.00    -0.306 C  
HETATM   17  C   UNL     1     -10.528  16.866  68.838  1.00  0.00    -0.346 C  
HETATM   18  C   UNL     1     -10.202  17.639  66.483  1.00  0.00    -0.355 C  
ENDBRANCH  14  15
ENDBRANCH  13  14
ENDBRANCH  11  13
ENDBRANCH  10  11
ENDBRANCH   6   9
ENDBRANCH   2   3
TORSDOF 6
ENDMDL
MODEL      209
REMARK 921   NORMALIZED FREE ENERGY PREDICTED BY IDOCK:   -2.87 KCAL/MOL
REMARK 922        TOTAL FREE ENERGY PREDICTED BY IDOCK:   -4.66 KCAL/MOL
REMARK 923 INTER-LIGAND FREE ENERGY PREDICTED BY IDOCK:   -4.46 KCAL/MOL
REMARK 924 INTRA-LIGAND FREE ENERGY PREDICTED BY IDOCK:   -0.20 KCAL/MOL
REMARK 927      BINDING AFFINITY PREDICTED BY RF-SCORE:    0.00 PKD
ROOT
HETATM    1  C   UNL     1     -12.196  12.874  70.250  1.00  0.00    -0.289 C  
HETATM    2  O   UNL     1     -11.696  11.807  69.448  1.00  0.00    -0.289 OA 
ENDROOT
BRANCH   2   3
HETATM    3  C   UNL     1     -11.623  10.596  70.080  1.00  0.00    -0.330 A  
HETATM    4  C   UNL     1     -10.846   9.624  69.453  1.00  0.00    -0.239 A  
HETATM    5  C   UNL     1     -10.730   8.345  70.006  1.00  0.00    -0.236 A  
HETATM    6  C   UNL     1     -11.363   8.029  71.212  1.00  0.00    -0.295 A  
HETATM    7  C   UNL     1     -12.118   9.024  71.852  1.00  0.00    -0.448 A  
HETATM    8  C   UNL     1     -12.241  10.301  71.295  1.00  0.00    -0.496 A  
BRANCH   6   9
HETATM    9  C   UNL     1     -11.317   6.653  71.717  1.00  0.00    -0.320 C  
HETATM   10  C   UNL     1     -10.386   6.201  72.569  1.00  0.00    -0.218 C  
BRANCH  10  11
HETATM   11  C   UNL     1     -10.545   4.883  73.223  1.00  0.00    -0.232 C  
HETATM   12  O   UNL     1     -10.708   4.695  74.417  1.00  0.00    -0.286 OA 
BRANCH  11  13
HETATM   13  O   UNL     1     -10.247   3.945  72.286  1.00  0.00    -0.178 OA 
BRANCH  13  14
HETATM   14  C   UNL     1      -8.844   3.713  72.126  1.00  0.00    -0.092 C  
BRANCH  14  15
HETATM   15  C   UNL     1      -8.159   4.793  71.296  1.00  0.00    -0.101 C  
HETATM   16  C   UNL     1      -8.216   4.469  69.788  1.00  0.00    -0.066 C  
HETATM   17  C   UNL     1      -9.651   4.377  69.263  1.00  0.00    -0.261 C  
HETATM   18  C   UNL     1      -7.440   5.509  68.980  1.00  0.00    -0.082 C  
ENDBRANCH  14  15
ENDBRANCH  13  14
ENDBRANCH  11  13
ENDBRANCH  10  11
ENDBRANCH   6   9
ENDBRANCH   2   3
TORSDOF 6
ENDMDL
MODEL      210
REMARK 921   NORMALIZED FREE ENERGY PREDICTED BY IDOCK:   -2.83 KCAL/MOL
REMARK 922        TOTAL FREE ENERGY PREDICTED BY IDOCK:   -4.60 KCAL/MOL
REMARK 923 INTER-LIGAND FREE ENERGY PREDICTED BY IDOCK:   -3.89 KCAL/MOL
REMARK 924 INTRA-LIGAND FREE ENERGY PREDICTED BY IDOCK:   -0.71 KCAL/MOL
REMARK 927      BINDING AFFINITY PREDICTED BY RF-SCORE:    0.00 PKD
ROOT
HETATM    1  C   UNL     1      -5.627   8.464  67.573  1.00  0.00    -0.039 C  
HETATM    2  O   UNL     1      -5.301   9.809  67.234  1.00  0.00    -0.038 OA 
ENDROOT
BRANCH   2   3
HETATM    3  C   UNL     1      -6.287  10.723  67.490  1.00  0.00    -0.057 A  
HETATM    4  C   UNL     1      -7.420  10.235  68.138  1.00  0.00    -0.086 A  
HETATM    5  C   UNL     1      -8.495  11.084  68.420  1.00  0.00    -0.144 A  
HETATM    6  C   UNL     1      -8.438  12.441  68.088  1.00  0.00    -0.180 A  
HETATM    7  C   UNL     1      -7.279  12.929  67.464  1.00  0.00    -0.149 A  
HETATM    8  C   UNL     1      -6.208  12.079  67.174  1.00  0.00    -0.151 A  
BRANCH   6   9
HETATM    9  C   UNL     1      -9.617  13.289  68.294  1.00  0.00    -0.221 C  
HETATM   10  C   UNL     1     -10.852  12.811  68.503  1.00  0.00    -0.279 C  
BRANCH  10  11
HETATM   11  C   UNL     1     -11.939  13.712  68.947  1.00  0.00    -0.356 C  
HETATM   12  O   UNL     1     -11.961  14.924  68.812  1.00  0.00    -0.303 OA 
BRANCH  11  13
HETATM   13  O   UNL     1     -12.772  12.966  69.719  1.00  0.00     0.152 OA 
BRANCH  13  14
HETATM   14  C   UNL     1     -12.542  13.109  71.124  1.00  0.00    -0.314 C  
BRANCH  14  15
HETATM   15  C   UNL     1     -13.145  11.971  71.939  1.00  0.00    -0.475 C  
HETATM   16  C   UNL     1     -12.893  10.602  71.272  1.00  0.00    -0.535 C  
HETATM   17  C   UNL     1     -11.402  10.283  71.138  1.00  0.00    -0.225 C  
HETATM   18  C   UNL     1     -13.588   9.483  72.048  1.00  0.00    -0.492 C  
ENDBRANCH  14  15
ENDBRANCH  13  14
ENDBRANCH  11  13
ENDBRANCH  10  11
ENDBRANCH   6   9
ENDBRANCH   2   3
TORSDOF 6
ENDMDL
MODEL      211
REMARK 921   NORMALIZED FREE ENERGY PREDICTED BY IDOCK:   -2.83 KCAL/MOL
REMARK 922        TOTAL FREE ENERGY PREDICTED BY IDOCK:   -4.60 KCAL/MOL
REMARK 923 INTER-LIGAND FREE ENERGY PREDICTED BY IDOCK:   -3.98 KCAL/MOL
REMARK 924 INTRA-LIGAND FREE ENERGY PREDICTED BY IDOCK:   -0.62 KCAL/MOL
REMARK 927      BINDING AFFINITY PREDICTED BY RF-SCORE:    0.00 PKD
ROOT
HETATM    1  C   UNL     1      -7.448  14.665  68.433  1.00  0.00    -0.117 C  
HETATM    2  O   UNL     1      -7.328  13.404  67.781  1.00  0.00    -0.124 OA 
ENDROOT
BRANCH   2   3
HETATM    3  C   UNL     1      -8.111  12.410  68.302  1.00  0.00    -0.166 A  
HETATM    4  C   UNL     1      -9.479  12.518  68.059  1.00  0.00    -0.209 A  
HETATM    5  C   UNL     1     -10.367  11.566  68.573  1.00  0.00    -0.224 A  
HETATM    6  C   UNL     1      -9.895  10.475  69.308  1.00  0.00    -0.225 A  
HETATM    7  C   UNL     1      -8.512  10.359  69.520  1.00  0.00    -0.115 A  
HETATM    8  C   UNL     1      -7.625  11.314  69.015  1.00  0.00    -0.106 A  
BRANCH   6   9
HETATM    9  C   UNL     1     -10.850   9.550  69.928  1.00  0.00    -0.272 C  
HETATM   10  C   UNL     1     -11.201   9.596  71.221  1.00  0.00    -0.446 C  
BRANCH  10  11
HETATM   11  C   UNL     1     -12.346   8.799  71.716  1.00  0.00    -0.351 C  
HETATM   12  O   UNL     1     -13.520   9.000  71.456  1.00  0.00    -0.355 OA 
BRANCH  11  13
HETATM   13  O   UNL     1     -11.857   7.970  72.674  1.00  0.00    -0.377 OA 
BRANCH  13  14
HETATM   14  C   UNL     1     -11.332   6.740  72.162  1.00  0.00    -0.271 C  
BRANCH  14  15
HETATM   15  C   UNL     1     -10.539   5.959  73.204  1.00  0.00    -0.270 C  
HETATM   16  C   UNL     1      -9.072   5.761  72.767  1.00  0.00    -0.133 C  
HETATM   17  C   UNL     1      -8.333   7.089  72.581  1.00  0.00    -0.119 C  
HETATM   18  C   UNL     1      -8.318   4.893  73.774  1.00  0.00    -0.105 C  
ENDBRANCH  14  15
ENDBRANCH  13  14
ENDBRANCH  11  13
ENDBRANCH  10  11
ENDBRANCH   6   9
ENDBRANCH   2   3
TORSDOF 6
ENDMDL
MODEL      212
REMARK 921   NORMALIZED FREE ENERGY PREDICTED BY IDOCK:   -2.82 KCAL/MOL
REMARK 922        TOTAL FREE ENERGY PREDICTED BY IDOCK:   -4.60 KCAL/MOL
REMARK 923 INTER-LIGAND FREE ENERGY PREDICTED BY IDOCK:   -4.16 KCAL/MOL
REMARK 924 INTRA-LIGAND FREE ENERGY PREDICTED BY IDOCK:   -0.44 KCAL/MOL
REMARK 927      BINDING AFFINITY PREDICTED BY RF-SCORE:    0.00 PKD
ROOT
HETATM    1  C   UNL     1      -7.303   8.965  71.506  1.00  0.00    -0.052 C  
HETATM    2  O   UNL     1      -8.692   9.132  71.232  1.00  0.00    -0.270 OA 
ENDROOT
BRANCH   2   3
HETATM    3  C   UNL     1      -8.974   9.789  70.065  1.00  0.00    -0.222 A  
HETATM    4  C   UNL     1      -7.878  10.291  69.366  1.00  0.00    -0.157 A  
HETATM    5  C   UNL     1      -8.063  11.003  68.176  1.00  0.00    -0.122 A  
HETATM    6  C   UNL     1      -9.345  11.192  67.651  1.00  0.00    -0.169 A  
HETATM    7  C   UNL     1     -10.439  10.655  68.346  1.00  0.00    -0.212 A  
HETATM    8  C   UNL     1     -10.255   9.951  69.540  1.00  0.00    -0.243 A  
BRANCH   6   9
HETATM    9  C   UNL     1      -9.525  12.032  66.462  1.00  0.00    -0.234 C  
HETATM   10  C   UNL     1     -10.283  13.137  66.437  1.00  0.00    -0.286 C  
BRANCH  10  11
HETATM   11  C   UNL     1     -10.220  14.064  65.284  1.00  0.00    -0.360 C  
HETATM   12  O   UNL     1     -10.623  13.829  64.158  1.00  0.00    -0.264 OA 
BRANCH  11  13
HETATM   13  O   UNL     1      -9.435  15.105  65.665  1.00  0.00    -0.307 OA 
BRANCH  13  14
HETATM   14  C   UNL     1     -10.155  16.324  65.879  1.00  0.00    -0.357 C  
BRANCH  14  15
HETATM   15  C   UNL     1     -11.137  16.231  67.042  1.00  0.00     0.017 C  
HETATM   16  C   UNL     1     -10.406  16.227  68.401  1.00  0.00    -0.271 C  
HETATM   17  C   UNL     1      -9.593  17.504  68.632  1.00  0.00    -0.303 C  
HETATM   18  C   UNL     1     -11.395  16.034  69.550  1.00  0.00    -0.344 C  
ENDBRANCH  14  15
ENDBRANCH  13  14
ENDBRANCH  11  13
ENDBRANCH  10  11
ENDBRANCH   6   9
ENDBRANCH   2   3
TORSDOF 6
ENDMDL
MODEL      213
REMARK 921   NORMALIZED FREE ENERGY PREDICTED BY IDOCK:   -2.82 KCAL/MOL
REMARK 922        TOTAL FREE ENERGY PREDICTED BY IDOCK:   -4.59 KCAL/MOL
REMARK 923 INTER-LIGAND FREE ENERGY PREDICTED BY IDOCK:   -4.21 KCAL/MOL
REMARK 924 INTRA-LIGAND FREE ENERGY PREDICTED BY IDOCK:   -0.38 KCAL/MOL
REMARK 927      BINDING AFFINITY PREDICTED BY RF-SCORE:    0.00 PKD
ROOT
HETATM    1  C   UNL     1     -10.740  19.000  66.109  1.00  0.00    -0.323 C  
HETATM    2  O   UNL     1      -9.601  18.150  66.002  1.00  0.00    -0.496 OA 
ENDROOT
BRANCH   2   3
HETATM    3  C   UNL     1      -9.831  16.837  66.308  1.00  0.00    -0.309 A  
HETATM    4  C   UNL     1      -9.948  15.968  65.225  1.00  0.00    -0.064 A  
HETATM    5  C   UNL     1     -10.211  14.609  65.432  1.00  0.00    -0.415 A  
HETATM    6  C   UNL     1     -10.328  14.095  66.727  1.00  0.00    -0.274 A  
HETATM    7  C   UNL     1     -10.177  14.973  67.811  1.00  0.00    -0.236 A  
HETATM    8  C   UNL     1      -9.923  16.332  67.605  1.00  0.00    -0.247 A  
BRANCH   6   9
HETATM    9  C   UNL     1     -10.711  12.692  66.918  1.00  0.00    -0.264 C  
HETATM   10  C   UNL     1      -9.838  11.675  66.925  1.00  0.00    -0.218 C  
BRANCH  10  11
HETATM   11  C   UNL     1     -10.261  10.327  67.368  1.00  0.00    -0.218 C  
HETATM   12  O   UNL     1     -10.953  10.081  68.340  1.00  0.00    -0.239 OA 
BRANCH  11  13
HETATM   13  O   UNL     1      -9.550   9.435  66.630  1.00  0.00    -0.165 OA 
BRANCH  13  14
HETATM   14  C   UNL     1      -9.740   8.073  67.029  1.00  0.00    -0.211 C  
BRANCH  14  15
HETATM   15  C   UNL     1      -8.486   7.457  67.639  1.00  0.00    -0.120 C  
HETATM   16  C   UNL     1      -8.717   7.040  69.106  1.00  0.00    -0.132 C  
HETATM   17  C   UNL     1      -9.819   5.986  69.248  1.00  0.00    -0.191 C  
HETATM   18  C   UNL     1      -7.424   6.517  69.732  1.00  0.00    -0.088 C  
ENDBRANCH  14  15
ENDBRANCH  13  14
ENDBRANCH  11  13
ENDBRANCH  10  11
ENDBRANCH   6   9
ENDBRANCH   2   3
TORSDOF 6
ENDMDL
MODEL      214
REMARK 921   NORMALIZED FREE ENERGY PREDICTED BY IDOCK:   -2.81 KCAL/MOL
REMARK 922        TOTAL FREE ENERGY PREDICTED BY IDOCK:   -4.58 KCAL/MOL
REMARK 923 INTER-LIGAND FREE ENERGY PREDICTED BY IDOCK:   -4.17 KCAL/MOL
REMARK 924 INTRA-LIGAND FREE ENERGY PREDICTED BY IDOCK:   -0.41 KCAL/MOL
REMARK 927      BINDING AFFINITY PREDICTED BY RF-SCORE:    0.00 PKD
ROOT
HETATM    1  C   UNL     1      -9.827  11.533  63.347  1.00  0.00    -0.401 C  
HETATM    2  O   UNL     1     -11.034  11.532  64.104  1.00  0.00    -0.347 OA 
ENDROOT
BRANCH   2   3
HETATM    3  C   UNL     1     -10.880  11.233  65.431  1.00  0.00    -0.188 A  
HETATM    4  C   UNL     1     -10.031  10.168  65.724  1.00  0.00    -0.339 A  
HETATM    5  C   UNL     1      -9.830   9.767  67.049  1.00  0.00    -0.245 A  
HETATM    6  C   UNL     1     -10.449  10.448  68.102  1.00  0.00    -0.221 A  
HETATM    7  C   UNL     1     -11.277  11.539  67.798  1.00  0.00    -0.343 A  
HETATM    8  C   UNL     1     -11.485  11.935  66.473  1.00  0.00    -0.381 A  
BRANCH   6   9
HETATM    9  C   UNL     1     -10.310   9.944  69.473  1.00  0.00    -0.248 C  
HETATM   10  C   UNL     1      -9.301   9.161  69.881  1.00  0.00    -0.198 C  
BRANCH  10  11
HETATM   11  C   UNL     1      -9.093   8.898  71.323  1.00  0.00    -0.253 C  
HETATM   12  O   UNL     1      -9.955   8.564  72.118  1.00  0.00    -0.269 OA 
BRANCH  11  13
HETATM   13  O   UNL     1      -7.835   9.316  71.617  1.00  0.00    -0.329 OA 
BRANCH  13  14
HETATM   14  C   UNL     1      -6.968   9.384  70.480  1.00  0.00    -0.105 C  
BRANCH  14  15
HETATM   15  C   UNL     1      -6.355  10.767  70.288  1.00  0.00    -0.142 C  
HETATM   16  C   UNL     1      -5.845  10.965  68.845  1.00  0.00    -0.040 C  
HETATM   17  C   UNL     1      -6.965  10.849  67.808  1.00  0.00    -0.077 C  
HETATM   18  C   UNL     1      -5.146  12.316  68.696  1.00  0.00    -0.047 C  
ENDBRANCH  14  15
ENDBRANCH  13  14
ENDBRANCH  11  13
ENDBRANCH  10  11
ENDBRANCH   6   9
ENDBRANCH   2   3
TORSDOF 6
ENDMDL
MODEL      215
REMARK 921   NORMALIZED FREE ENERGY PREDICTED BY IDOCK:   -2.81 KCAL/MOL
REMARK 922        TOTAL FREE ENERGY PREDICTED BY IDOCK:   -4.58 KCAL/MOL
REMARK 923 INTER-LIGAND FREE ENERGY PREDICTED BY IDOCK:   -4.26 KCAL/MOL
REMARK 924 INTRA-LIGAND FREE ENERGY PREDICTED BY IDOCK:   -0.31 KCAL/MOL
REMARK 927      BINDING AFFINITY PREDICTED BY RF-SCORE:    0.00 PKD
ROOT
HETATM    1  C   UNL     1     -12.407  14.458  65.094  1.00  0.00    -0.381 C  
HETATM    2  O   UNL     1     -11.247  14.142  64.330  1.00  0.00    -0.312 OA 
ENDROOT
BRANCH   2   3
HETATM    3  C   UNL     1     -10.796  12.858  64.470  1.00  0.00    -0.363 A  
HETATM    4  C   UNL     1     -10.819  12.339  65.763  1.00  0.00    -0.313 A  
HETATM    5  C   UNL     1     -10.354  11.044  66.015  1.00  0.00    -0.311 A  
HETATM    6  C   UNL     1      -9.890  10.237  64.972  1.00  0.00    -0.397 A  
HETATM    7  C   UNL     1      -9.901  10.758  63.669  1.00  0.00    -0.406 A  
HETATM    8  C   UNL     1     -10.358  12.055  63.417  1.00  0.00    -0.468 A  
BRANCH   6   9
HETATM    9  C   UNL     1      -9.307   8.926  65.273  1.00  0.00    -0.095 C  
HETATM   10  C   UNL     1      -9.501   8.270  66.426  1.00  0.00    -0.287 C  
BRANCH  10  11
HETATM   11  C   UNL     1      -9.090   6.854  66.562  1.00  0.00    -0.155 C  
HETATM   12  O   UNL     1      -9.761   5.884  66.254  1.00  0.00    -0.154 OA 
BRANCH  11  13
HETATM   13  O   UNL     1      -7.945   6.851  67.293  1.00  0.00    -0.111 OA 
BRANCH  13  14
HETATM   14  C   UNL     1      -8.020   6.056  68.481  1.00  0.00    -0.107 C  
BRANCH  14  15
HETATM   15  C   UNL     1      -7.403   4.672  68.303  1.00  0.00    -0.065 C  
HETATM   16  C   UNL     1      -7.810   3.721  69.448  1.00  0.00    -0.052 C  
HETATM   17  C   UNL     1      -9.324   3.504  69.519  1.00  0.00    -0.243 C  
HETATM   18  C   UNL     1      -7.106   2.371  69.309  1.00  0.00    -0.043 C  
ENDBRANCH  14  15
ENDBRANCH  13  14
ENDBRANCH  11  13
ENDBRANCH  10  11
ENDBRANCH   6   9
ENDBRANCH   2   3
TORSDOF 6
ENDMDL
MODEL      216
REMARK 921   NORMALIZED FREE ENERGY PREDICTED BY IDOCK:   -2.81 KCAL/MOL
REMARK 922        TOTAL FREE ENERGY PREDICTED BY IDOCK:   -4.58 KCAL/MOL
REMARK 923 INTER-LIGAND FREE ENERGY PREDICTED BY IDOCK:   -3.70 KCAL/MOL
REMARK 924 INTRA-LIGAND FREE ENERGY PREDICTED BY IDOCK:   -0.87 KCAL/MOL
REMARK 927      BINDING AFFINITY PREDICTED BY RF-SCORE:    0.00 PKD
ROOT
HETATM    1  C   UNL     1      -9.258  15.297  66.635  1.00  0.00    -0.274 C  
HETATM    2  O   UNL     1     -10.031  14.188  66.183  1.00  0.00    -0.292 OA 
ENDROOT
BRANCH   2   3
HETATM    3  C   UNL     1      -9.756  13.003  66.809  1.00  0.00    -0.248 A  
HETATM    4  C   UNL     1     -10.203  12.887  68.124  1.00  0.00    -0.239 A  
HETATM    5  C   UNL     1      -9.948  11.725  68.860  1.00  0.00    -0.051 A  
HETATM    6  C   UNL     1      -9.272  10.648  68.278  1.00  0.00    -0.153 A  
HETATM    7  C   UNL     1      -8.854  10.762  66.944  1.00  0.00    -0.144 A  
HETATM    8  C   UNL     1      -9.101  11.927  66.211  1.00  0.00    -0.188 A  
BRANCH   6   9
HETATM    9  C   UNL     1      -8.921   9.484  69.099  1.00  0.00    -0.148 C  
HETATM   10  C   UNL     1      -8.466   9.568  70.357  1.00  0.00    -0.238 C  
BRANCH  10  11
HETATM   11  C   UNL     1      -8.370   8.357  71.202  1.00  0.00    -0.137 C  
HETATM   12  O   UNL     1      -7.367   7.965  71.775  1.00  0.00    -0.064 OA 
BRANCH  11  13
HETATM   13  O   UNL     1      -9.526   7.666  71.024  1.00  0.00    -0.159 OA 
BRANCH  13  14
HETATM   14  C   UNL     1     -10.539   7.978  71.985  1.00  0.00    -0.248 C  
BRANCH  14  15
HETATM   15  C   UNL     1     -11.935   8.028  71.374  1.00  0.00    -0.328 C  
HETATM   16  C   UNL     1     -12.763   9.197  71.948  1.00  0.00    -0.464 C  
HETATM   17  C   UNL     1     -12.126  10.560  71.663  1.00  0.00    -0.197 C  
HETATM   18  C   UNL     1     -14.189   9.174  71.400  1.00  0.00    -0.129 C  
ENDBRANCH  14  15
ENDBRANCH  13  14
ENDBRANCH  11  13
ENDBRANCH  10  11
ENDBRANCH   6   9
ENDBRANCH   2   3
TORSDOF 6
ENDMDL
MODEL      217
REMARK 921   NORMALIZED FREE ENERGY PREDICTED BY IDOCK:   -2.77 KCAL/MOL
REMARK 922        TOTAL FREE ENERGY PREDICTED BY IDOCK:   -4.52 KCAL/MOL
REMARK 923 INTER-LIGAND FREE ENERGY PREDICTED BY IDOCK:   -4.03 KCAL/MOL
REMARK 924 INTRA-LIGAND FREE ENERGY PREDICTED BY IDOCK:   -0.49 KCAL/MOL
REMARK 927      BINDING AFFINITY PREDICTED BY RF-SCORE:    0.00 PKD
ROOT
HETATM    1  C   UNL     1      -9.361   4.740  72.665  1.00  0.00    -0.130 C  
HETATM    2  O   UNL     1     -10.484   4.627  71.794  1.00  0.00    -0.171 OA 
ENDROOT
BRANCH   2   3
HETATM    3  C   UNL     1     -10.519   5.543  70.778  1.00  0.00    -0.260 A  
HETATM    4  C   UNL     1     -10.781   6.860  71.150  1.00  0.00    -0.252 A  
HETATM    5  C   UNL     1     -10.865   7.866  70.181  1.00  0.00    -0.243 A  
HETATM    6  C   UNL     1     -10.654   7.574  68.830  1.00  0.00    -0.179 A  
HETATM    7  C   UNL     1     -10.360   6.250  68.470  1.00  0.00    -0.238 A  
HETATM    8  C   UNL     1     -10.284   5.242  69.436  1.00  0.00    -0.321 A  
BRANCH   6   9
HETATM    9  C   UNL     1     -10.854   8.620  67.822  1.00  0.00    -0.075 C  
HETATM   10  C   UNL     1     -10.869   9.931  68.101  1.00  0.00    -0.282 C  
BRANCH  10  11
HETATM   11  C   UNL     1     -10.827  10.931  67.010  1.00  0.00    -0.266 C  
HETATM   12  O   UNL     1     -11.671  11.782  66.790  1.00  0.00    -0.555 OA 
BRANCH  11  13
HETATM   13  O   UNL     1      -9.807  10.567  66.189  1.00  0.00    -0.199 OA 
BRANCH  13  14
HETATM   14  C   UNL     1     -10.136  10.625  64.797  1.00  0.00    -0.344 C  
BRANCH  14  15
HETATM   15  C   UNL     1      -8.919  10.876  63.914  1.00  0.00    -0.117 C  
HETATM   16  C   UNL     1      -7.753   9.933  64.276  1.00  0.00    -0.139 C  
HETATM   17  C   UNL     1      -8.114   8.457  64.088  1.00  0.00    -0.145 C  
HETATM   18  C   UNL     1      -6.509  10.264  63.450  1.00  0.00    -0.113 C  
ENDBRANCH  14  15
ENDBRANCH  13  14
ENDBRANCH  11  13
ENDBRANCH  10  11
ENDBRANCH   6   9
ENDBRANCH   2   3
TORSDOF 6
ENDMDL
MODEL      218
REMARK 921   NORMALIZED FREE ENERGY PREDICTED BY IDOCK:   -2.77 KCAL/MOL
REMARK 922        TOTAL FREE ENERGY PREDICTED BY IDOCK:   -4.52 KCAL/MOL
REMARK 923 INTER-LIGAND FREE ENERGY PREDICTED BY IDOCK:   -4.17 KCAL/MOL
REMARK 924 INTRA-LIGAND FREE ENERGY PREDICTED BY IDOCK:   -0.35 KCAL/MOL
REMARK 927      BINDING AFFINITY PREDICTED BY RF-SCORE:    0.00 PKD
ROOT
HETATM    1  C   UNL     1      -5.603   7.930  67.086  1.00  0.00    -0.036 C  
HETATM    2  O   UNL     1      -5.559   9.125  67.860  1.00  0.00    -0.035 OA 
ENDROOT
BRANCH   2   3
HETATM    3  C   UNL     1      -6.634   9.957  67.697  1.00  0.00    -0.068 A  
HETATM    4  C   UNL     1      -6.340  11.307  67.517  1.00  0.00    -0.068 A  
HETATM    5  C   UNL     1      -7.370  12.243  67.369  1.00  0.00    -0.151 A  
HETATM    6  C   UNL     1      -8.708  11.835  67.365  1.00  0.00    -0.162 A  
HETATM    7  C   UNL     1      -8.991  10.469  67.516  1.00  0.00    -0.137 A  
HETATM    8  C   UNL     1      -7.962   9.535  67.673  1.00  0.00    -0.106 A  
BRANCH   6   9
HETATM    9  C   UNL     1      -9.772  12.843  67.317  1.00  0.00    -0.220 C  
HETATM   10  C   UNL     1      -9.734  14.001  67.990  1.00  0.00    -0.221 C  
BRANCH  10  11
HETATM   11  C   UNL     1     -10.718  15.068  67.703  1.00  0.00    -0.274 C  
HETATM   12  O   UNL     1     -11.865  14.898  67.325  1.00  0.00    -0.345 OA 
BRANCH  11  13
HETATM   13  O   UNL     1     -10.035  16.242  67.719  1.00  0.00    -0.239 OA 
BRANCH  13  14
HETATM   14  C   UNL     1     -10.847  17.380  68.028  1.00  0.00    -0.281 C  
BRANCH  14  15
HETATM   15  C   UNL     1     -10.026  18.640  68.278  1.00  0.00    -0.424 C  
HETATM   16  C   UNL     1      -9.437  19.201  66.966  1.00  0.00    -0.367 C  
HETATM   17  C   UNL     1     -10.522  19.594  65.959  1.00  0.00    -0.622 C  
HETATM   18  C   UNL     1      -8.537  20.404  67.245  1.00  0.00    -0.414 C  
ENDBRANCH  14  15
ENDBRANCH  13  14
ENDBRANCH  11  13
ENDBRANCH  10  11
ENDBRANCH   6   9
ENDBRANCH   2   3
TORSDOF 6
ENDMDL
MODEL      219
REMARK 921   NORMALIZED FREE ENERGY PREDICTED BY IDOCK:   -2.77 KCAL/MOL
REMARK 922        TOTAL FREE ENERGY PREDICTED BY IDOCK:   -4.52 KCAL/MOL
REMARK 923 INTER-LIGAND FREE ENERGY PREDICTED BY IDOCK:   -4.21 KCAL/MOL
REMARK 924 INTRA-LIGAND FREE ENERGY PREDICTED BY IDOCK:   -0.31 KCAL/MOL
REMARK 927      BINDING AFFINITY PREDICTED BY RF-SCORE:    0.00 PKD
ROOT
HETATM    1  C   UNL     1     -11.580  15.945  68.542  1.00  0.00    -0.349 C  
HETATM    2  O   UNL     1     -11.754  15.080  67.424  1.00  0.00    -0.338 OA 
ENDROOT
BRANCH   2   3
HETATM    3  C   UNL     1     -11.125  13.870  67.528  1.00  0.00    -0.286 A  
HETATM    4  C   UNL     1     -11.953  12.761  67.694  1.00  0.00    -0.331 A  
HETATM    5  C   UNL     1     -11.404  11.482  67.838  1.00  0.00    -0.372 A  
HETATM    6  C   UNL     1     -10.020  11.290  67.784  1.00  0.00    -0.193 A  
HETATM    7  C   UNL     1      -9.197  12.408  67.584  1.00  0.00    -0.185 A  
HETATM    8  C   UNL     1      -9.744  13.688  67.449  1.00  0.00    -0.228 A  
BRANCH   6   9
HETATM    9  C   UNL     1      -9.462   9.959  68.045  1.00  0.00    -0.147 C  
HETATM   10  C   UNL     1      -9.973   8.825  67.545  1.00  0.00    -0.254 C  
BRANCH  10  11
HETATM   11  C   UNL     1      -9.219   7.555  67.646  1.00  0.00    -0.127 C  
HETATM   12  O   UNL     1      -9.081   6.735  66.754  1.00  0.00    -0.130 OA 
BRANCH  11  13
HETATM   13  O   UNL     1      -8.921   7.383  68.960  1.00  0.00    -0.132 OA 
BRANCH  13  14
HETATM   14  C   UNL     1      -9.996   6.836  69.731  1.00  0.00    -0.177 C  
BRANCH  14  15
HETATM   15  C   UNL     1     -10.239   5.359  69.438  1.00  0.00    -0.334 C  
HETATM   16  C   UNL     1      -9.350   4.454  70.316  1.00  0.00    -0.218 C  
HETATM   17  C   UNL     1      -9.623   4.640  71.812  1.00  0.00    -0.216 C  
HETATM   18  C   UNL     1      -9.533   2.984  69.942  1.00  0.00    -0.189 C  
ENDBRANCH  14  15
ENDBRANCH  13  14
ENDBRANCH  11  13
ENDBRANCH  10  11
ENDBRANCH   6   9
ENDBRANCH   2   3
TORSDOF 6
ENDMDL
MODEL      220
REMARK 921   NORMALIZED FREE ENERGY PREDICTED BY IDOCK:   -2.75 KCAL/MOL
REMARK 922        TOTAL FREE ENERGY PREDICTED BY IDOCK:   -4.50 KCAL/MOL
REMARK 923 INTER-LIGAND FREE ENERGY PREDICTED BY IDOCK:   -4.09 KCAL/MOL
REMARK 924 INTRA-LIGAND FREE ENERGY PREDICTED BY IDOCK:   -0.41 KCAL/MOL
REMARK 927      BINDING AFFINITY PREDICTED BY RF-SCORE:    0.00 PKD
ROOT
HETATM    1  C   UNL     1     -11.609  15.897  64.263  1.00  0.00    -0.178 C  
HETATM    2  O   UNL     1     -10.538  15.617  65.160  1.00  0.00    -0.397 OA 
ENDROOT
BRANCH   2   3
HETATM    3  C   UNL     1     -10.454  14.313  65.566  1.00  0.00    -0.346 A  
HETATM    4  C   UNL     1      -9.599  14.059  66.637  1.00  0.00    -0.299 A  
HETATM    5  C   UNL     1      -9.422  12.754  67.109  1.00  0.00    -0.223 A  
HETATM    6  C   UNL     1     -10.125  11.689  66.539  1.00  0.00    -0.239 A  
HETATM    7  C   UNL     1     -11.008  11.959  65.482  1.00  0.00    -0.347 A  
HETATM    8  C   UNL     1     -11.179  13.262  65.004  1.00  0.00    -0.325 A  
BRANCH   6   9
HETATM    9  C   UNL     1      -9.844  10.317  66.976  1.00  0.00    -0.238 C  
HETATM   10  C   UNL     1     -10.793   9.402  67.218  1.00  0.00    -0.165 C  
BRANCH  10  11
HETATM   11  C   UNL     1     -10.430   7.980  67.413  1.00  0.00    -0.287 C  
HETATM   12  O   UNL     1     -10.649   7.320  68.415  1.00  0.00    -0.202 OA 
BRANCH  11  13
HETATM   13  O   UNL     1      -9.624   7.638  66.375  1.00  0.00    -0.200 OA 
BRANCH  13  14
HETATM   14  C   UNL     1      -8.452   6.915  66.767  1.00  0.00    -0.118 C  
BRANCH  14  15
HETATM   15  C   UNL     1      -8.599   5.409  66.580  1.00  0.00    -0.115 C  
HETATM   16  C   UNL     1      -8.990   5.054  65.131  1.00  0.00    -0.143 C  
HETATM   17  C   UNL     1      -7.938   5.507  64.113  1.00  0.00    -0.120 C  
HETATM   18  C   UNL     1      -9.230   3.552  64.985  1.00  0.00    -0.149 C  
ENDBRANCH  14  15
ENDBRANCH  13  14
ENDBRANCH  11  13
ENDBRANCH  10  11
ENDBRANCH   6   9
ENDBRANCH   2   3
TORSDOF 6
ENDMDL
MODEL      221
REMARK 921   NORMALIZED FREE ENERGY PREDICTED BY IDOCK:   -2.72 KCAL/MOL
REMARK 922        TOTAL FREE ENERGY PREDICTED BY IDOCK:   -4.45 KCAL/MOL
REMARK 923 INTER-LIGAND FREE ENERGY PREDICTED BY IDOCK:   -4.06 KCAL/MOL
REMARK 924 INTRA-LIGAND FREE ENERGY PREDICTED BY IDOCK:   -0.39 KCAL/MOL
REMARK 927      BINDING AFFINITY PREDICTED BY RF-SCORE:    0.00 PKD
ROOT
HETATM    1  C   UNL     1      -7.150   8.029  70.169  1.00  0.00    -0.049 C  
HETATM    2  O   UNL     1      -7.953   9.162  70.488  1.00  0.00    -0.119 OA 
ENDROOT
BRANCH   2   3
HETATM    3  C   UNL     1      -7.656  10.295  69.780  1.00  0.00    -0.162 A  
HETATM    4  C   UNL     1      -6.492  10.964  70.156  1.00  0.00    -0.145 A  
HETATM    5  C   UNL     1      -6.116  12.148  69.513  1.00  0.00    -0.117 A  
HETATM    6  C   UNL     1      -6.881  12.661  68.461  1.00  0.00    -0.090 A  
HETATM    7  C   UNL     1      -8.033  11.963  68.069  1.00  0.00    -0.147 A  
HETATM    8  C   UNL     1      -8.414  10.784  68.718  1.00  0.00    -0.148 A  
BRANCH   6   9
HETATM    9  C   UNL     1      -6.528  13.958  67.874  1.00  0.00    -0.168 C  
HETATM   10  C   UNL     1      -7.413  14.938  67.644  1.00  0.00    -0.205 C  
BRANCH  10  11
HETATM   11  C   UNL     1      -6.950  16.297  67.284  1.00  0.00    -0.192 C  
HETATM   12  O   UNL     1      -5.990  16.560  66.579  1.00  0.00    -0.299 OA 
BRANCH  11  13
HETATM   13  O   UNL     1      -7.647  17.165  68.064  1.00  0.00    -0.181 OA 
BRANCH  13  14
HETATM   14  C   UNL     1      -7.220  18.525  67.939  1.00  0.00    -0.237 C  
BRANCH  14  15
HETATM   15  C   UNL     1      -8.135  19.350  67.041  1.00  0.00    -0.290 C  
HETATM   16  C   UNL     1      -9.622  19.092  67.359  1.00  0.00    -0.373 C  
HETATM   17  C   UNL     1      -9.987  19.470  68.797  1.00  0.00    -0.547 C  
HETATM   18  C   UNL     1     -10.526  19.850  66.386  1.00  0.00    -0.589 C  
ENDBRANCH  14  15
ENDBRANCH  13  14
ENDBRANCH  11  13
ENDBRANCH  10  11
ENDBRANCH   6   9
ENDBRANCH   2   3
TORSDOF 6
ENDMDL
MODEL      222
REMARK 921   NORMALIZED FREE ENERGY PREDICTED BY IDOCK:   -2.68 KCAL/MOL
REMARK 922        TOTAL FREE ENERGY PREDICTED BY IDOCK:   -4.41 KCAL/MOL
REMARK 923 INTER-LIGAND FREE ENERGY PREDICTED BY IDOCK:   -3.88 KCAL/MOL
REMARK 924 INTRA-LIGAND FREE ENERGY PREDICTED BY IDOCK:   -0.53 KCAL/MOL
REMARK 927      BINDING AFFINITY PREDICTED BY RF-SCORE:    0.00 PKD
ROOT
HETATM    1  C   UNL     1     -10.436  18.345  66.458  1.00  0.00    -0.381 C  
HETATM    2  O   UNL     1      -9.912  17.167  65.851  1.00  0.00    -0.478 OA 
ENDROOT
BRANCH   2   3
HETATM    3  C   UNL     1      -9.990  16.039  66.621  1.00  0.00    -0.267 A  
HETATM    4  C   UNL     1      -8.786  15.572  67.146  1.00  0.00    -0.233 A  
HETATM    5  C   UNL     1      -8.756  14.410  67.924  1.00  0.00    -0.168 A  
HETATM    6  C   UNL     1      -9.935  13.717  68.217  1.00  0.00    -0.243 A  
HETATM    7  C   UNL     1     -11.145  14.213  67.710  1.00  0.00    -0.292 A  
HETATM    8  C   UNL     1     -11.175  15.370  66.925  1.00  0.00    -0.214 A  
BRANCH   6   9
HETATM    9  C   UNL     1      -9.866  12.444  68.942  1.00  0.00     0.105 C  
HETATM   10  C   UNL     1     -10.913  11.881  69.561  1.00  0.00    -0.090 C  
BRANCH  10  11
HETATM   11  C   UNL     1     -10.832  10.488  70.055  1.00  0.00    -0.259 C  
HETATM   12  O   UNL     1     -11.627   9.951  70.808  1.00  0.00    -0.295 OA 
BRANCH  11  13
HETATM   13  O   UNL     1      -9.608  10.020  69.699  1.00  0.00    -0.214 OA 
BRANCH  13  14
HETATM   14  C   UNL     1      -9.450   8.610  69.887  1.00  0.00    -0.167 C  
BRANCH  14  15
HETATM   15  C   UNL     1      -8.705   7.942  68.737  1.00  0.00    -0.128 C  
HETATM   16  C   UNL     1      -9.651   7.081  67.874  1.00  0.00    -0.133 C  
HETATM   17  C   UNL     1     -10.769   7.906  67.231  1.00  0.00    -0.299 C  
HETATM   18  C   UNL     1      -8.872   6.340  66.787  1.00  0.00    -0.126 C  
ENDBRANCH  14  15
ENDBRANCH  13  14
ENDBRANCH  11  13
ENDBRANCH  10  11
ENDBRANCH   6   9
ENDBRANCH   2   3
TORSDOF 6
ENDMDL
MODEL      223
REMARK 921   NORMALIZED FREE ENERGY PREDICTED BY IDOCK:   -2.67 KCAL/MOL
REMARK 922        TOTAL FREE ENERGY PREDICTED BY IDOCK:   -4.39 KCAL/MOL
REMARK 923 INTER-LIGAND FREE ENERGY PREDICTED BY IDOCK:   -4.52 KCAL/MOL
REMARK 924 INTRA-LIGAND FREE ENERGY PREDICTED BY IDOCK:    0.13 KCAL/MOL
REMARK 927      BINDING AFFINITY PREDICTED BY RF-SCORE:    0.00 PKD
ROOT
HETATM    1  C   UNL     1     -12.468  11.471  62.906  1.00  0.00     0.585 C  
HETATM    2  O   UNL     1     -11.508  12.501  63.124  1.00  0.00    -0.414 OA 
ENDROOT
BRANCH   2   3
HETATM    3  C   UNL     1     -11.626  13.155  64.320  1.00  0.00    -0.392 A  
HETATM    4  C   UNL     1     -10.674  14.140  64.576  1.00  0.00    -0.323 A  
HETATM    5  C   UNL     1     -10.692  14.846  65.783  1.00  0.00    -0.338 A  
HETATM    6  C   UNL     1     -11.684  14.601  66.738  1.00  0.00    -0.355 A  
HETATM    7  C   UNL     1     -12.656  13.629  66.457  1.00  0.00    -0.225 A  
HETATM    8  C   UNL     1     -12.633  12.916  65.254  1.00  0.00    -0.502 A  
BRANCH   6   9
HETATM    9  C   UNL     1     -11.620  15.275  68.039  1.00  0.00    -0.325 C  
HETATM   10  C   UNL     1     -11.182  14.689  69.162  1.00  0.00    -0.291 C  
BRANCH  10  11
HETATM   11  C   UNL     1     -10.914  15.496  70.373  1.00  0.00    -0.339 C  
HETATM   12  O   UNL     1     -11.756  15.932  71.140  1.00  0.00    -0.376 OA 
BRANCH  11  13
HETATM   13  O   UNL     1      -9.600  15.840  70.329  1.00  0.00     0.094 OA 
BRANCH  13  14
HETATM   14  C   UNL     1      -9.089  16.000  69.001  1.00  0.00    -0.242 C  
BRANCH  14  15
HETATM   15  C   UNL     1      -7.810  16.830  68.958  1.00  0.00    -0.201 C  
HETATM   16  C   UNL     1      -7.974  18.075  68.062  1.00  0.00    -0.257 C  
HETATM   17  C   UNL     1      -9.074  19.016  68.562  1.00  0.00    -0.401 C  
HETATM   18  C   UNL     1      -6.656  18.841  67.950  1.00  0.00    -0.223 C  
ENDBRANCH  14  15
ENDBRANCH  13  14
ENDBRANCH  11  13
ENDBRANCH  10  11
ENDBRANCH   6   9
ENDBRANCH   2   3
TORSDOF 6
ENDMDL
MODEL      224
REMARK 921   NORMALIZED FREE ENERGY PREDICTED BY IDOCK:   -2.65 KCAL/MOL
REMARK 922        TOTAL FREE ENERGY PREDICTED BY IDOCK:   -4.36 KCAL/MOL
REMARK 923 INTER-LIGAND FREE ENERGY PREDICTED BY IDOCK:   -3.88 KCAL/MOL
REMARK 924 INTRA-LIGAND FREE ENERGY PREDICTED BY IDOCK:   -0.47 KCAL/MOL
REMARK 927      BINDING AFFINITY PREDICTED BY RF-SCORE:    0.00 PKD
ROOT
HETATM    1  C   UNL     1      -6.526   4.655  71.226  1.00  0.00    -0.019 C  
HETATM    2  O   UNL     1      -7.660   5.073  71.981  1.00  0.00    -0.090 OA 
ENDROOT
BRANCH   2   3
HETATM    3  C   UNL     1      -8.295   6.185  71.499  1.00  0.00    -0.127 A  
HETATM    4  C   UNL     1      -9.340   6.678  72.277  1.00  0.00    -0.139 A  
HETATM    5  C   UNL     1     -10.071   7.795  71.857  1.00  0.00    -0.231 A  
HETATM    6  C   UNL     1      -9.743   8.455  70.668  1.00  0.00    -0.203 A  
HETATM    7  C   UNL     1      -8.668   7.969  69.908  1.00  0.00    -0.139 A  
HETATM    8  C   UNL     1      -7.943   6.847  70.323  1.00  0.00    -0.115 A  
BRANCH   6   9
HETATM    9  C   UNL     1     -10.588   9.555  70.193  1.00  0.00    -0.298 C  
HETATM   10  C   UNL     1     -10.294  10.316  69.129  1.00  0.00    -0.241 C  
BRANCH  10  11
HETATM   11  C   UNL     1     -11.305  11.238  68.564  1.00  0.00    -0.276 C  
HETATM   12  O   UNL     1     -12.380  11.513  69.069  1.00  0.00    -0.360 OA 
BRANCH  11  13
HETATM   13  O   UNL     1     -10.906  11.523  67.297  1.00  0.00    -0.227 OA 
BRANCH  13  14
HETATM   14  C   UNL     1     -10.634  10.364  66.502  1.00  0.00    -0.151 C  
BRANCH  14  15
HETATM   15  C   UNL     1      -9.387  10.522  65.638  1.00  0.00    -0.242 C  
HETATM   16  C   UNL     1      -9.735  10.503  64.134  1.00  0.00    -0.388 C  
HETATM   17  C   UNL     1     -10.675  11.645  63.736  1.00  0.00    -0.482 C  
HETATM   18  C   UNL     1      -8.467  10.562  63.282  1.00  0.00    -0.157 C  
ENDBRANCH  14  15
ENDBRANCH  13  14
ENDBRANCH  11  13
ENDBRANCH  10  11
ENDBRANCH   6   9
ENDBRANCH   2   3
TORSDOF 6
ENDMDL
MODEL      225
REMARK 921   NORMALIZED FREE ENERGY PREDICTED BY IDOCK:   -2.63 KCAL/MOL
REMARK 922        TOTAL FREE ENERGY PREDICTED BY IDOCK:   -4.34 KCAL/MOL
REMARK 923 INTER-LIGAND FREE ENERGY PREDICTED BY IDOCK:   -4.12 KCAL/MOL
REMARK 924 INTRA-LIGAND FREE ENERGY PREDICTED BY IDOCK:   -0.22 KCAL/MOL
REMARK 927      BINDING AFFINITY PREDICTED BY RF-SCORE:    0.00 PKD
ROOT
HETATM    1  C   UNL     1     -11.828  15.332  68.688  1.00  0.00    -0.305 C  
HETATM    2  O   UNL     1     -11.942  14.700  67.416  1.00  0.00    -0.384 OA 
ENDROOT
BRANCH   2   3
HETATM    3  C   UNL     1     -11.261  13.519  67.297  1.00  0.00    -0.298 A  
HETATM    4  C   UNL     1     -12.018  12.359  67.450  1.00  0.00    -0.246 A  
HETATM    5  C   UNL     1     -11.410  11.101  67.374  1.00  0.00    -0.329 A  
HETATM    6  C   UNL     1     -10.042  10.986  67.110  1.00  0.00    -0.227 A  
HETATM    7  C   UNL     1      -9.295  12.159  66.926  1.00  0.00    -0.203 A  
HETATM    8  C   UNL     1      -9.900  13.417  67.010  1.00  0.00    -0.250 A  
BRANCH   6   9
HETATM    9  C   UNL     1      -9.406   9.664  67.142  1.00  0.00    -0.168 C  
HETATM   10  C   UNL     1      -9.734   8.658  66.320  1.00  0.00    -0.322 C  
BRANCH  10  11
HETATM   11  C   UNL     1      -8.889   7.446  66.243  1.00  0.00    -0.159 C  
HETATM   12  O   UNL     1      -8.363   7.006  65.235  1.00  0.00    -0.136 OA 
BRANCH  11  13
HETATM   13  O   UNL     1      -9.006   6.814  67.440  1.00  0.00    -0.116 OA 
BRANCH  13  14
HETATM   14  C   UNL     1     -10.105   5.899  67.506  1.00  0.00    -0.165 C  
BRANCH  14  15
HETATM   15  C   UNL     1      -9.998   4.774  66.482  1.00  0.00    -0.262 C  
HETATM   16  C   UNL     1      -8.984   3.700  66.926  1.00  0.00    -0.156 C  
HETATM   17  C   UNL     1      -9.377   3.034  68.248  1.00  0.00    -0.253 C  
HETATM   18  C   UNL     1      -8.815   2.632  65.845  1.00  0.00    -0.135 C  
ENDBRANCH  14  15
ENDBRANCH  13  14
ENDBRANCH  11  13
ENDBRANCH  10  11
ENDBRANCH   6   9
ENDBRANCH   2   3
TORSDOF 6
ENDMDL
MODEL      226
REMARK 921   NORMALIZED FREE ENERGY PREDICTED BY IDOCK:   -2.62 KCAL/MOL
REMARK 922        TOTAL FREE ENERGY PREDICTED BY IDOCK:   -4.32 KCAL/MOL
REMARK 923 INTER-LIGAND FREE ENERGY PREDICTED BY IDOCK:   -3.96 KCAL/MOL
REMARK 924 INTRA-LIGAND FREE ENERGY PREDICTED BY IDOCK:   -0.35 KCAL/MOL
REMARK 927      BINDING AFFINITY PREDICTED BY RF-SCORE:    0.00 PKD
ROOT
HETATM    1  C   UNL     1     -10.440  11.963  66.202  1.00  0.00    -0.237 C  
HETATM    2  O   UNL     1     -10.380  10.565  66.468  1.00  0.00    -0.233 OA 
ENDROOT
BRANCH   2   3
HETATM    3  C   UNL     1     -10.257  10.234  67.790  1.00  0.00    -0.187 A  
HETATM    4  C   UNL     1      -9.015   9.740  68.185  1.00  0.00    -0.119 A  
HETATM    5  C   UNL     1      -8.798   9.348  69.510  1.00  0.00    -0.165 A  
HETATM    6  C   UNL     1      -9.809   9.477  70.467  1.00  0.00    -0.331 A  
HETATM    7  C   UNL     1     -11.046  10.006  70.066  1.00  0.00    -0.350 A  
HETATM    8  C   UNL     1     -11.267  10.389  68.740  1.00  0.00    -0.295 A  
BRANCH   6   9
HETATM    9  C   UNL     1      -9.595   8.960  71.823  1.00  0.00    -0.353 C  
HETATM   10  C   UNL     1      -8.527   8.237  72.185  1.00  0.00    -0.239 C  
BRANCH  10  11
HETATM   11  C   UNL     1      -8.256   7.963  73.615  1.00  0.00    -0.211 C  
HETATM   12  O   UNL     1      -8.094   8.803  74.483  1.00  0.00    -0.283 OA 
BRANCH  11  13
HETATM   13  O   UNL     1      -8.002   6.632  73.715  1.00  0.00    -0.102 OA 
BRANCH  13  14
HETATM   14  C   UNL     1      -8.738   5.831  72.784  1.00  0.00    -0.118 C  
BRANCH  14  15
HETATM   15  C   UNL     1      -9.917   5.111  73.431  1.00  0.00    -0.185 C  
HETATM   16  C   UNL     1     -10.057   3.668  72.902  1.00  0.00    -0.221 C  
HETATM   17  C   UNL     1      -8.822   2.813  73.202  1.00  0.00    -0.083 C  
HETATM   18  C   UNL     1     -11.299   2.994  73.485  1.00  0.00    -0.249 C  
ENDBRANCH  14  15
ENDBRANCH  13  14
ENDBRANCH  11  13
ENDBRANCH  10  11
ENDBRANCH   6   9
ENDBRANCH   2   3
TORSDOF 6
ENDMDL
MODEL      227
REMARK 921   NORMALIZED FREE ENERGY PREDICTED BY IDOCK:   -2.55 KCAL/MOL
REMARK 922        TOTAL FREE ENERGY PREDICTED BY IDOCK:   -4.23 KCAL/MOL
REMARK 923 INTER-LIGAND FREE ENERGY PREDICTED BY IDOCK:   -3.69 KCAL/MOL
REMARK 924 INTRA-LIGAND FREE ENERGY PREDICTED BY IDOCK:   -0.54 KCAL/MOL
REMARK 927      BINDING AFFINITY PREDICTED BY RF-SCORE:    0.00 PKD
ROOT
HETATM    1  C   UNL     1      -6.124   7.174  63.489  1.00  0.00    -0.044 C  
HETATM    2  O   UNL     1      -7.309   6.394  63.620  1.00  0.00    -0.061 OA 
ENDROOT
BRANCH   2   3
HETATM    3  C   UNL     1      -7.836   6.355  64.882  1.00  0.00    -0.113 A  
HETATM    4  C   UNL     1      -7.408   7.354  65.754  1.00  0.00    -0.074 A  
HETATM    5  C   UNL     1      -7.868   7.386  67.076  1.00  0.00    -0.116 A  
HETATM    6  C   UNL     1      -8.788   6.437  67.533  1.00  0.00    -0.111 A  
HETATM    7  C   UNL     1      -9.236   5.454  66.638  1.00  0.00    -0.132 A  
HETATM    8  C   UNL     1      -8.770   5.417  65.319  1.00  0.00    -0.145 A  
BRANCH   6   9
HETATM    9  C   UNL     1      -9.172   6.423  68.948  1.00  0.00    -0.128 C  
HETATM   10  C   UNL     1      -9.833   5.414  69.532  1.00  0.00    -0.264 C  
BRANCH  10  11
HETATM   11  C   UNL     1      -9.967   5.358  71.005  1.00  0.00    -0.199 C  
HETATM   12  O   UNL     1     -10.367   4.403  71.649  1.00  0.00    -0.151 OA 
BRANCH  11  13
HETATM   13  O   UNL     1      -9.784   6.625  71.460  1.00  0.00    -0.165 OA 
BRANCH  13  14
HETATM   14  C   UNL     1     -10.878   7.125  72.236  1.00  0.00    -0.232 C  
BRANCH  14  15
HETATM   15  C   UNL     1     -11.007   8.643  72.163  1.00  0.00    -0.434 C  
HETATM   16  C   UNL     1     -12.243   9.067  71.343  1.00  0.00    -0.387 C  
HETATM   17  C   UNL     1     -13.552   8.559  71.954  1.00  0.00    -0.427 C  
HETATM   18  C   UNL     1     -12.303  10.587  71.196  1.00  0.00    -0.510 C  
ENDBRANCH  14  15
ENDBRANCH  13  14
ENDBRANCH  11  13
ENDBRANCH  10  11
ENDBRANCH   6   9
ENDBRANCH   2   3
TORSDOF 6
ENDMDL
MODEL      228
REMARK 921   NORMALIZED FREE ENERGY PREDICTED BY IDOCK:   -2.52 KCAL/MOL
REMARK 922        TOTAL FREE ENERGY PREDICTED BY IDOCK:   -4.18 KCAL/MOL
REMARK 923 INTER-LIGAND FREE ENERGY PREDICTED BY IDOCK:   -4.05 KCAL/MOL
REMARK 924 INTRA-LIGAND FREE ENERGY PREDICTED BY IDOCK:   -0.14 KCAL/MOL
REMARK 927      BINDING AFFINITY PREDICTED BY RF-SCORE:    0.00 PKD
ROOT
HETATM    1  C   UNL     1      -7.663  14.238  67.409  1.00  0.00    -0.173 C  
HETATM    2  O   UNL     1      -8.972  14.103  66.862  1.00  0.00    -0.231 OA 
ENDROOT
BRANCH   2   3
HETATM    3  C   UNL     1      -9.457  12.823  66.841  1.00  0.00    -0.235 A  
HETATM    4  C   UNL     1      -9.521  12.172  68.071  1.00  0.00    -0.201 A  
HETATM    5  C   UNL     1      -9.977  10.852  68.151  1.00  0.00    -0.188 A  
HETATM    6  C   UNL     1     -10.407  10.176  67.006  1.00  0.00    -0.303 A  
HETATM    7  C   UNL     1     -10.369  10.851  65.776  1.00  0.00    -0.303 A  
HETATM    8  C   UNL     1      -9.905  12.168  65.694  1.00  0.00    -0.256 A  
BRANCH   6   9
HETATM    9  C   UNL     1     -10.778   8.760  67.096  1.00  0.00    -0.204 C  
HETATM   10  C   UNL     1      -9.895   7.753  67.045  1.00  0.00    -0.286 C  
BRANCH  10  11
HETATM   11  C   UNL     1     -10.310   6.374  67.389  1.00  0.00    -0.205 C  
HETATM   12  O   UNL     1      -9.926   5.356  66.839  1.00  0.00    -0.148 OA 
BRANCH  11  13
HETATM   13  O   UNL     1     -11.348   6.486  68.257  1.00  0.00    -0.230 OA 
BRANCH  13  14
HETATM   14  C   UNL     1     -10.999   6.200  69.616  1.00  0.00    -0.389 C  
BRANCH  14  15
HETATM   15  C   UNL     1     -10.095   4.980  69.748  1.00  0.00    -0.337 C  
HETATM   16  C   UNL     1      -8.873   5.275  70.643  1.00  0.00    -0.148 C  
HETATM   17  C   UNL     1      -9.273   5.664  72.069  1.00  0.00    -0.155 C  
HETATM   18  C   UNL     1      -7.927   4.075  70.685  1.00  0.00    -0.055 C  
ENDBRANCH  14  15
ENDBRANCH  13  14
ENDBRANCH  11  13
ENDBRANCH  10  11
ENDBRANCH   6   9
ENDBRANCH   2   3
TORSDOF 6
ENDMDL
MODEL      229
REMARK 921   NORMALIZED FREE ENERGY PREDICTED BY IDOCK:   -2.51 KCAL/MOL
REMARK 922        TOTAL FREE ENERGY PREDICTED BY IDOCK:   -4.17 KCAL/MOL
REMARK 923 INTER-LIGAND FREE ENERGY PREDICTED BY IDOCK:   -3.28 KCAL/MOL
REMARK 924 INTRA-LIGAND FREE ENERGY PREDICTED BY IDOCK:   -0.89 KCAL/MOL
REMARK 927      BINDING AFFINITY PREDICTED BY RF-SCORE:    0.00 PKD
ROOT
HETATM    1  C   UNL     1      -7.943   7.809  74.545  1.00  0.00    -0.219 C  
HETATM    2  O   UNL     1      -7.994   7.036  73.349  1.00  0.00    -0.096 OA 
ENDROOT
BRANCH   2   3
HETATM    3  C   UNL     1      -8.582   7.661  72.284  1.00  0.00    -0.123 A  
HETATM    4  C   UNL     1      -7.962   7.480  71.049  1.00  0.00    -0.095 A  
HETATM    5  C   UNL     1      -8.471   8.101  69.903  1.00  0.00    -0.125 A  
HETATM    6  C   UNL     1      -9.627   8.884  69.970  1.00  0.00    -0.190 A  
HETATM    7  C   UNL     1     -10.262   9.034  71.212  1.00  0.00    -0.384 A  
HETATM    8  C   UNL     1      -9.749   8.421  72.360  1.00  0.00    -0.376 A  
BRANCH   6   9
HETATM    9  C   UNL     1     -10.080   9.612  68.780  1.00  0.00    -0.193 C  
HETATM   10  C   UNL     1      -9.371   9.702  67.646  1.00  0.00    -0.144 C  
BRANCH  10  11
HETATM   11  C   UNL     1      -9.993  10.236  66.414  1.00  0.00    -0.229 C  
HETATM   12  O   UNL     1     -11.005  10.913  66.362  1.00  0.00    -0.202 OA 
BRANCH  11  13
HETATM   13  O   UNL     1      -9.359   9.642  65.369  1.00  0.00    -0.221 OA 
BRANCH  13  14
HETATM   14  C   UNL     1      -8.323   8.735  65.761  1.00  0.00    -0.134 C  
BRANCH  14  15
HETATM   15  C   UNL     1      -8.344   7.436  64.963  1.00  0.00    -0.057 C  
HETATM   16  C   UNL     1      -8.564   6.214  65.879  1.00  0.00    -0.147 C  
HETATM   17  C   UNL     1      -9.899   6.274  66.625  1.00  0.00    -0.201 C  
HETATM   18  C   UNL     1      -8.483   4.914  65.078  1.00  0.00    -0.142 C  
ENDBRANCH  14  15
ENDBRANCH  13  14
ENDBRANCH  11  13
ENDBRANCH  10  11
ENDBRANCH   6   9
ENDBRANCH   2   3
TORSDOF 6
ENDMDL
MODEL      230
REMARK 921   NORMALIZED FREE ENERGY PREDICTED BY IDOCK:   -2.50 KCAL/MOL
REMARK 922        TOTAL FREE ENERGY PREDICTED BY IDOCK:   -4.16 KCAL/MOL
REMARK 923 INTER-LIGAND FREE ENERGY PREDICTED BY IDOCK:   -3.53 KCAL/MOL
REMARK 924 INTRA-LIGAND FREE ENERGY PREDICTED BY IDOCK:   -0.63 KCAL/MOL
REMARK 927      BINDING AFFINITY PREDICTED BY RF-SCORE:    0.00 PKD
ROOT
HETATM    1  C   UNL     1      -8.320   3.803  64.107  1.00  0.00    -0.091 C  
HETATM    2  O   UNL     1      -7.834   3.286  65.343  1.00  0.00    -0.081 OA 
ENDROOT
BRANCH   2   3
HETATM    3  C   UNL     1      -8.409   3.828  66.460  1.00  0.00    -0.104 A  
HETATM    4  C   UNL     1      -9.004   5.078  66.297  1.00  0.00    -0.127 A  
HETATM    5  C   UNL     1      -9.595   5.728  67.385  1.00  0.00    -0.119 A  
HETATM    6  C   UNL     1      -9.630   5.122  68.645  1.00  0.00    -0.194 A  
HETATM    7  C   UNL     1      -9.056   3.850  68.791  1.00  0.00    -0.195 A  
HETATM    8  C   UNL     1      -8.457   3.203  67.706  1.00  0.00    -0.104 A  
BRANCH   6   9
HETATM    9  C   UNL     1     -10.157   5.866  69.793  1.00  0.00    -0.258 C  
HETATM   10  C   UNL     1     -11.390   6.391  69.840  1.00  0.00    -0.500 C  
BRANCH  10  11
HETATM   11  C   UNL     1     -11.936   6.908  71.115  1.00  0.00    -0.366 C  
HETATM   12  O   UNL     1     -12.890   6.449  71.721  1.00  0.00    -0.210 OA 
BRANCH  11  13
HETATM   13  O   UNL     1     -11.327   8.101  71.344  1.00  0.00    -0.247 OA 
BRANCH  13  14
HETATM   14  C   UNL     1     -11.218   8.927  70.180  1.00  0.00    -0.160 C  
BRANCH  14  15
HETATM   15  C   UNL     1      -9.979   9.816  70.203  1.00  0.00    -0.315 C  
HETATM   16  C   UNL     1      -9.135   9.643  68.922  1.00  0.00    -0.144 C  
HETATM   17  C   UNL     1      -9.908  10.025  67.656  1.00  0.00    -0.194 C  
HETATM   18  C   UNL     1      -7.849  10.465  69.004  1.00  0.00    -0.120 C  
ENDBRANCH  14  15
ENDBRANCH  13  14
ENDBRANCH  11  13
ENDBRANCH  10  11
ENDBRANCH   6   9
ENDBRANCH   2   3
TORSDOF 6
ENDMDL
MODEL      231
REMARK 921   NORMALIZED FREE ENERGY PREDICTED BY IDOCK:   -2.48 KCAL/MOL
REMARK 922        TOTAL FREE ENERGY PREDICTED BY IDOCK:   -4.13 KCAL/MOL
REMARK 923 INTER-LIGAND FREE ENERGY PREDICTED BY IDOCK:   -3.59 KCAL/MOL
REMARK 924 INTRA-LIGAND FREE ENERGY PREDICTED BY IDOCK:   -0.54 KCAL/MOL
REMARK 927      BINDING AFFINITY PREDICTED BY RF-SCORE:    0.00 PKD
ROOT
HETATM    1  C   UNL     1      -5.907  12.938  67.352  1.00  0.00    -0.060 C  
HETATM    2  O   UNL     1      -7.281  13.314  67.316  1.00  0.00    -0.137 OA 
ENDROOT
BRANCH   2   3
HETATM    3  C   UNL     1      -8.163  12.297  67.563  1.00  0.00    -0.170 A  
HETATM    4  C   UNL     1      -7.914  11.534  68.702  1.00  0.00    -0.135 A  
HETATM    5  C   UNL     1      -8.742  10.454  69.026  1.00  0.00    -0.170 A  
HETATM    6  C   UNL     1      -9.851  10.143  68.233  1.00  0.00    -0.162 A  
HETATM    7  C   UNL     1     -10.111  10.937  67.106  1.00  0.00    -0.235 A  
HETATM    8  C   UNL     1      -9.279  12.011  66.777  1.00  0.00    -0.201 A  
BRANCH   6   9
HETATM    9  C   UNL     1     -10.641   8.943  68.530  1.00  0.00    -0.183 C  
HETATM   10  C   UNL     1     -10.139   7.844  69.111  1.00  0.00    -0.197 C  
BRANCH  10  11
HETATM   11  C   UNL     1     -11.040   6.778  69.602  1.00  0.00    -0.292 C  
HETATM   12  O   UNL     1     -11.381   5.788  68.976  1.00  0.00    -0.137 OA 
BRANCH  11  13
HETATM   13  O   UNL     1     -11.579   7.228  70.765  1.00  0.00    -0.290 OA 
BRANCH  13  14
HETATM   14  C   UNL     1     -10.678   7.178  71.876  1.00  0.00    -0.216 C  
BRANCH  14  15
HETATM   15  C   UNL     1     -11.105   6.167  72.936  1.00  0.00    -0.281 C  
HETATM   16  C   UNL     1     -10.620   4.745  72.588  1.00  0.00    -0.271 C  
HETATM   17  C   UNL     1      -9.093   4.651  72.505  1.00  0.00    -0.139 C  
HETATM   18  C   UNL     1     -11.139   3.729  73.606  1.00  0.00    -0.318 C  
ENDBRANCH  14  15
ENDBRANCH  13  14
ENDBRANCH  11  13
ENDBRANCH  10  11
ENDBRANCH   6   9
ENDBRANCH   2   3
TORSDOF 6
ENDMDL
MODEL      232
REMARK 921   NORMALIZED FREE ENERGY PREDICTED BY IDOCK:   -2.45 KCAL/MOL
REMARK 922        TOTAL FREE ENERGY PREDICTED BY IDOCK:   -4.09 KCAL/MOL
REMARK 923 INTER-LIGAND FREE ENERGY PREDICTED BY IDOCK:   -3.49 KCAL/MOL
REMARK 924 INTRA-LIGAND FREE ENERGY PREDICTED BY IDOCK:   -0.60 KCAL/MOL
REMARK 927      BINDING AFFINITY PREDICTED BY RF-SCORE:    0.00 PKD
ROOT
HETATM    1  C   UNL     1      -7.285   1.905  73.626  1.00  0.00    -0.028 C  
HETATM    2  O   UNL     1      -7.942   1.888  72.362  1.00  0.00    -0.050 OA 
ENDROOT
BRANCH   2   3
HETATM    3  C   UNL     1      -8.504   3.079  71.989  1.00  0.00    -0.069 A  
HETATM    4  C   UNL     1      -8.265   4.160  72.836  1.00  0.00    -0.093 A  
HETATM    5  C   UNL     1      -8.819   5.414  72.557  1.00  0.00    -0.130 A  
HETATM    6  C   UNL     1      -9.592   5.612  71.408  1.00  0.00    -0.188 A  
HETATM    7  C   UNL     1      -9.800   4.525  70.546  1.00  0.00    -0.297 A  
HETATM    8  C   UNL     1      -9.254   3.269  70.829  1.00  0.00    -0.208 A  
BRANCH   6   9
HETATM    9  C   UNL     1     -10.251   6.905  71.192  1.00  0.00    -0.211 C  
HETATM   10  C   UNL     1      -9.748   8.077  71.604  1.00  0.00    -0.222 C  
BRANCH  10  11
HETATM   11  C   UNL     1     -10.339   9.351  71.137  1.00  0.00    -0.307 C  
HETATM   12  O   UNL     1     -11.450   9.767  71.419  1.00  0.00    -0.371 OA 
BRANCH  11  13
HETATM   13  O   UNL     1      -9.510   9.835  70.176  1.00  0.00    -0.240 OA 
BRANCH  13  14
HETATM   14  C   UNL     1     -10.116   9.925  68.882  1.00  0.00    -0.184 C  
BRANCH  14  15
HETATM   15  C   UNL     1     -10.908   8.675  68.514  1.00  0.00     0.003 C  
HETATM   16  C   UNL     1     -10.167   7.824  67.462  1.00  0.00    -0.301 C  
HETATM   17  C   UNL     1      -8.806   7.331  67.962  1.00  0.00    -0.129 C  
HETATM   18  C   UNL     1     -11.017   6.629  67.032  1.00  0.00    -0.463 C  
ENDBRANCH  14  15
ENDBRANCH  13  14
ENDBRANCH  11  13
ENDBRANCH  10  11
ENDBRANCH   6   9
ENDBRANCH   2   3
TORSDOF 6
ENDMDL
MODEL      233
REMARK 921   NORMALIZED FREE ENERGY PREDICTED BY IDOCK:   -2.44 KCAL/MOL
REMARK 922        TOTAL FREE ENERGY PREDICTED BY IDOCK:   -4.08 KCAL/MOL
REMARK 923 INTER-LIGAND FREE ENERGY PREDICTED BY IDOCK:   -3.56 KCAL/MOL
REMARK 924 INTRA-LIGAND FREE ENERGY PREDICTED BY IDOCK:   -0.52 KCAL/MOL
REMARK 927      BINDING AFFINITY PREDICTED BY RF-SCORE:    0.00 PKD
ROOT
HETATM    1  C   UNL     1     -10.747  18.196  67.313  1.00  0.00    -0.315 C  
HETATM    2  O   UNL     1      -9.444  17.625  67.224  1.00  0.00    -0.250 OA 
ENDROOT
BRANCH   2   3
HETATM    3  C   UNL     1      -9.421  16.264  67.086  1.00  0.00    -0.224 A  
HETATM    4  C   UNL     1      -8.170  15.659  67.201  1.00  0.00    -0.244 A  
HETATM    5  C   UNL     1      -8.036  14.275  67.048  1.00  0.00    -0.068 A  
HETATM    6  C   UNL     1      -9.157  13.472  66.814  1.00  0.00    -0.223 A  
HETATM    7  C   UNL     1     -10.415  14.087  66.732  1.00  0.00    -0.277 A  
HETATM    8  C   UNL     1     -10.549  15.472  66.875  1.00  0.00    -0.307 A  
BRANCH   6   9
HETATM    9  C   UNL     1      -8.980  12.040  66.550  1.00  0.00    -0.193 C  
HETATM   10  C   UNL     1      -7.789  11.425  66.534  1.00  0.00    -0.105 C  
BRANCH  10  11
HETATM   11  C   UNL     1      -7.708   9.948  66.508  1.00  0.00    -0.107 C  
HETATM   12  O   UNL     1      -6.682   9.290  66.533  1.00  0.00    -0.070 OA 
BRANCH  11  13
HETATM   13  O   UNL     1      -8.957   9.495  66.224  1.00  0.00    -0.146 OA 
BRANCH  13  14
HETATM   14  C   UNL     1      -9.053   8.068  66.157  1.00  0.00    -0.176 C  
BRANCH  14  15
HETATM   15  C   UNL     1     -10.064   7.499  67.147  1.00  0.00    -0.317 C  
HETATM   16  C   UNL     1      -9.366   6.747  68.299  1.00  0.00    -0.124 C  
HETATM   17  C   UNL     1      -8.440   7.654  69.114  1.00  0.00    -0.138 C  
HETATM   18  C   UNL     1     -10.394   6.099  69.227  1.00  0.00    -0.276 C  
ENDBRANCH  14  15
ENDBRANCH  13  14
ENDBRANCH  11  13
ENDBRANCH  10  11
ENDBRANCH   6   9
ENDBRANCH   2   3
TORSDOF 6
ENDMDL
MODEL      234
REMARK 921   NORMALIZED FREE ENERGY PREDICTED BY IDOCK:   -2.37 KCAL/MOL
REMARK 922        TOTAL FREE ENERGY PREDICTED BY IDOCK:   -3.99 KCAL/MOL
REMARK 923 INTER-LIGAND FREE ENERGY PREDICTED BY IDOCK:   -3.26 KCAL/MOL
REMARK 924 INTRA-LIGAND FREE ENERGY PREDICTED BY IDOCK:   -0.73 KCAL/MOL
REMARK 927      BINDING AFFINITY PREDICTED BY RF-SCORE:    0.00 PKD
ROOT
HETATM    1  C   UNL     1      -9.543  11.780  65.848  1.00  0.00    -0.230 C  
HETATM    2  O   UNL     1      -9.938  10.411  65.898  1.00  0.00    -0.228 OA 
ENDROOT
BRANCH   2   3
HETATM    3  C   UNL     1     -10.079   9.899  67.159  1.00  0.00    -0.215 A  
HETATM    4  C   UNL     1      -9.748   8.554  67.313  1.00  0.00    -0.239 A  
HETATM    5  C   UNL     1      -9.885   7.929  68.557  1.00  0.00    -0.186 A  
HETATM    6  C   UNL     1     -10.321   8.650  69.673  1.00  0.00    -0.213 A  
HETATM    7  C   UNL     1     -10.621  10.012  69.514  1.00  0.00    -0.267 A  
HETATM    8  C   UNL     1     -10.493  10.635  68.269  1.00  0.00    -0.214 A  
BRANCH   6   9
HETATM    9  C   UNL     1     -10.560   7.951  70.940  1.00  0.00    -0.227 C  
HETATM   10  C   UNL     1     -10.988   6.684  71.024  1.00  0.00    -0.305 C  
BRANCH  10  11
HETATM   11  C   UNL     1     -10.969   5.970  72.321  1.00  0.00    -0.265 C  
HETATM   12  O   UNL     1     -11.340   6.424  73.390  1.00  0.00    -0.023 OA 
BRANCH  11  13
HETATM   13  O   UNL     1     -10.259   4.829  72.125  1.00  0.00    -0.185 OA 
BRANCH  13  14
HETATM   14  C   UNL     1      -9.699   4.713  70.813  1.00  0.00    -0.199 C  
BRANCH  14  15
HETATM   15  C   UNL     1      -8.228   4.313  70.834  1.00  0.00    -0.082 C  
HETATM   16  C   UNL     1      -7.309   5.522  70.564  1.00  0.00    -0.075 C  
HETATM   17  C   UNL     1      -7.463   6.622  71.618  1.00  0.00    -0.088 C  
HETATM   18  C   UNL     1      -5.845   5.086  70.489  1.00  0.00    -0.017 C  
ENDBRANCH  14  15
ENDBRANCH  13  14
ENDBRANCH  11  13
ENDBRANCH  10  11
ENDBRANCH   6   9
ENDBRANCH   2   3
TORSDOF 6
ENDMDL
MODEL      235
REMARK 921   NORMALIZED FREE ENERGY PREDICTED BY IDOCK:   -2.24 KCAL/MOL
REMARK 922        TOTAL FREE ENERGY PREDICTED BY IDOCK:   -3.80 KCAL/MOL
REMARK 923 INTER-LIGAND FREE ENERGY PREDICTED BY IDOCK:   -3.27 KCAL/MOL
REMARK 924 INTRA-LIGAND FREE ENERGY PREDICTED BY IDOCK:   -0.54 KCAL/MOL
REMARK 927      BINDING AFFINITY PREDICTED BY RF-SCORE:    0.00 PKD
ROOT
HETATM    1  C   UNL     1      -6.897   6.324  64.028  1.00  0.00    -0.038 C  
HETATM    2  O   UNL     1      -8.285   6.637  64.093  1.00  0.00    -0.069 OA 
ENDROOT
BRANCH   2   3
HETATM    3  C   UNL     1      -8.769   6.851  65.355  1.00  0.00     0.028 A  
HETATM    4  C   UNL     1      -9.357   5.753  65.979  1.00  0.00    -0.134 A  
HETATM    5  C   UNL     1      -9.906   5.876  67.260  1.00  0.00    -0.155 A  
HETATM    6  C   UNL     1      -9.844   7.091  67.948  1.00  0.00    -0.161 A  
HETATM    7  C   UNL     1      -9.222   8.183  67.324  1.00  0.00    -0.165 A  
HETATM    8  C   UNL     1      -8.680   8.062  66.040  1.00  0.00    -0.183 A  
BRANCH   6   9
HETATM    9  C   UNL     1     -10.521   7.227  69.243  1.00  0.00    -0.221 C  
HETATM   10  C   UNL     1     -11.534   6.445  69.641  1.00  0.00    -0.446 C  
BRANCH  10  11
HETATM   11  C   UNL     1     -11.999   6.477  71.045  1.00  0.00    -0.297 C  
HETATM   12  O   UNL     1     -12.810   7.260  71.510  1.00  0.00    -0.359 OA 
BRANCH  11  13
HETATM   13  O   UNL     1     -11.190   5.636  71.742  1.00  0.00    -0.242 OA 
BRANCH  13  14
HETATM   14  C   UNL     1     -10.544   6.251  72.862  1.00  0.00    -0.233 C  
BRANCH  14  15
HETATM   15  C   UNL     1      -9.105   5.780  73.043  1.00  0.00    -0.124 C  
HETATM   16  C   UNL     1      -8.127   6.970  73.128  1.00  0.00    -0.115 C  
HETATM   17  C   UNL     1      -8.426   7.889  74.316  1.00  0.00    -0.278 C  
HETATM   18  C   UNL     1      -6.681   6.480  73.210  1.00  0.00    -0.073 C  
ENDBRANCH  14  15
ENDBRANCH  13  14
ENDBRANCH  11  13
ENDBRANCH  10  11
ENDBRANCH   6   9
ENDBRANCH   2   3
TORSDOF 6
ENDMDL
MODEL      236
REMARK 921   NORMALIZED FREE ENERGY PREDICTED BY IDOCK:   -2.13 KCAL/MOL
REMARK 922        TOTAL FREE ENERGY PREDICTED BY IDOCK:   -3.66 KCAL/MOL
REMARK 923 INTER-LIGAND FREE ENERGY PREDICTED BY IDOCK:   -3.24 KCAL/MOL
REMARK 924 INTRA-LIGAND FREE ENERGY PREDICTED BY IDOCK:   -0.42 KCAL/MOL
REMARK 927      BINDING AFFINITY PREDICTED BY RF-SCORE:    0.00 PKD
ROOT
HETATM    1  C   UNL     1      -5.988   5.564  63.139  1.00  0.00    -0.018 C  
HETATM    2  O   UNL     1      -7.289   5.061  63.432  1.00  0.00    -0.047 OA 
ENDROOT
BRANCH   2   3
HETATM    3  C   UNL     1      -7.848   5.547  64.582  1.00  0.00    -0.108 A  
HETATM    4  C   UNL     1      -9.120   5.071  64.894  1.00  0.00    -0.082 A  
HETATM    5  C   UNL     1      -9.788   5.528  66.034  1.00  0.00    -0.091 A  
HETATM    6  C   UNL     1      -9.180   6.444  66.898  1.00  0.00    -0.144 A  
HETATM    7  C   UNL     1      -7.886   6.894  66.592  1.00  0.00    -0.107 A  
HETATM    8  C   UNL     1      -7.221   6.443  65.448  1.00  0.00    -0.070 A  
BRANCH   6   9
HETATM    9  C   UNL     1      -9.939   6.991  68.027  1.00  0.00    -0.178 C  
HETATM   10  C   UNL     1      -9.490   7.972  68.823  1.00  0.00    -0.147 C  
BRANCH  10  11
HETATM   11  C   UNL     1     -10.403   8.639  69.778  1.00  0.00    -0.212 C  
HETATM   12  O   UNL     1     -11.231   8.083  70.480  1.00  0.00    -0.265 OA 
BRANCH  11  13
HETATM   13  O   UNL     1     -10.297   9.974  69.551  1.00  0.00    -0.204 OA 
BRANCH  13  14
HETATM   14  C   UNL     1     -11.552  10.625  69.331  1.00  0.00    -0.280 C  
BRANCH  14  15
HETATM   15  C   UNL     1     -11.443  12.145  69.369  1.00  0.00    -0.355 C  
HETATM   16  C   UNL     1     -10.846  12.703  68.060  1.00  0.00    -0.249 C  
HETATM   17  C   UNL     1     -11.705  12.371  66.837  1.00  0.00    -0.432 C  
HETATM   18  C   UNL     1     -10.651  14.216  68.153  1.00  0.00    -0.249 C  
ENDBRANCH  14  15
ENDBRANCH  13  14
ENDBRANCH  11  13
ENDBRANCH  10  11
ENDBRANCH   6   9
ENDBRANCH   2   3
TORSDOF 6
ENDMDL
MODEL      237
REMARK 921   NORMALIZED FREE ENERGY PREDICTED BY IDOCK:   -2.11 KCAL/MOL
REMARK 922        TOTAL FREE ENERGY PREDICTED BY IDOCK:   -3.63 KCAL/MOL
REMARK 923 INTER-LIGAND FREE ENERGY PREDICTED BY IDOCK:   -3.19 KCAL/MOL
REMARK 924 INTRA-LIGAND FREE ENERGY PREDICTED BY IDOCK:   -0.44 KCAL/MOL
REMARK 927      BINDING AFFINITY PREDICTED BY RF-SCORE:    0.00 PKD
ROOT
HETATM    1  C   UNL     1      -7.322   8.343  74.556  1.00  0.00    -0.206 C  
HETATM    2  O   UNL     1      -7.744   7.134  73.931  1.00  0.00    -0.102 OA 
ENDROOT
BRANCH   2   3
HETATM    3  C   UNL     1      -7.922   7.218  72.577  1.00  0.00    -0.099 A  
HETATM    4  C   UNL     1      -8.479   6.098  71.962  1.00  0.00    -0.121 A  
HETATM    5  C   UNL     1      -8.676   6.074  70.577  1.00  0.00    -0.138 A  
HETATM    6  C   UNL     1      -8.351   7.184  69.792  1.00  0.00    -0.132 A  
HETATM    7  C   UNL     1      -7.821   8.319  70.425  1.00  0.00    -0.089 A  
HETATM    8  C   UNL     1      -7.616   8.340  71.808  1.00  0.00    -0.119 A  
BRANCH   6   9
HETATM    9  C   UNL     1      -8.465   7.098  68.332  1.00  0.00    -0.124 C  
HETATM   10  C   UNL     1      -8.737   8.146  67.542  1.00  0.00    -0.129 C  
BRANCH  10  11
HETATM   11  C   UNL     1      -8.592   8.035  66.073  1.00  0.00    -0.145 C  
HETATM   12  O   UNL     1      -8.372   7.008  65.454  1.00  0.00    -0.136 OA 
BRANCH  11  13
HETATM   13  O   UNL     1      -8.522   9.304  65.592  1.00  0.00    -0.126 OA 
BRANCH  13  14
HETATM   14  C   UNL     1      -9.662  10.108  65.913  1.00  0.00    -0.232 C  
BRANCH  14  15
HETATM   15  C   UNL     1      -9.319  11.587  66.055  1.00  0.00    -0.239 C  
HETATM   16  C   UNL     1     -10.501  12.484  65.632  1.00  0.00    -0.299 C  
HETATM   17  C   UNL     1     -11.748  12.254  66.490  1.00  0.00    -0.420 C  
HETATM   18  C   UNL     1     -10.108  13.961  65.685  1.00  0.00    -0.332 C  
ENDBRANCH  14  15
ENDBRANCH  13  14
ENDBRANCH  11  13
ENDBRANCH  10  11
ENDBRANCH   6   9
ENDBRANCH   2   3
TORSDOF 6
ENDMDL
MODEL      238
REMARK 921   NORMALIZED FREE ENERGY PREDICTED BY IDOCK:   -2.02 KCAL/MOL
REMARK 922        TOTAL FREE ENERGY PREDICTED BY IDOCK:   -3.51 KCAL/MOL
REMARK 923 INTER-LIGAND FREE ENERGY PREDICTED BY IDOCK:   -3.64 KCAL/MOL
REMARK 924 INTRA-LIGAND FREE ENERGY PREDICTED BY IDOCK:    0.13 KCAL/MOL
REMARK 927      BINDING AFFINITY PREDICTED BY RF-SCORE:    0.00 PKD
ROOT
HETATM    1  C   UNL     1      -9.679   4.344  72.528  1.00  0.00    -0.153 C  
HETATM    2  O   UNL     1      -9.905   4.342  71.121  1.00  0.00    -0.175 OA 
ENDROOT
BRANCH   2   3
HETATM    3  C   UNL     1      -9.813   5.569  70.521  1.00  0.00    -0.193 A  
HETATM    4  C   UNL     1     -10.794   6.495  70.871  1.00  0.00    -0.302 A  
HETATM    5  C   UNL     1     -10.803   7.769  70.292  1.00  0.00    -0.252 A  
HETATM    6  C   UNL     1      -9.811   8.145  69.380  1.00  0.00    -0.182 A  
HETATM    7  C   UNL     1      -8.811   7.215  69.059  1.00  0.00    -0.131 A  
HETATM    8  C   UNL     1      -8.806   5.939  69.631  1.00  0.00    -0.131 A  
BRANCH   6   9
HETATM    9  C   UNL     1      -9.902   9.443  68.705  1.00  0.00    -0.174 C  
HETATM   10  C   UNL     1      -9.303  10.558  69.147  1.00  0.00    -0.200 C  
BRANCH  10  11
HETATM   11  C   UNL     1      -9.233  11.762  68.290  1.00  0.00    -0.188 C  
HETATM   12  O   UNL     1      -8.872  12.871  68.646  1.00  0.00    -0.078 OA 
BRANCH  11  13
HETATM   13  O   UNL     1      -9.855  11.446  67.124  1.00  0.00    -0.188 OA 
BRANCH  13  14
HETATM   14  C   UNL     1     -10.611  12.523  66.561  1.00  0.00    -0.242 C  
BRANCH  14  15
HETATM   15  C   UNL     1     -10.679  12.463  65.039  1.00  0.00    -0.329 C  
HETATM   16  C   UNL     1      -9.759  11.361  64.474  1.00  0.00    -0.268 C  
HETATM   17  C   UNL     1     -10.145   9.965  64.972  1.00  0.00    -0.110 C  
HETATM   18  C   UNL     1      -9.764  11.379  62.946  1.00  0.00    -0.344 C  
ENDBRANCH  14  15
ENDBRANCH  13  14
ENDBRANCH  11  13
ENDBRANCH  10  11
ENDBRANCH   6   9
ENDBRANCH   2   3
TORSDOF 6
ENDMDL
MODEL      239
REMARK 921   NORMALIZED FREE ENERGY PREDICTED BY IDOCK:   -2.01 KCAL/MOL
REMARK 922        TOTAL FREE ENERGY PREDICTED BY IDOCK:   -3.50 KCAL/MOL
REMARK 923 INTER-LIGAND FREE ENERGY PREDICTED BY IDOCK:   -2.53 KCAL/MOL
REMARK 924 INTRA-LIGAND FREE ENERGY PREDICTED BY IDOCK:   -0.97 KCAL/MOL
REMARK 927      BINDING AFFINITY PREDICTED BY RF-SCORE:    0.00 PKD
ROOT
HETATM    1  C   UNL     1      -6.040   8.894  74.272  1.00  0.00    -0.088 C  
HETATM    2  O   UNL     1      -5.770   7.790  73.413  1.00  0.00    -0.048 OA 
ENDROOT
BRANCH   2   3
HETATM    3  C   UNL     1      -6.674   7.614  72.400  1.00  0.00    -0.058 A  
HETATM    4  C   UNL     1      -6.229   6.877  71.305  1.00  0.00    -0.037 A  
HETATM    5  C   UNL     1      -7.069   6.664  70.206  1.00  0.00    -0.072 A  
HETATM    6  C   UNL     1      -8.377   7.158  70.203  1.00  0.00    -0.137 A  
HETATM    7  C   UNL     1      -8.826   7.871  71.325  1.00  0.00    -0.152 A  
HETATM    8  C   UNL     1      -7.984   8.092  72.420  1.00  0.00    -0.168 A  
BRANCH   6   9
HETATM    9  C   UNL     1      -9.203   7.017  68.999  1.00  0.00    -0.137 C  
HETATM   10  C   UNL     1     -10.006   7.981  68.528  1.00  0.00    -0.206 C  
BRANCH  10  11
HETATM   11  C   UNL     1     -10.613   7.861  67.183  1.00  0.00    -0.313 C  
HETATM   12  O   UNL     1     -11.324   6.947  66.801  1.00  0.00    -0.181 OA 
BRANCH  11  13
HETATM   13  O   UNL     1     -10.045   8.825  66.413  1.00  0.00    -0.284 OA 
BRANCH  13  14
HETATM   14  C   UNL     1      -9.698  10.012  67.134  1.00  0.00    -0.174 C  
BRANCH  14  15
HETATM   15  C   UNL     1      -8.420  10.664  66.616  1.00  0.00    -0.137 C  
HETATM   16  C   UNL     1      -7.618  11.322  67.758  1.00  0.00    -0.104 C  
HETATM   17  C   UNL     1      -7.178  10.311  68.821  1.00  0.00    -0.083 C  
HETATM   18  C   UNL     1      -6.394  12.055  67.210  1.00  0.00    -0.151 C  
ENDBRANCH  14  15
ENDBRANCH  13  14
ENDBRANCH  11  13
ENDBRANCH  10  11
ENDBRANCH   6   9
ENDBRANCH   2   3
TORSDOF 6
ENDMDL
MODEL      240
REMARK 921   NORMALIZED FREE ENERGY PREDICTED BY IDOCK:   -1.87 KCAL/MOL
REMARK 922        TOTAL FREE ENERGY PREDICTED BY IDOCK:   -3.31 KCAL/MOL
REMARK 923 INTER-LIGAND FREE ENERGY PREDICTED BY IDOCK:   -2.70 KCAL/MOL
REMARK 924 INTRA-LIGAND FREE ENERGY PREDICTED BY IDOCK:   -0.61 KCAL/MOL
REMARK 927      BINDING AFFINITY PREDICTED BY RF-SCORE:    0.00 PKD
ROOT
HETATM    1  C   UNL     1      -5.970  13.307  67.699  1.00  0.00    -0.120 C  
HETATM    2  O   UNL     1      -5.538  12.066  68.252  1.00  0.00    -0.049 OA 
ENDROOT
BRANCH   2   3
HETATM    3  C   UNL     1      -6.510  11.106  68.341  1.00  0.00    -0.057 A  
HETATM    4  C   UNL     1      -7.207  11.051  69.546  1.00  0.00    -0.091 A  
HETATM    5  C   UNL     1      -8.201  10.087  69.746  1.00  0.00    -0.191 A  
HETATM    6  C   UNL     1      -8.535   9.186  68.730  1.00  0.00    -0.130 A  
HETATM    7  C   UNL     1      -7.848   9.271  67.509  1.00  0.00    -0.096 A  
HETATM    8  C   UNL     1      -6.849  10.229  67.311  1.00  0.00    -0.081 A  
BRANCH   6   9
HETATM    9  C   UNL     1      -9.502   8.117  68.998  1.00  0.00    -0.155 C  
HETATM   10  C   UNL     1     -10.102   7.396  68.041  1.00  0.00    -0.216 C  
BRANCH  10  11
HETATM   11  C   UNL     1     -10.870   6.179  68.388  1.00  0.00    -0.305 C  
HETATM   12  O   UNL     1     -11.473   5.990  69.431  1.00  0.00    -0.372 OA 
BRANCH  11  13
HETATM   13  O   UNL     1     -10.581   5.253  67.437  1.00  0.00    -0.185 OA 
BRANCH  13  14
HETATM   14  C   UNL     1      -9.537   4.348  67.810  1.00  0.00    -0.160 C  
BRANCH  14  15
HETATM   15  C   UNL     1      -8.920   3.634  66.612  1.00  0.00    -0.149 C  
HETATM   16  C   UNL     1      -8.871   4.550  65.371  1.00  0.00    -0.137 C  
HETATM   17  C   UNL     1      -8.021   5.802  65.602  1.00  0.00    -0.116 C  
HETATM   18  C   UNL     1      -8.343   3.789  64.155  1.00  0.00    -0.091 C  
ENDBRANCH  14  15
ENDBRANCH  13  14
ENDBRANCH  11  13
ENDBRANCH  10  11
ENDBRANCH   6   9
ENDBRANCH   2   3
TORSDOF 6
ENDMDL
MODEL      241
REMARK 921   NORMALIZED FREE ENERGY PREDICTED BY IDOCK:   -1.85 KCAL/MOL
REMARK 922        TOTAL FREE ENERGY PREDICTED BY IDOCK:   -3.28 KCAL/MOL
REMARK 923 INTER-LIGAND FREE ENERGY PREDICTED BY IDOCK:   -2.58 KCAL/MOL
REMARK 924 INTRA-LIGAND FREE ENERGY PREDICTED BY IDOCK:   -0.70 KCAL/MOL
REMARK 927      BINDING AFFINITY PREDICTED BY RF-SCORE:    0.00 PKD
ROOT
HETATM    1  C   UNL     1      -5.974  13.331  67.717  1.00  0.00    -0.145 C  
HETATM    2  O   UNL     1      -5.196  12.255  68.232  1.00  0.00    -0.051 OA 
ENDROOT
BRANCH   2   3
HETATM    3  C   UNL     1      -5.850  11.056  68.309  1.00  0.00    -0.046 A  
HETATM    4  C   UNL     1      -6.428  10.751  69.540  1.00  0.00    -0.089 A  
HETATM    5  C   UNL     1      -7.096   9.537  69.728  1.00  0.00    -0.075 A  
HETATM    6  C   UNL     1      -7.225   8.624  68.677  1.00  0.00    -0.076 A  
HETATM    7  C   UNL     1      -6.667   8.954  67.432  1.00  0.00    -0.066 A  
HETATM    8  C   UNL     1      -5.992  10.164  67.246  1.00  0.00    -0.054 A  
BRANCH   6   9
HETATM    9  C   UNL     1      -7.834   7.313  68.926  1.00  0.00    -0.118 C  
HETATM   10  C   UNL     1      -8.331   6.526  67.961  1.00  0.00    -0.116 C  
BRANCH  10  11
HETATM   11  C   UNL     1      -8.700   5.123  68.254  1.00  0.00    -0.101 C  
HETATM   12  O   UNL     1      -8.902   4.251  67.426  1.00  0.00    -0.104 OA 
BRANCH  11  13
HETATM   13  O   UNL     1      -8.987   5.065  69.580  1.00  0.00    -0.096 OA 
BRANCH  13  14
HETATM   14  C   UNL     1     -10.345   5.392  69.893  1.00  0.00    -0.307 C  
BRANCH  14  15
HETATM   15  C   UNL     1     -10.511   5.934  71.308  1.00  0.00    -0.289 C  
HETATM   16  C   UNL     1     -10.114   7.423  71.394  1.00  0.00    -0.196 C  
HETATM   17  C   UNL     1     -10.979   8.312  70.496  1.00  0.00    -0.253 C  
HETATM   18  C   UNL     1     -10.190   7.924  72.836  1.00  0.00    -0.397 C  
ENDBRANCH  14  15
ENDBRANCH  13  14
ENDBRANCH  11  13
ENDBRANCH  10  11
ENDBRANCH   6   9
ENDBRANCH   2   3
TORSDOF 6
ENDMDL
MODEL      242
REMARK 921   NORMALIZED FREE ENERGY PREDICTED BY IDOCK:   -1.83 KCAL/MOL
REMARK 922        TOTAL FREE ENERGY PREDICTED BY IDOCK:   -3.26 KCAL/MOL
REMARK 923 INTER-LIGAND FREE ENERGY PREDICTED BY IDOCK:   -3.09 KCAL/MOL
REMARK 924 INTRA-LIGAND FREE ENERGY PREDICTED BY IDOCK:   -0.17 KCAL/MOL
REMARK 927      BINDING AFFINITY PREDICTED BY RF-SCORE:    0.00 PKD
ROOT
HETATM    1  C   UNL     1      -9.540  10.245  62.714  1.00  0.00    -0.239 C  
HETATM    2  O   UNL     1      -9.922  11.078  63.806  1.00  0.00    -0.285 OA 
ENDROOT
BRANCH   2   3
HETATM    3  C   UNL     1      -9.597  10.589  65.043  1.00  0.00    -0.276 A  
HETATM    4  C   UNL     1      -8.244  10.614  65.375  1.00  0.00    -0.125 A  
HETATM    5  C   UNL     1      -7.808  10.111  66.605  1.00  0.00    -0.110 A  
HETATM    6  C   UNL     1      -8.723   9.609  67.536  1.00  0.00    -0.126 A  
HETATM    7  C   UNL     1     -10.086   9.618  67.204  1.00  0.00    -0.276 A  
HETATM    8  C   UNL     1     -10.523  10.112  65.971  1.00  0.00    -0.165 A  
BRANCH   6   9
HETATM    9  C   UNL     1      -8.234   8.989  68.772  1.00  0.00    -0.117 C  
HETATM   10  C   UNL     1      -8.058   7.669  68.926  1.00  0.00    -0.127 C  
BRANCH  10  11
HETATM   11  C   UNL     1      -7.333   7.142  70.104  1.00  0.00    -0.080 C  
HETATM   12  O   UNL     1      -6.513   7.753  70.768  1.00  0.00    -0.038 OA 
BRANCH  11  13
HETATM   13  O   UNL     1      -7.585   5.808  70.150  1.00  0.00    -0.081 OA 
BRANCH  13  14
HETATM   14  C   UNL     1      -8.668   5.454  71.015  1.00  0.00    -0.135 C  
BRANCH  14  15
HETATM   15  C   UNL     1      -8.869   6.454  72.149  1.00  0.00    -0.136 C  
HETATM   16  C   UNL     1     -10.292   6.363  72.738  1.00  0.00    -0.222 C  
HETATM   17  C   UNL     1     -10.593   4.984  73.331  1.00  0.00    -0.298 C  
HETATM   18  C   UNL     1     -10.508   7.437  73.804  1.00  0.00    -0.258 C  
ENDBRANCH  14  15
ENDBRANCH  13  14
ENDBRANCH  11  13
ENDBRANCH  10  11
ENDBRANCH   6   9
ENDBRANCH   2   3
TORSDOF 6
ENDMDL
MODEL      243
REMARK 921   NORMALIZED FREE ENERGY PREDICTED BY IDOCK:   -1.75 KCAL/MOL
REMARK 922        TOTAL FREE ENERGY PREDICTED BY IDOCK:   -3.15 KCAL/MOL
REMARK 923 INTER-LIGAND FREE ENERGY PREDICTED BY IDOCK:   -3.26 KCAL/MOL
REMARK 924 INTRA-LIGAND FREE ENERGY PREDICTED BY IDOCK:    0.11 KCAL/MOL
REMARK 927      BINDING AFFINITY PREDICTED BY RF-SCORE:    0.00 PKD
ROOT
HETATM    1  C   UNL     1      -8.245   4.015  72.601  1.00  0.00    -0.095 C  
HETATM    2  O   UNL     1      -8.540   3.751  71.232  1.00  0.00    -0.077 OA 
ENDROOT
BRANCH   2   3
HETATM    3  C   UNL     1      -8.306   4.797  70.380  1.00  0.00    -0.087 A  
HETATM    4  C   UNL     1      -9.302   5.770  70.319  1.00  0.00    -0.185 A  
HETATM    5  C   UNL     1      -9.170   6.864  69.458  1.00  0.00    -0.148 A  
HETATM    6  C   UNL     1      -8.024   7.019  68.671  1.00  0.00    -0.120 A  
HETATM    7  C   UNL     1      -7.014   6.049  68.764  1.00  0.00    -0.072 A  
HETATM    8  C   UNL     1      -7.149   4.950  69.618  1.00  0.00    -0.055 A  
BRANCH   6   9
HETATM    9  C   UNL     1      -7.955   8.113  67.697  1.00  0.00    -0.122 C  
HETATM   10  C   UNL     1      -9.009   8.557  66.997  1.00  0.00    -0.157 C  
BRANCH  10  11
HETATM   11  C   UNL     1      -8.919   9.816  66.224  1.00  0.00    -0.153 C  
HETATM   12  O   UNL     1      -8.562   9.916  65.063  1.00  0.00    -0.141 OA 
BRANCH  11  13
HETATM   13  O   UNL     1      -9.085  10.830  67.113  1.00  0.00    -0.144 OA 
BRANCH  13  14
HETATM   14  C   UNL     1      -9.240  12.115  66.502  1.00  0.00    -0.216 C  
BRANCH  14  15
HETATM   15  C   UNL     1     -10.299  12.122  65.404  1.00  0.00    -0.301 C  
HETATM   16  C   UNL     1     -11.493  13.025  65.776  1.00  0.00    -0.367 C  
HETATM   17  C   UNL     1     -11.081  14.486  65.976  1.00  0.00    -0.329 C  
HETATM   18  C   UNL     1     -12.588  12.943  64.712  1.00  0.00    -0.493 C  
ENDBRANCH  14  15
ENDBRANCH  13  14
ENDBRANCH  11  13
ENDBRANCH  10  11
ENDBRANCH   6   9
ENDBRANCH   2   3
TORSDOF 6
ENDMDL
MODEL      244
REMARK 921   NORMALIZED FREE ENERGY PREDICTED BY IDOCK:   -1.54 KCAL/MOL
REMARK 922        TOTAL FREE ENERGY PREDICTED BY IDOCK:   -2.87 KCAL/MOL
REMARK 923 INTER-LIGAND FREE ENERGY PREDICTED BY IDOCK:   -2.29 KCAL/MOL
REMARK 924 INTRA-LIGAND FREE ENERGY PREDICTED BY IDOCK:   -0.57 KCAL/MOL
REMARK 927      BINDING AFFINITY PREDICTED BY RF-SCORE:    0.00 PKD
ROOT
HETATM    1  C   UNL     1      -7.440  11.598  69.048  1.00  0.00    -0.051 C  
HETATM    2  O   UNL     1      -6.251  10.813  69.016  1.00  0.00    -0.041 OA 
ENDROOT
BRANCH   2   3
HETATM    3  C   UNL     1      -6.333   9.616  69.674  1.00  0.00    -0.045 A  
HETATM    4  C   UNL     1      -7.366   9.497  70.602  1.00  0.00    -0.133 A  
HETATM    5  C   UNL     1      -7.518   8.323  71.346  1.00  0.00    -0.089 A  
HETATM    6  C   UNL     1      -6.659   7.237  71.148  1.00  0.00    -0.044 A  
HETATM    7  C   UNL     1      -5.641   7.356  70.189  1.00  0.00    -0.024 A  
HETATM    8  C   UNL     1      -5.484   8.533  69.451  1.00  0.00    -0.031 A  
BRANCH   6   9
HETATM    9  C   UNL     1      -6.768   6.058  72.014  1.00  0.00    -0.064 C  
HETATM   10  C   UNL     1      -7.710   5.910  72.957  1.00  0.00    -0.103 C  
BRANCH  10  11
HETATM   11  C   UNL     1      -7.910   4.600  73.616  1.00  0.00    -0.094 C  
HETATM   12  O   UNL     1      -7.259   4.166  74.551  1.00  0.00    -0.067 OA 
BRANCH  11  13
HETATM   13  O   UNL     1      -8.784   3.905  72.843  1.00  0.00    -0.097 OA 
BRANCH  13  14
HETATM   14  C   UNL     1     -10.006   4.603  72.580  1.00  0.00    -0.168 C  
BRANCH  14  15
HETATM   15  C   UNL     1     -10.119   5.067  71.132  1.00  0.00    -0.293 C  
HETATM   16  C   UNL     1     -11.347   5.978  70.925  1.00  0.00    -0.299 C  
HETATM   17  C   UNL     1     -11.283   7.250  71.774  1.00  0.00    -0.278 C  
HETATM   18  C   UNL     1     -11.503   6.354  69.451  1.00  0.00    -0.374 C  
ENDBRANCH  14  15
ENDBRANCH  13  14
ENDBRANCH  11  13
ENDBRANCH  10  11
ENDBRANCH   6   9
ENDBRANCH   2   3
TORSDOF 6
ENDMDL
MODEL      245
REMARK 921   NORMALIZED FREE ENERGY PREDICTED BY IDOCK:   -1.54 KCAL/MOL
REMARK 922        TOTAL FREE ENERGY PREDICTED BY IDOCK:   -2.87 KCAL/MOL
REMARK 923 INTER-LIGAND FREE ENERGY PREDICTED BY IDOCK:   -2.65 KCAL/MOL
REMARK 924 INTRA-LIGAND FREE ENERGY PREDICTED BY IDOCK:   -0.22 KCAL/MOL
REMARK 927      BINDING AFFINITY PREDICTED BY RF-SCORE:    0.00 PKD
ROOT
HETATM    1  C   UNL     1      -7.461   8.241  74.566  1.00  0.00    -0.224 C  
HETATM    2  O   UNL     1      -7.451   7.122  73.683  1.00  0.00    -0.082 OA 
ENDROOT
BRANCH   2   3
HETATM    3  C   UNL     1      -7.754   7.414  72.381  1.00  0.00    -0.088 A  
HETATM    4  C   UNL     1      -7.393   6.452  71.439  1.00  0.00    -0.084 A  
HETATM    5  C   UNL     1      -7.635   6.668  70.078  1.00  0.00    -0.100 A  
HETATM    6  C   UNL     1      -8.272   7.834  69.643  1.00  0.00    -0.127 A  
HETATM    7  C   UNL     1      -8.660   8.781  70.603  1.00  0.00    -0.203 A  
HETATM    8  C   UNL     1      -8.411   8.570  71.963  1.00  0.00    -0.231 A  
BRANCH   6   9
HETATM    9  C   UNL     1      -8.418   8.088  68.206  1.00  0.00    -0.123 C  
HETATM   10  C   UNL     1      -8.265   7.148  67.263  1.00  0.00    -0.119 C  
BRANCH  10  11
HETATM   11  C   UNL     1      -8.668   7.417  65.864  1.00  0.00    -0.140 C  
HETATM   12  O   UNL     1      -9.022   8.496  65.419  1.00  0.00    -0.178 OA 
BRANCH  11  13
HETATM   13  O   UNL     1      -8.784   6.209  65.254  1.00  0.00    -0.124 OA 
BRANCH  13  14
HETATM   14  C   UNL     1      -9.197   5.156  66.130  1.00  0.00    -0.151 C  
BRANCH  14  15
HETATM   15  C   UNL     1     -10.032   4.094  65.423  1.00  0.00    -0.211 C  
HETATM   16  C   UNL     1      -9.730   4.052  63.910  1.00  0.00    -0.157 C  
HETATM   17  C   UNL     1      -8.268   3.709  63.614  1.00  0.00    -0.089 C  
HETATM   18  C   UNL     1     -10.644   3.053  63.201  1.00  0.00    -0.218 C  
ENDBRANCH  14  15
ENDBRANCH  13  14
ENDBRANCH  11  13
ENDBRANCH  10  11
ENDBRANCH   6   9
ENDBRANCH   2   3
TORSDOF 6
ENDMDL
MODEL      246
REMARK 921   NORMALIZED FREE ENERGY PREDICTED BY IDOCK:   -1.42 KCAL/MOL
REMARK 922        TOTAL FREE ENERGY PREDICTED BY IDOCK:   -2.70 KCAL/MOL
REMARK 923 INTER-LIGAND FREE ENERGY PREDICTED BY IDOCK:   -2.09 KCAL/MOL
REMARK 924 INTRA-LIGAND FREE ENERGY PREDICTED BY IDOCK:   -0.61 KCAL/MOL
REMARK 927      BINDING AFFINITY PREDICTED BY RF-SCORE:    0.00 PKD
ROOT
HETATM    1  C   UNL     1      -6.427   8.522  73.933  1.00  0.00    -0.104 C  
HETATM    2  O   UNL     1      -6.462   7.109  73.753  1.00  0.00    -0.066 OA 
ENDROOT
BRANCH   2   3
HETATM    3  C   UNL     1      -6.972   6.693  72.553  1.00  0.00    -0.068 A  
HETATM    4  C   UNL     1      -7.725   5.522  72.581  1.00  0.00    -0.099 A  
HETATM    5  C   UNL     1      -8.267   4.999  71.402  1.00  0.00    -0.113 A  
HETATM    6  C   UNL     1      -8.090   5.660  70.182  1.00  0.00    -0.103 A  
HETATM    7  C   UNL     1      -7.356   6.856  70.170  1.00  0.00    -0.081 A  
HETATM    8  C   UNL     1      -6.808   7.374  71.347  1.00  0.00    -0.050 A  
BRANCH   6   9
HETATM    9  C   UNL     1      -8.573   5.039  68.944  1.00  0.00    -0.091 C  
HETATM   10  C   UNL     1      -8.910   5.729  67.845  1.00  0.00    -0.108 C  
BRANCH  10  11
HETATM   11  C   UNL     1      -9.149   5.029  66.564  1.00  0.00    -0.125 C  
HETATM   12  O   UNL     1     -10.045   4.232  66.343  1.00  0.00    -0.227 OA 
BRANCH  11  13
HETATM   13  O   UNL     1      -8.064   5.268  65.782  1.00  0.00    -0.106 OA 
BRANCH  13  14
HETATM   14  C   UNL     1      -8.264   6.308  64.819  1.00  0.00    -0.100 C  
BRANCH  14  15
HETATM   15  C   UNL     1      -7.324   7.491  65.024  1.00  0.00    -0.078 C  
HETATM   16  C   UNL     1      -8.062   8.836  64.860  1.00  0.00    -0.147 C  
HETATM   17  C   UNL     1      -9.193   9.011  65.878  1.00  0.00    -0.290 C  
HETATM   18  C   UNL     1      -7.087  10.008  64.971  1.00  0.00    -0.136 C  
ENDBRANCH  14  15
ENDBRANCH  13  14
ENDBRANCH  11  13
ENDBRANCH  10  11
ENDBRANCH   6   9
ENDBRANCH   2   3
TORSDOF 6
ENDMDL
MODEL      247
REMARK 921   NORMALIZED FREE ENERGY PREDICTED BY IDOCK:   -1.16 KCAL/MOL
REMARK 922        TOTAL FREE ENERGY PREDICTED BY IDOCK:   -2.35 KCAL/MOL
REMARK 923 INTER-LIGAND FREE ENERGY PREDICTED BY IDOCK:   -1.54 KCAL/MOL
REMARK 924 INTRA-LIGAND FREE ENERGY PREDICTED BY IDOCK:   -0.82 KCAL/MOL
REMARK 927      BINDING AFFINITY PREDICTED BY RF-SCORE:    0.00 PKD
ROOT
HETATM    1  C   UNL     1      -6.210  13.151  67.995  1.00  0.00    -0.117 C  
HETATM    2  O   UNL     1      -5.668  12.039  68.703  1.00  0.00    -0.052 OA 
ENDROOT
BRANCH   2   3
HETATM    3  C   UNL     1      -6.334  10.858  68.517  1.00  0.00    -0.049 A  
HETATM    4  C   UNL     1      -5.848  10.035  67.503  1.00  0.00    -0.049 A  
HETATM    5  C   UNL     1      -6.477   8.819  67.215  1.00  0.00    -0.058 A  
HETATM    6  C   UNL     1      -7.580   8.393  67.962  1.00  0.00    -0.098 A  
HETATM    7  C   UNL     1      -8.042   9.214  69.001  1.00  0.00    -0.102 A  
HETATM    8  C   UNL     1      -7.419  10.434  69.283  1.00  0.00    -0.120 A  
BRANCH   6   9
HETATM    9  C   UNL     1      -8.289   7.169  67.574  1.00  0.00    -0.116 C  
HETATM   10  C   UNL     1      -7.980   5.949  68.037  1.00  0.00    -0.105 C  
BRANCH  10  11
HETATM   11  C   UNL     1      -8.887   4.805  67.798  1.00  0.00    -0.105 C  
HETATM   12  O   UNL     1      -8.939   3.785  68.464  1.00  0.00    -0.104 OA 
BRANCH  11  13
HETATM   13  O   UNL     1      -9.466   5.014  66.587  1.00  0.00    -0.130 OA 
BRANCH  13  14
HETATM   14  C   UNL     1      -8.724   4.474  65.489  1.00  0.00    -0.127 C  
BRANCH  14  15
HETATM   15  C   UNL     1      -8.443   5.506  64.403  1.00  0.00    -0.080 C  
HETATM   16  C   UNL     1      -6.996   6.036  64.487  1.00  0.00    -0.051 C  
HETATM   17  C   UNL     1      -5.955   4.928  64.299  1.00  0.00    -0.021 C  
HETATM   18  C   UNL     1      -6.761   7.139  63.456  1.00  0.00    -0.052 C  
ENDBRANCH  14  15
ENDBRANCH  13  14
ENDBRANCH  11  13
ENDBRANCH  10  11
ENDBRANCH   6   9
ENDBRANCH   2   3
TORSDOF 6
ENDMDL
MODEL      248
REMARK 921   NORMALIZED FREE ENERGY PREDICTED BY IDOCK:   -1.14 KCAL/MOL
REMARK 922        TOTAL FREE ENERGY PREDICTED BY IDOCK:   -2.32 KCAL/MOL
REMARK 923 INTER-LIGAND FREE ENERGY PREDICTED BY IDOCK:   -1.80 KCAL/MOL
REMARK 924 INTRA-LIGAND FREE ENERGY PREDICTED BY IDOCK:   -0.51 KCAL/MOL
REMARK 927      BINDING AFFINITY PREDICTED BY RF-SCORE:    0.00 PKD
ROOT
HETATM    1  C   UNL     1      -7.413  11.478  68.957  1.00  0.00    -0.073 C  
HETATM    2  O   UNL     1      -6.264  10.635  68.964  1.00  0.00    -0.043 OA 
ENDROOT
BRANCH   2   3
HETATM    3  C   UNL     1      -6.464   9.393  69.502  1.00  0.00    -0.043 A  
HETATM    4  C   UNL     1      -7.640   9.224  70.231  1.00  0.00    -0.125 A  
HETATM    5  C   UNL     1      -7.923   7.999  70.844  1.00  0.00    -0.094 A  
HETATM    6  C   UNL     1      -7.050   6.915  70.708  1.00  0.00    -0.068 A  
HETATM    7  C   UNL     1      -5.884   7.087  69.946  1.00  0.00    -0.023 A  
HETATM    8  C   UNL     1      -5.596   8.314  69.340  1.00  0.00    -0.030 A  
BRANCH   6   9
HETATM    9  C   UNL     1      -7.312   5.676  71.448  1.00  0.00    -0.083 C  
HETATM   10  C   UNL     1      -8.527   5.305  71.876  1.00  0.00    -0.126 C  
BRANCH  10  11
HETATM   11  C   UNL     1      -8.755   3.937  72.392  1.00  0.00    -0.105 C  
HETATM   12  O   UNL     1      -8.274   3.470  73.410  1.00  0.00    -0.077 OA 
BRANCH  11  13
HETATM   13  O   UNL     1      -9.400   3.254  71.410  1.00  0.00    -0.111 OA 
BRANCH  13  14
HETATM   14  C   UNL     1      -9.850   4.079  70.331  1.00  0.00    -0.139 C  
BRANCH  14  15
HETATM   15  C   UNL     1      -9.170   3.742  69.008  1.00  0.00    -0.221 C  
HETATM   16  C   UNL     1      -9.606   4.706  67.886  1.00  0.00    -0.205 C  
HETATM   17  C   UNL     1      -9.241   6.162  68.191  1.00  0.00    -0.117 C  
HETATM   18  C   UNL     1      -8.994   4.295  66.547  1.00  0.00    -0.120 C  
ENDBRANCH  14  15
ENDBRANCH  13  14
ENDBRANCH  11  13
ENDBRANCH  10  11
ENDBRANCH   6   9
ENDBRANCH   2   3
TORSDOF 6
ENDMDL
MODEL      249
REMARK 921   NORMALIZED FREE ENERGY PREDICTED BY IDOCK:   13.24 KCAL/MOL
REMARK 922        TOTAL FREE ENERGY PREDICTED BY IDOCK:   17.11 KCAL/MOL
REMARK 923 INTER-LIGAND FREE ENERGY PREDICTED BY IDOCK:   16.70 KCAL/MOL
REMARK 924 INTRA-LIGAND FREE ENERGY PREDICTED BY IDOCK:    0.41 KCAL/MOL
REMARK 927      BINDING AFFINITY PREDICTED BY RF-SCORE:    0.00 PKD
ROOT
HETATM    1  C   UNL     1     -13.879  10.011  67.714  1.00  0.00    15.725 C  
HETATM    2  O   UNL     1     -13.116  10.390  68.857  1.00  0.00     1.107 OA 
ENDROOT
BRANCH   2   3
HETATM    3  C   UNL     1     -11.869   9.831  68.928  1.00  0.00     0.625 A  
HETATM    4  C   UNL     1     -10.816  10.628  68.483  1.00  0.00    -0.275 A  
HETATM    5  C   UNL     1      -9.506  10.137  68.490  1.00  0.00    -0.159 A  
HETATM    6  C   UNL     1      -9.227   8.855  68.972  1.00  0.00    -0.140 A  
HETATM    7  C   UNL     1     -10.291   8.073  69.447  1.00  0.00    -0.217 A  
HETATM    8  C   UNL     1     -11.602   8.559  69.433  1.00  0.00     0.695 A  
BRANCH   6   9
HETATM    9  C   UNL     1      -7.864   8.322  68.869  1.00  0.00    -0.111 C  
HETATM   10  C   UNL     1      -7.557   7.025  69.017  1.00  0.00    -0.104 C  
BRANCH  10  11
HETATM   11  C   UNL     1      -6.211   6.528  68.656  1.00  0.00    -0.030 C  
HETATM   12  O   UNL     1      -5.860   6.160  67.548  1.00  0.00    -0.015 OA 
BRANCH  11  13
HETATM   13  O   UNL     1      -5.537   6.350  69.822  1.00  0.00    -0.013 OA 
BRANCH  13  14
HETATM   14  C   UNL     1      -5.890   7.289  70.843  1.00  0.00    -0.031 C  
BRANCH  14  15
HETATM   15  C   UNL     1      -6.082   6.633  72.206  1.00  0.00    -0.039 C  
HETATM   16  C   UNL     1      -7.561   6.274  72.458  1.00  0.00    -0.101 C  
HETATM   17  C   UNL     1      -8.105   5.279  71.428  1.00  0.00    -0.115 C  
HETATM   18  C   UNL     1      -7.751   5.709  73.866  1.00  0.00    -0.100 C  
ENDBRANCH  14  15
ENDBRANCH  13  14
ENDBRANCH  11  13
ENDBRANCH  10  11
ENDBRANCH   6   9
ENDBRANCH   2   3
TORSDOF 6
ENDMDL
MODEL      250
REMARK 921   NORMALIZED FREE ENERGY PREDICTED BY IDOCK:   18.61 KCAL/MOL
REMARK 922        TOTAL FREE ENERGY PREDICTED BY IDOCK:   24.36 KCAL/MOL
REMARK 923 INTER-LIGAND FREE ENERGY PREDICTED BY IDOCK:   24.29 KCAL/MOL
REMARK 924 INTRA-LIGAND FREE ENERGY PREDICTED BY IDOCK:    0.07 KCAL/MOL
REMARK 927      BINDING AFFINITY PREDICTED BY RF-SCORE:    0.00 PKD
ROOT
HETATM    1  C   UNL     1     -14.101   9.881  67.495  1.00  0.00    19.922 C  
HETATM    2  O   UNL     1     -13.339  10.263  68.636  1.00  0.00     3.096 OA 
ENDROOT
BRANCH   2   3
HETATM    3  C   UNL     1     -12.090   9.709  68.706  1.00  0.00     1.521 A  
HETATM    4  C   UNL     1     -11.959   8.598  69.538  1.00  0.00     1.202 A  
HETATM    5  C   UNL     1     -10.716   7.976  69.699  1.00  0.00    -0.207 A  
HETATM    6  C   UNL     1      -9.594   8.435  69.003  1.00  0.00    -0.160 A  
HETATM    7  C   UNL     1      -9.743   9.534  68.144  1.00  0.00    -0.166 A  
HETATM    8  C   UNL     1     -10.983  10.162  67.989  1.00  0.00    -0.326 A  
BRANCH   6   9
HETATM    9  C   UNL     1      -8.281   7.838  69.269  1.00  0.00    -0.129 C  
HETATM   10  C   UNL     1      -7.119   8.390  68.891  1.00  0.00    -0.066 C  
BRANCH  10  11
HETATM   11  C   UNL     1      -5.836   7.862  69.405  1.00  0.00    -0.030 C  
HETATM   12  O   UNL     1      -5.282   8.214  70.433  1.00  0.00    -0.023 OA 
BRANCH  11  13
HETATM   13  O   UNL     1      -5.303   7.101  68.415  1.00  0.00    -0.019 OA 
BRANCH  13  14
HETATM   14  C   UNL     1      -6.279   6.419  67.621  1.00  0.00    -0.032 C  
BRANCH  14  15
HETATM   15  C   UNL     1      -6.029   6.566  66.124  1.00  0.00    -0.029 C  
HETATM   16  C   UNL     1      -7.351   6.594  65.329  1.00  0.00    -0.080 C  
HETATM   17  C   UNL     1      -8.247   7.771  65.727  1.00  0.00    -0.132 C  
HETATM   18  C   UNL     1      -7.081   6.642  63.825  1.00  0.00    -0.056 C  
ENDBRANCH  14  15
ENDBRANCH  13  14
ENDBRANCH  11  13
ENDBRANCH  10  11
ENDBRANCH   6   9
ENDBRANCH   2   3
TORSDOF 6
ENDMDL
MODEL      251
REMARK 921   NORMALIZED FREE ENERGY PREDICTED BY IDOCK:   24.09 KCAL/MOL
REMARK 922        TOTAL FREE ENERGY PREDICTED BY IDOCK:   31.75 KCAL/MOL
REMARK 923 INTER-LIGAND FREE ENERGY PREDICTED BY IDOCK:   32.31 KCAL/MOL
REMARK 924 INTRA-LIGAND FREE ENERGY PREDICTED BY IDOCK:   -0.56 KCAL/MOL
REMARK 927      BINDING AFFINITY PREDICTED BY RF-SCORE:    0.00 PKD
ROOT
HETATM    1  C   UNL     1     -14.281   9.828  67.327  1.00  0.00    23.022 C  
HETATM    2  O   UNL     1     -13.546  10.240  68.477  1.00  0.00     4.807 OA 
ENDROOT
BRANCH   2   3
HETATM    3  C   UNL     1     -12.289   9.710  68.577  1.00  0.00     3.004 A  
HETATM    4  C   UNL     1     -12.203   8.441  69.148  1.00  0.00     2.623 A  
HETATM    5  C   UNL     1     -10.959   7.825  69.320  1.00  0.00    -0.007 A  
HETATM    6  C   UNL     1      -9.786   8.454  68.892  1.00  0.00    -0.168 A  
HETATM    7  C   UNL     1      -9.886   9.717  68.290  1.00  0.00    -0.167 A  
HETATM    8  C   UNL     1     -11.129  10.338  68.125  1.00  0.00    -0.324 A  
BRANCH   6   9
HETATM    9  C   UNL     1      -8.486   7.839  69.180  1.00  0.00    -0.138 C  
HETATM   10  C   UNL     1      -7.429   7.909  68.359  1.00  0.00    -0.100 C  
BRANCH  10  11
HETATM   11  C   UNL     1      -6.090   7.482  68.823  1.00  0.00    -0.031 C  
HETATM   12  O   UNL     1      -5.239   8.207  69.310  1.00  0.00    -0.029 OA 
BRANCH  11  13
HETATM   13  O   UNL     1      -5.919   6.204  68.393  1.00  0.00    -0.015 OA 
BRANCH  13  14
HETATM   14  C   UNL     1      -5.532   5.294  69.427  1.00  0.00    -0.007 C  
BRANCH  14  15
HETATM   15  C   UNL     1      -6.416   4.053  69.481  1.00  0.00    -0.033 C  
HETATM   16  C   UNL     1      -6.599   3.551  70.929  1.00  0.00    -0.031 C  
HETATM   17  C   UNL     1      -7.273   4.591  71.828  1.00  0.00    -0.060 C  
HETATM   18  C   UNL     1      -7.404   2.252  70.956  1.00  0.00    -0.033 C  
ENDBRANCH  14  15
ENDBRANCH  13  14
ENDBRANCH  11  13
ENDBRANCH  10  11
ENDBRANCH   6   9
ENDBRANCH   2   3
TORSDOF 6
ENDMDL
MODEL      252
REMARK 921   NORMALIZED FREE ENERGY PREDICTED BY IDOCK:   36.39 KCAL/MOL
REMARK 922        TOTAL FREE ENERGY PREDICTED BY IDOCK:   48.38 KCAL/MOL
REMARK 923 INTER-LIGAND FREE ENERGY PREDICTED BY IDOCK:   48.86 KCAL/MOL
REMARK 924 INTRA-LIGAND FREE ENERGY PREDICTED BY IDOCK:   -0.48 KCAL/MOL
REMARK 927      BINDING AFFINITY PREDICTED BY RF-SCORE:    0.00 PKD
ROOT
HETATM    1  C   UNL     1     -14.244   9.479  65.569  1.00  0.00    23.638 C  
HETATM    2  O   UNL     1     -13.532   9.897  66.730  1.00  0.00    13.545 OA 
ENDROOT
BRANCH   2   3
HETATM    3  C   UNL     1     -12.276   9.369  66.858  1.00  0.00     6.953 A  
HETATM    4  C   UNL     1     -12.019   8.682  68.042  1.00  0.00     3.451 A  
HETATM    5  C   UNL     1     -10.756   8.128  68.280  1.00  0.00    -0.073 A  
HETATM    6  C   UNL     1      -9.743   8.226  67.321  1.00  0.00    -0.234 A  
HETATM    7  C   UNL     1     -10.022   8.893  66.118  1.00  0.00    -0.290 A  
HETATM    8  C   UNL     1     -11.282   9.454  65.884  1.00  0.00     2.350 A  
BRANCH   6   9
HETATM    9  C   UNL     1      -8.397   7.735  67.635  1.00  0.00    -0.121 C  
HETATM   10  C   UNL     1      -7.876   6.609  67.127  1.00  0.00    -0.105 C  
BRANCH  10  11
HETATM   11  C   UNL     1      -6.437   6.308  67.291  1.00  0.00    -0.049 C  
HETATM   12  O   UNL     1      -5.674   5.965  66.404  1.00  0.00    -0.016 OA 
BRANCH  11  13
HETATM   13  O   UNL     1      -6.198   6.267  68.628  1.00  0.00    -0.032 OA 
BRANCH  13  14
HETATM   14  C   UNL     1      -5.130   7.120  69.051  1.00  0.00    -0.014 C  
BRANCH  14  15
HETATM   15  C   UNL     1      -5.457   7.885  70.329  1.00  0.00    -0.023 C  
HETATM   16  C   UNL     1      -6.233   7.006  71.331  1.00  0.00    -0.037 C  
HETATM   17  C   UNL     1      -5.436   5.774  71.768  1.00  0.00    -0.021 C  
HETATM   18  C   UNL     1      -6.640   7.816  72.563  1.00  0.00    -0.065 C  
ENDBRANCH  14  15
ENDBRANCH  13  14
ENDBRANCH  11  13
ENDBRANCH  10  11
ENDBRANCH   6   9
ENDBRANCH   2   3
TORSDOF 6
ENDMDL
