MODEL        1
REMARK 921   NORMALIZED FREE ENERGY PREDICTED BY IDOCK:   -4.56 KCAL/MOL
REMARK 922        TOTAL FREE ENERGY PREDICTED BY IDOCK:   -5.69 KCAL/MOL
REMARK 923 INTER-LIGAND FREE ENERGY PREDICTED BY IDOCK:   -5.36 KCAL/MOL
REMARK 924 INTRA-LIGAND FREE ENERGY PREDICTED BY IDOCK:   -0.33 KCAL/MOL
REMARK 927      BINDING AFFINITY PREDICTED BY RF-SCORE:    0.00 PKD
ROOT
HETATM    1  N   UNL     1     -12.452  13.752  62.965  1.00  0.00    -1.000 NA 
HETATM    2  C   UNL     1     -12.214  12.548  63.757  1.00  0.00    -0.525 C  
HETATM    3  H1  UNL     1     -12.451  13.521  61.971  1.00  0.00     0.000 HD 
HETATM    4  H2  UNL     1     -11.786  14.493  63.185  1.00  0.00     0.000 HD 
ENDROOT
BRANCH   2   5
HETATM    5  C   UNL     1     -12.215  12.895  65.246  1.00  0.00    -0.476 C  
HETATM    6  O   UNL     1     -12.127  12.041  66.136  1.00  0.00    -0.582 OA 
BRANCH   5   7
HETATM    7  C   UNL     1     -12.525  14.313  65.645  1.00  0.00    -0.432 C  
BRANCH   7   8
HETATM    8  C   UNL     1     -11.244  15.057  65.975  1.00  0.00    -0.310 C  
HETATM    9  C   UNL     1     -10.908  16.301  65.176  1.00  0.00    -0.318 C  
HETATM   10  O   UNL     1      -9.997  17.041  65.527  1.00  0.00    -0.567 OA 
HETATM   11  O   UNL     1     -11.607  16.552  64.058  1.00  0.00    -1.154 OA 
ENDBRANCH   7   8
ENDBRANCH   5   7
ENDBRANCH   2   5
TORSDOF 3
ENDMDL
MODEL        2
REMARK 921   NORMALIZED FREE ENERGY PREDICTED BY IDOCK:   -4.46 KCAL/MOL
REMARK 922        TOTAL FREE ENERGY PREDICTED BY IDOCK:   -5.57 KCAL/MOL
REMARK 923 INTER-LIGAND FREE ENERGY PREDICTED BY IDOCK:   -5.49 KCAL/MOL
REMARK 924 INTRA-LIGAND FREE ENERGY PREDICTED BY IDOCK:   -0.08 KCAL/MOL
REMARK 927      BINDING AFFINITY PREDICTED BY RF-SCORE:    0.00 PKD
ROOT
HETATM    1  N   UNL     1     -11.607  16.363  63.859  1.00  0.00    -1.602 NA 
HETATM    2  C   UNL     1     -11.323  15.277  64.794  1.00  0.00    -0.391 C  
HETATM    3  H1  UNL     1     -11.096  17.202  64.134  1.00  0.00     0.000 HD 
HETATM    4  H2  UNL     1     -12.608  16.538  63.768  1.00  0.00     0.000 HD 
ENDROOT
BRANCH   2   5
HETATM    5  C   UNL     1     -12.090  14.020  64.383  1.00  0.00    -0.458 C  
HETATM    6  O   UNL     1     -12.587  13.872  63.260  1.00  0.00    -0.824 OA 
BRANCH   5   7
HETATM    7  C   UNL     1     -12.412  13.004  65.447  1.00  0.00    -0.531 C  
BRANCH   7   8
HETATM    8  C   UNL     1     -12.135  13.580  66.823  1.00  0.00    -0.425 C  
HETATM    9  C   UNL     1     -11.770  12.625  67.943  1.00  0.00    -0.358 C  
HETATM   10  O   UNL     1     -11.350  13.049  69.013  1.00  0.00    -0.260 OA 
HETATM   11  O   UNL     1     -11.951  11.310  67.747  1.00  0.00    -0.637 OA 
ENDBRANCH   7   8
ENDBRANCH   5   7
ENDBRANCH   2   5
TORSDOF 3
ENDMDL
MODEL        3
REMARK 921   NORMALIZED FREE ENERGY PREDICTED BY IDOCK:   -4.24 KCAL/MOL
REMARK 922        TOTAL FREE ENERGY PREDICTED BY IDOCK:   -5.31 KCAL/MOL
REMARK 923 INTER-LIGAND FREE ENERGY PREDICTED BY IDOCK:   -5.18 KCAL/MOL
REMARK 924 INTRA-LIGAND FREE ENERGY PREDICTED BY IDOCK:   -0.14 KCAL/MOL
REMARK 927      BINDING AFFINITY PREDICTED BY RF-SCORE:    0.00 PKD
ROOT
HETATM    1  N   UNL     1     -11.382  11.376  63.030  1.00  0.00    -0.852 NA 
HETATM    2  C   UNL     1     -11.340  12.164  64.261  1.00  0.00    -0.360 C  
HETATM    3  H1  UNL     1     -10.813  10.535  63.136  1.00  0.00     0.000 HD 
HETATM    4  H2  UNL     1     -11.105  11.924  62.216  1.00  0.00     0.000 HD 
ENDROOT
BRANCH   2   5
HETATM    5  C   UNL     1     -12.191  13.424  64.102  1.00  0.00    -0.398 C  
HETATM    6  O   UNL     1     -12.618  13.814  63.010  1.00  0.00    -0.721 OA 
BRANCH   5   7
HETATM    7  C   UNL     1     -12.355  14.324  65.298  1.00  0.00    -0.427 C  
BRANCH   7   8
HETATM    8  C   UNL     1     -11.013  14.899  65.711  1.00  0.00    -0.345 C  
HETATM    9  C   UNL     1     -10.650  16.292  65.236  1.00  0.00    -0.336 C  
HETATM   10  O   UNL     1      -9.674  16.874  65.696  1.00  0.00    -0.538 OA 
HETATM   11  O   UNL     1     -11.398  16.857  64.276  1.00  0.00    -1.202 OA 
ENDBRANCH   7   8
ENDBRANCH   5   7
ENDBRANCH   2   5
TORSDOF 3
ENDMDL
MODEL        4
REMARK 921   NORMALIZED FREE ENERGY PREDICTED BY IDOCK:   -4.09 KCAL/MOL
REMARK 922        TOTAL FREE ENERGY PREDICTED BY IDOCK:   -5.13 KCAL/MOL
REMARK 923 INTER-LIGAND FREE ENERGY PREDICTED BY IDOCK:   -5.00 KCAL/MOL
REMARK 924 INTRA-LIGAND FREE ENERGY PREDICTED BY IDOCK:   -0.13 KCAL/MOL
REMARK 927      BINDING AFFINITY PREDICTED BY RF-SCORE:    0.00 PKD
ROOT
HETATM    1  N   UNL     1     -11.505  16.583  64.009  1.00  0.00    -1.581 NA 
HETATM    2  C   UNL     1     -11.027  15.473  64.830  1.00  0.00    -0.436 C  
HETATM    3  H1  UNL     1     -11.216  17.470  64.421  1.00  0.00     0.000 HD 
HETATM    4  H2  UNL     1     -12.513  16.541  63.858  1.00  0.00     0.000 HD 
ENDROOT
BRANCH   2   5
HETATM    5  C   UNL     1     -11.461  14.143  64.213  1.00  0.00    -0.272 C  
HETATM    6  O   UNL     1     -12.513  14.007  63.579  1.00  0.00    -0.826 OA 
BRANCH   5   7
HETATM    7  C   UNL     1     -10.665  12.910  64.552  1.00  0.00    -0.392 C  
BRANCH   7   8
HETATM    8  C   UNL     1     -11.500  11.961  65.392  1.00  0.00    -0.310 C  
HETATM    9  C   UNL     1     -11.308  11.974  66.896  1.00  0.00    -0.341 C  
HETATM   10  O   UNL     1     -12.086  11.376  67.630  1.00  0.00    -0.630 OA 
HETATM   11  O   UNL     1     -10.249  12.625  67.401  1.00  0.00    -0.215 OA 
ENDBRANCH   7   8
ENDBRANCH   5   7
ENDBRANCH   2   5
TORSDOF 3
ENDMDL
MODEL        5
REMARK 921   NORMALIZED FREE ENERGY PREDICTED BY IDOCK:   -3.94 KCAL/MOL
REMARK 922        TOTAL FREE ENERGY PREDICTED BY IDOCK:   -4.96 KCAL/MOL
REMARK 923 INTER-LIGAND FREE ENERGY PREDICTED BY IDOCK:   -4.88 KCAL/MOL
REMARK 924 INTRA-LIGAND FREE ENERGY PREDICTED BY IDOCK:   -0.08 KCAL/MOL
REMARK 927      BINDING AFFINITY PREDICTED BY RF-SCORE:    0.00 PKD
ROOT
HETATM    1  N   UNL     1     -12.396  13.917  63.247  1.00  0.00    -1.148 NA 
HETATM    2  C   UNL     1     -12.114  14.284  64.633  1.00  0.00    -0.463 C  
HETATM    3  H1  UNL     1     -12.878  13.018  63.216  1.00  0.00     0.000 HD 
HETATM    4  H2  UNL     1     -11.554  13.919  62.672  1.00  0.00     0.000 HD 
ENDROOT
BRANCH   2   5
HETATM    5  C   UNL     1     -11.392  15.631  64.680  1.00  0.00    -0.349 C  
HETATM    6  O   UNL     1     -11.542  16.505  63.819  1.00  0.00    -1.109 OA 
BRANCH   5   7
HETATM    7  C   UNL     1     -10.314  15.823  65.714  1.00  0.00    -0.390 C  
BRANCH   7   8
HETATM    8  C   UNL     1     -10.275  17.270  66.168  1.00  0.00    -0.338 C  
HETATM    9  C   UNL     1     -10.533  17.573  67.631  1.00  0.00    -0.370 C  
HETATM   10  O   UNL     1     -10.322  18.692  68.084  1.00  0.00    -0.368 OA 
HETATM   11  O   UNL     1     -11.031  16.598  68.408  1.00  0.00    -0.346 OA 
ENDBRANCH   7   8
ENDBRANCH   5   7
ENDBRANCH   2   5
TORSDOF 3
ENDMDL
MODEL        6
REMARK 921   NORMALIZED FREE ENERGY PREDICTED BY IDOCK:   -3.87 KCAL/MOL
REMARK 922        TOTAL FREE ENERGY PREDICTED BY IDOCK:   -4.88 KCAL/MOL
REMARK 923 INTER-LIGAND FREE ENERGY PREDICTED BY IDOCK:   -4.75 KCAL/MOL
REMARK 924 INTRA-LIGAND FREE ENERGY PREDICTED BY IDOCK:   -0.13 KCAL/MOL
REMARK 927      BINDING AFFINITY PREDICTED BY RF-SCORE:    0.00 PKD
ROOT
HETATM    1  N   UNL     1     -10.732  18.326  66.804  1.00  0.00    -0.296 NA 
HETATM    2  C   UNL     1     -10.215  16.966  66.667  1.00  0.00    -0.312 C  
HETATM    3  H1  UNL     1     -10.513  18.690  67.731  1.00  0.00     0.000 HD 
HETATM    4  H2  UNL     1     -11.730  18.379  66.598  1.00  0.00     0.000 HD 
ENDROOT
BRANCH   2   5
HETATM    5  C   UNL     1     -10.543  16.420  65.277  1.00  0.00    -0.299 C  
HETATM    6  O   UNL     1     -11.203  17.053  64.444  1.00  0.00    -1.167 OA 
BRANCH   5   7
HETATM    7  C   UNL     1     -10.210  14.982  64.982  1.00  0.00    -0.349 C  
BRANCH   7   8
HETATM    8  C   UNL     1     -11.258  14.065  65.586  1.00  0.00    -0.310 C  
HETATM    9  C   UNL     1     -12.383  13.574  64.696  1.00  0.00    -0.372 C  
HETATM   10  O   UNL     1     -13.137  12.686  65.076  1.00  0.00    -0.808 OA 
HETATM   11  O   UNL     1     -12.555  14.158  63.500  1.00  0.00    -0.834 OA 
ENDBRANCH   7   8
ENDBRANCH   5   7
ENDBRANCH   2   5
TORSDOF 3
ENDMDL
MODEL        7
REMARK 921   NORMALIZED FREE ENERGY PREDICTED BY IDOCK:   -3.75 KCAL/MOL
REMARK 922        TOTAL FREE ENERGY PREDICTED BY IDOCK:   -4.73 KCAL/MOL
REMARK 923 INTER-LIGAND FREE ENERGY PREDICTED BY IDOCK:   -4.59 KCAL/MOL
REMARK 924 INTRA-LIGAND FREE ENERGY PREDICTED BY IDOCK:   -0.15 KCAL/MOL
REMARK 927      BINDING AFFINITY PREDICTED BY RF-SCORE:    0.00 PKD
ROOT
HETATM    1  N   UNL     1     -11.533  16.402  63.906  1.00  0.00    -1.618 NA 
HETATM    2  C   UNL     1     -11.045  15.665  65.070  1.00  0.00    -0.389 C  
HETATM    3  H1  UNL     1     -12.156  15.810  63.355  1.00  0.00     0.000 HD 
HETATM    4  H2  UNL     1     -10.769  16.780  63.344  1.00  0.00     0.000 HD 
ENDROOT
BRANCH   2   5
HETATM    5  C   UNL     1     -10.111  16.551  65.894  1.00  0.00    -0.337 C  
HETATM    6  O   UNL     1      -8.920  16.719  65.611  1.00  0.00    -0.475 OA 
BRANCH   5   7
HETATM    7  C   UNL     1     -10.618  17.088  67.207  1.00  0.00    -0.267 C  
BRANCH   7   8
HETATM    8  C   UNL     1     -10.755  18.598  67.138  1.00  0.00    -0.433 C  
HETATM    9  C   UNL     1      -9.619  19.448  67.673  1.00  0.00    -0.324 C  
HETATM   10  O   UNL     1      -9.592  20.656  67.466  1.00  0.00    -0.421 OA 
HETATM   11  O   UNL     1      -8.665  18.854  68.407  1.00  0.00    -0.322 OA 
ENDBRANCH   7   8
ENDBRANCH   5   7
ENDBRANCH   2   5
TORSDOF 3
ENDMDL
MODEL        8
REMARK 921   NORMALIZED FREE ENERGY PREDICTED BY IDOCK:   -3.75 KCAL/MOL
REMARK 922        TOTAL FREE ENERGY PREDICTED BY IDOCK:   -4.73 KCAL/MOL
REMARK 923 INTER-LIGAND FREE ENERGY PREDICTED BY IDOCK:   -4.67 KCAL/MOL
REMARK 924 INTRA-LIGAND FREE ENERGY PREDICTED BY IDOCK:   -0.07 KCAL/MOL
REMARK 927      BINDING AFFINITY PREDICTED BY RF-SCORE:    0.00 PKD
ROOT
HETATM    1  N   UNL     1     -14.073   9.010  73.145  1.00  0.00    -1.223 NA 
HETATM    2  C   UNL     1     -13.457   9.044  71.820  1.00  0.00    -0.411 C  
HETATM    3  H1  UNL     1     -14.506   8.100  73.304  1.00  0.00     0.000 HD 
HETATM    4  H2  UNL     1     -14.733   9.776  73.279  1.00  0.00     0.000 HD 
ENDROOT
BRANCH   2   5
HETATM    5  C   UNL     1     -12.809  10.408  71.581  1.00  0.00    -0.474 C  
HETATM    6  O   UNL     1     -13.184  11.440  72.149  1.00  0.00    -0.490 OA 
BRANCH   5   7
HETATM    7  C   UNL     1     -11.800  10.529  70.470  1.00  0.00    -0.442 C  
BRANCH   7   8
HETATM    8  C   UNL     1     -11.794  11.943  69.918  1.00  0.00    -0.418 C  
HETATM    9  C   UNL     1     -11.910  12.130  68.419  1.00  0.00    -0.303 C  
HETATM   10  O   UNL     1     -12.106  13.242  67.941  1.00  0.00    -0.331 OA 
HETATM   11  O   UNL     1     -11.759  11.058  67.625  1.00  0.00    -0.576 OA 
ENDBRANCH   7   8
ENDBRANCH   5   7
ENDBRANCH   2   5
TORSDOF 3
ENDMDL
MODEL        9
REMARK 921   NORMALIZED FREE ENERGY PREDICTED BY IDOCK:   -3.74 KCAL/MOL
REMARK 922        TOTAL FREE ENERGY PREDICTED BY IDOCK:   -4.73 KCAL/MOL
REMARK 923 INTER-LIGAND FREE ENERGY PREDICTED BY IDOCK:   -4.41 KCAL/MOL
REMARK 924 INTRA-LIGAND FREE ENERGY PREDICTED BY IDOCK:   -0.31 KCAL/MOL
REMARK 927      BINDING AFFINITY PREDICTED BY RF-SCORE:    0.00 PKD
ROOT
HETATM    1  N   UNL     1     -11.129  11.436  63.042  1.00  0.00    -0.840 NA 
HETATM    2  C   UNL     1     -12.411  12.018  63.433  1.00  0.00    -0.523 C  
HETATM    3  H1  UNL     1     -11.273  10.503  62.656  1.00  0.00     0.000 HD 
HETATM    4  H2  UNL     1     -10.460  11.432  63.812  1.00  0.00     0.000 HD 
ENDROOT
BRANCH   2   5
HETATM    5  C   UNL     1     -12.194  13.416  64.012  1.00  0.00    -0.405 C  
HETATM    6  O   UNL     1     -12.606  14.444  63.462  1.00  0.00    -0.784 OA 
BRANCH   5   7
HETATM    7  C   UNL     1     -11.281  13.559  65.202  1.00  0.00    -0.320 C  
BRANCH   7   8
HETATM    8  C   UNL     1     -11.978  13.072  66.459  1.00  0.00    -0.457 C  
HETATM    9  C   UNL     1     -11.553  11.740  67.047  1.00  0.00    -0.244 C  
HETATM   10  O   UNL     1     -11.941  11.396  68.157  1.00  0.00    -0.594 OA 
HETATM   11  O   UNL     1     -10.773  10.934  66.310  1.00  0.00    -0.243 OA 
ENDBRANCH   7   8
ENDBRANCH   5   7
ENDBRANCH   2   5
TORSDOF 3
ENDMDL
MODEL       10
REMARK 921   NORMALIZED FREE ENERGY PREDICTED BY IDOCK:   -3.69 KCAL/MOL
REMARK 922        TOTAL FREE ENERGY PREDICTED BY IDOCK:   -4.66 KCAL/MOL
REMARK 923 INTER-LIGAND FREE ENERGY PREDICTED BY IDOCK:   -4.53 KCAL/MOL
REMARK 924 INTRA-LIGAND FREE ENERGY PREDICTED BY IDOCK:   -0.13 KCAL/MOL
REMARK 927      BINDING AFFINITY PREDICTED BY RF-SCORE:    0.00 PKD
ROOT
HETATM    1  N   UNL     1     -12.481  14.031  63.328  1.00  0.00    -1.112 NA 
HETATM    2  C   UNL     1     -12.142  14.408  64.698  1.00  0.00    -0.471 C  
HETATM    3  H1  UNL     1     -12.993  13.148  63.325  1.00  0.00     0.000 HD 
HETATM    4  H2  UNL     1     -11.659  13.998  62.725  1.00  0.00     0.000 HD 
ENDROOT
BRANCH   2   5
HETATM    5  C   UNL     1     -11.375  15.730  64.701  1.00  0.00    -0.337 C  
HETATM    6  O   UNL     1     -11.597  16.639  63.893  1.00  0.00    -1.204 OA 
BRANCH   5   7
HETATM    7  C   UNL     1     -10.177  15.854  65.605  1.00  0.00    -0.406 C  
BRANCH   7   8
HETATM    8  C   UNL     1     -10.621  16.006  67.048  1.00  0.00    -0.302 C  
HETATM    9  C   UNL     1     -10.306  14.886  68.020  1.00  0.00    -0.244 C  
HETATM   10  O   UNL     1     -10.466  15.042  69.225  1.00  0.00    -0.235 OA 
HETATM   11  O   UNL     1      -9.881  13.712  67.528  1.00  0.00    -0.220 OA 
ENDBRANCH   7   8
ENDBRANCH   5   7
ENDBRANCH   2   5
TORSDOF 3
ENDMDL
MODEL       11
REMARK 921   NORMALIZED FREE ENERGY PREDICTED BY IDOCK:   -3.69 KCAL/MOL
REMARK 922        TOTAL FREE ENERGY PREDICTED BY IDOCK:   -4.66 KCAL/MOL
REMARK 923 INTER-LIGAND FREE ENERGY PREDICTED BY IDOCK:   -4.25 KCAL/MOL
REMARK 924 INTRA-LIGAND FREE ENERGY PREDICTED BY IDOCK:   -0.42 KCAL/MOL
REMARK 927      BINDING AFFINITY PREDICTED BY RF-SCORE:    0.00 PKD
ROOT
HETATM    1  N   UNL     1      -9.727  12.961  63.671  1.00  0.00    -0.587 NA 
HETATM    2  C   UNL     1     -10.725  11.895  63.624  1.00  0.00    -0.442 C  
HETATM    3  H1  UNL     1      -8.789  12.564  63.617  1.00  0.00     0.000 HD 
HETATM    4  H2  UNL     1      -9.843  13.558  64.490  1.00  0.00     0.000 HD 
ENDROOT
BRANCH   2   5
HETATM    5  C   UNL     1     -12.130  12.490  63.706  1.00  0.00    -0.529 C  
HETATM    6  O   UNL     1     -13.126  11.931  63.232  1.00  0.00    -0.674 OA 
BRANCH   5   7
HETATM    7  C   UNL     1     -12.276  13.900  64.216  1.00  0.00    -0.447 C  
BRANCH   7   8
HETATM    8  C   UNL     1     -12.703  13.889  65.672  1.00  0.00    -0.534 C  
HETATM    9  C   UNL     1     -11.666  14.218  66.728  1.00  0.00    -0.405 C  
HETATM   10  O   UNL     1     -11.999  14.414  67.891  1.00  0.00    -0.353 OA 
HETATM   11  O   UNL     1     -10.374  14.256  66.367  1.00  0.00    -0.275 OA 
ENDBRANCH   7   8
ENDBRANCH   5   7
ENDBRANCH   2   5
TORSDOF 3
ENDMDL
MODEL       12
REMARK 921   NORMALIZED FREE ENERGY PREDICTED BY IDOCK:   -3.68 KCAL/MOL
REMARK 922        TOTAL FREE ENERGY PREDICTED BY IDOCK:   -4.65 KCAL/MOL
REMARK 923 INTER-LIGAND FREE ENERGY PREDICTED BY IDOCK:   -4.26 KCAL/MOL
REMARK 924 INTRA-LIGAND FREE ENERGY PREDICTED BY IDOCK:   -0.39 KCAL/MOL
REMARK 927      BINDING AFFINITY PREDICTED BY RF-SCORE:    0.00 PKD
ROOT
HETATM    1  N   UNL     1     -14.374   8.800  73.151  1.00  0.00    -1.126 NA 
HETATM    2  C   UNL     1     -14.247   7.968  71.956  1.00  0.00    -0.370 C  
HETATM    3  H1  UNL     1     -15.340   8.793  73.479  1.00  0.00     0.000 HD 
HETATM    4  H2  UNL     1     -14.030   9.747  72.996  1.00  0.00     0.000 HD 
ENDROOT
BRANCH   2   5
HETATM    5  C   UNL     1     -12.799   7.979  71.465  1.00  0.00    -0.311 C  
HETATM    6  O   UNL     1     -12.293   7.038  70.844  1.00  0.00    -0.369 OA 
BRANCH   5   7
HETATM    7  C   UNL     1     -11.904   9.101  71.919  1.00  0.00    -0.439 C  
BRANCH   7   8
HETATM    8  C   UNL     1     -11.808  10.165  70.841  1.00  0.00    -0.468 C  
HETATM    9  C   UNL     1     -12.481  11.501  71.088  1.00  0.00    -0.337 C  
HETATM   10  O   UNL     1     -12.272  12.453  70.344  1.00  0.00    -0.346 OA 
HETATM   11  O   UNL     1     -13.337  11.607  72.116  1.00  0.00    -0.491 OA 
ENDBRANCH   7   8
ENDBRANCH   5   7
ENDBRANCH   2   5
TORSDOF 3
ENDMDL
MODEL       13
REMARK 921   NORMALIZED FREE ENERGY PREDICTED BY IDOCK:   -3.65 KCAL/MOL
REMARK 922        TOTAL FREE ENERGY PREDICTED BY IDOCK:   -4.62 KCAL/MOL
REMARK 923 INTER-LIGAND FREE ENERGY PREDICTED BY IDOCK:   -4.23 KCAL/MOL
REMARK 924 INTRA-LIGAND FREE ENERGY PREDICTED BY IDOCK:   -0.38 KCAL/MOL
REMARK 927      BINDING AFFINITY PREDICTED BY RF-SCORE:    0.00 PKD
ROOT
HETATM    1  N   UNL     1     -12.529  14.102  63.295  1.00  0.00    -1.098 NA 
HETATM    2  C   UNL     1     -12.125  12.699  63.247  1.00  0.00    -0.433 C  
HETATM    3  H1  UNL     1     -13.491  14.199  62.967  1.00  0.00     0.000 HD 
HETATM    4  H2  UNL     1     -11.887  14.703  62.778  1.00  0.00     0.000 HD 
ENDROOT
BRANCH   2   5
HETATM    5  C   UNL     1     -10.684  12.554  63.738  1.00  0.00    -0.445 C  
HETATM    6  O   UNL     1      -9.938  11.638  63.374  1.00  0.00    -0.359 OA 
BRANCH   5   7
HETATM    7  C   UNL     1     -10.219  13.456  64.851  1.00  0.00    -0.339 C  
BRANCH   7   8
HETATM    8  C   UNL     1     -10.435  12.785  66.195  1.00  0.00    -0.284 C  
HETATM    9  C   UNL     1     -11.756  13.004  66.904  1.00  0.00    -0.383 C  
HETATM   10  O   UNL     1     -12.056  12.337  67.887  1.00  0.00    -0.466 OA 
HETATM   11  O   UNL     1     -12.573  13.969  66.452  1.00  0.00    -0.428 OA 
ENDBRANCH   7   8
ENDBRANCH   5   7
ENDBRANCH   2   5
TORSDOF 3
ENDMDL
MODEL       14
REMARK 921   NORMALIZED FREE ENERGY PREDICTED BY IDOCK:   -3.64 KCAL/MOL
REMARK 922        TOTAL FREE ENERGY PREDICTED BY IDOCK:   -4.61 KCAL/MOL
REMARK 923 INTER-LIGAND FREE ENERGY PREDICTED BY IDOCK:   -4.21 KCAL/MOL
REMARK 924 INTRA-LIGAND FREE ENERGY PREDICTED BY IDOCK:   -0.40 KCAL/MOL
REMARK 927      BINDING AFFINITY PREDICTED BY RF-SCORE:    0.00 PKD
ROOT
HETATM    1  N   UNL     1     -12.419  13.777  63.215  1.00  0.00    -1.092 NA 
HETATM    2  C   UNL     1     -12.515  12.481  63.883  1.00  0.00    -0.445 C  
HETATM    3  H1  UNL     1     -12.992  13.777  62.371  1.00  0.00     0.000 HD 
HETATM    4  H2  UNL     1     -11.452  14.036  63.021  1.00  0.00     0.000 HD 
ENDROOT
BRANCH   2   5
HETATM    5  C   UNL     1     -11.656  12.480  65.147  1.00  0.00    -0.353 C  
HETATM    6  O   UNL     1     -12.100  12.183  66.262  1.00  0.00    -0.626 OA 
BRANCH   5   7
HETATM    7  C   UNL     1     -10.262  13.043  65.059  1.00  0.00    -0.287 C  
BRANCH   7   8
HETATM    8  C   UNL     1      -9.996  13.969  66.231  1.00  0.00    -0.317 C  
HETATM    9  C   UNL     1     -10.454  15.410  66.128  1.00  0.00    -0.316 C  
HETATM   10  O   UNL     1     -10.439  16.142  67.111  1.00  0.00    -0.298 OA 
HETATM   11  O   UNL     1     -10.841  15.875  64.930  1.00  0.00    -0.474 OA 
ENDBRANCH   7   8
ENDBRANCH   5   7
ENDBRANCH   2   5
TORSDOF 3
ENDMDL
MODEL       15
REMARK 921   NORMALIZED FREE ENERGY PREDICTED BY IDOCK:   -3.63 KCAL/MOL
REMARK 922        TOTAL FREE ENERGY PREDICTED BY IDOCK:   -4.60 KCAL/MOL
REMARK 923 INTER-LIGAND FREE ENERGY PREDICTED BY IDOCK:   -4.36 KCAL/MOL
REMARK 924 INTRA-LIGAND FREE ENERGY PREDICTED BY IDOCK:   -0.24 KCAL/MOL
REMARK 927      BINDING AFFINITY PREDICTED BY RF-SCORE:    0.00 PKD
ROOT
HETATM    1  N   UNL     1     -12.527  15.102  63.866  1.00  0.00    -1.018 NA 
HETATM    2  C   UNL     1     -11.402  15.058  64.798  1.00  0.00    -0.406 C  
HETATM    3  H1  UNL     1     -12.252  15.584  63.010  1.00  0.00     0.000 HD 
HETATM    4  H2  UNL     1     -13.358  15.516  64.288  1.00  0.00     0.000 HD 
ENDROOT
BRANCH   2   5
HETATM    5  C   UNL     1     -11.815  14.336  66.081  1.00  0.00    -0.402 C  
HETATM    6  O   UNL     1     -11.691  14.837  67.204  1.00  0.00    -0.376 OA 
BRANCH   5   7
HETATM    7  C   UNL     1     -12.213  12.887  65.983  1.00  0.00    -0.431 C  
BRANCH   7   8
HETATM    8  C   UNL     1     -11.142  12.097  65.255  1.00  0.00    -0.367 C  
HETATM    9  C   UNL     1     -11.360  11.770  63.790  1.00  0.00    -0.438 C  
HETATM   10  O   UNL     1     -10.450  11.309  63.111  1.00  0.00    -0.333 OA 
HETATM   11  O   UNL     1     -12.580  11.963  63.266  1.00  0.00    -0.586 OA 
ENDBRANCH   7   8
ENDBRANCH   5   7
ENDBRANCH   2   5
TORSDOF 3
ENDMDL
MODEL       16
REMARK 921   NORMALIZED FREE ENERGY PREDICTED BY IDOCK:   -3.60 KCAL/MOL
REMARK 922        TOTAL FREE ENERGY PREDICTED BY IDOCK:   -4.56 KCAL/MOL
REMARK 923 INTER-LIGAND FREE ENERGY PREDICTED BY IDOCK:   -4.16 KCAL/MOL
REMARK 924 INTRA-LIGAND FREE ENERGY PREDICTED BY IDOCK:   -0.40 KCAL/MOL
REMARK 927      BINDING AFFINITY PREDICTED BY RF-SCORE:    0.00 PKD
ROOT
HETATM    1  N   UNL     1     -12.014  11.671  67.130  1.00  0.00    -0.574 NA 
HETATM    2  C   UNL     1     -11.771  13.046  66.698  1.00  0.00    -0.381 C  
HETATM    3  H1  UNL     1     -11.501  11.481  67.991  1.00  0.00     0.000 HD 
HETATM    4  H2  UNL     1     -11.795  10.996  66.398  1.00  0.00     0.000 HD 
ENDROOT
BRANCH   2   5
HETATM    5  C   UNL     1     -12.538  13.331  65.407  1.00  0.00    -0.468 C  
HETATM    6  O   UNL     1     -13.270  14.317  65.263  1.00  0.00    -0.704 OA 
BRANCH   5   7
HETATM    7  C   UNL     1     -12.549  12.270  64.338  1.00  0.00    -0.447 C  
BRANCH   7   8
HETATM    8  C   UNL     1     -11.289  12.359  63.498  1.00  0.00    -0.553 C  
HETATM    9  C   UNL     1     -10.225  11.295  63.681  1.00  0.00    -0.392 C  
HETATM   10  O   UNL     1      -9.286  11.209  62.898  1.00  0.00    -0.302 OA 
HETATM   11  O   UNL     1     -10.316  10.473  64.738  1.00  0.00    -0.339 OA 
ENDBRANCH   7   8
ENDBRANCH   5   7
ENDBRANCH   2   5
TORSDOF 3
ENDMDL
MODEL       17
REMARK 921   NORMALIZED FREE ENERGY PREDICTED BY IDOCK:   -3.59 KCAL/MOL
REMARK 922        TOTAL FREE ENERGY PREDICTED BY IDOCK:   -4.55 KCAL/MOL
REMARK 923 INTER-LIGAND FREE ENERGY PREDICTED BY IDOCK:   -4.16 KCAL/MOL
REMARK 924 INTRA-LIGAND FREE ENERGY PREDICTED BY IDOCK:   -0.39 KCAL/MOL
REMARK 927      BINDING AFFINITY PREDICTED BY RF-SCORE:    0.00 PKD
ROOT
HETATM    1  N   UNL     1      -9.174  13.368  66.360  1.00  0.00    -0.445 NA 
HETATM    2  C   UNL     1      -9.756  12.983  67.644  1.00  0.00    -0.212 C  
HETATM    3  H1  UNL     1      -8.161  13.450  66.446  1.00  0.00     0.000 HD 
HETATM    4  H2  UNL     1      -9.596  14.220  65.989  1.00  0.00     0.000 HD 
ENDROOT
BRANCH   2   5
HETATM    5  C   UNL     1     -11.274  12.862  67.514  1.00  0.00    -0.290 C  
HETATM    6  O   UNL     1     -11.869  11.779  67.559  1.00  0.00    -0.577 OA 
BRANCH   5   7
HETATM    7  C   UNL     1     -12.054  14.091  67.129  1.00  0.00    -0.436 C  
BRANCH   7   8
HETATM    8  C   UNL     1     -12.776  13.863  65.814  1.00  0.00    -0.503 C  
HETATM    9  C   UNL     1     -12.129  14.371  64.541  1.00  0.00    -0.481 C  
HETATM   10  O   UNL     1     -12.569  14.045  63.444  1.00  0.00    -0.845 OA 
HETATM   11  O   UNL     1     -11.088  15.212  64.642  1.00  0.00    -0.375 OA 
ENDBRANCH   7   8
ENDBRANCH   5   7
ENDBRANCH   2   5
TORSDOF 3
ENDMDL
MODEL       18
REMARK 921   NORMALIZED FREE ENERGY PREDICTED BY IDOCK:   -3.58 KCAL/MOL
REMARK 922        TOTAL FREE ENERGY PREDICTED BY IDOCK:   -4.54 KCAL/MOL
REMARK 923 INTER-LIGAND FREE ENERGY PREDICTED BY IDOCK:   -4.46 KCAL/MOL
REMARK 924 INTRA-LIGAND FREE ENERGY PREDICTED BY IDOCK:   -0.08 KCAL/MOL
REMARK 927      BINDING AFFINITY PREDICTED BY RF-SCORE:    0.00 PKD
ROOT
HETATM    1  N   UNL     1     -12.228  10.694  68.909  1.00  0.00    -0.793 NA 
HETATM    2  C   UNL     1     -11.262  10.671  67.813  1.00  0.00    -0.313 C  
HETATM    3  H1  UNL     1     -12.151   9.838  69.460  1.00  0.00     0.000 HD 
HETATM    4  H2  UNL     1     -13.180  10.850  68.577  1.00  0.00     0.000 HD 
ENDROOT
BRANCH   2   5
HETATM    5  C   UNL     1     -11.378  11.952  66.988  1.00  0.00    -0.329 C  
HETATM    6  O   UNL     1     -12.032  12.934  67.358  1.00  0.00    -0.363 OA 
BRANCH   5   7
HETATM    7  C   UNL     1     -10.827  11.947  65.587  1.00  0.00    -0.333 C  
BRANCH   7   8
HETATM    8  C   UNL     1     -11.084  13.284  64.917  1.00  0.00    -0.345 C  
HETATM    9  C   UNL     1     -12.282  13.408  63.996  1.00  0.00    -0.405 C  
HETATM   10  O   UNL     1     -12.645  14.505  63.588  1.00  0.00    -0.798 OA 
HETATM   11  O   UNL     1     -12.913  12.288  63.611  1.00  0.00    -0.777 OA 
ENDBRANCH   7   8
ENDBRANCH   5   7
ENDBRANCH   2   5
TORSDOF 3
ENDMDL
MODEL       19
REMARK 921   NORMALIZED FREE ENERGY PREDICTED BY IDOCK:   -3.57 KCAL/MOL
REMARK 922        TOTAL FREE ENERGY PREDICTED BY IDOCK:   -4.52 KCAL/MOL
REMARK 923 INTER-LIGAND FREE ENERGY PREDICTED BY IDOCK:   -4.45 KCAL/MOL
REMARK 924 INTRA-LIGAND FREE ENERGY PREDICTED BY IDOCK:   -0.07 KCAL/MOL
REMARK 927      BINDING AFFINITY PREDICTED BY RF-SCORE:    0.00 PKD
ROOT
HETATM    1  N   UNL     1      -8.829  15.121  66.405  1.00  0.00    -0.421 NA 
HETATM    2  C   UNL     1      -9.562  16.281  65.906  1.00  0.00    -0.301 C  
HETATM    3  H1  UNL     1      -8.014  15.427  66.939  1.00  0.00     0.000 HD 
HETATM    4  H2  UNL     1      -8.575  14.476  65.656  1.00  0.00     0.000 HD 
ENDROOT
BRANCH   2   5
HETATM    5  C   UNL     1     -10.782  15.823  65.106  1.00  0.00    -0.435 C  
HETATM    6  O   UNL     1     -11.347  16.539  64.271  1.00  0.00    -1.020 OA 
BRANCH   5   7
HETATM    7  C   UNL     1     -11.432  14.519  65.488  1.00  0.00    -0.343 C  
BRANCH   7   8
HETATM    8  C   UNL     1     -12.286  14.004  64.344  1.00  0.00    -0.457 C  
HETATM    9  C   UNL     1     -12.300  12.512  64.073  1.00  0.00    -0.469 C  
HETATM   10  O   UNL     1     -13.114  12.026  63.296  1.00  0.00    -0.701 OA 
HETATM   11  O   UNL     1     -11.380  11.743  64.675  1.00  0.00    -0.307 OA 
ENDBRANCH   7   8
ENDBRANCH   5   7
ENDBRANCH   2   5
TORSDOF 3
ENDMDL
MODEL       20
REMARK 921   NORMALIZED FREE ENERGY PREDICTED BY IDOCK:   -3.56 KCAL/MOL
REMARK 922        TOTAL FREE ENERGY PREDICTED BY IDOCK:   -4.51 KCAL/MOL
REMARK 923 INTER-LIGAND FREE ENERGY PREDICTED BY IDOCK:   -4.45 KCAL/MOL
REMARK 924 INTRA-LIGAND FREE ENERGY PREDICTED BY IDOCK:   -0.06 KCAL/MOL
REMARK 927      BINDING AFFINITY PREDICTED BY RF-SCORE:    0.00 PKD
ROOT
HETATM    1  N   UNL     1     -13.999   8.853  72.960  1.00  0.00    -1.134 NA 
HETATM    2  C   UNL     1     -12.785   8.713  72.159  1.00  0.00    -0.392 C  
HETATM    3  H1  UNL     1     -14.239   7.958  73.388  1.00  0.00     0.000 HD 
HETATM    4  H2  UNL     1     -14.773   9.237  72.418  1.00  0.00     0.000 HD 
ENDROOT
BRANCH   2   5
HETATM    5  C   UNL     1     -12.426  10.054  71.518  1.00  0.00    -0.419 C  
HETATM    6  O   UNL     1     -11.393  10.230  70.861  1.00  0.00    -0.337 OA 
BRANCH   5   7
HETATM    7  C   UNL     1     -13.270  11.253  71.859  1.00  0.00    -0.491 C  
BRANCH   7   8
HETATM    8  C   UNL     1     -12.680  12.505  71.236  1.00  0.00    -0.350 C  
HETATM    9  C   UNL     1     -12.935  13.835  71.917  1.00  0.00    -0.350 C  
HETATM   10  O   UNL     1     -12.326  14.841  71.570  1.00  0.00    -0.311 OA 
HETATM   11  O   UNL     1     -13.868  13.894  72.880  1.00  0.00    -0.662 OA 
ENDBRANCH   7   8
ENDBRANCH   5   7
ENDBRANCH   2   5
TORSDOF 3
ENDMDL
MODEL       21
REMARK 921   NORMALIZED FREE ENERGY PREDICTED BY IDOCK:   -3.55 KCAL/MOL
REMARK 922        TOTAL FREE ENERGY PREDICTED BY IDOCK:   -4.50 KCAL/MOL
REMARK 923 INTER-LIGAND FREE ENERGY PREDICTED BY IDOCK:   -4.44 KCAL/MOL
REMARK 924 INTRA-LIGAND FREE ENERGY PREDICTED BY IDOCK:   -0.06 KCAL/MOL
REMARK 927      BINDING AFFINITY PREDICTED BY RF-SCORE:    0.00 PKD
ROOT
HETATM    1  N   UNL     1     -12.294  13.997  63.480  1.00  0.00    -1.118 NA 
HETATM    2  C   UNL     1     -11.316  14.347  64.507  1.00  0.00    -0.321 C  
HETATM    3  H1  UNL     1     -12.333  12.983  63.368  1.00  0.00     0.000 HD 
HETATM    4  H2  UNL     1     -12.108  14.472  62.597  1.00  0.00     0.000 HD 
ENDROOT
BRANCH   2   5
HETATM    5  C   UNL     1     -11.257  15.866  64.675  1.00  0.00    -0.351 C  
HETATM    6  O   UNL     1     -11.703  16.653  63.833  1.00  0.00    -1.153 OA 
BRANCH   5   7
HETATM    7  C   UNL     1     -10.456  16.423  65.822  1.00  0.00    -0.369 C  
BRANCH   7   8
HETATM    8  C   UNL     1      -9.155  15.657  65.975  1.00  0.00    -0.346 C  
HETATM    9  C   UNL     1      -7.894  16.437  66.289  1.00  0.00    -0.177 C  
HETATM   10  O   UNL     1      -6.864  15.857  66.612  1.00  0.00    -0.204 OA 
HETATM   11  O   UNL     1      -7.921  17.774  66.170  1.00  0.00    -0.402 OA 
ENDBRANCH   7   8
ENDBRANCH   5   7
ENDBRANCH   2   5
TORSDOF 3
ENDMDL
MODEL       22
REMARK 921   NORMALIZED FREE ENERGY PREDICTED BY IDOCK:   -3.55 KCAL/MOL
REMARK 922        TOTAL FREE ENERGY PREDICTED BY IDOCK:   -4.50 KCAL/MOL
REMARK 923 INTER-LIGAND FREE ENERGY PREDICTED BY IDOCK:   -4.43 KCAL/MOL
REMARK 924 INTRA-LIGAND FREE ENERGY PREDICTED BY IDOCK:   -0.07 KCAL/MOL
REMARK 927      BINDING AFFINITY PREDICTED BY RF-SCORE:    0.00 PKD
ROOT
HETATM    1  N   UNL     1     -11.790  10.817  68.030  1.00  0.00    -0.773 NA 
HETATM    2  C   UNL     1     -11.485  12.219  67.753  1.00  0.00    -0.329 C  
HETATM    3  H1  UNL     1     -11.751  10.644  69.035  1.00  0.00     0.000 HD 
HETATM    4  H2  UNL     1     -11.183  10.183  67.509  1.00  0.00     0.000 HD 
ENDROOT
BRANCH   2   5
HETATM    5  C   UNL     1     -11.542  12.478  66.247  1.00  0.00    -0.394 C  
HETATM    6  O   UNL     1     -12.303  11.867  65.488  1.00  0.00    -0.352 OA 
BRANCH   5   7
HETATM    7  C   UNL     1     -10.498  13.378  65.641  1.00  0.00    -0.293 C  
BRANCH   7   8
HETATM    8  C   UNL     1     -11.155  14.426  64.762  1.00  0.00    -0.402 C  
HETATM    9  C   UNL     1     -10.863  15.887  65.044  1.00  0.00    -0.426 C  
HETATM   10  O   UNL     1     -11.207  16.756  64.252  1.00  0.00    -1.163 OA 
HETATM   11  O   UNL     1     -10.252  16.208  66.195  1.00  0.00    -0.300 OA 
ENDBRANCH   7   8
ENDBRANCH   5   7
ENDBRANCH   2   5
TORSDOF 3
ENDMDL
MODEL       23
REMARK 921   NORMALIZED FREE ENERGY PREDICTED BY IDOCK:   -3.53 KCAL/MOL
REMARK 922        TOTAL FREE ENERGY PREDICTED BY IDOCK:   -4.47 KCAL/MOL
REMARK 923 INTER-LIGAND FREE ENERGY PREDICTED BY IDOCK:   -4.42 KCAL/MOL
REMARK 924 INTRA-LIGAND FREE ENERGY PREDICTED BY IDOCK:   -0.05 KCAL/MOL
REMARK 927      BINDING AFFINITY PREDICTED BY RF-SCORE:    0.00 PKD
ROOT
HETATM    1  N   UNL     1     -13.411  16.323  73.887  1.00  0.00    -0.906 NA 
HETATM    2  C   UNL     1     -12.687  15.146  73.411  1.00  0.00    -0.537 C  
HETATM    3  H1  UNL     1     -13.231  16.464  74.882  1.00  0.00     0.000 HD 
HETATM    4  H2  UNL     1     -14.409  16.267  73.683  1.00  0.00     0.000 HD 
ENDROOT
BRANCH   2   5
HETATM    5  C   UNL     1     -12.956  14.935  71.922  1.00  0.00    -0.333 C  
HETATM    6  O   UNL     1     -13.622  15.722  71.240  1.00  0.00    -0.561 OA 
BRANCH   5   7
HETATM    7  C   UNL     1     -12.553  13.621  71.306  1.00  0.00    -0.435 C  
BRANCH   7   8
HETATM    8  C   UNL     1     -13.325  12.482  71.947  1.00  0.00    -0.467 C  
HETATM    9  C   UNL     1     -12.946  11.061  71.580  1.00  0.00    -0.456 C  
HETATM   10  O   UNL     1     -13.401  10.111  72.208  1.00  0.00    -0.415 OA 
HETATM   11  O   UNL     1     -12.132  10.865  70.532  1.00  0.00    -0.309 OA 
ENDBRANCH   7   8
ENDBRANCH   5   7
ENDBRANCH   2   5
TORSDOF 3
ENDMDL
MODEL       24
REMARK 921   NORMALIZED FREE ENERGY PREDICTED BY IDOCK:   -3.51 KCAL/MOL
REMARK 922        TOTAL FREE ENERGY PREDICTED BY IDOCK:   -4.45 KCAL/MOL
REMARK 923 INTER-LIGAND FREE ENERGY PREDICTED BY IDOCK:   -4.05 KCAL/MOL
REMARK 924 INTRA-LIGAND FREE ENERGY PREDICTED BY IDOCK:   -0.40 KCAL/MOL
REMARK 927      BINDING AFFINITY PREDICTED BY RF-SCORE:    0.00 PKD
ROOT
HETATM    1  N   UNL     1     -10.747  19.360  66.078  1.00  0.00    -0.448 NA 
HETATM    2  C   UNL     1     -10.647  18.770  67.411  1.00  0.00    -0.443 C  
HETATM    3  H1  UNL     1     -11.535  20.007  66.042  1.00  0.00     0.000 HD 
HETATM    4  H2  UNL     1     -10.802  18.649  65.348  1.00  0.00     0.000 HD 
ENDROOT
BRANCH   2   5
HETATM    5  C   UNL     1      -9.467  17.799  67.465  1.00  0.00    -0.257 C  
HETATM    6  O   UNL     1      -8.690  17.737  68.424  1.00  0.00    -0.279 OA 
BRANCH   5   7
HETATM    7  C   UNL     1      -9.129  17.022  66.220  1.00  0.00    -0.279 C  
BRANCH   7   8
HETATM    8  C   UNL     1     -10.077  15.847  66.062  1.00  0.00    -0.359 C  
HETATM    9  C   UNL     1     -11.047  15.858  64.896  1.00  0.00    -0.389 C  
HETATM   10  O   UNL     1     -11.691  14.855  64.611  1.00  0.00    -0.409 OA 
HETATM   11  O   UNL     1     -11.208  16.998  64.207  1.00  0.00    -1.186 OA 
ENDBRANCH   7   8
ENDBRANCH   5   7
ENDBRANCH   2   5
TORSDOF 3
ENDMDL
MODEL       25
REMARK 921   NORMALIZED FREE ENERGY PREDICTED BY IDOCK:   -3.50 KCAL/MOL
REMARK 922        TOTAL FREE ENERGY PREDICTED BY IDOCK:   -4.44 KCAL/MOL
REMARK 923 INTER-LIGAND FREE ENERGY PREDICTED BY IDOCK:   -4.36 KCAL/MOL
REMARK 924 INTRA-LIGAND FREE ENERGY PREDICTED BY IDOCK:   -0.09 KCAL/MOL
REMARK 927      BINDING AFFINITY PREDICTED BY RF-SCORE:    0.00 PKD
ROOT
HETATM    1  N   UNL     1     -10.912  14.066  68.684  1.00  0.00    -0.254 NA 
HETATM    2  C   UNL     1     -11.837  14.302  67.578  1.00  0.00    -0.395 C  
HETATM    3  H1  UNL     1     -10.900  14.874  69.307  1.00  0.00     0.000 HD 
HETATM    4  H2  UNL     1      -9.977  13.823  68.356  1.00  0.00     0.000 HD 
ENDROOT
BRANCH   2   5
HETATM    5  C   UNL     1     -11.854  13.091  66.645  1.00  0.00    -0.393 C  
HETATM    6  O   UNL     1     -11.908  11.926  67.055  1.00  0.00    -0.585 OA 
BRANCH   5   7
HETATM    7  C   UNL     1     -11.605  13.322  65.177  1.00  0.00    -0.334 C  
BRANCH   7   8
HETATM    8  C   UNL     1     -10.852  14.623  64.971  1.00  0.00    -0.431 C  
HETATM    9  C   UNL     1     -11.591  15.792  64.351  1.00  0.00    -0.240 C  
HETATM   10  O   UNL     1     -11.094  16.912  64.342  1.00  0.00    -1.128 OA 
HETATM   11  O   UNL     1     -12.785  15.565  63.781  1.00  0.00    -0.596 OA 
ENDBRANCH   7   8
ENDBRANCH   5   7
ENDBRANCH   2   5
TORSDOF 3
ENDMDL
MODEL       26
REMARK 921   NORMALIZED FREE ENERGY PREDICTED BY IDOCK:   -3.50 KCAL/MOL
REMARK 922        TOTAL FREE ENERGY PREDICTED BY IDOCK:   -4.44 KCAL/MOL
REMARK 923 INTER-LIGAND FREE ENERGY PREDICTED BY IDOCK:   -4.35 KCAL/MOL
REMARK 924 INTRA-LIGAND FREE ENERGY PREDICTED BY IDOCK:   -0.09 KCAL/MOL
REMARK 927      BINDING AFFINITY PREDICTED BY RF-SCORE:    0.00 PKD
ROOT
HETATM    1  N   UNL     1     -11.531  16.529  63.889  1.00  0.00    -1.599 NA 
HETATM    2  C   UNL     1     -10.862  16.127  65.124  1.00  0.00    -0.361 C  
HETATM    3  H1  UNL     1     -11.791  15.703  63.349  1.00  0.00     0.000 HD 
HETATM    4  H2  UNL     1     -10.966  17.180  63.342  1.00  0.00     0.000 HD 
ENDROOT
BRANCH   2   5
HETATM    5  C   UNL     1     -10.470  17.364  65.932  1.00  0.00    -0.252 C  
HETATM    6  O   UNL     1     -10.654  18.518  65.528  1.00  0.00    -0.621 OA 
BRANCH   5   7
HETATM    7  C   UNL     1      -9.658  17.167  67.185  1.00  0.00    -0.255 C  
BRANCH   7   8
HETATM    8  C   UNL     1     -10.507  17.450  68.411  1.00  0.00    -0.384 C  
HETATM    9  C   UNL     1     -10.758  16.319  69.388  1.00  0.00    -0.318 C  
HETATM   10  O   UNL     1     -11.267  16.540  70.482  1.00  0.00    -0.330 OA 
HETATM   11  O   UNL     1     -10.444  15.069  69.016  1.00  0.00    -0.229 OA 
ENDBRANCH   7   8
ENDBRANCH   5   7
ENDBRANCH   2   5
TORSDOF 3
ENDMDL
MODEL       27
REMARK 921   NORMALIZED FREE ENERGY PREDICTED BY IDOCK:   -3.49 KCAL/MOL
REMARK 922        TOTAL FREE ENERGY PREDICTED BY IDOCK:   -4.43 KCAL/MOL
REMARK 923 INTER-LIGAND FREE ENERGY PREDICTED BY IDOCK:   -4.04 KCAL/MOL
REMARK 924 INTRA-LIGAND FREE ENERGY PREDICTED BY IDOCK:   -0.38 KCAL/MOL
REMARK 927      BINDING AFFINITY PREDICTED BY RF-SCORE:    0.00 PKD
ROOT
HETATM    1  N   UNL     1     -10.458  11.043  63.098  1.00  0.00    -0.755 NA 
HETATM    2  C   UNL     1      -9.646  10.422  64.142  1.00  0.00    -0.322 C  
HETATM    3  H1  UNL     1     -10.345  10.535  62.221  1.00  0.00     0.000 HD 
HETATM    4  H2  UNL     1     -10.253  12.036  62.994  1.00  0.00     0.000 HD 
ENDROOT
BRANCH   2   5
HETATM    5  C   UNL     1      -9.815  11.183  65.457  1.00  0.00    -0.235 C  
HETATM    6  O   UNL     1      -8.861  11.632  66.102  1.00  0.00    -0.196 OA 
BRANCH   5   7
HETATM    7  C   UNL     1     -11.184  11.222  66.084  1.00  0.00    -0.133 C  
BRANCH   7   8
HETATM    8  C   UNL     1     -11.685  12.653  66.160  1.00  0.00    -0.461 C  
HETATM    9  C   UNL     1     -12.654  13.133  65.098  1.00  0.00    -0.465 C  
HETATM   10  O   UNL     1     -13.236  14.204  65.221  1.00  0.00    -0.760 OA 
HETATM   11  O   UNL     1     -12.833  12.375  64.004  1.00  0.00    -0.717 OA 
ENDBRANCH   7   8
ENDBRANCH   5   7
ENDBRANCH   2   5
TORSDOF 3
ENDMDL
MODEL       28
REMARK 921   NORMALIZED FREE ENERGY PREDICTED BY IDOCK:   -3.48 KCAL/MOL
REMARK 922        TOTAL FREE ENERGY PREDICTED BY IDOCK:   -4.42 KCAL/MOL
REMARK 923 INTER-LIGAND FREE ENERGY PREDICTED BY IDOCK:   -4.35 KCAL/MOL
REMARK 924 INTRA-LIGAND FREE ENERGY PREDICTED BY IDOCK:   -0.07 KCAL/MOL
REMARK 927      BINDING AFFINITY PREDICTED BY RF-SCORE:    0.00 PKD
ROOT
HETATM    1  N   UNL     1     -12.799  16.466  74.536  1.00  0.00    -0.951 NA 
HETATM    2  C   UNL     1     -12.493  15.223  73.832  1.00  0.00    -0.616 C  
HETATM    3  H1  UNL     1     -12.340  16.472  75.447  1.00  0.00     0.000 HD 
HETATM    4  H2  UNL     1     -13.804  16.624  74.614  1.00  0.00     0.000 HD 
ENDROOT
BRANCH   2   5
HETATM    5  C   UNL     1     -13.181  15.213  72.467  1.00  0.00    -0.409 C  
HETATM    6  O   UNL     1     -14.402  15.353  72.328  1.00  0.00    -0.550 OA 
BRANCH   5   7
HETATM    7  C   UNL     1     -12.364  14.830  71.262  1.00  0.00    -0.390 C  
BRANCH   7   8
HETATM    8  C   UNL     1     -11.454  15.976  70.859  1.00  0.00    -0.451 C  
HETATM    9  C   UNL     1     -11.207  16.213  69.382  1.00  0.00    -0.335 C  
HETATM   10  O   UNL     1     -10.646  17.233  68.998  1.00  0.00    -0.323 OA 
HETATM   11  O   UNL     1     -11.585  15.266  68.509  1.00  0.00    -0.328 OA 
ENDBRANCH   7   8
ENDBRANCH   5   7
ENDBRANCH   2   5
TORSDOF 3
ENDMDL
MODEL       29
REMARK 921   NORMALIZED FREE ENERGY PREDICTED BY IDOCK:   -3.48 KCAL/MOL
REMARK 922        TOTAL FREE ENERGY PREDICTED BY IDOCK:   -4.42 KCAL/MOL
REMARK 923 INTER-LIGAND FREE ENERGY PREDICTED BY IDOCK:   -4.34 KCAL/MOL
REMARK 924 INTRA-LIGAND FREE ENERGY PREDICTED BY IDOCK:   -0.08 KCAL/MOL
REMARK 927      BINDING AFFINITY PREDICTED BY RF-SCORE:    0.00 PKD
ROOT
HETATM    1  N   UNL     1     -11.734  13.392  70.260  1.00  0.00    -0.531 NA 
HETATM    2  C   UNL     1     -11.823  13.935  68.907  1.00  0.00    -0.358 C  
HETATM    3  H1  UNL     1     -11.766  14.149  70.943  1.00  0.00     0.000 HD 
HETATM    4  H2  UNL     1     -10.910  12.802  70.383  1.00  0.00     0.000 HD 
ENDROOT
BRANCH   2   5
HETATM    5  C   UNL     1     -11.774  12.800  67.884  1.00  0.00    -0.357 C  
HETATM    6  O   UNL     1     -12.086  11.635  68.157  1.00  0.00    -0.577 OA 
BRANCH   5   7
HETATM    7  C   UNL     1     -11.142  13.076  66.546  1.00  0.00    -0.315 C  
BRANCH   7   8
HETATM    8  C   UNL     1     -11.747  12.177  65.484  1.00  0.00    -0.384 C  
HETATM    9  C   UNL     1     -12.459  12.825  64.313  1.00  0.00    -0.382 C  
HETATM   10  O   UNL     1     -12.791  12.160  63.338  1.00  0.00    -0.765 OA 
HETATM   11  O   UNL     1     -12.748  14.134  64.384  1.00  0.00    -0.667 OA 
ENDBRANCH   7   8
ENDBRANCH   5   7
ENDBRANCH   2   5
TORSDOF 3
ENDMDL
MODEL       30
REMARK 921   NORMALIZED FREE ENERGY PREDICTED BY IDOCK:   -3.46 KCAL/MOL
REMARK 922        TOTAL FREE ENERGY PREDICTED BY IDOCK:   -4.39 KCAL/MOL
REMARK 923 INTER-LIGAND FREE ENERGY PREDICTED BY IDOCK:   -3.96 KCAL/MOL
REMARK 924 INTRA-LIGAND FREE ENERGY PREDICTED BY IDOCK:   -0.43 KCAL/MOL
REMARK 927      BINDING AFFINITY PREDICTED BY RF-SCORE:    0.00 PKD
ROOT
HETATM    1  N   UNL     1      -9.132  11.847  65.667  1.00  0.00    -0.422 NA 
HETATM    2  C   UNL     1      -9.862  11.241  66.778  1.00  0.00    -0.199 C  
HETATM    3  H1  UNL     1      -8.231  11.384  65.547  1.00  0.00     0.000 HD 
HETATM    4  H2  UNL     1      -9.032  12.856  65.780  1.00  0.00     0.000 HD 
ENDROOT
BRANCH   2   5
HETATM    5  C   UNL     1     -11.212  11.935  66.957  1.00  0.00    -0.323 C  
HETATM    6  O   UNL     1     -12.130  11.457  67.634  1.00  0.00    -0.630 OA 
BRANCH   5   7
HETATM    7  C   UNL     1     -11.498  13.156  66.124  1.00  0.00    -0.366 C  
BRANCH   7   8
HETATM    8  C   UNL     1     -12.627  12.874  65.150  1.00  0.00    -0.536 C  
HETATM    9  C   UNL     1     -12.277  12.308  63.788  1.00  0.00    -0.546 C  
HETATM   10  O   UNL     1     -13.154  11.883  63.044  1.00  0.00    -0.500 OA 
HETATM   11  O   UNL     1     -10.992  12.316  63.402  1.00  0.00    -0.441 OA 
ENDBRANCH   7   8
ENDBRANCH   5   7
ENDBRANCH   2   5
TORSDOF 3
ENDMDL
MODEL       31
REMARK 921   NORMALIZED FREE ENERGY PREDICTED BY IDOCK:   -3.45 KCAL/MOL
REMARK 922        TOTAL FREE ENERGY PREDICTED BY IDOCK:   -4.38 KCAL/MOL
REMARK 923 INTER-LIGAND FREE ENERGY PREDICTED BY IDOCK:   -4.26 KCAL/MOL
REMARK 924 INTRA-LIGAND FREE ENERGY PREDICTED BY IDOCK:   -0.13 KCAL/MOL
REMARK 927      BINDING AFFINITY PREDICTED BY RF-SCORE:    0.00 PKD
ROOT
HETATM    1  N   UNL     1     -12.581  14.790  69.321  1.00  0.00    -0.562 NA 
HETATM    2  C   UNL     1     -11.591  15.682  68.723  1.00  0.00    -0.384 C  
HETATM    3  H1  UNL     1     -12.809  15.105  70.264  1.00  0.00     0.000 HD 
HETATM    4  H2  UNL     1     -12.278  13.816  69.306  1.00  0.00     0.000 HD 
ENDROOT
BRANCH   2   5
HETATM    5  C   UNL     1     -11.249  15.209  67.310  1.00  0.00    -0.324 C  
HETATM    6  O   UNL     1     -10.687  15.930  66.477  1.00  0.00    -0.309 OA 
BRANCH   5   7
HETATM    7  C   UNL     1     -11.786  13.878  66.857  1.00  0.00    -0.453 C  
BRANCH   7   8
HETATM    8  C   UNL     1     -12.589  14.043  65.579  1.00  0.00    -0.543 C  
HETATM    9  C   UNL     1     -11.933  13.666  64.265  1.00  0.00    -0.445 C  
HETATM   10  O   UNL     1     -12.595  13.595  63.236  1.00  0.00    -0.816 OA 
HETATM   11  O   UNL     1     -10.609  13.447  64.249  1.00  0.00    -0.420 OA 
ENDBRANCH   7   8
ENDBRANCH   5   7
ENDBRANCH   2   5
TORSDOF 3
ENDMDL
MODEL       32
REMARK 921   NORMALIZED FREE ENERGY PREDICTED BY IDOCK:   -3.43 KCAL/MOL
REMARK 922        TOTAL FREE ENERGY PREDICTED BY IDOCK:   -4.36 KCAL/MOL
REMARK 923 INTER-LIGAND FREE ENERGY PREDICTED BY IDOCK:   -4.20 KCAL/MOL
REMARK 924 INTRA-LIGAND FREE ENERGY PREDICTED BY IDOCK:   -0.16 KCAL/MOL
REMARK 927      BINDING AFFINITY PREDICTED BY RF-SCORE:    0.00 PKD
ROOT
HETATM    1  N   UNL     1     -12.343  13.807  63.204  1.00  0.00    -1.106 NA 
HETATM    2  C   UNL     1     -12.388  12.372  63.476  1.00  0.00    -0.546 C  
HETATM    3  H1  UNL     1     -13.218  14.107  62.773  1.00  0.00     0.000 HD 
HETATM    4  H2  UNL     1     -11.532  14.064  62.642  1.00  0.00     0.000 HD 
ENDROOT
BRANCH   2   5
HETATM    5  C   UNL     1     -11.077  11.921  64.120  1.00  0.00    -0.375 C  
HETATM    6  O   UNL     1     -10.434  10.943  63.724  1.00  0.00    -0.353 OA 
BRANCH   5   7
HETATM    7  C   UNL     1     -10.653  12.584  65.405  1.00  0.00    -0.310 C  
BRANCH   7   8
HETATM    8  C   UNL     1     -11.706  12.373  66.477  1.00  0.00    -0.443 C  
HETATM    9  C   UNL     1     -11.469  11.292  67.514  1.00  0.00    -0.246 C  
HETATM   10  O   UNL     1     -12.185  11.211  68.506  1.00  0.00    -0.600 OA 
HETATM   11  O   UNL     1     -10.483  10.407  67.303  1.00  0.00    -0.221 OA 
ENDBRANCH   7   8
ENDBRANCH   5   7
ENDBRANCH   2   5
TORSDOF 3
ENDMDL
MODEL       33
REMARK 921   NORMALIZED FREE ENERGY PREDICTED BY IDOCK:   -3.42 KCAL/MOL
REMARK 922        TOTAL FREE ENERGY PREDICTED BY IDOCK:   -4.35 KCAL/MOL
REMARK 923 INTER-LIGAND FREE ENERGY PREDICTED BY IDOCK:   -4.23 KCAL/MOL
REMARK 924 INTRA-LIGAND FREE ENERGY PREDICTED BY IDOCK:   -0.12 KCAL/MOL
REMARK 927      BINDING AFFINITY PREDICTED BY RF-SCORE:    0.00 PKD
ROOT
HETATM    1  N   UNL     1     -12.378  14.038  63.214  1.00  0.00    -1.145 NA 
HETATM    2  C   UNL     1     -11.857  13.133  64.236  1.00  0.00    -0.406 C  
HETATM    3  H1  UNL     1     -11.938  13.838  62.315  1.00  0.00     0.000 HD 
HETATM    4  H2  UNL     1     -12.274  15.017  63.481  1.00  0.00     0.000 HD 
ENDROOT
BRANCH   2   5
HETATM    5  C   UNL     1     -12.515  13.432  65.583  1.00  0.00    -0.464 C  
HETATM    6  O   UNL     1     -13.605  14.007  65.686  1.00  0.00    -0.499 OA 
BRANCH   5   7
HETATM    7  C   UNL     1     -11.715  13.186  66.835  1.00  0.00    -0.441 C  
BRANCH   7   8
HETATM    8  C   UNL     1     -11.930  14.315  67.825  1.00  0.00    -0.384 C  
HETATM    9  C   UNL     1     -10.962  15.482  67.806  1.00  0.00    -0.317 C  
HETATM   10  O   UNL     1     -11.200  16.502  68.444  1.00  0.00    -0.359 OA 
HETATM   11  O   UNL     1      -9.825  15.360  67.105  1.00  0.00    -0.219 OA 
ENDBRANCH   7   8
ENDBRANCH   5   7
ENDBRANCH   2   5
TORSDOF 3
ENDMDL
MODEL       34
REMARK 921   NORMALIZED FREE ENERGY PREDICTED BY IDOCK:   -3.41 KCAL/MOL
REMARK 922        TOTAL FREE ENERGY PREDICTED BY IDOCK:   -4.34 KCAL/MOL
REMARK 923 INTER-LIGAND FREE ENERGY PREDICTED BY IDOCK:   -4.20 KCAL/MOL
REMARK 924 INTRA-LIGAND FREE ENERGY PREDICTED BY IDOCK:   -0.13 KCAL/MOL
REMARK 927      BINDING AFFINITY PREDICTED BY RF-SCORE:    0.00 PKD
ROOT
HETATM    1  N   UNL     1     -12.372  13.854  63.205  1.00  0.00    -1.148 NA 
HETATM    2  C   UNL     1     -12.292  14.440  64.542  1.00  0.00    -0.418 C  
HETATM    3  H1  UNL     1     -12.706  14.551  62.539  1.00  0.00     0.000 HD 
HETATM    4  H2  UNL     1     -12.942  13.008  63.192  1.00  0.00     0.000 HD 
ENDROOT
BRANCH   2   5
HETATM    5  C   UNL     1     -11.793  13.396  65.540  1.00  0.00    -0.363 C  
HETATM    6  O   UNL     1     -12.355  12.309  65.715  1.00  0.00    -0.622 OA 
BRANCH   5   7
HETATM    7  C   UNL     1     -10.682  13.786  66.480  1.00  0.00    -0.284 C  
BRANCH   7   8
HETATM    8  C   UNL     1     -11.067  15.029  67.260  1.00  0.00    -0.334 C  
HETATM    9  C   UNL     1     -11.662  14.854  68.643  1.00  0.00    -0.330 C  
HETATM   10  O   UNL     1     -11.808  15.817  69.387  1.00  0.00    -0.360 OA 
HETATM   11  O   UNL     1     -12.058  13.628  69.020  1.00  0.00    -0.344 OA 
ENDBRANCH   7   8
ENDBRANCH   5   7
ENDBRANCH   2   5
TORSDOF 3
ENDMDL
MODEL       35
REMARK 921   NORMALIZED FREE ENERGY PREDICTED BY IDOCK:   -3.40 KCAL/MOL
REMARK 922        TOTAL FREE ENERGY PREDICTED BY IDOCK:   -4.33 KCAL/MOL
REMARK 923 INTER-LIGAND FREE ENERGY PREDICTED BY IDOCK:   -4.25 KCAL/MOL
REMARK 924 INTRA-LIGAND FREE ENERGY PREDICTED BY IDOCK:   -0.07 KCAL/MOL
REMARK 927      BINDING AFFINITY PREDICTED BY RF-SCORE:    0.00 PKD
ROOT
HETATM    1  N   UNL     1     -14.389   8.804  72.976  1.00  0.00    -1.133 NA 
HETATM    2  C   UNL     1     -13.528   9.621  72.123  1.00  0.00    -0.429 C  
HETATM    3  H1  UNL     1     -15.297   9.255  73.088  1.00  0.00     0.000 HD 
HETATM    4  H2  UNL     1     -13.952   8.596  73.874  1.00  0.00     0.000 HD 
ENDROOT
BRANCH   2   5
HETATM    5  C   UNL     1     -12.167   8.945  71.955  1.00  0.00    -0.377 C  
HETATM    6  O   UNL     1     -11.773   8.034  72.693  1.00  0.00    -0.388 OA 
BRANCH   5   7
HETATM    7  C   UNL     1     -11.194   9.541  70.972  1.00  0.00    -0.432 C  
BRANCH   7   8
HETATM    8  C   UNL     1     -11.896  10.558  70.091  1.00  0.00    -0.404 C  
HETATM    9  C   UNL     1     -11.403  10.739  68.669  1.00  0.00    -0.291 C  
HETATM   10  O   UNL     1     -12.050  11.397  67.863  1.00  0.00    -0.646 OA 
HETATM   11  O   UNL     1     -10.227  10.193  68.324  1.00  0.00    -0.154 OA 
ENDBRANCH   7   8
ENDBRANCH   5   7
ENDBRANCH   2   5
TORSDOF 3
ENDMDL
MODEL       36
REMARK 921   NORMALIZED FREE ENERGY PREDICTED BY IDOCK:   -3.40 KCAL/MOL
REMARK 922        TOTAL FREE ENERGY PREDICTED BY IDOCK:   -4.33 KCAL/MOL
REMARK 923 INTER-LIGAND FREE ENERGY PREDICTED BY IDOCK:   -3.93 KCAL/MOL
REMARK 924 INTRA-LIGAND FREE ENERGY PREDICTED BY IDOCK:   -0.39 KCAL/MOL
REMARK 927      BINDING AFFINITY PREDICTED BY RF-SCORE:    0.00 PKD
ROOT
HETATM    1  N   UNL     1     -12.143  14.404  67.856  1.00  0.00    -0.582 NA 
HETATM    2  C   UNL     1     -10.702  14.316  68.087  1.00  0.00    -0.244 C  
HETATM    3  H1  UNL     1     -12.610  14.743  68.697  1.00  0.00     0.000 HD 
HETATM    4  H2  UNL     1     -12.533  13.519  67.532  1.00  0.00     0.000 HD 
ENDROOT
BRANCH   2   5
HETATM    5  C   UNL     1     -10.002  13.808  66.827  1.00  0.00    -0.270 C  
HETATM    6  O   UNL     1      -8.998  13.088  66.859  1.00  0.00    -0.220 OA 
BRANCH   5   7
HETATM    7  C   UNL     1     -10.442  14.362  65.498  1.00  0.00    -0.366 C  
BRANCH   7   8
HETATM    8  C   UNL     1     -10.873  13.236  64.576  1.00  0.00    -0.409 C  
HETATM    9  C   UNL     1     -12.355  13.033  64.333  1.00  0.00    -0.376 C  
HETATM   10  O   UNL     1     -12.746  12.272  63.455  1.00  0.00    -0.727 OA 
HETATM   11  O   UNL     1     -13.228  13.677  65.123  1.00  0.00    -0.739 OA 
ENDBRANCH   7   8
ENDBRANCH   5   7
ENDBRANCH   2   5
TORSDOF 3
ENDMDL
MODEL       37
REMARK 921   NORMALIZED FREE ENERGY PREDICTED BY IDOCK:   -3.40 KCAL/MOL
REMARK 922        TOTAL FREE ENERGY PREDICTED BY IDOCK:   -4.32 KCAL/MOL
REMARK 923 INTER-LIGAND FREE ENERGY PREDICTED BY IDOCK:   -4.27 KCAL/MOL
REMARK 924 INTRA-LIGAND FREE ENERGY PREDICTED BY IDOCK:   -0.05 KCAL/MOL
REMARK 927      BINDING AFFINITY PREDICTED BY RF-SCORE:    0.00 PKD
ROOT
HETATM    1  N   UNL     1     -12.373  11.550  63.069  1.00  0.00    -0.935 NA 
HETATM    2  C   UNL     1     -11.769  12.778  63.583  1.00  0.00    -0.519 C  
HETATM    3  H1  UNL     1     -11.970  11.317  62.162  1.00  0.00     0.000 HD 
HETATM    4  H2  UNL     1     -13.390  11.612  63.031  1.00  0.00     0.000 HD 
ENDROOT
BRANCH   2   5
HETATM    5  C   UNL     1     -12.374  13.128  64.942  1.00  0.00    -0.441 C  
HETATM    6  O   UNL     1     -13.268  13.971  65.084  1.00  0.00    -0.768 OA 
BRANCH   5   7
HETATM    7  C   UNL     1     -11.724  12.561  66.176  1.00  0.00    -0.466 C  
BRANCH   7   8
HETATM    8  C   UNL     1     -11.835  13.543  67.327  1.00  0.00    -0.427 C  
HETATM    9  C   UNL     1     -10.887  13.387  68.500  1.00  0.00    -0.265 C  
HETATM   10  O   UNL     1     -10.803  14.261  69.356  1.00  0.00    -0.235 OA 
HETATM   11  O   UNL     1     -10.170  12.257  68.598  1.00  0.00    -0.219 OA 
ENDBRANCH   7   8
ENDBRANCH   5   7
ENDBRANCH   2   5
TORSDOF 3
ENDMDL
MODEL       38
REMARK 921   NORMALIZED FREE ENERGY PREDICTED BY IDOCK:   -3.40 KCAL/MOL
REMARK 922        TOTAL FREE ENERGY PREDICTED BY IDOCK:   -4.32 KCAL/MOL
REMARK 923 INTER-LIGAND FREE ENERGY PREDICTED BY IDOCK:   -4.24 KCAL/MOL
REMARK 924 INTRA-LIGAND FREE ENERGY PREDICTED BY IDOCK:   -0.08 KCAL/MOL
REMARK 927      BINDING AFFINITY PREDICTED BY RF-SCORE:    0.00 PKD
ROOT
HETATM    1  N   UNL     1     -14.411  13.715  72.410  1.00  0.00    -0.658 NA 
HETATM    2  C   UNL     1     -14.237  15.110  72.012  1.00  0.00    -0.577 C  
HETATM    3  H1  UNL     1     -15.256  13.335  71.984  1.00  0.00     0.000 HD 
HETATM    4  H2  UNL     1     -14.410  13.603  73.424  1.00  0.00     0.000 HD 
ENDROOT
BRANCH   2   5
HETATM    5  C   UNL     1     -12.971  15.681  72.651  1.00  0.00    -0.460 C  
HETATM    6  O   UNL     1     -12.908  16.013  73.841  1.00  0.00    -0.548 OA 
BRANCH   5   7
HETATM    7  C   UNL     1     -11.814  16.026  71.751  1.00  0.00    -0.599 C  
BRANCH   7   8
HETATM    8  C   UNL     1     -12.087  15.543  70.338  1.00  0.00    -0.426 C  
HETATM    9  C   UNL     1     -11.277  16.142  69.205  1.00  0.00    -0.336 C  
HETATM   10  O   UNL     1     -11.319  15.653  68.082  1.00  0.00    -0.336 OA 
HETATM   11  O   UNL     1     -10.544  17.238  69.451  1.00  0.00    -0.300 OA 
ENDBRANCH   7   8
ENDBRANCH   5   7
ENDBRANCH   2   5
TORSDOF 3
ENDMDL
MODEL       39
REMARK 921   NORMALIZED FREE ENERGY PREDICTED BY IDOCK:   -3.40 KCAL/MOL
REMARK 922        TOTAL FREE ENERGY PREDICTED BY IDOCK:   -4.32 KCAL/MOL
REMARK 923 INTER-LIGAND FREE ENERGY PREDICTED BY IDOCK:   -4.27 KCAL/MOL
REMARK 924 INTRA-LIGAND FREE ENERGY PREDICTED BY IDOCK:   -0.05 KCAL/MOL
REMARK 927      BINDING AFFINITY PREDICTED BY RF-SCORE:    0.00 PKD
ROOT
HETATM    1  N   UNL     1     -12.423  11.599  63.082  1.00  0.00    -0.949 NA 
HETATM    2  C   UNL     1     -11.491  12.575  63.644  1.00  0.00    -0.493 C  
HETATM    3  H1  UNL     1     -12.041  11.210  62.220  1.00  0.00     0.000 HD 
HETATM    4  H2  UNL     1     -13.353  11.994  62.944  1.00  0.00     0.000 HD 
ENDROOT
BRANCH   2   5
HETATM    5  C   UNL     1     -12.063  13.159  64.935  1.00  0.00    -0.402 C  
HETATM    6  O   UNL     1     -13.277  13.256  65.150  1.00  0.00    -0.658 OA 
BRANCH   5   7
HETATM    7  C   UNL     1     -11.111  13.814  65.902  1.00  0.00    -0.286 C  
BRANCH   7   8
HETATM    8  C   UNL     1     -10.456  15.020  65.256  1.00  0.00    -0.428 C  
HETATM    9  C   UNL     1      -9.769  16.031  66.153  1.00  0.00    -0.324 C  
HETATM   10  O   UNL     1      -9.062  16.911  65.675  1.00  0.00    -0.499 OA 
HETATM   11  O   UNL     1      -9.980  15.961  67.476  1.00  0.00    -0.233 OA 
ENDBRANCH   7   8
ENDBRANCH   5   7
ENDBRANCH   2   5
TORSDOF 3
ENDMDL
MODEL       40
REMARK 921   NORMALIZED FREE ENERGY PREDICTED BY IDOCK:   -3.38 KCAL/MOL
REMARK 922        TOTAL FREE ENERGY PREDICTED BY IDOCK:   -4.30 KCAL/MOL
REMARK 923 INTER-LIGAND FREE ENERGY PREDICTED BY IDOCK:   -4.08 KCAL/MOL
REMARK 924 INTRA-LIGAND FREE ENERGY PREDICTED BY IDOCK:   -0.23 KCAL/MOL
REMARK 927      BINDING AFFINITY PREDICTED BY RF-SCORE:    0.00 PKD
ROOT
HETATM    1  N   UNL     1     -13.923   8.920  73.143  1.00  0.00    -1.215 NA 
HETATM    2  C   UNL     1     -13.886   9.405  71.765  1.00  0.00    -0.286 C  
HETATM    3  H1  UNL     1     -14.785   8.400  73.306  1.00  0.00     0.000 HD 
HETATM    4  H2  UNL     1     -13.798   9.674  73.818  1.00  0.00     0.000 HD 
ENDROOT
BRANCH   2   5
HETATM    5  C   UNL     1     -12.594  10.185  71.521  1.00  0.00    -0.434 C  
HETATM    6  O   UNL     1     -12.579  11.352  71.114  1.00  0.00    -0.394 OA 
BRANCH   5   7
HETATM    7  C   UNL     1     -11.288   9.439  71.601  1.00  0.00    -0.452 C  
BRANCH   7   8
HETATM    8  C   UNL     1     -11.181   8.445  70.459  1.00  0.00    -0.252 C  
HETATM    9  C   UNL     1     -11.612   7.013  70.710  1.00  0.00    -0.338 C  
HETATM   10  O   UNL     1     -11.730   6.224  69.779  1.00  0.00    -0.403 OA 
HETATM   11  O   UNL     1     -11.826   6.620  71.975  1.00  0.00    -0.302 OA 
ENDBRANCH   7   8
ENDBRANCH   5   7
ENDBRANCH   2   5
TORSDOF 3
ENDMDL
MODEL       41
REMARK 921   NORMALIZED FREE ENERGY PREDICTED BY IDOCK:   -3.34 KCAL/MOL
REMARK 922        TOTAL FREE ENERGY PREDICTED BY IDOCK:   -4.26 KCAL/MOL
REMARK 923 INTER-LIGAND FREE ENERGY PREDICTED BY IDOCK:   -4.22 KCAL/MOL
REMARK 924 INTRA-LIGAND FREE ENERGY PREDICTED BY IDOCK:   -0.04 KCAL/MOL
REMARK 927      BINDING AFFINITY PREDICTED BY RF-SCORE:    0.00 PKD
ROOT
HETATM    1  N   UNL     1      -8.070  20.101  65.879  1.00  0.00    -0.538 NA 
HETATM    2  C   UNL     1      -8.617  20.445  67.190  1.00  0.00    -0.316 C  
HETATM    3  H1  UNL     1      -7.187  20.589  65.731  1.00  0.00     0.000 HD 
HETATM    4  H2  UNL     1      -8.736  20.279  65.127  1.00  0.00     0.000 HD 
ENDROOT
BRANCH   2   5
HETATM    5  C   UNL     1      -9.941  19.714  67.411  1.00  0.00    -0.385 C  
HETATM    6  O   UNL     1     -10.455  19.576  68.527  1.00  0.00    -0.371 OA 
BRANCH   5   7
HETATM    7  C   UNL     1     -10.545  18.971  66.249  1.00  0.00    -0.493 C  
BRANCH   7   8
HETATM    8  C   UNL     1     -10.324  17.479  66.407  1.00  0.00    -0.334 C  
HETATM    9  C   UNL     1     -10.646  16.575  65.233  1.00  0.00    -0.253 C  
HETATM   10  O   UNL     1     -10.305  15.398  65.239  1.00  0.00    -0.367 OA 
HETATM   11  O   UNL     1     -11.341  17.085  64.205  1.00  0.00    -1.164 OA 
ENDBRANCH   7   8
ENDBRANCH   5   7
ENDBRANCH   2   5
TORSDOF 3
ENDMDL
MODEL       42
REMARK 921   NORMALIZED FREE ENERGY PREDICTED BY IDOCK:   -3.28 KCAL/MOL
REMARK 922        TOTAL FREE ENERGY PREDICTED BY IDOCK:   -4.18 KCAL/MOL
REMARK 923 INTER-LIGAND FREE ENERGY PREDICTED BY IDOCK:   -4.04 KCAL/MOL
REMARK 924 INTRA-LIGAND FREE ENERGY PREDICTED BY IDOCK:   -0.15 KCAL/MOL
REMARK 927      BINDING AFFINITY PREDICTED BY RF-SCORE:    0.00 PKD
ROOT
HETATM    1  N   UNL     1      -7.742  14.379  66.913  1.00  0.00    -0.281 NA 
HETATM    2  C   UNL     1      -8.262  15.710  66.608  1.00  0.00    -0.249 C  
HETATM    3  H1  UNL     1      -6.806  14.453  67.312  1.00  0.00     0.000 HD 
HETATM    4  H2  UNL     1      -7.763  13.764  66.099  1.00  0.00     0.000 HD 
ENDROOT
BRANCH   2   5
HETATM    5  C   UNL     1      -9.664  15.598  66.010  1.00  0.00    -0.346 C  
HETATM    6  O   UNL     1     -10.321  16.581  65.647  1.00  0.00    -0.438 OA 
BRANCH   5   7
HETATM    7  C   UNL     1     -10.343  14.254  66.038  1.00  0.00    -0.318 C  
BRANCH   7   8
HETATM    8  C   UNL     1     -10.771  13.853  64.638  1.00  0.00    -0.422 C  
HETATM    9  C   UNL     1     -12.244  13.922  64.289  1.00  0.00    -0.408 C  
HETATM   10  O   UNL     1     -12.617  13.799  63.128  1.00  0.00    -0.793 OA 
HETATM   11  O   UNL     1     -13.131  14.086  65.282  1.00  0.00    -0.782 OA 
ENDBRANCH   7   8
ENDBRANCH   5   7
ENDBRANCH   2   5
TORSDOF 3
ENDMDL
MODEL       43
REMARK 921   NORMALIZED FREE ENERGY PREDICTED BY IDOCK:   -3.24 KCAL/MOL
REMARK 922        TOTAL FREE ENERGY PREDICTED BY IDOCK:   -4.14 KCAL/MOL
REMARK 923 INTER-LIGAND FREE ENERGY PREDICTED BY IDOCK:   -3.76 KCAL/MOL
REMARK 924 INTRA-LIGAND FREE ENERGY PREDICTED BY IDOCK:   -0.38 KCAL/MOL
REMARK 927      BINDING AFFINITY PREDICTED BY RF-SCORE:    0.00 PKD
ROOT
HETATM    1  N   UNL     1     -10.064  16.080  68.448  1.00  0.00    -0.225 NA 
HETATM    2  C   UNL     1     -11.448  15.621  68.542  1.00  0.00    -0.375 C  
HETATM    3  H1  UNL     1      -9.980  17.018  68.842  1.00  0.00     0.000 HD 
HETATM    4  H2  UNL     1      -9.709  16.035  67.492  1.00  0.00     0.000 HD 
ENDROOT
BRANCH   2   5
HETATM    5  C   UNL     1     -11.573  14.217  67.951  1.00  0.00    -0.336 C  
HETATM    6  O   UNL     1     -11.882  13.228  68.625  1.00  0.00    -0.318 OA 
BRANCH   5   7
HETATM    7  C   UNL     1     -11.119  14.001  66.531  1.00  0.00    -0.315 C  
BRANCH   7   8
HETATM    8  C   UNL     1     -11.856  14.942  65.596  1.00  0.00    -0.131 C  
HETATM    9  C   UNL     1     -11.068  16.045  64.918  1.00  0.00    -0.370 C  
HETATM   10  O   UNL     1     -11.567  16.704  64.012  1.00  0.00    -1.197 OA 
HETATM   11  O   UNL     1      -9.826  16.308  65.356  1.00  0.00    -0.496 OA 
ENDBRANCH   7   8
ENDBRANCH   5   7
ENDBRANCH   2   5
TORSDOF 3
ENDMDL
MODEL       44
REMARK 921   NORMALIZED FREE ENERGY PREDICTED BY IDOCK:   -3.23 KCAL/MOL
REMARK 922        TOTAL FREE ENERGY PREDICTED BY IDOCK:   -4.13 KCAL/MOL
REMARK 923 INTER-LIGAND FREE ENERGY PREDICTED BY IDOCK:   -3.83 KCAL/MOL
REMARK 924 INTRA-LIGAND FREE ENERGY PREDICTED BY IDOCK:   -0.29 KCAL/MOL
REMARK 927      BINDING AFFINITY PREDICTED BY RF-SCORE:    0.00 PKD
ROOT
HETATM    1  N   UNL     1     -12.377  14.216  67.286  1.00  0.00    -0.576 NA 
HETATM    2  C   UNL     1     -12.108  13.162  66.310  1.00  0.00    -0.397 C  
HETATM    3  H1  UNL     1     -12.525  13.806  68.209  1.00  0.00     0.000 HD 
HETATM    4  H2  UNL     1     -13.156  14.811  67.002  1.00  0.00     0.000 HD 
ENDROOT
BRANCH   2   5
HETATM    5  C   UNL     1     -11.888  13.775  64.927  1.00  0.00    -0.375 C  
HETATM    6  O   UNL     1     -12.581  13.486  63.945  1.00  0.00    -0.681 OA 
BRANCH   5   7
HETATM    7  C   UNL     1     -10.661  14.621  64.713  1.00  0.00    -0.379 C  
BRANCH   7   8
HETATM    8  C   UNL     1     -11.041  16.089  64.641  1.00  0.00    -0.346 C  
HETATM    9  C   UNL     1     -10.546  17.014  65.735  1.00  0.00    -0.211 C  
HETATM   10  O   UNL     1     -10.658  18.230  65.623  1.00  0.00    -0.614 OA 
HETATM   11  O   UNL     1     -10.016  16.472  66.842  1.00  0.00    -0.254 OA 
ENDBRANCH   7   8
ENDBRANCH   5   7
ENDBRANCH   2   5
TORSDOF 3
ENDMDL
MODEL       45
REMARK 921   NORMALIZED FREE ENERGY PREDICTED BY IDOCK:   -3.23 KCAL/MOL
REMARK 922        TOTAL FREE ENERGY PREDICTED BY IDOCK:   -4.12 KCAL/MOL
REMARK 923 INTER-LIGAND FREE ENERGY PREDICTED BY IDOCK:   -4.05 KCAL/MOL
REMARK 924 INTRA-LIGAND FREE ENERGY PREDICTED BY IDOCK:   -0.07 KCAL/MOL
REMARK 927      BINDING AFFINITY PREDICTED BY RF-SCORE:    0.00 PKD
ROOT
HETATM    1  N   UNL     1     -11.467  16.289  63.919  1.00  0.00    -1.539 NA 
HETATM    2  C   UNL     1     -10.790  15.468  64.921  1.00  0.00    -0.427 C  
HETATM    3  H1  UNL     1     -11.949  15.691  63.247  1.00  0.00     0.000 HD 
HETATM    4  H2  UNL     1     -10.829  16.940  63.462  1.00  0.00     0.000 HD 
ENDROOT
BRANCH   2   5
HETATM    5  C   UNL     1     -10.068  16.364  65.927  1.00  0.00    -0.347 C  
HETATM    6  O   UNL     1     -10.460  17.500  66.220  1.00  0.00    -0.341 OA 
BRANCH   5   7
HETATM    7  C   UNL     1      -8.724  15.918  66.439  1.00  0.00    -0.362 C  
BRANCH   7   8
HETATM    8  C   UNL     1      -7.709  17.037  66.295  1.00  0.00    -0.346 C  
HETATM    9  C   UNL     1      -7.387  17.877  67.516  1.00  0.00    -0.200 C  
HETATM   10  O   UNL     1      -6.443  18.658  67.505  1.00  0.00    -0.194 OA 
HETATM   11  O   UNL     1      -8.180  17.772  68.593  1.00  0.00    -0.291 OA 
ENDBRANCH   7   8
ENDBRANCH   5   7
ENDBRANCH   2   5
TORSDOF 3
ENDMDL
MODEL       46
REMARK 921   NORMALIZED FREE ENERGY PREDICTED BY IDOCK:   -3.22 KCAL/MOL
REMARK 922        TOTAL FREE ENERGY PREDICTED BY IDOCK:   -4.12 KCAL/MOL
REMARK 923 INTER-LIGAND FREE ENERGY PREDICTED BY IDOCK:   -4.07 KCAL/MOL
REMARK 924 INTRA-LIGAND FREE ENERGY PREDICTED BY IDOCK:   -0.05 KCAL/MOL
REMARK 927      BINDING AFFINITY PREDICTED BY RF-SCORE:    0.00 PKD
ROOT
HETATM    1  N   UNL     1     -12.679  16.372  74.527  1.00  0.00    -0.949 NA 
HETATM    2  C   UNL     1     -12.045  15.529  73.515  1.00  0.00    -0.501 C  
HETATM    3  H1  UNL     1     -12.144  16.336  75.394  1.00  0.00     0.000 HD 
HETATM    4  H2  UNL     1     -13.658  16.125  74.671  1.00  0.00     0.000 HD 
ENDROOT
BRANCH   2   5
HETATM    5  C   UNL     1     -12.847  15.582  72.215  1.00  0.00    -0.406 C  
HETATM    6  O   UNL     1     -14.083  15.590  72.187  1.00  0.00    -0.514 OA 
BRANCH   5   7
HETATM    7  C   UNL     1     -12.104  15.429  70.914  1.00  0.00    -0.413 C  
BRANCH   7   8
HETATM    8  C   UNL     1     -12.535  14.156  70.209  1.00  0.00    -0.416 C  
HETATM    9  C   UNL     1     -11.571  13.512  69.234  1.00  0.00    -0.316 C  
HETATM   10  O   UNL     1     -11.787  12.390  68.790  1.00  0.00    -0.314 OA 
HETATM   11  O   UNL     1     -10.495  14.211  68.841  1.00  0.00    -0.242 OA 
ENDBRANCH   7   8
ENDBRANCH   5   7
ENDBRANCH   2   5
TORSDOF 3
ENDMDL
MODEL       47
REMARK 921   NORMALIZED FREE ENERGY PREDICTED BY IDOCK:   -3.22 KCAL/MOL
REMARK 922        TOTAL FREE ENERGY PREDICTED BY IDOCK:   -4.11 KCAL/MOL
REMARK 923 INTER-LIGAND FREE ENERGY PREDICTED BY IDOCK:   -4.04 KCAL/MOL
REMARK 924 INTRA-LIGAND FREE ENERGY PREDICTED BY IDOCK:   -0.07 KCAL/MOL
REMARK 927      BINDING AFFINITY PREDICTED BY RF-SCORE:    0.00 PKD
ROOT
HETATM    1  N   UNL     1      -9.954  13.918  69.072  1.00  0.00    -0.427 NA 
HETATM    2  C   UNL     1     -11.001  13.362  68.217  1.00  0.00    -0.259 C  
HETATM    3  H1  UNL     1      -9.675  13.231  69.773  1.00  0.00     0.000 HD 
HETATM    4  H2  UNL     1     -10.235  14.803  69.494  1.00  0.00     0.000 HD 
ENDROOT
BRANCH   2   5
HETATM    5  C   UNL     1     -11.419  14.391  67.167  1.00  0.00    -0.362 C  
HETATM    6  O   UNL     1     -11.025  15.563  67.180  1.00  0.00    -0.321 OA 
BRANCH   5   7
HETATM    7  C   UNL     1     -12.500  14.010  66.190  1.00  0.00    -0.467 C  
BRANCH   7   8
HETATM    8  C   UNL     1     -12.181  12.671  65.551  1.00  0.00    -0.501 C  
HETATM    9  C   UNL     1     -12.089  12.599  64.040  1.00  0.00    -0.462 C  
HETATM   10  O   UNL     1     -11.647  11.598  63.488  1.00  0.00    -0.428 OA 
HETATM   11  O   UNL     1     -12.536  13.640  63.321  1.00  0.00    -0.816 OA 
ENDBRANCH   7   8
ENDBRANCH   5   7
ENDBRANCH   2   5
TORSDOF 3
ENDMDL
MODEL       48
REMARK 921   NORMALIZED FREE ENERGY PREDICTED BY IDOCK:   -3.21 KCAL/MOL
REMARK 922        TOTAL FREE ENERGY PREDICTED BY IDOCK:   -4.11 KCAL/MOL
REMARK 923 INTER-LIGAND FREE ENERGY PREDICTED BY IDOCK:   -3.72 KCAL/MOL
REMARK 924 INTRA-LIGAND FREE ENERGY PREDICTED BY IDOCK:   -0.39 KCAL/MOL
REMARK 927      BINDING AFFINITY PREDICTED BY RF-SCORE:    0.00 PKD
ROOT
HETATM    1  N   UNL     1     -12.048   6.904  70.246  1.00  0.00    -0.627 NA 
HETATM    2  C   UNL     1     -12.956   7.024  71.385  1.00  0.00    -0.340 C  
HETATM    3  H1  UNL     1     -12.016   5.936  69.927  1.00  0.00     0.000 HD 
HETATM    4  H2  UNL     1     -11.119   7.268  70.458  1.00  0.00     0.000 HD 
ENDROOT
BRANCH   2   5
HETATM    5  C   UNL     1     -13.003   8.475  71.864  1.00  0.00    -0.362 C  
HETATM    6  O   UNL     1     -14.042   9.020  72.256  1.00  0.00    -0.447 OA 
BRANCH   5   7
HETATM    7  C   UNL     1     -11.776   9.326  71.674  1.00  0.00    -0.462 C  
BRANCH   7   8
HETATM    8  C   UNL     1     -12.101  10.529  70.807  1.00  0.00    -0.470 C  
HETATM    9  C   UNL     1     -11.715  10.484  69.342  1.00  0.00    -0.223 C  
HETATM   10  O   UNL     1     -12.125  11.337  68.562  1.00  0.00    -0.573 OA 
HETATM   11  O   UNL     1     -10.889   9.512  68.926  1.00  0.00    -0.215 OA 
ENDBRANCH   7   8
ENDBRANCH   5   7
ENDBRANCH   2   5
TORSDOF 3
ENDMDL
MODEL       49
REMARK 921   NORMALIZED FREE ENERGY PREDICTED BY IDOCK:   -3.20 KCAL/MOL
REMARK 922        TOTAL FREE ENERGY PREDICTED BY IDOCK:   -4.08 KCAL/MOL
REMARK 923 INTER-LIGAND FREE ENERGY PREDICTED BY IDOCK:   -4.00 KCAL/MOL
REMARK 924 INTRA-LIGAND FREE ENERGY PREDICTED BY IDOCK:   -0.08 KCAL/MOL
REMARK 927      BINDING AFFINITY PREDICTED BY RF-SCORE:    0.00 PKD
ROOT
HETATM    1  N   UNL     1      -9.833   8.123  65.857  1.00  0.00    -0.415 NA 
HETATM    2  C   UNL     1      -9.942   9.481  66.385  1.00  0.00    -0.269 C  
HETATM    3  H1  UNL     1      -9.782   7.454  66.626  1.00  0.00     0.000 HD 
HETATM    4  H2  UNL     1      -9.048   8.025  65.212  1.00  0.00     0.000 HD 
ENDROOT
BRANCH   2   5
HETATM    5  C   UNL     1     -10.018  10.483  65.233  1.00  0.00    -0.299 C  
HETATM    6  O   UNL     1      -9.690  10.203  64.074  1.00  0.00    -0.306 OA 
BRANCH   5   7
HETATM    7  C   UNL     1     -10.325  11.921  65.562  1.00  0.00    -0.303 C  
BRANCH   7   8
HETATM    8  C   UNL     1     -10.730  12.671  64.306  1.00  0.00    -0.409 C  
HETATM    9  C   UNL     1     -12.115  13.286  64.252  1.00  0.00    -0.416 C  
HETATM   10  O   UNL     1     -12.419  14.061  63.352  1.00  0.00    -0.826 OA 
HETATM   11  O   UNL     1     -13.009  12.936  65.189  1.00  0.00    -0.758 OA 
ENDBRANCH   7   8
ENDBRANCH   5   7
ENDBRANCH   2   5
TORSDOF 3
ENDMDL
MODEL       50
REMARK 921   NORMALIZED FREE ENERGY PREDICTED BY IDOCK:   -3.19 KCAL/MOL
REMARK 922        TOTAL FREE ENERGY PREDICTED BY IDOCK:   -4.07 KCAL/MOL
REMARK 923 INTER-LIGAND FREE ENERGY PREDICTED BY IDOCK:   -3.96 KCAL/MOL
REMARK 924 INTRA-LIGAND FREE ENERGY PREDICTED BY IDOCK:   -0.11 KCAL/MOL
REMARK 927      BINDING AFFINITY PREDICTED BY RF-SCORE:    0.00 PKD
ROOT
HETATM    1  N   UNL     1      -9.973  18.050  65.872  1.00  0.00    -0.570 NA 
HETATM    2  C   UNL     1      -9.930  16.591  65.925  1.00  0.00    -0.317 C  
HETATM    3  H1  UNL     1      -9.376  18.443  66.601  1.00  0.00     0.000 HD 
HETATM    4  H2  UNL     1     -10.927  18.408  65.927  1.00  0.00     0.000 HD 
ENDROOT
BRANCH   2   5
HETATM    5  C   UNL     1     -10.825  16.003  64.834  1.00  0.00    -0.372 C  
HETATM    6  O   UNL     1     -11.533  16.699  64.097  1.00  0.00    -1.131 OA 
BRANCH   5   7
HETATM    7  C   UNL     1     -10.993  14.507  64.783  1.00  0.00    -0.404 C  
BRANCH   7   8
HETATM    8  C   UNL     1     -10.132  13.846  65.844  1.00  0.00    -0.331 C  
HETATM    9  C   UNL     1     -10.824  13.158  67.004  1.00  0.00    -0.264 C  
HETATM   10  O   UNL     1     -10.191  12.447  67.776  1.00  0.00    -0.203 OA 
HETATM   11  O   UNL     1     -12.136  13.372  67.186  1.00  0.00    -0.368 OA 
ENDBRANCH   7   8
ENDBRANCH   5   7
ENDBRANCH   2   5
TORSDOF 3
ENDMDL
MODEL       51
REMARK 921   NORMALIZED FREE ENERGY PREDICTED BY IDOCK:   -3.18 KCAL/MOL
REMARK 922        TOTAL FREE ENERGY PREDICTED BY IDOCK:   -4.07 KCAL/MOL
REMARK 923 INTER-LIGAND FREE ENERGY PREDICTED BY IDOCK:   -3.98 KCAL/MOL
REMARK 924 INTRA-LIGAND FREE ENERGY PREDICTED BY IDOCK:   -0.09 KCAL/MOL
REMARK 927      BINDING AFFINITY PREDICTED BY RF-SCORE:    0.00 PKD
ROOT
HETATM    1  N   UNL     1     -14.406   8.778  72.874  1.00  0.00    -1.104 NA 
HETATM    2  C   UNL     1     -14.220   7.950  71.684  1.00  0.00    -0.459 C  
HETATM    3  H1  UNL     1     -15.394   8.998  72.993  1.00  0.00     0.000 HD 
HETATM    4  H2  UNL     1     -13.826   9.617  72.850  1.00  0.00     0.000 HD 
ENDROOT
BRANCH   2   5
HETATM    5  C   UNL     1     -12.738   7.620  71.504  1.00  0.00    -0.345 C  
HETATM    6  O   UNL     1     -12.321   6.858  70.624  1.00  0.00    -0.348 OA 
BRANCH   5   7
HETATM    7  C   UNL     1     -11.772   8.094  72.557  1.00  0.00    -0.457 C  
BRANCH   7   8
HETATM    8  C   UNL     1     -10.586   8.785  71.908  1.00  0.00    -0.425 C  
HETATM    9  C   UNL     1      -9.212   8.573  72.512  1.00  0.00    -0.233 C  
HETATM   10  O   UNL     1      -8.205   8.944  71.919  1.00  0.00    -0.345 OA 
HETATM   11  O   UNL     1      -9.126   8.003  73.724  1.00  0.00    -0.269 OA 
ENDBRANCH   7   8
ENDBRANCH   5   7
ENDBRANCH   2   5
TORSDOF 3
ENDMDL
MODEL       52
REMARK 921   NORMALIZED FREE ENERGY PREDICTED BY IDOCK:   -3.18 KCAL/MOL
REMARK 922        TOTAL FREE ENERGY PREDICTED BY IDOCK:   -4.07 KCAL/MOL
REMARK 923 INTER-LIGAND FREE ENERGY PREDICTED BY IDOCK:   -4.01 KCAL/MOL
REMARK 924 INTRA-LIGAND FREE ENERGY PREDICTED BY IDOCK:   -0.05 KCAL/MOL
REMARK 927      BINDING AFFINITY PREDICTED BY RF-SCORE:    0.00 PKD
ROOT
HETATM    1  N   UNL     1     -11.452  16.364  64.011  1.00  0.00    -1.573 NA 
HETATM    2  C   UNL     1     -11.741  14.980  64.379  1.00  0.00    -0.312 C  
HETATM    3  H1  UNL     1     -11.932  16.601  63.142  1.00  0.00     0.000 HD 
HETATM    4  H2  UNL     1     -10.449  16.544  63.955  1.00  0.00     0.000 HD 
ENDROOT
BRANCH   2   5
HETATM    5  C   UNL     1     -11.021  14.624  65.680  1.00  0.00    -0.335 C  
HETATM    6  O   UNL     1     -10.452  13.541  65.860  1.00  0.00    -0.280 OA 
BRANCH   5   7
HETATM    7  C   UNL     1     -11.173  15.556  66.853  1.00  0.00    -0.159 C  
BRANCH   7   8
HETATM    8  C   UNL     1     -11.762  14.816  68.039  1.00  0.00    -0.360 C  
HETATM    9  C   UNL     1     -11.734  15.492  69.395  1.00  0.00    -0.367 C  
HETATM   10  O   UNL     1     -12.365  15.027  70.338  1.00  0.00    -0.307 OA 
HETATM   11  O   UNL     1     -10.976  16.588  69.549  1.00  0.00    -0.318 OA 
ENDBRANCH   7   8
ENDBRANCH   5   7
ENDBRANCH   2   5
TORSDOF 3
ENDMDL
MODEL       53
REMARK 921   NORMALIZED FREE ENERGY PREDICTED BY IDOCK:   -3.15 KCAL/MOL
REMARK 922        TOTAL FREE ENERGY PREDICTED BY IDOCK:   -4.03 KCAL/MOL
REMARK 923 INTER-LIGAND FREE ENERGY PREDICTED BY IDOCK:   -3.97 KCAL/MOL
REMARK 924 INTRA-LIGAND FREE ENERGY PREDICTED BY IDOCK:   -0.05 KCAL/MOL
REMARK 927      BINDING AFFINITY PREDICTED BY RF-SCORE:    0.00 PKD
ROOT
HETATM    1  N   UNL     1     -14.131  13.707  72.499  1.00  0.00    -0.754 NA 
HETATM    2  C   UNL     1     -13.935  15.014  71.874  1.00  0.00    -0.505 C  
HETATM    3  H1  UNL     1     -15.009  13.698  73.019  1.00  0.00     0.000 HD 
HETATM    4  H2  UNL     1     -13.339  13.440  73.083  1.00  0.00     0.000 HD 
ENDROOT
BRANCH   2   5
HETATM    5  C   UNL     1     -12.620  15.028  71.096  1.00  0.00    -0.348 C  
HETATM    6  O   UNL     1     -11.955  16.056  70.917  1.00  0.00    -0.398 OA 
BRANCH   5   7
HETATM    7  C   UNL     1     -12.216  13.778  70.361  1.00  0.00    -0.433 C  
BRANCH   7   8
HETATM    8  C   UNL     1     -11.751  14.121  68.958  1.00  0.00    -0.361 C  
HETATM    9  C   UNL     1     -11.765  13.027  67.908  1.00  0.00    -0.357 C  
HETATM   10  O   UNL     1     -11.588  13.294  66.725  1.00  0.00    -0.330 OA 
HETATM   11  O   UNL     1     -11.939  11.758  68.308  1.00  0.00    -0.487 OA 
ENDBRANCH   7   8
ENDBRANCH   5   7
ENDBRANCH   2   5
TORSDOF 3
ENDMDL
MODEL       54
REMARK 921   NORMALIZED FREE ENERGY PREDICTED BY IDOCK:   -3.14 KCAL/MOL
REMARK 922        TOTAL FREE ENERGY PREDICTED BY IDOCK:   -4.02 KCAL/MOL
REMARK 923 INTER-LIGAND FREE ENERGY PREDICTED BY IDOCK:   -3.61 KCAL/MOL
REMARK 924 INTRA-LIGAND FREE ENERGY PREDICTED BY IDOCK:   -0.40 KCAL/MOL
REMARK 927      BINDING AFFINITY PREDICTED BY RF-SCORE:    0.00 PKD
ROOT
HETATM    1  N   UNL     1      -8.125  20.199  65.866  1.00  0.00    -0.538 NA 
HETATM    2  C   UNL     1      -7.840  20.631  67.232  1.00  0.00    -0.291 C  
HETATM    3  H1  UNL     1      -7.722  20.859  65.200  1.00  0.00     0.000 HD 
HETATM    4  H2  UNL     1      -9.123  20.060  65.709  1.00  0.00     0.000 HD 
ENDROOT
BRANCH   2   5
HETATM    5  C   UNL     1      -8.444  19.642  68.229  1.00  0.00    -0.316 C  
HETATM    6  O   UNL     1      -7.764  18.834  68.872  1.00  0.00    -0.314 OA 
BRANCH   5   7
HETATM    7  C   UNL     1      -9.944  19.522  68.289  1.00  0.00    -0.533 C  
BRANCH   7   8
HETATM    8  C   UNL     1     -10.360  18.070  68.146  1.00  0.00    -0.398 C  
HETATM    9  C   UNL     1     -10.404  17.468  66.755  1.00  0.00    -0.314 C  
HETATM   10  O   UNL     1     -10.542  16.260  66.602  1.00  0.00    -0.304 OA 
HETATM   11  O   UNL     1     -10.324  18.291  65.698  1.00  0.00    -0.607 OA 
ENDBRANCH   7   8
ENDBRANCH   5   7
ENDBRANCH   2   5
TORSDOF 3
ENDMDL
MODEL       55
REMARK 921   NORMALIZED FREE ENERGY PREDICTED BY IDOCK:   -3.14 KCAL/MOL
REMARK 922        TOTAL FREE ENERGY PREDICTED BY IDOCK:   -4.02 KCAL/MOL
REMARK 923 INTER-LIGAND FREE ENERGY PREDICTED BY IDOCK:   -3.98 KCAL/MOL
REMARK 924 INTRA-LIGAND FREE ENERGY PREDICTED BY IDOCK:   -0.04 KCAL/MOL
REMARK 927      BINDING AFFINITY PREDICTED BY RF-SCORE:    0.00 PKD
ROOT
HETATM    1  N   UNL     1     -12.035  10.841  68.101  1.00  0.00    -0.801 NA 
HETATM    2  C   UNL     1     -11.071  11.583  67.291  1.00  0.00    -0.293 C  
HETATM    3  H1  UNL     1     -11.567  10.074  68.584  1.00  0.00     0.000 HD 
HETATM    4  H2  UNL     1     -12.830  10.517  67.549  1.00  0.00     0.000 HD 
ENDROOT
BRANCH   2   5
HETATM    5  C   UNL     1     -11.773  12.731  66.566  1.00  0.00    -0.400 C  
HETATM    6  O   UNL     1     -12.459  12.566  65.550  1.00  0.00    -0.646 OA 
BRANCH   5   7
HETATM    7  C   UNL     1     -11.462  14.140  66.998  1.00  0.00    -0.370 C  
BRANCH   7   8
HETATM    8  C   UNL     1     -11.696  14.295  68.489  1.00  0.00    -0.376 C  
HETATM    9  C   UNL     1     -11.595  15.682  69.092  1.00  0.00    -0.383 C  
HETATM   10  O   UNL     1     -11.963  15.891  70.242  1.00  0.00    -0.353 OA 
HETATM   11  O   UNL     1     -11.062  16.666  68.351  1.00  0.00    -0.359 OA 
ENDBRANCH   7   8
ENDBRANCH   5   7
ENDBRANCH   2   5
TORSDOF 3
ENDMDL
MODEL       56
REMARK 921   NORMALIZED FREE ENERGY PREDICTED BY IDOCK:   -3.12 KCAL/MOL
REMARK 922        TOTAL FREE ENERGY PREDICTED BY IDOCK:   -4.00 KCAL/MOL
REMARK 923 INTER-LIGAND FREE ENERGY PREDICTED BY IDOCK:   -3.87 KCAL/MOL
REMARK 924 INTRA-LIGAND FREE ENERGY PREDICTED BY IDOCK:   -0.13 KCAL/MOL
REMARK 927      BINDING AFFINITY PREDICTED BY RF-SCORE:    0.00 PKD
ROOT
HETATM    1  N   UNL     1     -12.498  14.845  69.099  1.00  0.00    -0.587 NA 
HETATM    2  C   UNL     1     -11.117  15.311  69.210  1.00  0.00    -0.274 C  
HETATM    3  H1  UNL     1     -12.719  14.222  69.876  1.00  0.00     0.000 HD 
HETATM    4  H2  UNL     1     -12.683  14.409  68.195  1.00  0.00     0.000 HD 
ENDROOT
BRANCH   2   5
HETATM    5  C   UNL     1     -10.786  16.243  68.045  1.00  0.00    -0.331 C  
HETATM    6  O   UNL     1     -11.141  17.427  68.009  1.00  0.00    -0.259 OA 
BRANCH   5   7
HETATM    7  C   UNL     1     -10.165  15.645  66.810  1.00  0.00    -0.278 C  
BRANCH   7   8
HETATM    8  C   UNL     1     -11.246  15.173  65.856  1.00  0.00    -0.280 C  
HETATM    9  C   UNL     1     -11.595  16.054  64.672  1.00  0.00    -0.169 C  
HETATM   10  O   UNL     1     -12.314  15.635  63.772  1.00  0.00    -0.644 OA 
HETATM   11  O   UNL     1     -11.129  17.312  64.651  1.00  0.00    -1.052 OA 
ENDBRANCH   7   8
ENDBRANCH   5   7
ENDBRANCH   2   5
TORSDOF 3
ENDMDL
MODEL       57
REMARK 921   NORMALIZED FREE ENERGY PREDICTED BY IDOCK:   -3.11 KCAL/MOL
REMARK 922        TOTAL FREE ENERGY PREDICTED BY IDOCK:   -3.98 KCAL/MOL
REMARK 923 INTER-LIGAND FREE ENERGY PREDICTED BY IDOCK:   -3.88 KCAL/MOL
REMARK 924 INTRA-LIGAND FREE ENERGY PREDICTED BY IDOCK:   -0.10 KCAL/MOL
REMARK 927      BINDING AFFINITY PREDICTED BY RF-SCORE:    0.00 PKD
ROOT
HETATM    1  N   UNL     1     -12.413  10.913  69.425  1.00  0.00    -0.591 NA 
HETATM    2  C   UNL     1     -12.408  11.686  70.665  1.00  0.00    -0.344 C  
HETATM    3  H1  UNL     1     -12.467   9.916  69.636  1.00  0.00     0.000 HD 
HETATM    4  H2  UNL     1     -11.614  11.135  68.832  1.00  0.00     0.000 HD 
ENDROOT
BRANCH   2   5
HETATM    5  C   UNL     1     -12.326  13.180  70.348  1.00  0.00    -0.279 C  
HETATM    6  O   UNL     1     -11.415  13.676  69.676  1.00  0.00    -0.260 OA 
BRANCH   5   7
HETATM    7  C   UNL     1     -13.292  14.106  71.039  1.00  0.00    -0.288 C  
BRANCH   7   8
HETATM    8  C   UNL     1     -13.071  14.069  72.540  1.00  0.00    -0.547 C  
HETATM    9  C   UNL     1     -12.547  15.319  73.221  1.00  0.00    -0.499 C  
HETATM   10  O   UNL     1     -12.536  15.406  74.443  1.00  0.00    -0.562 OA 
HETATM   11  O   UNL     1     -12.064  16.310  72.456  1.00  0.00    -0.509 OA 
ENDBRANCH   7   8
ENDBRANCH   5   7
ENDBRANCH   2   5
TORSDOF 3
ENDMDL
MODEL       58
REMARK 921   NORMALIZED FREE ENERGY PREDICTED BY IDOCK:   -3.10 KCAL/MOL
REMARK 922        TOTAL FREE ENERGY PREDICTED BY IDOCK:   -3.97 KCAL/MOL
REMARK 923 INTER-LIGAND FREE ENERGY PREDICTED BY IDOCK:   -3.89 KCAL/MOL
REMARK 924 INTRA-LIGAND FREE ENERGY PREDICTED BY IDOCK:   -0.08 KCAL/MOL
REMARK 927      BINDING AFFINITY PREDICTED BY RF-SCORE:    0.00 PKD
ROOT
HETATM    1  N   UNL     1      -9.226  14.657  68.985  1.00  0.00    -0.347 NA 
HETATM    2  C   UNL     1      -9.955  15.492  69.938  1.00  0.00    -0.233 C  
HETATM    3  H1  UNL     1      -8.245  14.594  69.257  1.00  0.00     0.000 HD 
HETATM    4  H2  UNL     1      -9.336  14.985  68.026  1.00  0.00     0.000 HD 
ENDROOT
BRANCH   2   5
HETATM    5  C   UNL     1     -11.425  15.587  69.530  1.00  0.00    -0.333 C  
HETATM    6  O   UNL     1     -11.788  15.899  68.390  1.00  0.00    -0.322 OA 
BRANCH   5   7
HETATM    7  C   UNL     1     -12.470  15.479  70.610  1.00  0.00    -0.483 C  
BRANCH   7   8
HETATM    8  C   UNL     1     -11.812  15.225  71.953  1.00  0.00    -0.493 C  
HETATM    9  C   UNL     1     -12.641  15.416  73.208  1.00  0.00    -0.499 C  
HETATM   10  O   UNL     1     -12.223  15.039  74.296  1.00  0.00    -0.604 OA 
HETATM   11  O   UNL     1     -13.826  16.038  73.104  1.00  0.00    -0.576 OA 
ENDBRANCH   7   8
ENDBRANCH   5   7
ENDBRANCH   2   5
TORSDOF 3
ENDMDL
MODEL       59
REMARK 921   NORMALIZED FREE ENERGY PREDICTED BY IDOCK:   -3.07 KCAL/MOL
REMARK 922        TOTAL FREE ENERGY PREDICTED BY IDOCK:   -3.94 KCAL/MOL
REMARK 923 INTER-LIGAND FREE ENERGY PREDICTED BY IDOCK:   -3.84 KCAL/MOL
REMARK 924 INTRA-LIGAND FREE ENERGY PREDICTED BY IDOCK:   -0.09 KCAL/MOL
REMARK 927      BINDING AFFINITY PREDICTED BY RF-SCORE:    0.00 PKD
ROOT
HETATM    1  N   UNL     1     -12.459  10.628  69.066  1.00  0.00    -0.740 NA 
HETATM    2  C   UNL     1     -11.818  10.452  70.367  1.00  0.00    -0.328 C  
HETATM    3  H1  UNL     1     -11.769  10.526  68.321  1.00  0.00     0.000 HD 
HETATM    4  H2  UNL     1     -12.961  11.514  69.003  1.00  0.00     0.000 HD 
ENDROOT
BRANCH   2   5
HETATM    5  C   UNL     1     -12.853  10.606  71.483  1.00  0.00    -0.462 C  
HETATM    6  O   UNL     1     -13.247  11.705  71.888  1.00  0.00    -0.485 OA 
BRANCH   5   7
HETATM    7  C   UNL     1     -13.265   9.373  72.243  1.00  0.00    -0.528 C  
BRANCH   7   8
HETATM    8  C   UNL     1     -12.840   8.125  71.491  1.00  0.00    -0.319 C  
HETATM    9  C   UNL     1     -11.782   7.236  72.114  1.00  0.00    -0.285 C  
HETATM   10  O   UNL     1     -11.546   6.126  71.649  1.00  0.00    -0.295 OA 
HETATM   11  O   UNL     1     -11.087   7.704  73.162  1.00  0.00    -0.404 OA 
ENDBRANCH   7   8
ENDBRANCH   5   7
ENDBRANCH   2   5
TORSDOF 3
ENDMDL
MODEL       60
REMARK 921   NORMALIZED FREE ENERGY PREDICTED BY IDOCK:   -3.07 KCAL/MOL
REMARK 922        TOTAL FREE ENERGY PREDICTED BY IDOCK:   -3.93 KCAL/MOL
REMARK 923 INTER-LIGAND FREE ENERGY PREDICTED BY IDOCK:   -3.81 KCAL/MOL
REMARK 924 INTRA-LIGAND FREE ENERGY PREDICTED BY IDOCK:   -0.12 KCAL/MOL
REMARK 927      BINDING AFFINITY PREDICTED BY RF-SCORE:    0.00 PKD
ROOT
HETATM    1  N   UNL     1     -12.527  13.922  63.237  1.00  0.00    -1.112 NA 
HETATM    2  C   UNL     1     -11.979  12.581  63.434  1.00  0.00    -0.514 C  
HETATM    3  H1  UNL     1     -12.836  14.033  62.271  1.00  0.00     0.000 HD 
HETATM    4  H2  UNL     1     -11.867  14.649  63.514  1.00  0.00     0.000 HD 
ENDROOT
BRANCH   2   5
HETATM    5  C   UNL     1     -11.515  12.415  64.881  1.00  0.00    -0.332 C  
HETATM    6  O   UNL     1     -12.267  12.568  65.851  1.00  0.00    -0.593 OA 
BRANCH   5   7
HETATM    7  C   UNL     1     -10.042  12.241  65.139  1.00  0.00    -0.284 C  
BRANCH   7   8
HETATM    8  C   UNL     1      -9.742  10.803  65.521  1.00  0.00    -0.290 C  
HETATM    9  C   UNL     1      -9.272   9.854  64.436  1.00  0.00    -0.264 C  
HETATM   10  O   UNL     1      -8.833   8.746  64.722  1.00  0.00    -0.154 OA 
HETATM   11  O   UNL     1      -9.381  10.241  63.155  1.00  0.00    -0.271 OA 
ENDBRANCH   7   8
ENDBRANCH   5   7
ENDBRANCH   2   5
TORSDOF 3
ENDMDL
MODEL       61
REMARK 921   NORMALIZED FREE ENERGY PREDICTED BY IDOCK:   -3.04 KCAL/MOL
REMARK 922        TOTAL FREE ENERGY PREDICTED BY IDOCK:   -3.90 KCAL/MOL
REMARK 923 INTER-LIGAND FREE ENERGY PREDICTED BY IDOCK:   -3.84 KCAL/MOL
REMARK 924 INTRA-LIGAND FREE ENERGY PREDICTED BY IDOCK:   -0.06 KCAL/MOL
REMARK 927      BINDING AFFINITY PREDICTED BY RF-SCORE:    0.00 PKD
ROOT
HETATM    1  N   UNL     1     -12.480  14.135  63.264  1.00  0.00    -1.098 NA 
HETATM    2  C   UNL     1     -12.076  13.770  64.621  1.00  0.00    -0.421 C  
HETATM    3  H1  UNL     1     -13.229  14.827  63.298  1.00  0.00     0.000 HD 
HETATM    4  H2  UNL     1     -12.738  13.319  62.710  1.00  0.00     0.000 HD 
ENDROOT
BRANCH   2   5
HETATM    5  C   UNL     1     -10.954  12.733  64.570  1.00  0.00    -0.341 C  
HETATM    6  O   UNL     1     -10.338  12.459  63.534  1.00  0.00    -0.425 OA 
BRANCH   5   7
HETATM    7  C   UNL     1     -10.721  11.879  65.789  1.00  0.00    -0.327 C  
BRANCH   7   8
HETATM    8  C   UNL     1     -11.624  12.327  66.923  1.00  0.00    -0.427 C  
HETATM    9  C   UNL     1     -11.062  13.287  67.953  1.00  0.00    -0.262 C  
HETATM   10  O   UNL     1     -11.799  13.828  68.770  1.00  0.00    -0.325 OA 
HETATM   11  O   UNL     1      -9.738  13.504  67.972  1.00  0.00    -0.214 OA 
ENDBRANCH   7   8
ENDBRANCH   5   7
ENDBRANCH   2   5
TORSDOF 3
ENDMDL
MODEL       62
REMARK 921   NORMALIZED FREE ENERGY PREDICTED BY IDOCK:   -3.01 KCAL/MOL
REMARK 922        TOTAL FREE ENERGY PREDICTED BY IDOCK:   -3.87 KCAL/MOL
REMARK 923 INTER-LIGAND FREE ENERGY PREDICTED BY IDOCK:   -3.69 KCAL/MOL
REMARK 924 INTRA-LIGAND FREE ENERGY PREDICTED BY IDOCK:   -0.18 KCAL/MOL
REMARK 927      BINDING AFFINITY PREDICTED BY RF-SCORE:    0.00 PKD
ROOT
HETATM    1  N   UNL     1      -8.668  13.237  66.651  1.00  0.00    -0.435 NA 
HETATM    2  C   UNL     1      -9.500  14.427  66.490  1.00  0.00    -0.289 C  
HETATM    3  H1  UNL     1      -7.828  13.319  66.078  1.00  0.00     0.000 HD 
HETATM    4  H2  UNL     1      -9.184  12.380  66.451  1.00  0.00     0.000 HD 
ENDROOT
BRANCH   2   5
HETATM    5  C   UNL     1     -10.759  14.304  67.348  1.00  0.00    -0.282 C  
HETATM    6  O   UNL     1     -10.819  14.700  68.518  1.00  0.00    -0.237 OA 
BRANCH   5   7
HETATM    7  C   UNL     1     -11.911  13.499  66.806  1.00  0.00    -0.453 C  
BRANCH   7   8
HETATM    8  C   UNL     1     -12.347  14.047  65.460  1.00  0.00    -0.503 C  
HETATM    9  C   UNL     1     -12.132  13.188  64.229  1.00  0.00    -0.414 C  
HETATM   10  O   UNL     1     -12.638  13.496  63.156  1.00  0.00    -0.762 OA 
HETATM   11  O   UNL     1     -11.347  12.105  64.334  1.00  0.00    -0.316 OA 
ENDBRANCH   7   8
ENDBRANCH   5   7
ENDBRANCH   2   5
TORSDOF 3
ENDMDL
MODEL       63
REMARK 921   NORMALIZED FREE ENERGY PREDICTED BY IDOCK:   -3.00 KCAL/MOL
REMARK 922        TOTAL FREE ENERGY PREDICTED BY IDOCK:   -3.86 KCAL/MOL
REMARK 923 INTER-LIGAND FREE ENERGY PREDICTED BY IDOCK:   -3.69 KCAL/MOL
REMARK 924 INTRA-LIGAND FREE ENERGY PREDICTED BY IDOCK:   -0.17 KCAL/MOL
REMARK 927      BINDING AFFINITY PREDICTED BY RF-SCORE:    0.00 PKD
ROOT
HETATM    1  N   UNL     1     -11.649   6.547  69.173  1.00  0.00    -0.624 NA 
HETATM    2  C   UNL     1     -11.191   6.410  70.553  1.00  0.00    -0.352 C  
HETATM    3  H1  UNL     1     -11.106   5.936  68.563  1.00  0.00     0.000 HD 
HETATM    4  H2  UNL     1     -11.628   7.517  68.857  1.00  0.00     0.000 HD 
ENDROOT
BRANCH   2   5
HETATM    5  C   UNL     1     -12.005   7.327  71.467  1.00  0.00    -0.316 C  
HETATM    6  O   UNL     1     -13.227   7.215  71.617  1.00  0.00    -0.374 OA 
BRANCH   5   7
HETATM    7  C   UNL     1     -11.318   8.530  72.059  1.00  0.00    -0.425 C  
BRANCH   7   8
HETATM    8  C   UNL     1     -11.275   9.660  71.047  1.00  0.00    -0.445 C  
HETATM    9  C   UNL     1     -12.268  10.797  71.197  1.00  0.00    -0.352 C  
HETATM   10  O   UNL     1     -12.150  11.819  70.532  1.00  0.00    -0.363 OA 
HETATM   11  O   UNL     1     -13.295  10.642  72.046  1.00  0.00    -0.440 OA 
ENDBRANCH   7   8
ENDBRANCH   5   7
ENDBRANCH   2   5
TORSDOF 3
ENDMDL
MODEL       64
REMARK 921   NORMALIZED FREE ENERGY PREDICTED BY IDOCK:   -3.00 KCAL/MOL
REMARK 922        TOTAL FREE ENERGY PREDICTED BY IDOCK:   -3.85 KCAL/MOL
REMARK 923 INTER-LIGAND FREE ENERGY PREDICTED BY IDOCK:   -3.70 KCAL/MOL
REMARK 924 INTRA-LIGAND FREE ENERGY PREDICTED BY IDOCK:   -0.15 KCAL/MOL
REMARK 927      BINDING AFFINITY PREDICTED BY RF-SCORE:    0.00 PKD
ROOT
HETATM    1  N   UNL     1     -10.930  16.247  68.479  1.00  0.00    -0.329 NA 
HETATM    2  C   UNL     1      -9.882  16.656  67.545  1.00  0.00    -0.253 C  
HETATM    3  H1  UNL     1     -10.581  15.510  69.092  1.00  0.00     0.000 HD 
HETATM    4  H2  UNL     1     -11.785  15.970  67.996  1.00  0.00     0.000 HD 
ENDROOT
BRANCH   2   5
HETATM    5  C   UNL     1     -10.405  17.760  66.626  1.00  0.00    -0.345 C  
HETATM    6  O   UNL     1     -10.519  17.619  65.403  1.00  0.00    -0.648 OA 
BRANCH   5   7
HETATM    7  C   UNL     1     -10.611  19.133  67.210  1.00  0.00    -0.573 C  
BRANCH   7   8
HETATM    8  C   UNL     1      -9.544  20.085  66.701  1.00  0.00    -0.548 C  
HETATM    9  C   UNL     1      -8.230  20.161  67.453  1.00  0.00    -0.340 C  
HETATM   10  O   UNL     1      -7.272  20.760  66.978  1.00  0.00    -0.313 OA 
HETATM   11  O   UNL     1      -8.150  19.587  68.664  1.00  0.00    -0.352 OA 
ENDBRANCH   7   8
ENDBRANCH   5   7
ENDBRANCH   2   5
TORSDOF 3
ENDMDL
MODEL       65
REMARK 921   NORMALIZED FREE ENERGY PREDICTED BY IDOCK:   -2.99 KCAL/MOL
REMARK 922        TOTAL FREE ENERGY PREDICTED BY IDOCK:   -3.84 KCAL/MOL
REMARK 923 INTER-LIGAND FREE ENERGY PREDICTED BY IDOCK:   -3.43 KCAL/MOL
REMARK 924 INTRA-LIGAND FREE ENERGY PREDICTED BY IDOCK:   -0.41 KCAL/MOL
REMARK 927      BINDING AFFINITY PREDICTED BY RF-SCORE:    0.00 PKD
ROOT
HETATM    1  N   UNL     1     -12.410  15.088  69.084  1.00  0.00    -0.587 NA 
HETATM    2  C   UNL     1     -11.737  13.791  69.081  1.00  0.00    -0.334 C  
HETATM    3  H1  UNL     1     -12.220  15.577  69.959  1.00  0.00     0.000 HD 
HETATM    4  H2  UNL     1     -13.411  15.000  68.905  1.00  0.00     0.000 HD 
ENDROOT
BRANCH   2   5
HETATM    5  C   UNL     1     -12.023  13.057  67.770  1.00  0.00    -0.295 C  
HETATM    6  O   UNL     1     -11.993  11.826  67.668  1.00  0.00    -0.599 OA 
BRANCH   5   7
HETATM    7  C   UNL     1     -12.161  13.876  66.514  1.00  0.00    -0.482 C  
BRANCH   7   8
HETATM    8  C   UNL     1     -10.801  14.094  65.877  1.00  0.00    -0.294 C  
HETATM    9  C   UNL     1     -10.051  15.371  66.201  1.00  0.00    -0.305 C  
HETATM   10  O   UNL     1      -8.878  15.506  65.873  1.00  0.00    -0.254 OA 
HETATM   11  O   UNL     1     -10.711  16.361  66.822  1.00  0.00    -0.281 OA 
ENDBRANCH   7   8
ENDBRANCH   5   7
ENDBRANCH   2   5
TORSDOF 3
ENDMDL
MODEL       66
REMARK 921   NORMALIZED FREE ENERGY PREDICTED BY IDOCK:   -2.98 KCAL/MOL
REMARK 922        TOTAL FREE ENERGY PREDICTED BY IDOCK:   -3.84 KCAL/MOL
REMARK 923 INTER-LIGAND FREE ENERGY PREDICTED BY IDOCK:   -3.73 KCAL/MOL
REMARK 924 INTRA-LIGAND FREE ENERGY PREDICTED BY IDOCK:   -0.10 KCAL/MOL
REMARK 927      BINDING AFFINITY PREDICTED BY RF-SCORE:    0.00 PKD
ROOT
HETATM    1  N   UNL     1     -12.242   7.990  72.830  1.00  0.00    -0.640 NA 
HETATM    2  C   UNL     1     -13.071   8.588  71.786  1.00  0.00    -0.355 C  
HETATM    3  H1  UNL     1     -12.492   7.009  72.954  1.00  0.00     0.000 HD 
HETATM    4  H2  UNL     1     -12.295   8.511  73.706  1.00  0.00     0.000 HD 
ENDROOT
BRANCH   2   5
HETATM    5  C   UNL     1     -12.697  10.059  71.601  1.00  0.00    -0.435 C  
HETATM    6  O   UNL     1     -13.390  10.988  72.030  1.00  0.00    -0.455 OA 
BRANCH   5   7
HETATM    7  C   UNL     1     -11.538  10.389  70.698  1.00  0.00    -0.440 C  
BRANCH   7   8
HETATM    8  C   UNL     1     -12.027  10.623  69.281  1.00  0.00    -0.269 C  
HETATM    9  C   UNL     1     -11.743  11.965  68.635  1.00  0.00    -0.323 C  
HETATM   10  O   UNL     1     -11.940  12.136  67.437  1.00  0.00    -0.563 OA 
HETATM   11  O   UNL     1     -11.305  12.969  69.410  1.00  0.00    -0.254 OA 
ENDBRANCH   7   8
ENDBRANCH   5   7
ENDBRANCH   2   5
TORSDOF 3
ENDMDL
MODEL       67
REMARK 921   NORMALIZED FREE ENERGY PREDICTED BY IDOCK:   -2.97 KCAL/MOL
REMARK 922        TOTAL FREE ENERGY PREDICTED BY IDOCK:   -3.81 KCAL/MOL
REMARK 923 INTER-LIGAND FREE ENERGY PREDICTED BY IDOCK:   -3.72 KCAL/MOL
REMARK 924 INTRA-LIGAND FREE ENERGY PREDICTED BY IDOCK:   -0.10 KCAL/MOL
REMARK 927      BINDING AFFINITY PREDICTED BY RF-SCORE:    0.00 PKD
ROOT
HETATM    1  N   UNL     1     -14.372   8.866  73.214  1.00  0.00    -1.177 NA 
HETATM    2  C   UNL     1     -13.950   8.599  71.841  1.00  0.00    -0.442 C  
HETATM    3  H1  UNL     1     -15.327   8.536  73.356  1.00  0.00     0.000 HD 
HETATM    4  H2  UNL     1     -14.267   9.850  73.463  1.00  0.00     0.000 HD 
ENDROOT
BRANCH   2   5
HETATM    5  C   UNL     1     -12.520   9.095  71.628  1.00  0.00    -0.359 C  
HETATM    6  O   UNL     1     -12.239  10.288  71.464  1.00  0.00    -0.374 OA 
BRANCH   5   7
HETATM    7  C   UNL     1     -11.436   8.070  71.424  1.00  0.00    -0.293 C  
BRANCH   7   8
HETATM    8  C   UNL     1     -10.104   8.611  71.909  1.00  0.00    -0.398 C  
HETATM    9  C   UNL     1      -8.989   8.790  70.896  1.00  0.00    -0.201 C  
HETATM   10  O   UNL     1      -7.969   9.400  71.192  1.00  0.00    -0.322 OA 
HETATM   11  O   UNL     1      -9.131   8.235  69.683  1.00  0.00    -0.151 OA 
ENDBRANCH   7   8
ENDBRANCH   5   7
ENDBRANCH   2   5
TORSDOF 3
ENDMDL
MODEL       68
REMARK 921   NORMALIZED FREE ENERGY PREDICTED BY IDOCK:   -2.93 KCAL/MOL
REMARK 922        TOTAL FREE ENERGY PREDICTED BY IDOCK:   -3.78 KCAL/MOL
REMARK 923 INTER-LIGAND FREE ENERGY PREDICTED BY IDOCK:   -3.70 KCAL/MOL
REMARK 924 INTRA-LIGAND FREE ENERGY PREDICTED BY IDOCK:   -0.08 KCAL/MOL
REMARK 927      BINDING AFFINITY PREDICTED BY RF-SCORE:    0.00 PKD
ROOT
HETATM    1  N   UNL     1      -9.017   8.850  71.752  1.00  0.00    -0.353 NA 
HETATM    2  C   UNL     1     -10.016   9.354  70.812  1.00  0.00    -0.289 C  
HETATM    3  H1  UNL     1      -8.085   8.925  71.343  1.00  0.00     0.000 HD 
HETATM    4  H2  UNL     1      -9.224   7.899  72.057  1.00  0.00     0.000 HD 
ENDROOT
BRANCH   2   5
HETATM    5  C   UNL     1     -11.412   9.240  71.425  1.00  0.00    -0.369 C  
HETATM    6  O   UNL     1     -11.708   8.390  72.272  1.00  0.00    -0.343 OA 
BRANCH   5   7
HETATM    7  C   UNL     1     -12.517  10.075  70.834  1.00  0.00    -0.431 C  
BRANCH   7   8
HETATM    8  C   UNL     1     -13.243  10.835  71.928  1.00  0.00    -0.524 C  
HETATM    9  C   UNL     1     -13.211  12.350  71.894  1.00  0.00    -0.382 C  
HETATM   10  O   UNL     1     -13.936  13.007  72.633  1.00  0.00    -0.657 OA 
HETATM   11  O   UNL     1     -12.348  12.955  71.064  1.00  0.00    -0.351 OA 
ENDBRANCH   7   8
ENDBRANCH   5   7
ENDBRANCH   2   5
TORSDOF 3
ENDMDL
MODEL       69
REMARK 921   NORMALIZED FREE ENERGY PREDICTED BY IDOCK:   -2.92 KCAL/MOL
REMARK 922        TOTAL FREE ENERGY PREDICTED BY IDOCK:   -3.77 KCAL/MOL
REMARK 923 INTER-LIGAND FREE ENERGY PREDICTED BY IDOCK:   -3.70 KCAL/MOL
REMARK 924 INTRA-LIGAND FREE ENERGY PREDICTED BY IDOCK:   -0.07 KCAL/MOL
REMARK 927      BINDING AFFINITY PREDICTED BY RF-SCORE:    0.00 PKD
ROOT
HETATM    1  N   UNL     1     -11.172  14.486  70.694  1.00  0.00    -0.504 NA 
HETATM    2  C   UNL     1     -12.159  14.218  69.650  1.00  0.00    -0.346 C  
HETATM    3  H1  UNL     1     -11.300  15.430  71.060  1.00  0.00     0.000 HD 
HETATM    4  H2  UNL     1     -10.218  14.328  70.369  1.00  0.00     0.000 HD 
ENDROOT
BRANCH   2   5
HETATM    5  C   UNL     1     -11.967  12.804  69.101  1.00  0.00    -0.246 C  
HETATM    6  O   UNL     1     -12.001  11.795  69.814  1.00  0.00    -0.310 OA 
BRANCH   5   7
HETATM    7  C   UNL     1     -11.534  12.652  67.666  1.00  0.00    -0.390 C  
BRANCH   7   8
HETATM    8  C   UNL     1     -12.150  13.746  66.813  1.00  0.00    -0.460 C  
HETATM    9  C   UNL     1     -12.340  13.481  65.333  1.00  0.00    -0.478 C  
HETATM   10  O   UNL     1     -13.004  14.246  64.642  1.00  0.00    -0.621 OA 
HETATM   11  O   UNL     1     -11.736  12.413  64.790  1.00  0.00    -0.341 OA 
ENDBRANCH   7   8
ENDBRANCH   5   7
ENDBRANCH   2   5
TORSDOF 3
ENDMDL
MODEL       70
REMARK 921   NORMALIZED FREE ENERGY PREDICTED BY IDOCK:   -2.92 KCAL/MOL
REMARK 922        TOTAL FREE ENERGY PREDICTED BY IDOCK:   -3.77 KCAL/MOL
REMARK 923 INTER-LIGAND FREE ENERGY PREDICTED BY IDOCK:   -3.63 KCAL/MOL
REMARK 924 INTRA-LIGAND FREE ENERGY PREDICTED BY IDOCK:   -0.14 KCAL/MOL
REMARK 927      BINDING AFFINITY PREDICTED BY RF-SCORE:    0.00 PKD
ROOT
HETATM    1  N   UNL     1     -10.365  17.826  67.438  1.00  0.00    -0.356 NA 
HETATM    2  C   UNL     1     -10.257  16.808  66.395  1.00  0.00    -0.323 C  
HETATM    3  H1  UNL     1     -10.320  18.756  67.021  1.00  0.00     0.000 HD 
HETATM    4  H2  UNL     1      -9.664  17.701  68.169  1.00  0.00     0.000 HD 
ENDROOT
BRANCH   2   5
HETATM    5  C   UNL     1     -10.323  15.414  67.019  1.00  0.00    -0.280 C  
HETATM    6  O   UNL     1      -9.370  14.626  67.008  1.00  0.00    -0.213 OA 
BRANCH   5   7
HETATM    7  C   UNL     1     -11.659  14.912  67.498  1.00  0.00    -0.355 C  
BRANCH   7   8
HETATM    8  C   UNL     1     -11.916  13.514  66.967  1.00  0.00    -0.440 C  
HETATM    9  C   UNL     1     -12.484  13.369  65.569  1.00  0.00    -0.483 C  
HETATM   10  O   UNL     1     -12.527  12.272  65.023  1.00  0.00    -0.535 OA 
HETATM   11  O   UNL     1     -12.971  14.460  64.958  1.00  0.00    -0.643 OA 
ENDBRANCH   7   8
ENDBRANCH   5   7
ENDBRANCH   2   5
TORSDOF 3
ENDMDL
MODEL       71
REMARK 921   NORMALIZED FREE ENERGY PREDICTED BY IDOCK:   -2.90 KCAL/MOL
REMARK 922        TOTAL FREE ENERGY PREDICTED BY IDOCK:   -3.73 KCAL/MOL
REMARK 923 INTER-LIGAND FREE ENERGY PREDICTED BY IDOCK:   -3.37 KCAL/MOL
REMARK 924 INTRA-LIGAND FREE ENERGY PREDICTED BY IDOCK:   -0.37 KCAL/MOL
REMARK 927      BINDING AFFINITY PREDICTED BY RF-SCORE:    0.00 PKD
ROOT
HETATM    1  N   UNL     1     -11.231   7.169  69.276  1.00  0.00    -0.472 NA 
HETATM    2  C   UNL     1     -11.676   7.207  70.667  1.00  0.00    -0.307 C  
HETATM    3  H1  UNL     1     -11.376   6.235  68.890  1.00  0.00     0.000 HD 
HETATM    4  H2  UNL     1     -10.265   7.479  69.174  1.00  0.00     0.000 HD 
ENDROOT
BRANCH   2   5
HETATM    5  C   UNL     1     -11.459   8.606  71.246  1.00  0.00    -0.283 C  
HETATM    6  O   UNL     1     -12.198   9.101  72.104  1.00  0.00    -0.367 OA 
BRANCH   5   7
HETATM    7  C   UNL     1     -10.415   9.484  70.608  1.00  0.00    -0.374 C  
BRANCH   7   8
HETATM    8  C   UNL     1     -11.069  10.684  69.948  1.00  0.00    -0.364 C  
HETATM    9  C   UNL     1     -11.371  10.613  68.464  1.00  0.00    -0.284 C  
HETATM   10  O   UNL     1     -12.069  11.466  67.927  1.00  0.00    -0.646 OA 
HETATM   11  O   UNL     1     -10.828   9.617  67.747  1.00  0.00    -0.270 OA 
ENDBRANCH   7   8
ENDBRANCH   5   7
ENDBRANCH   2   5
TORSDOF 3
ENDMDL
MODEL       72
REMARK 921   NORMALIZED FREE ENERGY PREDICTED BY IDOCK:   -2.87 KCAL/MOL
REMARK 922        TOTAL FREE ENERGY PREDICTED BY IDOCK:   -3.70 KCAL/MOL
REMARK 923 INTER-LIGAND FREE ENERGY PREDICTED BY IDOCK:   -3.56 KCAL/MOL
REMARK 924 INTRA-LIGAND FREE ENERGY PREDICTED BY IDOCK:   -0.13 KCAL/MOL
REMARK 927      BINDING AFFINITY PREDICTED BY RF-SCORE:    0.00 PKD
ROOT
HETATM    1  N   UNL     1     -12.248  14.349  67.408  1.00  0.00    -0.617 NA 
HETATM    2  C   UNL     1     -11.793  14.370  66.020  1.00  0.00    -0.372 C  
HETATM    3  H1  UNL     1     -12.858  13.546  67.562  1.00  0.00     0.000 HD 
HETATM    4  H2  UNL     1     -12.695  15.226  67.678  1.00  0.00     0.000 HD 
ENDROOT
BRANCH   2   5
HETATM    5  C   UNL     1     -10.879  15.574  65.789  1.00  0.00    -0.331 C  
HETATM    6  O   UNL     1     -10.895  16.240  64.748  1.00  0.00    -0.671 OA 
BRANCH   5   7
HETATM    7  C   UNL     1      -9.788  15.840  66.792  1.00  0.00    -0.256 C  
BRANCH   7   8
HETATM    8  C   UNL     1      -9.620  17.334  67.000  1.00  0.00    -0.262 C  
HETATM    9  C   UNL     1      -9.953  17.913  68.361  1.00  0.00    -0.367 C  
HETATM   10  O   UNL     1      -9.652  19.068  68.639  1.00  0.00    -0.360 OA 
HETATM   11  O   UNL     1     -10.615  17.144  69.239  1.00  0.00    -0.326 OA 
ENDBRANCH   7   8
ENDBRANCH   5   7
ENDBRANCH   2   5
TORSDOF 3
ENDMDL
MODEL       73
REMARK 921   NORMALIZED FREE ENERGY PREDICTED BY IDOCK:   -2.85 KCAL/MOL
REMARK 922        TOTAL FREE ENERGY PREDICTED BY IDOCK:   -3.68 KCAL/MOL
REMARK 923 INTER-LIGAND FREE ENERGY PREDICTED BY IDOCK:   -3.56 KCAL/MOL
REMARK 924 INTRA-LIGAND FREE ENERGY PREDICTED BY IDOCK:   -0.12 KCAL/MOL
REMARK 927      BINDING AFFINITY PREDICTED BY RF-SCORE:    0.00 PKD
ROOT
HETATM    1  N   UNL     1      -8.959   9.780  65.312  1.00  0.00    -0.178 NA 
HETATM    2  C   UNL     1      -9.299  11.187  65.511  1.00  0.00    -0.223 C  
HETATM    3  H1  UNL     1      -8.008   9.602  65.637  1.00  0.00     0.000 HD 
HETATM    4  H2  UNL     1      -9.093   9.487  64.344  1.00  0.00     0.000 HD 
ENDROOT
BRANCH   2   5
HETATM    5  C   UNL     1     -10.723  11.454  65.023  1.00  0.00    -0.277 C  
HETATM    6  O   UNL     1     -11.097  11.207  63.871  1.00  0.00    -0.335 OA 
BRANCH   5   7
HETATM    7  C   UNL     1     -11.651  12.221  65.928  1.00  0.00    -0.450 C  
BRANCH   7   8
HETATM    8  C   UNL     1     -12.558  13.120  65.108  1.00  0.00    -0.525 C  
HETATM    9  C   UNL     1     -12.045  14.490  64.711  1.00  0.00    -0.445 C  
HETATM   10  O   UNL     1     -12.652  15.171  63.893  1.00  0.00    -0.794 OA 
HETATM   11  O   UNL     1     -10.931  14.953  65.300  1.00  0.00    -0.335 OA 
ENDBRANCH   7   8
ENDBRANCH   5   7
ENDBRANCH   2   5
TORSDOF 3
ENDMDL
MODEL       74
REMARK 921   NORMALIZED FREE ENERGY PREDICTED BY IDOCK:   -2.85 KCAL/MOL
REMARK 922        TOTAL FREE ENERGY PREDICTED BY IDOCK:   -3.68 KCAL/MOL
REMARK 923 INTER-LIGAND FREE ENERGY PREDICTED BY IDOCK:   -3.60 KCAL/MOL
REMARK 924 INTRA-LIGAND FREE ENERGY PREDICTED BY IDOCK:   -0.08 KCAL/MOL
REMARK 927      BINDING AFFINITY PREDICTED BY RF-SCORE:    0.00 PKD
ROOT
HETATM    1  N   UNL     1     -11.820  10.894  67.860  1.00  0.00    -0.735 NA 
HETATM    2  C   UNL     1     -11.480  12.065  67.055  1.00  0.00    -0.338 C  
HETATM    3  H1  UNL     1     -11.629  10.042  67.333  1.00  0.00     0.000 HD 
HETATM    4  H2  UNL     1     -12.782  10.927  68.198  1.00  0.00     0.000 HD 
ENDROOT
BRANCH   2   5
HETATM    5  C   UNL     1     -11.767  13.342  67.845  1.00  0.00    -0.361 C  
HETATM    6  O   UNL     1     -12.082  14.410  67.307  1.00  0.00    -0.406 OA 
BRANCH   5   7
HETATM    7  C   UNL     1     -11.470  13.345  69.322  1.00  0.00    -0.345 C  
BRANCH   7   8
HETATM    8  C   UNL     1     -11.537  14.760  69.867  1.00  0.00    -0.330 C  
HETATM    9  C   UNL     1     -12.267  14.992  71.175  1.00  0.00    -0.320 C  
HETATM   10  O   UNL     1     -12.184  16.070  71.754  1.00  0.00    -0.446 OA 
HETATM   11  O   UNL     1     -13.033  14.005  71.665  1.00  0.00    -0.320 OA 
ENDBRANCH   7   8
ENDBRANCH   5   7
ENDBRANCH   2   5
TORSDOF 3
ENDMDL
MODEL       75
REMARK 921   NORMALIZED FREE ENERGY PREDICTED BY IDOCK:   -2.85 KCAL/MOL
REMARK 922        TOTAL FREE ENERGY PREDICTED BY IDOCK:   -3.68 KCAL/MOL
REMARK 923 INTER-LIGAND FREE ENERGY PREDICTED BY IDOCK:   -3.57 KCAL/MOL
REMARK 924 INTRA-LIGAND FREE ENERGY PREDICTED BY IDOCK:   -0.11 KCAL/MOL
REMARK 927      BINDING AFFINITY PREDICTED BY RF-SCORE:    0.00 PKD
ROOT
HETATM    1  N   UNL     1     -12.580  10.040  70.332  1.00  0.00    -0.520 NA 
HETATM    2  C   UNL     1     -12.015  11.387  70.308  1.00  0.00    -0.373 C  
HETATM    3  H1  UNL     1     -12.718   9.737  71.297  1.00  0.00     0.000 HD 
HETATM    4  H2  UNL     1     -12.014   9.378  69.801  1.00  0.00     0.000 HD 
ENDROOT
BRANCH   2   5
HETATM    5  C   UNL     1     -11.807  11.840  68.863  1.00  0.00    -0.320 C  
HETATM    6  O   UNL     1     -11.985  11.095  67.892  1.00  0.00    -0.624 OA 
BRANCH   5   7
HETATM    7  C   UNL     1     -11.181  13.189  68.625  1.00  0.00    -0.314 C  
BRANCH   7   8
HETATM    8  C   UNL     1     -11.997  13.976  67.617  1.00  0.00    -0.404 C  
HETATM    9  C   UNL     1     -11.496  14.052  66.188  1.00  0.00    -0.346 C  
HETATM   10  O   UNL     1     -12.209  14.504  65.299  1.00  0.00    -0.374 OA 
HETATM   11  O   UNL     1     -10.244  13.646  65.925  1.00  0.00    -0.296 OA 
ENDBRANCH   7   8
ENDBRANCH   5   7
ENDBRANCH   2   5
TORSDOF 3
ENDMDL
MODEL       76
REMARK 921   NORMALIZED FREE ENERGY PREDICTED BY IDOCK:   -2.83 KCAL/MOL
REMARK 922        TOTAL FREE ENERGY PREDICTED BY IDOCK:   -3.66 KCAL/MOL
REMARK 923 INTER-LIGAND FREE ENERGY PREDICTED BY IDOCK:   -3.60 KCAL/MOL
REMARK 924 INTRA-LIGAND FREE ENERGY PREDICTED BY IDOCK:   -0.06 KCAL/MOL
REMARK 927      BINDING AFFINITY PREDICTED BY RF-SCORE:    0.00 PKD
ROOT
HETATM    1  N   UNL     1      -9.764  13.252  66.198  1.00  0.00    -0.366 NA 
HETATM    2  C   UNL     1     -10.875  13.705  67.032  1.00  0.00    -0.286 C  
HETATM    3  H1  UNL     1      -9.363  14.042  65.692  1.00  0.00     0.000 HD 
HETATM    4  H2  UNL     1     -10.039  12.496  65.571  1.00  0.00     0.000 HD 
ENDROOT
BRANCH   2   5
HETATM    5  C   UNL     1     -11.475  12.520  67.790  1.00  0.00    -0.321 C  
HETATM    6  O   UNL     1     -11.945  11.527  67.222  1.00  0.00    -0.605 OA 
BRANCH   5   7
HETATM    7  C   UNL     1     -11.671  12.654  69.277  1.00  0.00    -0.379 C  
BRANCH   7   8
HETATM    8  C   UNL     1     -11.927  11.293  69.897  1.00  0.00    -0.440 C  
HETATM    9  C   UNL     1     -12.771  11.223  71.155  1.00  0.00    -0.390 C  
HETATM   10  O   UNL     1     -13.168  10.145  71.581  1.00  0.00    -0.393 OA 
HETATM   11  O   UNL     1     -13.043  12.363  71.808  1.00  0.00    -0.416 OA 
ENDBRANCH   7   8
ENDBRANCH   5   7
ENDBRANCH   2   5
TORSDOF 3
ENDMDL
MODEL       77
REMARK 921   NORMALIZED FREE ENERGY PREDICTED BY IDOCK:   -2.83 KCAL/MOL
REMARK 922        TOTAL FREE ENERGY PREDICTED BY IDOCK:   -3.65 KCAL/MOL
REMARK 923 INTER-LIGAND FREE ENERGY PREDICTED BY IDOCK:   -3.49 KCAL/MOL
REMARK 924 INTRA-LIGAND FREE ENERGY PREDICTED BY IDOCK:   -0.16 KCAL/MOL
REMARK 927      BINDING AFFINITY PREDICTED BY RF-SCORE:    0.00 PKD
ROOT
HETATM    1  N   UNL     1     -11.812  11.412  67.569  1.00  0.00    -0.627 NA 
HETATM    2  C   UNL     1     -11.568  12.096  66.301  1.00  0.00    -0.360 C  
HETATM    3  H1  UNL     1     -11.319  10.520  67.585  1.00  0.00     0.000 HD 
HETATM    4  H2  UNL     1     -12.809  11.302  67.759  1.00  0.00     0.000 HD 
ENDROOT
BRANCH   2   5
HETATM    5  C   UNL     1     -12.308  13.433  66.278  1.00  0.00    -0.349 C  
HETATM    6  O   UNL     1     -13.103  13.746  65.385  1.00  0.00    -0.727 OA 
BRANCH   5   7
HETATM    7  C   UNL     1     -11.909  14.483  67.281  1.00  0.00    -0.419 C  
BRANCH   7   8
HETATM    8  C   UNL     1     -10.858  15.403  66.688  1.00  0.00    -0.302 C  
HETATM    9  C   UNL     1      -9.398  15.044  66.879  1.00  0.00    -0.241 C  
HETATM   10  O   UNL     1      -8.522  15.639  66.261  1.00  0.00    -0.286 OA 
HETATM   11  O   UNL     1      -9.084  14.086  67.765  1.00  0.00    -0.177 OA 
ENDBRANCH   7   8
ENDBRANCH   5   7
ENDBRANCH   2   5
TORSDOF 3
ENDMDL
MODEL       78
REMARK 921   NORMALIZED FREE ENERGY PREDICTED BY IDOCK:   -2.82 KCAL/MOL
REMARK 922        TOTAL FREE ENERGY PREDICTED BY IDOCK:   -3.64 KCAL/MOL
REMARK 923 INTER-LIGAND FREE ENERGY PREDICTED BY IDOCK:   -3.59 KCAL/MOL
REMARK 924 INTRA-LIGAND FREE ENERGY PREDICTED BY IDOCK:   -0.05 KCAL/MOL
REMARK 927      BINDING AFFINITY PREDICTED BY RF-SCORE:    0.00 PKD
ROOT
HETATM    1  N   UNL     1      -9.504   9.672  70.962  1.00  0.00    -0.324 NA 
HETATM    2  C   UNL     1     -10.959   9.550  71.028  1.00  0.00    -0.353 C  
HETATM    3  H1  UNL     1      -9.067   8.858  71.395  1.00  0.00     0.000 HD 
HETATM    4  H2  UNL     1      -9.175  10.546  71.370  1.00  0.00     0.000 HD 
ENDROOT
BRANCH   2   5
HETATM    5  C   UNL     1     -11.615  10.769  70.379  1.00  0.00    -0.339 C  
HETATM    6  O   UNL     1     -11.226  11.253  69.310  1.00  0.00    -0.232 OA 
BRANCH   5   7
HETATM    7  C   UNL     1     -12.654  11.521  71.169  1.00  0.00    -0.463 C  
BRANCH   7   8
HETATM    8  C   UNL     1     -12.498  13.015  70.952  1.00  0.00    -0.396 C  
HETATM    9  C   UNL     1     -13.290  13.956  71.838  1.00  0.00    -0.412 C  
HETATM   10  O   UNL     1     -13.056  15.159  71.837  1.00  0.00    -0.321 OA 
HETATM   11  O   UNL     1     -14.275  13.447  72.594  1.00  0.00    -0.747 OA 
ENDBRANCH   7   8
ENDBRANCH   5   7
ENDBRANCH   2   5
TORSDOF 3
ENDMDL
MODEL       79
REMARK 921   NORMALIZED FREE ENERGY PREDICTED BY IDOCK:   -2.81 KCAL/MOL
REMARK 922        TOTAL FREE ENERGY PREDICTED BY IDOCK:   -3.63 KCAL/MOL
REMARK 923 INTER-LIGAND FREE ENERGY PREDICTED BY IDOCK:   -3.51 KCAL/MOL
REMARK 924 INTRA-LIGAND FREE ENERGY PREDICTED BY IDOCK:   -0.12 KCAL/MOL
REMARK 927      BINDING AFFINITY PREDICTED BY RF-SCORE:    0.00 PKD
ROOT
HETATM    1  N   UNL     1      -6.921  16.006  67.204  1.00  0.00    -0.208 NA 
HETATM    2  C   UNL     1      -7.750  16.893  66.391  1.00  0.00    -0.310 C  
HETATM    3  H1  UNL     1      -6.241  15.527  66.613  1.00  0.00     0.000 HD 
HETATM    4  H2  UNL     1      -7.482  15.351  67.750  1.00  0.00     0.000 HD 
ENDROOT
BRANCH   2   5
HETATM    5  C   UNL     1      -8.770  17.610  67.276  1.00  0.00    -0.235 C  
HETATM    6  O   UNL     1      -8.471  18.143  68.351  1.00  0.00    -0.287 OA 
BRANCH   5   7
HETATM    7  C   UNL     1     -10.227  17.500  66.913  1.00  0.00    -0.329 C  
BRANCH   7   8
HETATM    8  C   UNL     1     -10.582  16.058  66.599  1.00  0.00    -0.297 C  
HETATM    9  C   UNL     1     -11.019  15.716  65.188  1.00  0.00    -0.398 C  
HETATM   10  O   UNL     1     -11.127  14.548  64.834  1.00  0.00    -0.357 OA 
HETATM   11  O   UNL     1     -11.318  16.720  64.349  1.00  0.00    -1.089 OA 
ENDBRANCH   7   8
ENDBRANCH   5   7
ENDBRANCH   2   5
TORSDOF 3
ENDMDL
MODEL       80
REMARK 921   NORMALIZED FREE ENERGY PREDICTED BY IDOCK:   -2.78 KCAL/MOL
REMARK 922        TOTAL FREE ENERGY PREDICTED BY IDOCK:   -3.60 KCAL/MOL
REMARK 923 INTER-LIGAND FREE ENERGY PREDICTED BY IDOCK:   -3.23 KCAL/MOL
REMARK 924 INTRA-LIGAND FREE ENERGY PREDICTED BY IDOCK:   -0.37 KCAL/MOL
REMARK 927      BINDING AFFINITY PREDICTED BY RF-SCORE:    0.00 PKD
ROOT
HETATM    1  N   UNL     1     -11.098   9.121  67.899  1.00  0.00    -0.489 NA 
HETATM    2  C   UNL     1     -10.977  10.390  67.185  1.00  0.00    -0.196 C  
HETATM    3  H1  UNL     1     -10.773   8.356  67.307  1.00  0.00     0.000 HD 
HETATM    4  H2  UNL     1     -12.046   8.963  68.241  1.00  0.00     0.000 HD 
ENDROOT
BRANCH   2   5
HETATM    5  C   UNL     1     -11.465  11.536  68.071  1.00  0.00    -0.311 C  
HETATM    6  O   UNL     1     -12.049  12.530  67.625  1.00  0.00    -0.436 OA 
BRANCH   5   7
HETATM    7  C   UNL     1     -11.050  11.540  69.519  1.00  0.00    -0.256 C  
BRANCH   7   8
HETATM    8  C   UNL     1     -12.268  11.405  70.414  1.00  0.00    -0.450 C  
HETATM    9  C   UNL     1     -12.494  10.085  71.124  1.00  0.00    -0.379 C  
HETATM   10  O   UNL     1     -13.344   9.986  72.002  1.00  0.00    -0.429 OA 
HETATM   11  O   UNL     1     -11.769   9.021  70.746  1.00  0.00    -0.281 OA 
ENDBRANCH   7   8
ENDBRANCH   5   7
ENDBRANCH   2   5
TORSDOF 3
ENDMDL
MODEL       81
REMARK 921   NORMALIZED FREE ENERGY PREDICTED BY IDOCK:   -2.78 KCAL/MOL
REMARK 922        TOTAL FREE ENERGY PREDICTED BY IDOCK:   -3.60 KCAL/MOL
REMARK 923 INTER-LIGAND FREE ENERGY PREDICTED BY IDOCK:   -3.54 KCAL/MOL
REMARK 924 INTRA-LIGAND FREE ENERGY PREDICTED BY IDOCK:   -0.06 KCAL/MOL
REMARK 927      BINDING AFFINITY PREDICTED BY RF-SCORE:    0.00 PKD
ROOT
HETATM    1  N   UNL     1      -9.473  10.207  65.968  1.00  0.00    -0.184 NA 
HETATM    2  C   UNL     1     -10.515  10.961  65.273  1.00  0.00    -0.230 C  
HETATM    3  H1  UNL     1      -8.953   9.636  65.301  1.00  0.00     0.000 HD 
HETATM    4  H2  UNL     1      -9.851   9.650  66.735  1.00  0.00     0.000 HD 
ENDROOT
BRANCH   2   5
HETATM    5  C   UNL     1     -11.295  11.815  66.272  1.00  0.00    -0.287 C  
HETATM    6  O   UNL     1     -11.601  11.418  67.402  1.00  0.00    -0.509 OA 
BRANCH   5   7
HETATM    7  C   UNL     1     -11.874  13.120  65.791  1.00  0.00    -0.442 C  
BRANCH   7   8
HETATM    8  C   UNL     1     -10.791  14.180  65.720  1.00  0.00    -0.297 C  
HETATM    9  C   UNL     1     -11.037  15.402  64.858  1.00  0.00    -0.423 C  
HETATM   10  O   UNL     1     -10.287  16.370  64.918  1.00  0.00    -0.590 OA 
HETATM   11  O   UNL     1     -12.072  15.386  64.003  1.00  0.00    -0.574 OA 
ENDBRANCH   7   8
ENDBRANCH   5   7
ENDBRANCH   2   5
TORSDOF 3
ENDMDL
MODEL       82
REMARK 921   NORMALIZED FREE ENERGY PREDICTED BY IDOCK:   -2.78 KCAL/MOL
REMARK 922        TOTAL FREE ENERGY PREDICTED BY IDOCK:   -3.59 KCAL/MOL
REMARK 923 INTER-LIGAND FREE ENERGY PREDICTED BY IDOCK:   -3.47 KCAL/MOL
REMARK 924 INTRA-LIGAND FREE ENERGY PREDICTED BY IDOCK:   -0.12 KCAL/MOL
REMARK 927      BINDING AFFINITY PREDICTED BY RF-SCORE:    0.00 PKD
ROOT
HETATM    1  N   UNL     1     -13.757  13.708  72.804  1.00  0.00    -0.695 NA 
HETATM    2  C   UNL     1     -13.216  13.425  71.477  1.00  0.00    -0.312 C  
HETATM    3  H1  UNL     1     -14.103  12.847  73.230  1.00  0.00     0.000 HD 
HETATM    4  H2  UNL     1     -14.472  14.435  72.779  1.00  0.00     0.000 HD 
ENDROOT
BRANCH   2   5
HETATM    5  C   UNL     1     -12.699  14.714  70.839  1.00  0.00    -0.348 C  
HETATM    6  O   UNL     1     -13.335  15.774  70.854  1.00  0.00    -0.576 OA 
BRANCH   5   7
HETATM    7  C   UNL     1     -11.452  14.639  69.997  1.00  0.00    -0.313 C  
BRANCH   7   8
HETATM    8  C   UNL     1     -11.673  15.338  68.668  1.00  0.00    -0.367 C  
HETATM    9  C   UNL     1     -10.856  16.578  68.363  1.00  0.00    -0.348 C  
HETATM   10  O   UNL     1     -10.853  17.062  67.237  1.00  0.00    -0.252 OA 
HETATM   11  O   UNL     1     -10.166  17.152  69.360  1.00  0.00    -0.262 OA 
ENDBRANCH   7   8
ENDBRANCH   5   7
ENDBRANCH   2   5
TORSDOF 3
ENDMDL
MODEL       83
REMARK 921   NORMALIZED FREE ENERGY PREDICTED BY IDOCK:   -2.77 KCAL/MOL
REMARK 922        TOTAL FREE ENERGY PREDICTED BY IDOCK:   -3.59 KCAL/MOL
REMARK 923 INTER-LIGAND FREE ENERGY PREDICTED BY IDOCK:   -3.22 KCAL/MOL
REMARK 924 INTRA-LIGAND FREE ENERGY PREDICTED BY IDOCK:   -0.37 KCAL/MOL
REMARK 927      BINDING AFFINITY PREDICTED BY RF-SCORE:    0.00 PKD
ROOT
HETATM    1  N   UNL     1     -11.029  15.790  68.365  1.00  0.00    -0.306 NA 
HETATM    2  C   UNL     1     -10.550  16.682  67.312  1.00  0.00    -0.281 C  
HETATM    3  H1  UNL     1     -11.152  16.311  69.234  1.00  0.00     0.000 HD 
HETATM    4  H2  UNL     1     -10.419  14.981  68.489  1.00  0.00     0.000 HD 
ENDROOT
BRANCH   2   5
HETATM    5  C   UNL     1     -10.364  15.901  66.011  1.00  0.00    -0.348 C  
HETATM    6  O   UNL     1     -10.906  16.225  64.948  1.00  0.00    -0.625 OA 
BRANCH   5   7
HETATM    7  C   UNL     1      -9.644  14.579  66.073  1.00  0.00    -0.305 C  
BRANCH   7   8
HETATM    8  C   UNL     1     -10.546  13.466  65.573  1.00  0.00    -0.294 C  
HETATM    9  C   UNL     1     -11.473  12.793  66.566  1.00  0.00    -0.355 C  
HETATM   10  O   UNL     1     -12.353  12.031  66.180  1.00  0.00    -0.449 OA 
HETATM   11  O   UNL     1     -11.287  13.022  67.875  1.00  0.00    -0.255 OA 
ENDBRANCH   7   8
ENDBRANCH   5   7
ENDBRANCH   2   5
TORSDOF 3
ENDMDL
MODEL       84
REMARK 921   NORMALIZED FREE ENERGY PREDICTED BY IDOCK:   -2.76 KCAL/MOL
REMARK 922        TOTAL FREE ENERGY PREDICTED BY IDOCK:   -3.57 KCAL/MOL
REMARK 923 INTER-LIGAND FREE ENERGY PREDICTED BY IDOCK:   -3.52 KCAL/MOL
REMARK 924 INTRA-LIGAND FREE ENERGY PREDICTED BY IDOCK:   -0.05 KCAL/MOL
REMARK 927      BINDING AFFINITY PREDICTED BY RF-SCORE:    0.00 PKD
ROOT
HETATM    1  N   UNL     1      -9.551  11.279  66.530  1.00  0.00    -0.187 NA 
HETATM    2  C   UNL     1     -10.337  12.294  65.832  1.00  0.00    -0.252 C  
HETATM    3  H1  UNL     1      -9.221  10.577  65.867  1.00  0.00     0.000 HD 
HETATM    4  H2  UNL     1     -10.067  10.861  67.304  1.00  0.00     0.000 HD 
ENDROOT
BRANCH   2   5
HETATM    5  C   UNL     1     -10.831  13.345  66.825  1.00  0.00    -0.282 C  
HETATM    6  O   UNL     1     -10.894  13.143  68.043  1.00  0.00    -0.230 OA 
BRANCH   5   7
HETATM    7  C   UNL     1     -11.442  14.608  66.277  1.00  0.00    -0.351 C  
BRANCH   7   8
HETATM    8  C   UNL     1     -10.501  15.780  66.488  1.00  0.00    -0.304 C  
HETATM    9  C   UNL     1     -10.529  16.913  65.481  1.00  0.00    -0.204 C  
HETATM   10  O   UNL     1      -9.937  17.963  65.706  1.00  0.00    -0.551 OA 
HETATM   11  O   UNL     1     -11.185  16.728  64.325  1.00  0.00    -1.163 OA 
ENDBRANCH   7   8
ENDBRANCH   5   7
ENDBRANCH   2   5
TORSDOF 3
ENDMDL
MODEL       85
REMARK 921   NORMALIZED FREE ENERGY PREDICTED BY IDOCK:   -2.76 KCAL/MOL
REMARK 922        TOTAL FREE ENERGY PREDICTED BY IDOCK:   -3.57 KCAL/MOL
REMARK 923 INTER-LIGAND FREE ENERGY PREDICTED BY IDOCK:   -3.48 KCAL/MOL
REMARK 924 INTRA-LIGAND FREE ENERGY PREDICTED BY IDOCK:   -0.09 KCAL/MOL
REMARK 927      BINDING AFFINITY PREDICTED BY RF-SCORE:    0.00 PKD
ROOT
HETATM    1  N   UNL     1      -9.343  13.658  66.145  1.00  0.00    -0.484 NA 
HETATM    2  C   UNL     1     -10.488  14.565  66.095  1.00  0.00    -0.298 C  
HETATM    3  H1  UNL     1      -9.654  12.718  66.390  1.00  0.00     0.000 HD 
HETATM    4  H2  UNL     1      -8.614  13.996  66.774  1.00  0.00     0.000 HD 
ENDROOT
BRANCH   2   5
HETATM    5  C   UNL     1     -10.022  15.974  65.728  1.00  0.00    -0.351 C  
HETATM    6  O   UNL     1     -10.680  16.735  65.009  1.00  0.00    -0.692 OA 
BRANCH   5   7
HETATM    7  C   UNL     1      -8.621  16.379  66.104  1.00  0.00    -0.343 C  
BRANCH   7   8
HETATM    8  C   UNL     1      -8.639  17.697  66.855  1.00  0.00    -0.260 C  
HETATM    9  C   UNL     1      -7.800  18.841  66.321  1.00  0.00    -0.272 C  
HETATM   10  O   UNL     1      -7.929  19.973  66.772  1.00  0.00    -0.292 OA 
HETATM   11  O   UNL     1      -6.890  18.578  65.370  1.00  0.00    -0.485 OA 
ENDBRANCH   7   8
ENDBRANCH   5   7
ENDBRANCH   2   5
TORSDOF 3
ENDMDL
MODEL       86
REMARK 921   NORMALIZED FREE ENERGY PREDICTED BY IDOCK:   -2.75 KCAL/MOL
REMARK 922        TOTAL FREE ENERGY PREDICTED BY IDOCK:   -3.56 KCAL/MOL
REMARK 923 INTER-LIGAND FREE ENERGY PREDICTED BY IDOCK:   -3.42 KCAL/MOL
REMARK 924 INTRA-LIGAND FREE ENERGY PREDICTED BY IDOCK:   -0.14 KCAL/MOL
REMARK 927      BINDING AFFINITY PREDICTED BY RF-SCORE:    0.00 PKD
ROOT
HETATM    1  N   UNL     1     -14.192   8.849  73.045  1.00  0.00    -1.158 NA 
HETATM    2  C   UNL     1     -13.721   8.162  71.844  1.00  0.00    -0.344 C  
HETATM    3  H1  UNL     1     -15.209   8.920  73.029  1.00  0.00     0.000 HD 
HETATM    4  H2  UNL     1     -13.746   9.759  73.164  1.00  0.00     0.000 HD 
ENDROOT
BRANCH   2   5
HETATM    5  C   UNL     1     -12.196   8.055  71.867  1.00  0.00    -0.319 C  
HETATM    6  O   UNL     1     -11.523   8.259  72.884  1.00  0.00    -0.347 OA 
BRANCH   5   7
HETATM    7  C   UNL     1     -11.476   7.879  70.556  1.00  0.00    -0.204 C  
BRANCH   7   8
HETATM    8  C   UNL     1     -11.409   6.409  70.188  1.00  0.00    -0.485 C  
HETATM    9  C   UNL     1     -10.246   5.589  70.711  1.00  0.00    -0.235 C  
HETATM   10  O   UNL     1     -10.246   4.368  70.608  1.00  0.00    -0.178 OA 
HETATM   11  O   UNL     1      -9.202   6.233  71.256  1.00  0.00    -0.152 OA 
ENDBRANCH   7   8
ENDBRANCH   5   7
ENDBRANCH   2   5
TORSDOF 3
ENDMDL
MODEL       87
REMARK 921   NORMALIZED FREE ENERGY PREDICTED BY IDOCK:   -2.75 KCAL/MOL
REMARK 922        TOTAL FREE ENERGY PREDICTED BY IDOCK:   -3.56 KCAL/MOL
REMARK 923 INTER-LIGAND FREE ENERGY PREDICTED BY IDOCK:   -3.25 KCAL/MOL
REMARK 924 INTRA-LIGAND FREE ENERGY PREDICTED BY IDOCK:   -0.30 KCAL/MOL
REMARK 927      BINDING AFFINITY PREDICTED BY RF-SCORE:    0.00 PKD
ROOT
HETATM    1  N   UNL     1     -14.218   7.602  71.869  1.00  0.00    -0.552 NA 
HETATM    2  C   UNL     1     -13.853   8.960  72.267  1.00  0.00    -0.474 C  
HETATM    3  H1  UNL     1     -14.913   7.226  72.514  1.00  0.00     0.000 HD 
HETATM    4  H2  UNL     1     -13.402   6.995  71.789  1.00  0.00     0.000 HD 
ENDROOT
BRANCH   2   5
HETATM    5  C   UNL     1     -12.812   9.525  71.301  1.00  0.00    -0.333 C  
HETATM    6  O   UNL     1     -12.963  10.593  70.697  1.00  0.00    -0.345 OA 
BRANCH   5   7
HETATM    7  C   UNL     1     -11.641   8.653  70.930  1.00  0.00    -0.307 C  
BRANCH   7   8
HETATM    8  C   UNL     1     -10.500   8.861  71.909  1.00  0.00    -0.415 C  
HETATM    9  C   UNL     1     -10.291   7.829  73.000  1.00  0.00    -0.347 C  
HETATM   10  O   UNL     1      -9.277   7.846  73.688  1.00  0.00    -0.274 OA 
HETATM   11  O   UNL     1     -11.256   6.922  73.216  1.00  0.00    -0.205 OA 
ENDBRANCH   7   8
ENDBRANCH   5   7
ENDBRANCH   2   5
TORSDOF 3
ENDMDL
MODEL       88
REMARK 921   NORMALIZED FREE ENERGY PREDICTED BY IDOCK:   -2.74 KCAL/MOL
REMARK 922        TOTAL FREE ENERGY PREDICTED BY IDOCK:   -3.55 KCAL/MOL
REMARK 923 INTER-LIGAND FREE ENERGY PREDICTED BY IDOCK:   -3.39 KCAL/MOL
REMARK 924 INTRA-LIGAND FREE ENERGY PREDICTED BY IDOCK:   -0.16 KCAL/MOL
REMARK 927      BINDING AFFINITY PREDICTED BY RF-SCORE:    0.00 PKD
ROOT
HETATM    1  N   UNL     1     -12.338   6.035  72.506  1.00  0.00    -0.527 NA 
HETATM    2  C   UNL     1     -11.017   6.654  72.422  1.00  0.00    -0.244 C  
HETATM    3  H1  UNL     1     -12.258   5.093  72.888  1.00  0.00     0.000 HD 
HETATM    4  H2  UNL     1     -12.822   6.044  71.608  1.00  0.00     0.000 HD 
ENDROOT
BRANCH   2   5
HETATM    5  C   UNL     1     -11.137   8.066  71.849  1.00  0.00    -0.276 C  
HETATM    6  O   UNL     1     -10.229   8.901  71.924  1.00  0.00    -0.324 OA 
BRANCH   5   7
HETATM    7  C   UNL     1     -12.482   8.514  71.342  1.00  0.00    -0.327 C  
BRANCH   7   8
HETATM    8  C   UNL     1     -13.006   9.661  72.186  1.00  0.00    -0.493 C  
HETATM    9  C   UNL     1     -12.974  11.058  71.600  1.00  0.00    -0.456 C  
HETATM   10  O   UNL     1     -13.559  11.982  72.155  1.00  0.00    -0.406 OA 
HETATM   11  O   UNL     1     -12.264  11.268  70.481  1.00  0.00    -0.337 OA 
ENDBRANCH   7   8
ENDBRANCH   5   7
ENDBRANCH   2   5
TORSDOF 3
ENDMDL
MODEL       89
REMARK 921   NORMALIZED FREE ENERGY PREDICTED BY IDOCK:   -2.74 KCAL/MOL
REMARK 922        TOTAL FREE ENERGY PREDICTED BY IDOCK:   -3.55 KCAL/MOL
REMARK 923 INTER-LIGAND FREE ENERGY PREDICTED BY IDOCK:   -3.46 KCAL/MOL
REMARK 924 INTRA-LIGAND FREE ENERGY PREDICTED BY IDOCK:   -0.09 KCAL/MOL
REMARK 927      BINDING AFFINITY PREDICTED BY RF-SCORE:    0.00 PKD
ROOT
HETATM    1  N   UNL     1     -13.255  13.975  65.165  1.00  0.00    -0.680 NA 
HETATM    2  C   UNL     1     -12.264  12.952  65.489  1.00  0.00    -0.474 C  
HETATM    3  H1  UNL     1     -13.424  13.990  64.159  1.00  0.00     0.000 HD 
HETATM    4  H2  UNL     1     -12.987  14.893  65.520  1.00  0.00     0.000 HD 
ENDROOT
BRANCH   2   5
HETATM    5  C   UNL     1     -12.009  12.931  66.997  1.00  0.00    -0.325 C  
HETATM    6  O   UNL     1     -11.958  11.886  67.656  1.00  0.00    -0.575 OA 
BRANCH   5   7
HETATM    7  C   UNL     1     -12.009  14.243  67.735  1.00  0.00    -0.384 C  
BRANCH   7   8
HETATM    8  C   UNL     1     -10.594  14.783  67.845  1.00  0.00    -0.248 C  
HETATM    9  C   UNL     1     -10.096  15.220  69.209  1.00  0.00    -0.252 C  
HETATM   10  O   UNL     1      -8.911  15.476  69.388  1.00  0.00    -0.257 OA 
HETATM   11  O   UNL     1     -10.987  15.354  70.203  1.00  0.00    -0.266 OA 
ENDBRANCH   7   8
ENDBRANCH   5   7
ENDBRANCH   2   5
TORSDOF 3
ENDMDL
MODEL       90
REMARK 921   NORMALIZED FREE ENERGY PREDICTED BY IDOCK:   -2.73 KCAL/MOL
REMARK 922        TOTAL FREE ENERGY PREDICTED BY IDOCK:   -3.54 KCAL/MOL
REMARK 923 INTER-LIGAND FREE ENERGY PREDICTED BY IDOCK:   -3.48 KCAL/MOL
REMARK 924 INTRA-LIGAND FREE ENERGY PREDICTED BY IDOCK:   -0.06 KCAL/MOL
REMARK 927      BINDING AFFINITY PREDICTED BY RF-SCORE:    0.00 PKD
ROOT
HETATM    1  N   UNL     1     -11.244  15.166  64.257  1.00  0.00    -0.664 NA 
HETATM    2  C   UNL     1     -10.771  15.796  65.488  1.00  0.00    -0.383 C  
HETATM    3  H1  UNL     1     -11.595  15.876  63.614  1.00  0.00     0.000 HD 
HETATM    4  H2  UNL     1     -11.938  14.440  64.441  1.00  0.00     0.000 HD 
ENDROOT
BRANCH   2   5
HETATM    5  C   UNL     1     -10.246  14.732  66.451  1.00  0.00    -0.291 C  
HETATM    6  O   UNL     1      -9.065  14.673  66.811  1.00  0.00    -0.241 OA 
BRANCH   5   7
HETATM    7  C   UNL     1     -11.165  13.600  66.828  1.00  0.00    -0.327 C  
BRANCH   7   8
HETATM    8  C   UNL     1     -11.596  13.733  68.277  1.00  0.00    -0.373 C  
HETATM    9  C   UNL     1     -11.892  12.469  69.058  1.00  0.00    -0.296 C  
HETATM   10  O   UNL     1     -12.052  12.508  70.273  1.00  0.00    -0.349 OA 
HETATM   11  O   UNL     1     -12.010  11.313  68.386  1.00  0.00    -0.555 OA 
ENDBRANCH   7   8
ENDBRANCH   5   7
ENDBRANCH   2   5
TORSDOF 3
ENDMDL
MODEL       91
REMARK 921   NORMALIZED FREE ENERGY PREDICTED BY IDOCK:   -2.73 KCAL/MOL
REMARK 922        TOTAL FREE ENERGY PREDICTED BY IDOCK:   -3.53 KCAL/MOL
REMARK 923 INTER-LIGAND FREE ENERGY PREDICTED BY IDOCK:   -3.17 KCAL/MOL
REMARK 924 INTRA-LIGAND FREE ENERGY PREDICTED BY IDOCK:   -0.37 KCAL/MOL
REMARK 927      BINDING AFFINITY PREDICTED BY RF-SCORE:    0.00 PKD
ROOT
HETATM    1  N   UNL     1     -12.446  14.363  67.495  1.00  0.00    -0.529 NA 
HETATM    2  C   UNL     1     -12.323  13.999  66.085  1.00  0.00    -0.458 C  
HETATM    3  H1  UNL     1     -13.421  14.296  67.787  1.00  0.00     0.000 HD 
HETATM    4  H2  UNL     1     -12.051  15.282  67.689  1.00  0.00     0.000 HD 
ENDROOT
BRANCH   2   5
HETATM    5  C   UNL     1     -10.862  14.099  65.646  1.00  0.00    -0.305 C  
HETATM    6  O   UNL     1     -10.055  13.172  65.779  1.00  0.00    -0.286 OA 
BRANCH   5   7
HETATM    7  C   UNL     1     -10.343  15.443  65.207  1.00  0.00    -0.420 C  
BRANCH   7   8
HETATM    8  C   UNL     1      -9.201  15.883  66.105  1.00  0.00    -0.384 C  
HETATM    9  C   UNL     1      -9.531  16.697  67.340  1.00  0.00    -0.232 C  
HETATM   10  O   UNL     1      -8.678  16.908  68.195  1.00  0.00    -0.213 OA 
HETATM   11  O   UNL     1     -10.766  17.208  67.460  1.00  0.00    -0.342 OA 
ENDBRANCH   7   8
ENDBRANCH   5   7
ENDBRANCH   2   5
TORSDOF 3
ENDMDL
MODEL       92
REMARK 921   NORMALIZED FREE ENERGY PREDICTED BY IDOCK:   -2.72 KCAL/MOL
REMARK 922        TOTAL FREE ENERGY PREDICTED BY IDOCK:   -3.53 KCAL/MOL
REMARK 923 INTER-LIGAND FREE ENERGY PREDICTED BY IDOCK:   -3.45 KCAL/MOL
REMARK 924 INTRA-LIGAND FREE ENERGY PREDICTED BY IDOCK:   -0.08 KCAL/MOL
REMARK 927      BINDING AFFINITY PREDICTED BY RF-SCORE:    0.00 PKD
ROOT
HETATM    1  N   UNL     1      -8.841  11.183  67.707  1.00  0.00    -0.133 NA 
HETATM    2  C   UNL     1      -8.822  11.543  66.291  1.00  0.00    -0.186 C  
HETATM    3  H1  UNL     1      -8.258  11.830  68.239  1.00  0.00     0.000 HD 
HETATM    4  H2  UNL     1      -8.568  10.211  67.858  1.00  0.00     0.000 HD 
ENDROOT
BRANCH   2   5
HETATM    5  C   UNL     1      -9.694  10.573  65.494  1.00  0.00    -0.242 C  
HETATM    6  O   UNL     1      -9.620   9.345  65.617  1.00  0.00    -0.258 OA 
BRANCH   5   7
HETATM    7  C   UNL     1     -10.543  11.131  64.382  1.00  0.00    -0.411 C  
BRANCH   7   8
HETATM    8  C   UNL     1     -10.965  12.552  64.706  1.00  0.00    -0.339 C  
HETATM    9  C   UNL     1     -12.397  12.960  64.420  1.00  0.00    -0.398 C  
HETATM   10  O   UNL     1     -12.838  14.024  64.839  1.00  0.00    -0.692 OA 
HETATM   11  O   UNL     1     -13.157  12.148  63.670  1.00  0.00    -0.787 OA 
ENDBRANCH   7   8
ENDBRANCH   5   7
ENDBRANCH   2   5
TORSDOF 3
ENDMDL
MODEL       93
REMARK 921   NORMALIZED FREE ENERGY PREDICTED BY IDOCK:   -2.68 KCAL/MOL
REMARK 922        TOTAL FREE ENERGY PREDICTED BY IDOCK:   -3.48 KCAL/MOL
REMARK 923 INTER-LIGAND FREE ENERGY PREDICTED BY IDOCK:   -3.08 KCAL/MOL
REMARK 924 INTRA-LIGAND FREE ENERGY PREDICTED BY IDOCK:   -0.41 KCAL/MOL
REMARK 927      BINDING AFFINITY PREDICTED BY RF-SCORE:    0.00 PKD
ROOT
HETATM    1  N   UNL     1      -9.867   9.314  66.866  1.00  0.00    -0.197 NA 
HETATM    2  C   UNL     1     -10.468   9.555  68.177  1.00  0.00    -0.223 C  
HETATM    3  H1  UNL     1      -9.362   8.428  66.872  1.00  0.00     0.000 HD 
HETATM    4  H2  UNL     1      -9.276  10.090  66.568  1.00  0.00     0.000 HD 
ENDROOT
BRANCH   2   5
HETATM    5  C   UNL     1     -11.225  10.883  68.168  1.00  0.00    -0.301 C  
HETATM    6  O   UNL     1     -12.360  11.013  68.639  1.00  0.00    -0.539 OA 
BRANCH   5   7
HETATM    7  C   UNL     1     -10.638  12.030  67.388  1.00  0.00    -0.253 C  
BRANCH   7   8
HETATM    8  C   UNL     1     -11.707  12.683  66.532  1.00  0.00    -0.463 C  
HETATM    9  C   UNL     1     -12.018  12.071  65.180  1.00  0.00    -0.164 C  
HETATM   10  O   UNL     1     -12.997  12.437  64.539  1.00  0.00    -0.770 OA 
HETATM   11  O   UNL     1     -11.180  11.147  64.687  1.00  0.00    -0.167 OA 
ENDBRANCH   7   8
ENDBRANCH   5   7
ENDBRANCH   2   5
TORSDOF 3
ENDMDL
MODEL       94
REMARK 921   NORMALIZED FREE ENERGY PREDICTED BY IDOCK:   -2.68 KCAL/MOL
REMARK 922        TOTAL FREE ENERGY PREDICTED BY IDOCK:   -3.48 KCAL/MOL
REMARK 923 INTER-LIGAND FREE ENERGY PREDICTED BY IDOCK:   -3.38 KCAL/MOL
REMARK 924 INTRA-LIGAND FREE ENERGY PREDICTED BY IDOCK:   -0.09 KCAL/MOL
REMARK 927      BINDING AFFINITY PREDICTED BY RF-SCORE:    0.00 PKD
ROOT
HETATM    1  N   UNL     1     -14.370   6.515  72.342  1.00  0.00    -0.631 NA 
HETATM    2  C   UNL     1     -13.365   7.307  71.637  1.00  0.00    -0.358 C  
HETATM    3  H1  UNL     1     -14.383   5.563  71.975  1.00  0.00     0.000 HD 
HETATM    4  H2  UNL     1     -15.292   6.949  72.311  1.00  0.00     0.000 HD 
ENDROOT
BRANCH   2   5
HETATM    5  C   UNL     1     -13.346   8.734  72.187  1.00  0.00    -0.423 C  
HETATM    6  O   UNL     1     -14.288   9.224  72.820  1.00  0.00    -0.496 OA 
BRANCH   5   7
HETATM    7  C   UNL     1     -12.211   9.636  71.780  1.00  0.00    -0.464 C  
BRANCH   7   8
HETATM    8  C   UNL     1     -11.412   9.000  70.658  1.00  0.00    -0.291 C  
HETATM    9  C   UNL     1      -9.978   8.593  70.938  1.00  0.00    -0.206 C  
HETATM   10  O   UNL     1      -9.357   7.905  70.137  1.00  0.00    -0.156 OA 
HETATM   11  O   UNL     1      -9.396   9.032  72.064  1.00  0.00    -0.358 OA 
ENDBRANCH   7   8
ENDBRANCH   5   7
ENDBRANCH   2   5
TORSDOF 3
ENDMDL
MODEL       95
REMARK 921   NORMALIZED FREE ENERGY PREDICTED BY IDOCK:   -2.68 KCAL/MOL
REMARK 922        TOTAL FREE ENERGY PREDICTED BY IDOCK:   -3.48 KCAL/MOL
REMARK 923 INTER-LIGAND FREE ENERGY PREDICTED BY IDOCK:   -3.14 KCAL/MOL
REMARK 924 INTRA-LIGAND FREE ENERGY PREDICTED BY IDOCK:   -0.34 KCAL/MOL
REMARK 927      BINDING AFFINITY PREDICTED BY RF-SCORE:    0.00 PKD
ROOT
HETATM    1  N   UNL     1      -8.804  13.878  68.730  1.00  0.00    -0.364 NA 
HETATM    2  C   UNL     1      -9.301  15.101  68.104  1.00  0.00    -0.192 C  
HETATM    3  H1  UNL     1      -8.306  14.105  69.591  1.00  0.00     0.000 HD 
HETATM    4  H2  UNL     1      -8.230  13.327  68.091  1.00  0.00     0.000 HD 
ENDROOT
BRANCH   2   5
HETATM    5  C   UNL     1     -10.046  14.761  66.813  1.00  0.00    -0.256 C  
HETATM    6  O   UNL     1      -9.563  14.945  65.689  1.00  0.00    -0.325 OA 
BRANCH   5   7
HETATM    7  C   UNL     1     -11.494  14.362  66.912  1.00  0.00    -0.379 C  
BRANCH   7   8
HETATM    8  C   UNL     1     -11.622  12.850  66.929  1.00  0.00    -0.425 C  
HETATM    9  C   UNL     1     -11.847  12.162  68.261  1.00  0.00    -0.301 C  
HETATM   10  O   UNL     1     -12.150  10.975  68.307  1.00  0.00    -0.604 OA 
HETATM   11  O   UNL     1     -11.674  12.872  69.386  1.00  0.00    -0.292 OA 
ENDBRANCH   7   8
ENDBRANCH   5   7
ENDBRANCH   2   5
TORSDOF 3
ENDMDL
MODEL       96
REMARK 921   NORMALIZED FREE ENERGY PREDICTED BY IDOCK:   -2.67 KCAL/MOL
REMARK 922        TOTAL FREE ENERGY PREDICTED BY IDOCK:   -3.47 KCAL/MOL
REMARK 923 INTER-LIGAND FREE ENERGY PREDICTED BY IDOCK:   -3.10 KCAL/MOL
REMARK 924 INTRA-LIGAND FREE ENERGY PREDICTED BY IDOCK:   -0.37 KCAL/MOL
REMARK 927      BINDING AFFINITY PREDICTED BY RF-SCORE:    0.00 PKD
ROOT
HETATM    1  N   UNL     1     -11.313   6.779  68.792  1.00  0.00    -0.563 NA 
HETATM    2  C   UNL     1     -11.515   6.226  70.129  1.00  0.00    -0.382 C  
HETATM    3  H1  UNL     1     -10.846   6.093  68.198  1.00  0.00     0.000 HD 
HETATM    4  H2  UNL     1     -10.812   7.667  68.816  1.00  0.00     0.000 HD 
ENDROOT
BRANCH   2   5
HETATM    5  C   UNL     1     -12.214   7.254  71.019  1.00  0.00    -0.313 C  
HETATM    6  O   UNL     1     -13.287   7.030  71.591  1.00  0.00    -0.369 OA 
BRANCH   5   7
HETATM    7  C   UNL     1     -11.669   8.658  71.046  1.00  0.00    -0.319 C  
BRANCH   7   8
HETATM    8  C   UNL     1     -10.431   8.723  71.922  1.00  0.00    -0.423 C  
HETATM    9  C   UNL     1      -9.075   8.785  71.247  1.00  0.00    -0.234 C  
HETATM   10  O   UNL     1      -8.066   9.034  71.897  1.00  0.00    -0.359 OA 
HETATM   11  O   UNL     1      -9.001   8.528  69.933  1.00  0.00    -0.141 OA 
ENDBRANCH   7   8
ENDBRANCH   5   7
ENDBRANCH   2   5
TORSDOF 3
ENDMDL
MODEL       97
REMARK 921   NORMALIZED FREE ENERGY PREDICTED BY IDOCK:   -2.67 KCAL/MOL
REMARK 922        TOTAL FREE ENERGY PREDICTED BY IDOCK:   -3.47 KCAL/MOL
REMARK 923 INTER-LIGAND FREE ENERGY PREDICTED BY IDOCK:   -3.42 KCAL/MOL
REMARK 924 INTRA-LIGAND FREE ENERGY PREDICTED BY IDOCK:   -0.05 KCAL/MOL
REMARK 927      BINDING AFFINITY PREDICTED BY RF-SCORE:    0.00 PKD
ROOT
HETATM    1  N   UNL     1     -11.535   4.609  65.139  1.00  0.00    -1.107 NA 
HETATM    2  C   UNL     1     -10.347   4.735  65.980  1.00  0.00    -0.293 C  
HETATM    3  H1  UNL     1     -11.386   3.891  64.430  1.00  0.00     0.000 HD 
HETATM    4  H2  UNL     1     -11.808   5.502  64.727  1.00  0.00     0.000 HD 
ENDROOT
BRANCH   2   5
HETATM    5  C   UNL     1     -10.570   5.812  67.042  1.00  0.00    -0.300 C  
HETATM    6  O   UNL     1     -10.664   7.014  66.771  1.00  0.00    -0.303 OA 
BRANCH   5   7
HETATM    7  C   UNL     1     -10.483   5.409  68.491  1.00  0.00    -0.192 C  
BRANCH   7   8
HETATM    8  C   UNL     1     -11.216   6.415  69.359  1.00  0.00    -0.459 C  
HETATM    9  C   UNL     1     -11.103   6.280  70.865  1.00  0.00    -0.306 C  
HETATM   10  O   UNL     1     -11.510   7.171  71.603  1.00  0.00    -0.251 OA 
HETATM   11  O   UNL     1     -10.583   5.152  71.371  1.00  0.00    -0.208 OA 
ENDBRANCH   7   8
ENDBRANCH   5   7
ENDBRANCH   2   5
TORSDOF 3
ENDMDL
MODEL       98
REMARK 921   NORMALIZED FREE ENERGY PREDICTED BY IDOCK:   -2.67 KCAL/MOL
REMARK 922        TOTAL FREE ENERGY PREDICTED BY IDOCK:   -3.46 KCAL/MOL
REMARK 923 INTER-LIGAND FREE ENERGY PREDICTED BY IDOCK:   -3.38 KCAL/MOL
REMARK 924 INTRA-LIGAND FREE ENERGY PREDICTED BY IDOCK:   -0.08 KCAL/MOL
REMARK 927      BINDING AFFINITY PREDICTED BY RF-SCORE:    0.00 PKD
ROOT
HETATM    1  N   UNL     1     -13.225  13.898  65.227  1.00  0.00    -0.721 NA 
HETATM    2  C   UNL     1     -11.772  13.928  65.386  1.00  0.00    -0.340 C  
HETATM    3  H1  UNL     1     -13.491  13.137  64.602  1.00  0.00     0.000 HD 
HETATM    4  H2  UNL     1     -13.594  14.797  64.915  1.00  0.00     0.000 HD 
ENDROOT
BRANCH   2   5
HETATM    5  C   UNL     1     -11.373  15.069  66.322  1.00  0.00    -0.273 C  
HETATM    6  O   UNL     1     -11.844  15.204  67.457  1.00  0.00    -0.283 OA 
BRANCH   5   7
HETATM    7  C   UNL     1     -10.513  16.174  65.767  1.00  0.00    -0.384 C  
BRANCH   7   8
HETATM    8  C   UNL     1      -9.822  16.917  66.896  1.00  0.00    -0.278 C  
HETATM    9  C   UNL     1      -9.964  18.425  66.956  1.00  0.00    -0.342 C  
HETATM   10  O   UNL     1      -9.594  19.049  67.944  1.00  0.00    -0.300 OA 
HETATM   11  O   UNL     1     -10.469  19.064  65.889  1.00  0.00    -0.465 OA 
ENDBRANCH   7   8
ENDBRANCH   5   7
ENDBRANCH   2   5
TORSDOF 3
ENDMDL
MODEL       99
REMARK 921   NORMALIZED FREE ENERGY PREDICTED BY IDOCK:   -2.65 KCAL/MOL
REMARK 922        TOTAL FREE ENERGY PREDICTED BY IDOCK:   -3.44 KCAL/MOL
REMARK 923 INTER-LIGAND FREE ENERGY PREDICTED BY IDOCK:   -3.39 KCAL/MOL
REMARK 924 INTRA-LIGAND FREE ENERGY PREDICTED BY IDOCK:   -0.05 KCAL/MOL
REMARK 927      BINDING AFFINITY PREDICTED BY RF-SCORE:    0.00 PKD
ROOT
HETATM    1  N   UNL     1     -11.173   9.395  69.106  1.00  0.00    -0.446 NA 
HETATM    2  C   UNL     1     -11.616  10.488  69.970  1.00  0.00    -0.313 C  
HETATM    3  H1  UNL     1     -10.926   8.583  69.672  1.00  0.00     0.000 HD 
HETATM    4  H2  UNL     1     -10.410   9.679  68.491  1.00  0.00     0.000 HD 
ENDROOT
BRANCH   2   5
HETATM    5  C   UNL     1     -11.984  11.706  69.123  1.00  0.00    -0.313 C  
HETATM    6  O   UNL     1     -12.196  11.640  67.906  1.00  0.00    -0.560 OA 
BRANCH   5   7
HETATM    7  C   UNL     1     -11.902  13.067  69.762  1.00  0.00    -0.381 C  
BRANCH   7   8
HETATM    8  C   UNL     1     -11.446  14.097  68.746  1.00  0.00    -0.333 C  
HETATM    9  C   UNL     1     -11.594  15.565  69.094  1.00  0.00    -0.362 C  
HETATM   10  O   UNL     1     -11.068  16.428  68.400  1.00  0.00    -0.343 OA 
HETATM   11  O   UNL     1     -12.341  15.899  70.158  1.00  0.00    -0.338 OA 
ENDBRANCH   7   8
ENDBRANCH   5   7
ENDBRANCH   2   5
TORSDOF 3
ENDMDL
MODEL      100
REMARK 921   NORMALIZED FREE ENERGY PREDICTED BY IDOCK:   -2.64 KCAL/MOL
REMARK 922        TOTAL FREE ENERGY PREDICTED BY IDOCK:   -3.43 KCAL/MOL
REMARK 923 INTER-LIGAND FREE ENERGY PREDICTED BY IDOCK:   -3.04 KCAL/MOL
REMARK 924 INTRA-LIGAND FREE ENERGY PREDICTED BY IDOCK:   -0.39 KCAL/MOL
REMARK 927      BINDING AFFINITY PREDICTED BY RF-SCORE:    0.00 PKD
ROOT
HETATM    1  N   UNL     1     -11.605   9.435  69.648  1.00  0.00    -0.429 NA 
HETATM    2  C   UNL     1     -11.415   9.808  71.048  1.00  0.00    -0.383 C  
HETATM    3  H1  UNL     1     -11.700  10.273  69.074  1.00  0.00     0.000 HD 
HETATM    4  H2  UNL     1     -12.391   8.796  69.525  1.00  0.00     0.000 HD 
ENDROOT
BRANCH   2   5
HETATM    5  C   UNL     1     -11.273   8.553  71.908  1.00  0.00    -0.327 C  
HETATM    6  O   UNL     1     -10.388   8.418  72.761  1.00  0.00    -0.297 OA 
BRANCH   5   7
HETATM    7  C   UNL     1     -12.129   7.361  71.571  1.00  0.00    -0.357 C  
BRANCH   7   8
HETATM    8  C   UNL     1     -11.267   6.121  71.421  1.00  0.00    -0.346 C  
HETATM    9  C   UNL     1     -10.798   5.736  70.032  1.00  0.00    -0.333 C  
HETATM   10  O   UNL     1      -9.948   4.866  69.879  1.00  0.00    -0.211 OA 
HETATM   11  O   UNL     1     -11.360   6.342  68.975  1.00  0.00    -0.355 OA 
ENDBRANCH   7   8
ENDBRANCH   5   7
ENDBRANCH   2   5
TORSDOF 3
ENDMDL
MODEL      101
REMARK 921   NORMALIZED FREE ENERGY PREDICTED BY IDOCK:   -2.63 KCAL/MOL
REMARK 922        TOTAL FREE ENERGY PREDICTED BY IDOCK:   -3.42 KCAL/MOL
REMARK 923 INTER-LIGAND FREE ENERGY PREDICTED BY IDOCK:   -3.01 KCAL/MOL
REMARK 924 INTRA-LIGAND FREE ENERGY PREDICTED BY IDOCK:   -0.40 KCAL/MOL
REMARK 927      BINDING AFFINITY PREDICTED BY RF-SCORE:    0.00 PKD
ROOT
HETATM    1  N   UNL     1      -8.877  12.728  66.340  1.00  0.00    -0.430 NA 
HETATM    2  C   UNL     1      -9.981  11.943  65.791  1.00  0.00    -0.236 C  
HETATM    3  H1  UNL     1      -7.996  12.231  66.208  1.00  0.00     0.000 HD 
HETATM    4  H2  UNL     1      -9.033  12.977  67.317  1.00  0.00     0.000 HD 
ENDROOT
BRANCH   2   5
HETATM    5  C   UNL     1     -11.301  12.688  65.989  1.00  0.00    -0.327 C  
HETATM    6  O   UNL     1     -12.403  12.178  65.755  1.00  0.00    -0.564 OA 
BRANCH   5   7
HETATM    7  C   UNL     1     -11.245  14.160  66.303  1.00  0.00    -0.329 C  
BRANCH   7   8
HETATM    8  C   UNL     1     -11.880  14.433  67.654  1.00  0.00    -0.412 C  
HETATM    9  C   UNL     1     -10.967  14.685  68.838  1.00  0.00    -0.253 C  
HETATM   10  O   UNL     1     -11.421  15.100  69.899  1.00  0.00    -0.251 OA 
HETATM   11  O   UNL     1      -9.660  14.411  68.710  1.00  0.00    -0.214 OA 
ENDBRANCH   7   8
ENDBRANCH   5   7
ENDBRANCH   2   5
TORSDOF 3
ENDMDL
MODEL      102
REMARK 921   NORMALIZED FREE ENERGY PREDICTED BY IDOCK:   -2.63 KCAL/MOL
REMARK 922        TOTAL FREE ENERGY PREDICTED BY IDOCK:   -3.42 KCAL/MOL
REMARK 923 INTER-LIGAND FREE ENERGY PREDICTED BY IDOCK:   -3.32 KCAL/MOL
REMARK 924 INTRA-LIGAND FREE ENERGY PREDICTED BY IDOCK:   -0.09 KCAL/MOL
REMARK 927      BINDING AFFINITY PREDICTED BY RF-SCORE:    0.00 PKD
ROOT
HETATM    1  N   UNL     1      -8.603  16.921  65.941  1.00  0.00    -0.517 NA 
HETATM    2  C   UNL     1      -9.575  17.255  66.979  1.00  0.00    -0.261 C  
HETATM    3  H1  UNL     1      -7.906  17.663  65.865  1.00  0.00     0.000 HD 
HETATM    4  H2  UNL     1      -9.051  16.725  65.045  1.00  0.00     0.000 HD 
ENDROOT
BRANCH   2   5
HETATM    5  C   UNL     1     -10.620  16.145  67.092  1.00  0.00    -0.294 C  
HETATM    6  O   UNL     1     -11.194  15.867  68.151  1.00  0.00    -0.338 OA 
BRANCH   5   7
HETATM    7  C   UNL     1     -10.817  15.232  65.911  1.00  0.00    -0.345 C  
BRANCH   7   8
HETATM    8  C   UNL     1     -11.806  14.134  66.255  1.00  0.00    -0.427 C  
HETATM    9  C   UNL     1     -11.328  12.696  66.210  1.00  0.00    -0.329 C  
HETATM   10  O   UNL     1     -12.022  11.793  66.663  1.00  0.00    -0.561 OA 
HETATM   11  O   UNL     1     -10.146  12.431  65.632  1.00  0.00    -0.252 OA 
ENDBRANCH   7   8
ENDBRANCH   5   7
ENDBRANCH   2   5
TORSDOF 3
ENDMDL
MODEL      103
REMARK 921   NORMALIZED FREE ENERGY PREDICTED BY IDOCK:   -2.61 KCAL/MOL
REMARK 922        TOTAL FREE ENERGY PREDICTED BY IDOCK:   -3.39 KCAL/MOL
REMARK 923 INTER-LIGAND FREE ENERGY PREDICTED BY IDOCK:   -3.01 KCAL/MOL
REMARK 924 INTRA-LIGAND FREE ENERGY PREDICTED BY IDOCK:   -0.39 KCAL/MOL
REMARK 927      BINDING AFFINITY PREDICTED BY RF-SCORE:    0.00 PKD
ROOT
HETATM    1  N   UNL     1     -11.534  14.746  71.294  1.00  0.00    -0.527 NA 
HETATM    2  C   UNL     1     -10.681  15.485  70.365  1.00  0.00    -0.320 C  
HETATM    3  H1  UNL     1     -11.478  15.161  72.224  1.00  0.00     0.000 HD 
HETATM    4  H2  UNL     1     -11.313  13.750  71.306  1.00  0.00     0.000 HD 
ENDROOT
BRANCH   2   5
HETATM    5  C   UNL     1     -10.765  14.862  68.972  1.00  0.00    -0.247 C  
HETATM    6  O   UNL     1      -9.951  15.110  68.074  1.00  0.00    -0.219 OA 
BRANCH   5   7
HETATM    7  C   UNL     1     -11.993  14.063  68.623  1.00  0.00    -0.389 C  
BRANCH   7   8
HETATM    8  C   UNL     1     -11.618  12.620  68.342  1.00  0.00    -0.370 C  
HETATM    9  C   UNL     1     -11.879  11.586  69.420  1.00  0.00    -0.350 C  
HETATM   10  O   UNL     1     -11.778  10.390  69.175  1.00  0.00    -0.213 OA 
HETATM   11  O   UNL     1     -12.189  12.012  70.654  1.00  0.00    -0.374 OA 
ENDBRANCH   7   8
ENDBRANCH   5   7
ENDBRANCH   2   5
TORSDOF 3
ENDMDL
MODEL      104
REMARK 921   NORMALIZED FREE ENERGY PREDICTED BY IDOCK:   -2.59 KCAL/MOL
REMARK 922        TOTAL FREE ENERGY PREDICTED BY IDOCK:   -3.38 KCAL/MOL
REMARK 923 INTER-LIGAND FREE ENERGY PREDICTED BY IDOCK:   -3.34 KCAL/MOL
REMARK 924 INTRA-LIGAND FREE ENERGY PREDICTED BY IDOCK:   -0.04 KCAL/MOL
REMARK 927      BINDING AFFINITY PREDICTED BY RF-SCORE:    0.00 PKD
ROOT
HETATM    1  N   UNL     1     -10.733  16.466  67.488  1.00  0.00    -0.320 NA 
HETATM    2  C   UNL     1     -10.920  15.772  68.760  1.00  0.00    -0.291 C  
HETATM    3  H1  UNL     1     -10.118  17.270  67.617  1.00  0.00     0.000 HD 
HETATM    4  H2  UNL     1     -11.622  16.730  67.062  1.00  0.00     0.000 HD 
ENDROOT
BRANCH   2   5
HETATM    5  C   UNL     1     -11.843  14.568  68.567  1.00  0.00    -0.320 C  
HETATM    6  O   UNL     1     -12.134  13.790  69.483  1.00  0.00    -0.324 OA 
BRANCH   5   7
HETATM    7  C   UNL     1     -12.261  14.212  67.165  1.00  0.00    -0.348 C  
BRANCH   7   8
HETATM    8  C   UNL     1     -11.354  13.131  66.606  1.00  0.00    -0.361 C  
HETATM    9  C   UNL     1     -11.676  12.558  65.240  1.00  0.00    -0.386 C  
HETATM   10  O   UNL     1     -10.875  11.831  64.663  1.00  0.00    -0.284 OA 
HETATM   11  O   UNL     1     -12.870  12.836  64.694  1.00  0.00    -0.705 OA 
ENDBRANCH   7   8
ENDBRANCH   5   7
ENDBRANCH   2   5
TORSDOF 3
ENDMDL
MODEL      105
REMARK 921   NORMALIZED FREE ENERGY PREDICTED BY IDOCK:   -2.59 KCAL/MOL
REMARK 922        TOTAL FREE ENERGY PREDICTED BY IDOCK:   -3.38 KCAL/MOL
REMARK 923 INTER-LIGAND FREE ENERGY PREDICTED BY IDOCK:   -3.32 KCAL/MOL
REMARK 924 INTRA-LIGAND FREE ENERGY PREDICTED BY IDOCK:   -0.05 KCAL/MOL
REMARK 927      BINDING AFFINITY PREDICTED BY RF-SCORE:    0.00 PKD
ROOT
HETATM    1  N   UNL     1      -7.261  13.466  68.411  1.00  0.00    -0.101 NA 
HETATM    2  C   UNL     1      -7.860  14.579  67.678  1.00  0.00    -0.180 C  
HETATM    3  H1  UNL     1      -6.446  13.791  68.932  1.00  0.00     0.000 HD 
HETATM    4  H2  UNL     1      -7.035  12.682  67.799  1.00  0.00     0.000 HD 
ENDROOT
BRANCH   2   5
HETATM    5  C   UNL     1      -9.081  14.092  66.897  1.00  0.00    -0.245 C  
HETATM    6  O   UNL     1      -9.314  12.896  66.690  1.00  0.00    -0.240 OA 
BRANCH   5   7
HETATM    7  C   UNL     1      -9.929  15.118  66.193  1.00  0.00    -0.317 C  
BRANCH   7   8
HETATM    8  C   UNL     1     -11.016  14.435  65.385  1.00  0.00    -0.343 C  
HETATM    9  C   UNL     1     -11.700  15.226  64.287  1.00  0.00    -0.215 C  
HETATM   10  O   UNL     1     -12.439  14.668  63.483  1.00  0.00    -0.681 OA 
HETATM   11  O   UNL     1     -11.506  16.553  64.237  1.00  0.00    -1.000 OA 
ENDBRANCH   7   8
ENDBRANCH   5   7
ENDBRANCH   2   5
TORSDOF 3
ENDMDL
MODEL      106
REMARK 921   NORMALIZED FREE ENERGY PREDICTED BY IDOCK:   -2.59 KCAL/MOL
REMARK 922        TOTAL FREE ENERGY PREDICTED BY IDOCK:   -3.37 KCAL/MOL
REMARK 923 INTER-LIGAND FREE ENERGY PREDICTED BY IDOCK:   -3.01 KCAL/MOL
REMARK 924 INTRA-LIGAND FREE ENERGY PREDICTED BY IDOCK:   -0.36 KCAL/MOL
REMARK 927      BINDING AFFINITY PREDICTED BY RF-SCORE:    0.00 PKD
ROOT
HETATM    1  N   UNL     1      -9.070  13.221  68.539  1.00  0.00    -0.352 NA 
HETATM    2  C   UNL     1     -10.090  14.217  68.217  1.00  0.00    -0.241 C  
HETATM    3  H1  UNL     1      -8.148  13.657  68.545  1.00  0.00     0.000 HD 
HETATM    4  H2  UNL     1      -9.109  12.417  67.912  1.00  0.00     0.000 HD 
ENDROOT
BRANCH   2   5
HETATM    5  C   UNL     1     -11.472  13.563  68.208  1.00  0.00    -0.310 C  
HETATM    6  O   UNL     1     -12.378  13.893  68.982  1.00  0.00    -0.308 OA 
BRANCH   5   7
HETATM    7  C   UNL     1     -11.676  12.344  67.347  1.00  0.00    -0.417 C  
BRANCH   7   8
HETATM    8  C   UNL     1     -11.753  12.741  65.885  1.00  0.00    -0.464 C  
HETATM    9  C   UNL     1     -10.594  12.376  64.978  1.00  0.00    -0.298 C  
HETATM   10  O   UNL     1     -10.690  12.497  63.762  1.00  0.00    -0.405 OA 
HETATM   11  O   UNL     1      -9.451  11.951  65.539  1.00  0.00    -0.220 OA 
ENDBRANCH   7   8
ENDBRANCH   5   7
ENDBRANCH   2   5
TORSDOF 3
ENDMDL
MODEL      107
REMARK 921   NORMALIZED FREE ENERGY PREDICTED BY IDOCK:   -2.58 KCAL/MOL
REMARK 922        TOTAL FREE ENERGY PREDICTED BY IDOCK:   -3.37 KCAL/MOL
REMARK 923 INTER-LIGAND FREE ENERGY PREDICTED BY IDOCK:   -3.29 KCAL/MOL
REMARK 924 INTRA-LIGAND FREE ENERGY PREDICTED BY IDOCK:   -0.08 KCAL/MOL
REMARK 927      BINDING AFFINITY PREDICTED BY RF-SCORE:    0.00 PKD
ROOT
HETATM    1  N   UNL     1      -7.686  18.414  65.696  1.00  0.00    -0.494 NA 
HETATM    2  C   UNL     1      -8.752  19.087  66.434  1.00  0.00    -0.317 C  
HETATM    3  H1  UNL     1      -6.883  19.035  65.599  1.00  0.00     0.000 HD 
HETATM    4  H2  UNL     1      -8.008  18.062  64.794  1.00  0.00     0.000 HD 
ENDROOT
BRANCH   2   5
HETATM    5  C   UNL     1      -9.956  18.156  66.578  1.00  0.00    -0.374 C  
HETATM    6  O   UNL     1     -10.878  18.367  67.374  1.00  0.00    -0.403 OA 
BRANCH   5   7
HETATM    7  C   UNL     1      -9.922  16.834  65.856  1.00  0.00    -0.299 C  
BRANCH   7   8
HETATM    8  C   UNL     1     -10.657  15.778  66.660  1.00  0.00    -0.307 C  
HETATM    9  C   UNL     1     -11.349  14.657  65.911  1.00  0.00    -0.338 C  
HETATM   10  O   UNL     1     -11.786  13.681  66.511  1.00  0.00    -0.360 OA 
HETATM   11  O   UNL     1     -11.503  14.773  64.583  1.00  0.00    -0.394 OA 
ENDBRANCH   7   8
ENDBRANCH   5   7
ENDBRANCH   2   5
TORSDOF 3
ENDMDL
MODEL      108
REMARK 921   NORMALIZED FREE ENERGY PREDICTED BY IDOCK:   -2.58 KCAL/MOL
REMARK 922        TOTAL FREE ENERGY PREDICTED BY IDOCK:   -3.36 KCAL/MOL
REMARK 923 INTER-LIGAND FREE ENERGY PREDICTED BY IDOCK:   -3.22 KCAL/MOL
REMARK 924 INTRA-LIGAND FREE ENERGY PREDICTED BY IDOCK:   -0.15 KCAL/MOL
REMARK 927      BINDING AFFINITY PREDICTED BY RF-SCORE:    0.00 PKD
ROOT
HETATM    1  N   UNL     1      -7.291  20.572  65.743  1.00  0.00    -0.513 NA 
HETATM    2  C   UNL     1      -6.777  20.979  67.049  1.00  0.00    -0.339 C  
HETATM    3  H1  UNL     1      -7.499  21.397  65.179  1.00  0.00     0.000 HD 
HETATM    4  H2  UNL     1      -8.097  19.952  65.825  1.00  0.00     0.000 HD 
ENDROOT
BRANCH   2   5
HETATM    5  C   UNL     1      -6.466  19.744  67.895  1.00  0.00    -0.233 C  
HETATM    6  O   UNL     1      -5.576  18.937  67.605  1.00  0.00    -0.172 OA 
BRANCH   5   7
HETATM    7  C   UNL     1      -7.406  19.399  69.020  1.00  0.00    -0.395 C  
BRANCH   7   8
HETATM    8  C   UNL     1      -8.401  18.346  68.568  1.00  0.00    -0.344 C  
HETATM    9  C   UNL     1      -9.852  18.753  68.400  1.00  0.00    -0.382 C  
HETATM   10  O   UNL     1     -10.652  18.001  67.855  1.00  0.00    -0.394 OA 
HETATM   11  O   UNL     1     -10.246  19.938  68.892  1.00  0.00    -0.444 OA 
ENDBRANCH   7   8
ENDBRANCH   5   7
ENDBRANCH   2   5
TORSDOF 3
ENDMDL
MODEL      109
REMARK 921   NORMALIZED FREE ENERGY PREDICTED BY IDOCK:   -2.57 KCAL/MOL
REMARK 922        TOTAL FREE ENERGY PREDICTED BY IDOCK:   -3.35 KCAL/MOL
REMARK 923 INTER-LIGAND FREE ENERGY PREDICTED BY IDOCK:   -3.11 KCAL/MOL
REMARK 924 INTRA-LIGAND FREE ENERGY PREDICTED BY IDOCK:   -0.24 KCAL/MOL
REMARK 927      BINDING AFFINITY PREDICTED BY RF-SCORE:    0.00 PKD
ROOT
HETATM    1  N   UNL     1      -9.175  14.083  66.323  1.00  0.00    -0.487 NA 
HETATM    2  C   UNL     1     -10.203  15.092  66.569  1.00  0.00    -0.276 C  
HETATM    3  H1  UNL     1      -8.895  14.104  65.342  1.00  0.00     0.000 HD 
HETATM    4  H2  UNL     1      -9.475  13.153  66.616  1.00  0.00     0.000 HD 
ENDROOT
BRANCH   2   5
HETATM    5  C   UNL     1     -10.625  15.062  68.038  1.00  0.00    -0.250 C  
HETATM    6  O   UNL     1      -9.863  15.365  68.963  1.00  0.00    -0.209 OA 
BRANCH   5   7
HETATM    7  C   UNL     1     -11.961  14.458  68.381  1.00  0.00    -0.328 C  
BRANCH   7   8
HETATM    8  C   UNL     1     -11.774  13.078  68.984  1.00  0.00    -0.376 C  
HETATM    9  C   UNL     1     -11.734  11.884  68.051  1.00  0.00    -0.312 C  
HETATM   10  O   UNL     1     -11.393  10.781  68.462  1.00  0.00    -0.259 OA 
HETATM   11  O   UNL     1     -12.114  12.056  66.775  1.00  0.00    -0.613 OA 
ENDBRANCH   7   8
ENDBRANCH   5   7
ENDBRANCH   2   5
TORSDOF 3
ENDMDL
MODEL      110
REMARK 921   NORMALIZED FREE ENERGY PREDICTED BY IDOCK:   -2.56 KCAL/MOL
REMARK 922        TOTAL FREE ENERGY PREDICTED BY IDOCK:   -3.34 KCAL/MOL
REMARK 923 INTER-LIGAND FREE ENERGY PREDICTED BY IDOCK:   -3.03 KCAL/MOL
REMARK 924 INTRA-LIGAND FREE ENERGY PREDICTED BY IDOCK:   -0.31 KCAL/MOL
REMARK 927      BINDING AFFINITY PREDICTED BY RF-SCORE:    0.00 PKD
ROOT
HETATM    1  N   UNL     1      -7.661  17.485  68.733  1.00  0.00    -0.267 NA 
HETATM    2  C   UNL     1      -8.369  16.216  68.583  1.00  0.00    -0.211 C  
HETATM    3  H1  UNL     1      -6.958  17.407  69.469  1.00  0.00     0.000 HD 
HETATM    4  H2  UNL     1      -8.300  18.263  68.896  1.00  0.00     0.000 HD 
ENDROOT
BRANCH   2   5
HETATM    5  C   UNL     1      -9.422  16.333  67.481  1.00  0.00    -0.227 C  
HETATM    6  O   UNL     1      -9.239  15.920  66.330  1.00  0.00    -0.278 OA 
BRANCH   5   7
HETATM    7  C   UNL     1     -10.655  17.151  67.761  1.00  0.00    -0.360 C  
BRANCH   7   8
HETATM    8  C   UNL     1     -10.644  18.419  66.927  1.00  0.00    -0.381 C  
HETATM    9  C   UNL     1     -10.215  19.712  67.591  1.00  0.00    -0.435 C  
HETATM   10  O   UNL     1     -10.002  20.717  66.922  1.00  0.00    -0.418 OA 
HETATM   11  O   UNL     1     -10.109  19.741  68.928  1.00  0.00    -0.455 OA 
ENDBRANCH   7   8
ENDBRANCH   5   7
ENDBRANCH   2   5
TORSDOF 3
ENDMDL
MODEL      111
REMARK 921   NORMALIZED FREE ENERGY PREDICTED BY IDOCK:   -2.56 KCAL/MOL
REMARK 922        TOTAL FREE ENERGY PREDICTED BY IDOCK:   -3.33 KCAL/MOL
REMARK 923 INTER-LIGAND FREE ENERGY PREDICTED BY IDOCK:   -3.27 KCAL/MOL
REMARK 924 INTRA-LIGAND FREE ENERGY PREDICTED BY IDOCK:   -0.06 KCAL/MOL
REMARK 927      BINDING AFFINITY PREDICTED BY RF-SCORE:    0.00 PKD
ROOT
HETATM    1  N   UNL     1      -7.804   8.475  74.117  1.00  0.00    -0.398 NA 
HETATM    2  C   UNL     1      -9.079   7.924  73.663  1.00  0.00    -0.273 C  
HETATM    3  H1  UNL     1      -7.564   8.091  75.031  1.00  0.00     0.000 HD 
HETATM    4  H2  UNL     1      -7.808   9.495  74.120  1.00  0.00     0.000 HD 
ENDROOT
BRANCH   2   5
HETATM    5  C   UNL     1      -9.440   8.501  72.294  1.00  0.00    -0.295 C  
HETATM    6  O   UNL     1      -8.619   9.076  71.569  1.00  0.00    -0.303 OA 
BRANCH   5   7
HETATM    7  C   UNL     1     -10.892   8.535  71.897  1.00  0.00    -0.392 C  
BRANCH   7   8
HETATM    8  C   UNL     1     -11.153   9.701  70.961  1.00  0.00    -0.438 C  
HETATM    9  C   UNL     1     -12.359  10.580  71.227  1.00  0.00    -0.397 C  
HETATM   10  O   UNL     1     -12.504  11.639  70.626  1.00  0.00    -0.333 OA 
HETATM   11  O   UNL     1     -13.279  10.158  72.108  1.00  0.00    -0.444 OA 
ENDBRANCH   7   8
ENDBRANCH   5   7
ENDBRANCH   2   5
TORSDOF 3
ENDMDL
MODEL      112
REMARK 921   NORMALIZED FREE ENERGY PREDICTED BY IDOCK:   -2.55 KCAL/MOL
REMARK 922        TOTAL FREE ENERGY PREDICTED BY IDOCK:   -3.32 KCAL/MOL
REMARK 923 INTER-LIGAND FREE ENERGY PREDICTED BY IDOCK:   -3.26 KCAL/MOL
REMARK 924 INTRA-LIGAND FREE ENERGY PREDICTED BY IDOCK:   -0.07 KCAL/MOL
REMARK 927      BINDING AFFINITY PREDICTED BY RF-SCORE:    0.00 PKD
ROOT
HETATM    1  N   UNL     1     -12.223  10.763  68.545  1.00  0.00    -0.822 NA 
HETATM    2  C   UNL     1     -11.317  10.970  69.673  1.00  0.00    -0.292 C  
HETATM    3  H1  UNL     1     -11.991  11.408  67.790  1.00  0.00     0.000 HD 
HETATM    4  H2  UNL     1     -13.202  10.834  68.823  1.00  0.00     0.000 HD 
ENDROOT
BRANCH   2   5
HETATM    5  C   UNL     1     -11.664  10.003  70.806  1.00  0.00    -0.350 C  
HETATM    6  O   UNL     1     -12.443  10.292  71.722  1.00  0.00    -0.397 OA 
BRANCH   5   7
HETATM    7  C   UNL     1     -10.882   8.720  70.909  1.00  0.00    -0.293 C  
BRANCH   7   8
HETATM    8  C   UNL     1     -10.361   8.536  72.323  1.00  0.00    -0.402 C  
HETATM    9  C   UNL     1      -8.863   8.426  72.528  1.00  0.00    -0.225 C  
HETATM   10  O   UNL     1      -8.382   8.472  73.654  1.00  0.00    -0.373 OA 
HETATM   11  O   UNL     1      -8.081   8.241  71.453  1.00  0.00    -0.103 OA 
ENDBRANCH   7   8
ENDBRANCH   5   7
ENDBRANCH   2   5
TORSDOF 3
ENDMDL
MODEL      113
REMARK 921   NORMALIZED FREE ENERGY PREDICTED BY IDOCK:   -2.54 KCAL/MOL
REMARK 922        TOTAL FREE ENERGY PREDICTED BY IDOCK:   -3.32 KCAL/MOL
REMARK 923 INTER-LIGAND FREE ENERGY PREDICTED BY IDOCK:   -3.23 KCAL/MOL
REMARK 924 INTRA-LIGAND FREE ENERGY PREDICTED BY IDOCK:   -0.09 KCAL/MOL
REMARK 927      BINDING AFFINITY PREDICTED BY RF-SCORE:    0.00 PKD
ROOT
HETATM    1  N   UNL     1      -8.920  11.504  69.029  1.00  0.00    -0.385 NA 
HETATM    2  C   UNL     1      -9.208  10.539  67.970  1.00  0.00    -0.142 C  
HETATM    3  H1  UNL     1      -8.144  11.171  69.602  1.00  0.00     0.000 HD 
HETATM    4  H2  UNL     1      -9.746  11.715  69.590  1.00  0.00     0.000 HD 
ENDROOT
BRANCH   2   5
HETATM    5  C   UNL     1     -10.371  11.038  67.112  1.00  0.00    -0.220 C  
HETATM    6  O   UNL     1     -11.531  10.631  67.249  1.00  0.00    -0.412 OA 
BRANCH   5   7
HETATM    7  C   UNL     1     -10.056  11.918  65.932  1.00  0.00    -0.265 C  
BRANCH   7   8
HETATM    8  C   UNL     1     -11.309  12.635  65.463  1.00  0.00    -0.356 C  
HETATM    9  C   UNL     1     -11.716  12.493  64.009  1.00  0.00    -0.423 C  
HETATM   10  O   UNL     1     -12.813  12.886  63.627  1.00  0.00    -0.692 OA 
HETATM   11  O   UNL     1     -10.837  11.962  63.146  1.00  0.00    -0.338 OA 
ENDBRANCH   7   8
ENDBRANCH   5   7
ENDBRANCH   2   5
TORSDOF 3
ENDMDL
MODEL      114
REMARK 921   NORMALIZED FREE ENERGY PREDICTED BY IDOCK:   -2.54 KCAL/MOL
REMARK 922        TOTAL FREE ENERGY PREDICTED BY IDOCK:   -3.32 KCAL/MOL
REMARK 923 INTER-LIGAND FREE ENERGY PREDICTED BY IDOCK:   -3.20 KCAL/MOL
REMARK 924 INTRA-LIGAND FREE ENERGY PREDICTED BY IDOCK:   -0.12 KCAL/MOL
REMARK 927      BINDING AFFINITY PREDICTED BY RF-SCORE:    0.00 PKD
ROOT
HETATM    1  N   UNL     1      -8.148  10.197  70.212  1.00  0.00    -0.403 NA 
HETATM    2  C   UNL     1      -8.492   9.010  70.992  1.00  0.00    -0.203 C  
HETATM    3  H1  UNL     1      -7.170  10.155  69.927  1.00  0.00     0.000 HD 
HETATM    4  H2  UNL     1      -8.364  11.059  70.713  1.00  0.00     0.000 HD 
ENDROOT
BRANCH   2   5
HETATM    5  C   UNL     1      -9.958   9.072  71.420  1.00  0.00    -0.318 C  
HETATM    6  O   UNL     1     -10.354   8.675  72.521  1.00  0.00    -0.295 OA 
BRANCH   5   7
HETATM    7  C   UNL     1     -10.983   9.460  70.388  1.00  0.00    -0.317 C  
BRANCH   7   8
HETATM    8  C   UNL     1     -11.611  10.794  70.747  1.00  0.00    -0.322 C  
HETATM    9  C   UNL     1     -12.862  10.792  71.604  1.00  0.00    -0.457 C  
HETATM   10  O   UNL     1     -13.294  11.835  72.081  1.00  0.00    -0.497 OA 
HETATM   11  O   UNL     1     -13.504   9.630  71.797  1.00  0.00    -0.391 OA 
ENDBRANCH   7   8
ENDBRANCH   5   7
ENDBRANCH   2   5
TORSDOF 3
ENDMDL
MODEL      115
REMARK 921   NORMALIZED FREE ENERGY PREDICTED BY IDOCK:   -2.54 KCAL/MOL
REMARK 922        TOTAL FREE ENERGY PREDICTED BY IDOCK:   -3.32 KCAL/MOL
REMARK 923 INTER-LIGAND FREE ENERGY PREDICTED BY IDOCK:   -3.20 KCAL/MOL
REMARK 924 INTRA-LIGAND FREE ENERGY PREDICTED BY IDOCK:   -0.11 KCAL/MOL
REMARK 927      BINDING AFFINITY PREDICTED BY RF-SCORE:    0.00 PKD
ROOT
HETATM    1  N   UNL     1     -12.245  11.087  68.714  1.00  0.00    -0.744 NA 
HETATM    2  C   UNL     1     -11.685  11.172  70.061  1.00  0.00    -0.356 C  
HETATM    3  H1  UNL     1     -11.816  11.790  68.113  1.00  0.00     0.000 HD 
HETATM    4  H2  UNL     1     -13.263  11.157  68.718  1.00  0.00     0.000 HD 
ENDROOT
BRANCH   2   5
HETATM    5  C   UNL     1     -12.329  10.119  70.962  1.00  0.00    -0.373 C  
HETATM    6  O   UNL     1     -13.511  10.171  71.320  1.00  0.00    -0.334 OA 
BRANCH   5   7
HETATM    7  C   UNL     1     -11.437   9.080  71.589  1.00  0.00    -0.431 C  
BRANCH   7   8
HETATM    8  C   UNL     1     -10.411   8.592  70.583  1.00  0.00    -0.234 C  
HETATM    9  C   UNL     1     -10.587   7.207  69.991  1.00  0.00    -0.232 C  
HETATM   10  O   UNL     1      -9.906   6.844  69.039  1.00  0.00    -0.149 OA 
HETATM   11  O   UNL     1     -11.478   6.378  70.555  1.00  0.00    -0.349 OA 
ENDBRANCH   7   8
ENDBRANCH   5   7
ENDBRANCH   2   5
TORSDOF 3
ENDMDL
MODEL      116
REMARK 921   NORMALIZED FREE ENERGY PREDICTED BY IDOCK:   -2.54 KCAL/MOL
REMARK 922        TOTAL FREE ENERGY PREDICTED BY IDOCK:   -3.31 KCAL/MOL
REMARK 923 INTER-LIGAND FREE ENERGY PREDICTED BY IDOCK:   -3.23 KCAL/MOL
REMARK 924 INTRA-LIGAND FREE ENERGY PREDICTED BY IDOCK:   -0.08 KCAL/MOL
REMARK 927      BINDING AFFINITY PREDICTED BY RF-SCORE:    0.00 PKD
ROOT
HETATM    1  N   UNL     1     -10.304  15.382  69.986  1.00  0.00    -0.398 NA 
HETATM    2  C   UNL     1     -11.119  14.783  68.931  1.00  0.00    -0.252 C  
HETATM    3  H1  UNL     1     -10.447  14.880  70.863  1.00  0.00     0.000 HD 
HETATM    4  H2  UNL     1     -10.480  16.382  70.085  1.00  0.00     0.000 HD 
ENDROOT
BRANCH   2   5
HETATM    5  C   UNL     1     -10.906  15.535  67.617  1.00  0.00    -0.306 C  
HETATM    6  O   UNL     1     -11.382  15.157  66.541  1.00  0.00    -0.324 OA 
BRANCH   5   7
HETATM    7  C   UNL     1      -9.922  16.675  67.603  1.00  0.00    -0.264 C  
BRANCH   7   8
HETATM    8  C   UNL     1     -10.167  17.565  66.398  1.00  0.00    -0.354 C  
HETATM    9  C   UNL     1     -10.406  19.043  66.633  1.00  0.00    -0.428 C  
HETATM   10  O   UNL     1     -10.414  19.831  65.694  1.00  0.00    -0.480 OA 
HETATM   11  O   UNL     1     -10.643  19.463  67.885  1.00  0.00    -0.422 OA 
ENDBRANCH   7   8
ENDBRANCH   5   7
ENDBRANCH   2   5
TORSDOF 3
ENDMDL
MODEL      117
REMARK 921   NORMALIZED FREE ENERGY PREDICTED BY IDOCK:   -2.54 KCAL/MOL
REMARK 922        TOTAL FREE ENERGY PREDICTED BY IDOCK:   -3.31 KCAL/MOL
REMARK 923 INTER-LIGAND FREE ENERGY PREDICTED BY IDOCK:   -3.19 KCAL/MOL
REMARK 924 INTRA-LIGAND FREE ENERGY PREDICTED BY IDOCK:   -0.12 KCAL/MOL
REMARK 927      BINDING AFFINITY PREDICTED BY RF-SCORE:    0.00 PKD
ROOT
HETATM    1  N   UNL     1     -12.608  14.071  66.726  1.00  0.00    -0.490 NA 
HETATM    2  C   UNL     1     -11.154  14.208  66.702  1.00  0.00    -0.312 C  
HETATM    3  H1  UNL     1     -12.928  13.600  65.880  1.00  0.00     0.000 HD 
HETATM    4  H2  UNL     1     -13.075  14.967  66.864  1.00  0.00     0.000 HD 
ENDROOT
BRANCH   2   5
HETATM    5  C   UNL     1     -10.675  14.915  67.970  1.00  0.00    -0.253 C  
HETATM    6  O   UNL     1      -9.660  14.574  68.588  1.00  0.00    -0.214 OA 
BRANCH   5   7
HETATM    7  C   UNL     1     -11.580  15.945  68.594  1.00  0.00    -0.383 C  
BRANCH   7   8
HETATM    8  C   UNL     1     -11.182  16.187  70.038  1.00  0.00    -0.359 C  
HETATM    9  C   UNL     1     -11.957  15.471  71.127  1.00  0.00    -0.382 C  
HETATM   10  O   UNL     1     -11.558  15.477  72.285  1.00  0.00    -0.430 OA 
HETATM   11  O   UNL     1     -13.107  14.862  70.799  1.00  0.00    -0.366 OA 
ENDBRANCH   7   8
ENDBRANCH   5   7
ENDBRANCH   2   5
TORSDOF 3
ENDMDL
MODEL      118
REMARK 921   NORMALIZED FREE ENERGY PREDICTED BY IDOCK:   -2.53 KCAL/MOL
REMARK 922        TOTAL FREE ENERGY PREDICTED BY IDOCK:   -3.31 KCAL/MOL
REMARK 923 INTER-LIGAND FREE ENERGY PREDICTED BY IDOCK:   -2.89 KCAL/MOL
REMARK 924 INTRA-LIGAND FREE ENERGY PREDICTED BY IDOCK:   -0.42 KCAL/MOL
REMARK 927      BINDING AFFINITY PREDICTED BY RF-SCORE:    0.00 PKD
ROOT
HETATM    1  N   UNL     1      -9.379   7.817  69.321  1.00  0.00    -0.149 NA 
HETATM    2  C   UNL     1      -9.132   9.101  69.973  1.00  0.00    -0.192 C  
HETATM    3  H1  UNL     1      -9.016   7.835  68.367  1.00  0.00     0.000 HD 
HETATM    4  H2  UNL     1     -10.365   7.557  69.349  1.00  0.00     0.000 HD 
ENDROOT
BRANCH   2   5
HETATM    5  C   UNL     1      -9.676   9.074  71.401  1.00  0.00    -0.299 C  
HETATM    6  O   UNL     1      -8.969   8.835  72.386  1.00  0.00    -0.379 OA 
BRANCH   5   7
HETATM    7  C   UNL     1     -11.168   9.157  71.594  1.00  0.00    -0.447 C  
BRANCH   7   8
HETATM    8  C   UNL     1     -11.649   8.007  72.460  1.00  0.00    -0.464 C  
HETATM    9  C   UNL     1     -11.896   6.665  71.800  1.00  0.00    -0.335 C  
HETATM   10  O   UNL     1     -12.095   5.663  72.478  1.00  0.00    -0.221 OA 
HETATM   11  O   UNL     1     -11.927   6.605  70.460  1.00  0.00    -0.400 OA 
ENDBRANCH   7   8
ENDBRANCH   5   7
ENDBRANCH   2   5
TORSDOF 3
ENDMDL
MODEL      119
REMARK 921   NORMALIZED FREE ENERGY PREDICTED BY IDOCK:   -2.52 KCAL/MOL
REMARK 922        TOTAL FREE ENERGY PREDICTED BY IDOCK:   -3.29 KCAL/MOL
REMARK 923 INTER-LIGAND FREE ENERGY PREDICTED BY IDOCK:   -2.89 KCAL/MOL
REMARK 924 INTRA-LIGAND FREE ENERGY PREDICTED BY IDOCK:   -0.40 KCAL/MOL
REMARK 927      BINDING AFFINITY PREDICTED BY RF-SCORE:    0.00 PKD
ROOT
HETATM    1  N   UNL     1     -10.865   6.788  66.736  1.00  0.00    -0.539 NA 
HETATM    2  C   UNL     1     -10.716   5.986  67.949  1.00  0.00    -0.284 C  
HETATM    3  H1  UNL     1     -10.805   6.188  65.913  1.00  0.00     0.000 HD 
HETATM    4  H2  UNL     1     -10.194   7.555  66.700  1.00  0.00     0.000 HD 
ENDROOT
BRANCH   2   5
HETATM    5  C   UNL     1     -10.804   6.884  69.183  1.00  0.00    -0.228 C  
HETATM    6  O   UNL     1     -11.664   6.740  70.059  1.00  0.00    -0.337 OA 
BRANCH   5   7
HETATM    7  C   UNL     1      -9.927   8.107  69.236  1.00  0.00    -0.188 C  
BRANCH   7   8
HETATM    8  C   UNL     1     -10.777   9.358  69.358  1.00  0.00    -0.234 C  
HETATM    9  C   UNL     1     -11.126  10.117  68.093  1.00  0.00    -0.230 C  
HETATM   10  O   UNL     1     -11.963  11.012  68.113  1.00  0.00    -0.610 OA 
HETATM   11  O   UNL     1     -10.474   9.809  66.961  1.00  0.00    -0.238 OA 
ENDBRANCH   7   8
ENDBRANCH   5   7
ENDBRANCH   2   5
TORSDOF 3
ENDMDL
MODEL      120
REMARK 921   NORMALIZED FREE ENERGY PREDICTED BY IDOCK:   -2.52 KCAL/MOL
REMARK 922        TOTAL FREE ENERGY PREDICTED BY IDOCK:   -3.29 KCAL/MOL
REMARK 923 INTER-LIGAND FREE ENERGY PREDICTED BY IDOCK:   -3.14 KCAL/MOL
REMARK 924 INTRA-LIGAND FREE ENERGY PREDICTED BY IDOCK:   -0.16 KCAL/MOL
REMARK 927      BINDING AFFINITY PREDICTED BY RF-SCORE:    0.00 PKD
ROOT
HETATM    1  N   UNL     1     -10.597  15.298  70.498  1.00  0.00    -0.506 NA 
HETATM    2  C   UNL     1     -10.111  15.701  69.179  1.00  0.00    -0.237 C  
HETATM    3  H1  UNL     1     -10.155  15.867  71.220  1.00  0.00     0.000 HD 
HETATM    4  H2  UNL     1     -10.468  14.300  70.664  1.00  0.00     0.000 HD 
ENDROOT
BRANCH   2   5
HETATM    5  C   UNL     1     -10.773  14.849  68.097  1.00  0.00    -0.251 C  
HETATM    6  O   UNL     1     -10.669  15.095  66.889  1.00  0.00    -0.296 OA 
BRANCH   5   7
HETATM    7  C   UNL     1     -11.742  13.780  68.528  1.00  0.00    -0.391 C  
BRANCH   7   8
HETATM    8  C   UNL     1     -11.119  12.407  68.357  1.00  0.00    -0.288 C  
HETATM    9  C   UNL     1     -11.344  11.674  67.049  1.00  0.00    -0.305 C  
HETATM   10  O   UNL     1     -10.709  10.659  66.785  1.00  0.00    -0.250 OA 
HETATM   11  O   UNL     1     -12.277  12.140  66.205  1.00  0.00    -0.611 OA 
ENDBRANCH   7   8
ENDBRANCH   5   7
ENDBRANCH   2   5
TORSDOF 3
ENDMDL
MODEL      121
REMARK 921   NORMALIZED FREE ENERGY PREDICTED BY IDOCK:   -2.52 KCAL/MOL
REMARK 922        TOTAL FREE ENERGY PREDICTED BY IDOCK:   -3.29 KCAL/MOL
REMARK 923 INTER-LIGAND FREE ENERGY PREDICTED BY IDOCK:   -3.12 KCAL/MOL
REMARK 924 INTRA-LIGAND FREE ENERGY PREDICTED BY IDOCK:   -0.17 KCAL/MOL
REMARK 927      BINDING AFFINITY PREDICTED BY RF-SCORE:    0.00 PKD
ROOT
HETATM    1  N   UNL     1      -9.008  14.346  66.538  1.00  0.00    -0.447 NA 
HETATM    2  C   UNL     1     -10.102  14.917  65.756  1.00  0.00    -0.341 C  
HETATM    3  H1  UNL     1      -8.112  14.603  66.124  1.00  0.00     0.000 HD 
HETATM    4  H2  UNL     1      -9.103  13.336  66.648  1.00  0.00     0.000 HD 
ENDROOT
BRANCH   2   5
HETATM    5  C   UNL     1     -11.445  14.531  66.377  1.00  0.00    -0.360 C  
HETATM    6  O   UNL     1     -12.431  14.211  65.702  1.00  0.00    -0.457 OA 
BRANCH   5   7
HETATM    7  C   UNL     1     -11.626  14.730  67.858  1.00  0.00    -0.373 C  
BRANCH   7   8
HETATM    8  C   UNL     1     -11.501  16.201  68.209  1.00  0.00    -0.259 C  
HETATM    9  C   UNL     1     -10.338  16.636  69.079  1.00  0.00    -0.317 C  
HETATM   10  O   UNL     1     -10.080  17.825  69.229  1.00  0.00    -0.281 OA 
HETATM   11  O   UNL     1      -9.620  15.693  69.708  1.00  0.00    -0.281 OA 
ENDBRANCH   7   8
ENDBRANCH   5   7
ENDBRANCH   2   5
TORSDOF 3
ENDMDL
MODEL      122
REMARK 921   NORMALIZED FREE ENERGY PREDICTED BY IDOCK:   -2.51 KCAL/MOL
REMARK 922        TOTAL FREE ENERGY PREDICTED BY IDOCK:   -3.28 KCAL/MOL
REMARK 923 INTER-LIGAND FREE ENERGY PREDICTED BY IDOCK:   -3.18 KCAL/MOL
REMARK 924 INTRA-LIGAND FREE ENERGY PREDICTED BY IDOCK:   -0.11 KCAL/MOL
REMARK 927      BINDING AFFINITY PREDICTED BY RF-SCORE:    0.00 PKD
ROOT
HETATM    1  N   UNL     1     -13.659   8.902  73.051  1.00  0.00    -0.981 NA 
HETATM    2  C   UNL     1     -12.891   8.382  71.922  1.00  0.00    -0.353 C  
HETATM    3  H1  UNL     1     -14.648   8.954  72.805  1.00  0.00     0.000 HD 
HETATM    4  H2  UNL     1     -13.299   9.799  73.378  1.00  0.00     0.000 HD 
ENDROOT
BRANCH   2   5
HETATM    5  C   UNL     1     -11.409   8.306  72.290  1.00  0.00    -0.378 C  
HETATM    6  O   UNL     1     -10.980   7.601  73.211  1.00  0.00    -0.400 OA 
BRANCH   5   7
HETATM    7  C   UNL     1     -10.462   9.270  71.627  1.00  0.00    -0.328 C  
BRANCH   7   8
HETATM    8  C   UNL     1      -9.477   8.519  70.751  1.00  0.00    -0.213 C  
HETATM    9  C   UNL     1      -8.154   8.094  71.357  1.00  0.00    -0.115 C  
HETATM   10  O   UNL     1      -7.412   7.323  70.760  1.00  0.00    -0.077 OA 
HETATM   11  O   UNL     1      -7.799   8.609  72.545  1.00  0.00    -0.331 OA 
ENDBRANCH   7   8
ENDBRANCH   5   7
ENDBRANCH   2   5
TORSDOF 3
ENDMDL
MODEL      123
REMARK 921   NORMALIZED FREE ENERGY PREDICTED BY IDOCK:   -2.51 KCAL/MOL
REMARK 922        TOTAL FREE ENERGY PREDICTED BY IDOCK:   -3.28 KCAL/MOL
REMARK 923 INTER-LIGAND FREE ENERGY PREDICTED BY IDOCK:   -3.14 KCAL/MOL
REMARK 924 INTRA-LIGAND FREE ENERGY PREDICTED BY IDOCK:   -0.14 KCAL/MOL
REMARK 927      BINDING AFFINITY PREDICTED BY RF-SCORE:    0.00 PKD
ROOT
HETATM    1  N   UNL     1     -10.744  11.225  62.876  1.00  0.00    -0.792 NA 
HETATM    2  C   UNL     1      -9.690  11.015  63.866  1.00  0.00    -0.292 C  
HETATM    3  H1  UNL     1     -10.497  10.764  62.000  1.00  0.00     0.000 HD 
HETATM    4  H2  UNL     1     -10.951  12.215  62.741  1.00  0.00     0.000 HD 
ENDROOT
BRANCH   2   5
HETATM    5  C   UNL     1     -10.060  11.707  65.177  1.00  0.00    -0.262 C  
HETATM    6  O   UNL     1      -9.978  11.150  66.278  1.00  0.00    -0.206 OA 
BRANCH   5   7
HETATM    7  C   UNL     1     -10.727  13.055  65.106  1.00  0.00    -0.324 C  
BRANCH   7   8
HETATM    8  C   UNL     1     -11.675  13.235  66.277  1.00  0.00    -0.412 C  
HETATM    9  C   UNL     1     -11.327  14.265  67.333  1.00  0.00    -0.332 C  
HETATM   10  O   UNL     1     -12.145  14.585  68.187  1.00  0.00    -0.294 OA 
HETATM   11  O   UNL     1     -10.092  14.791  67.332  1.00  0.00    -0.231 OA 
ENDBRANCH   7   8
ENDBRANCH   5   7
ENDBRANCH   2   5
TORSDOF 3
ENDMDL
MODEL      124
REMARK 921   NORMALIZED FREE ENERGY PREDICTED BY IDOCK:   -2.51 KCAL/MOL
REMARK 922        TOTAL FREE ENERGY PREDICTED BY IDOCK:   -3.28 KCAL/MOL
REMARK 923 INTER-LIGAND FREE ENERGY PREDICTED BY IDOCK:   -2.94 KCAL/MOL
REMARK 924 INTRA-LIGAND FREE ENERGY PREDICTED BY IDOCK:   -0.33 KCAL/MOL
REMARK 927      BINDING AFFINITY PREDICTED BY RF-SCORE:    0.00 PKD
ROOT
HETATM    1  N   UNL     1     -11.779   6.395  69.514  1.00  0.00    -0.588 NA 
HETATM    2  C   UNL     1     -10.648   7.310  69.370  1.00  0.00    -0.229 C  
HETATM    3  H1  UNL     1     -12.305   6.353  68.641  1.00  0.00     0.000 HD 
HETATM    4  H2  UNL     1     -12.372   6.641  70.306  1.00  0.00     0.000 HD 
ENDROOT
BRANCH   2   5
HETATM    5  C   UNL     1      -9.859   7.374  70.678  1.00  0.00    -0.179 C  
HETATM    6  O   UNL     1      -8.626   7.302  70.724  1.00  0.00    -0.141 OA 
BRANCH   5   7
HETATM    7  C   UNL     1     -10.627   7.336  71.973  1.00  0.00    -0.236 C  
BRANCH   7   8
HETATM    8  C   UNL     1     -11.448   8.602  72.134  1.00  0.00    -0.443 C  
HETATM    9  C   UNL     1     -12.958   8.478  72.189  1.00  0.00    -0.363 C  
HETATM   10  O   UNL     1     -13.652   9.435  72.512  1.00  0.00    -0.459 OA 
HETATM   11  O   UNL     1     -13.518   7.308  71.844  1.00  0.00    -0.306 OA 
ENDBRANCH   7   8
ENDBRANCH   5   7
ENDBRANCH   2   5
TORSDOF 3
ENDMDL
MODEL      125
REMARK 921   NORMALIZED FREE ENERGY PREDICTED BY IDOCK:   -2.50 KCAL/MOL
REMARK 922        TOTAL FREE ENERGY PREDICTED BY IDOCK:   -3.27 KCAL/MOL
REMARK 923 INTER-LIGAND FREE ENERGY PREDICTED BY IDOCK:   -3.13 KCAL/MOL
REMARK 924 INTRA-LIGAND FREE ENERGY PREDICTED BY IDOCK:   -0.14 KCAL/MOL
REMARK 927      BINDING AFFINITY PREDICTED BY RF-SCORE:    0.00 PKD
ROOT
HETATM    1  N   UNL     1     -11.942  13.078  70.420  1.00  0.00    -0.517 NA 
HETATM    2  C   UNL     1     -11.798  13.673  69.094  1.00  0.00    -0.348 C  
HETATM    3  H1  UNL     1     -12.736  12.437  70.430  1.00  0.00     0.000 HD 
HETATM    4  H2  UNL     1     -12.014  13.786  71.152  1.00  0.00     0.000 HD 
ENDROOT
BRANCH   2   5
HETATM    5  C   UNL     1     -10.610  14.635  69.079  1.00  0.00    -0.247 C  
HETATM    6  O   UNL     1     -10.397  15.455  69.979  1.00  0.00    -0.294 OA 
BRANCH   5   7
HETATM    7  C   UNL     1      -9.774  14.712  67.828  1.00  0.00    -0.215 C  
BRANCH   7   8
HETATM    8  C   UNL     1     -10.542  15.421  66.728  1.00  0.00    -0.309 C  
HETATM    9  C   UNL     1     -10.207  16.870  66.435  1.00  0.00    -0.321 C  
HETATM   10  O   UNL     1     -10.653  17.425  65.438  1.00  0.00    -0.638 OA 
HETATM   11  O   UNL     1      -9.440  17.539  67.310  1.00  0.00    -0.246 OA 
ENDBRANCH   7   8
ENDBRANCH   5   7
ENDBRANCH   2   5
TORSDOF 3
ENDMDL
MODEL      126
REMARK 921   NORMALIZED FREE ENERGY PREDICTED BY IDOCK:   -2.50 KCAL/MOL
REMARK 922        TOTAL FREE ENERGY PREDICTED BY IDOCK:   -3.27 KCAL/MOL
REMARK 923 INTER-LIGAND FREE ENERGY PREDICTED BY IDOCK:   -3.16 KCAL/MOL
REMARK 924 INTRA-LIGAND FREE ENERGY PREDICTED BY IDOCK:   -0.11 KCAL/MOL
REMARK 927      BINDING AFFINITY PREDICTED BY RF-SCORE:    0.00 PKD
ROOT
HETATM    1  N   UNL     1      -5.903  16.395  66.719  1.00  0.00    -0.323 NA 
HETATM    2  C   UNL     1      -6.922  17.441  66.690  1.00  0.00    -0.233 C  
HETATM    3  H1  UNL     1      -5.551  16.225  65.776  1.00  0.00     0.000 HD 
HETATM    4  H2  UNL     1      -6.244  15.540  67.159  1.00  0.00     0.000 HD 
ENDROOT
BRANCH   2   5
HETATM    5  C   UNL     1      -7.450  17.696  68.102  1.00  0.00    -0.231 C  
HETATM    6  O   UNL     1      -6.753  17.563  69.114  1.00  0.00    -0.237 OA 
BRANCH   5   7
HETATM    7  C   UNL     1      -8.927  17.934  68.276  1.00  0.00    -0.277 C  
BRANCH   7   8
HETATM    8  C   UNL     1      -9.367  19.126  67.445  1.00  0.00    -0.356 C  
HETATM    9  C   UNL     1     -10.241  18.873  66.232  1.00  0.00    -0.438 C  
HETATM   10  O   UNL     1     -10.781  19.805  65.647  1.00  0.00    -0.505 OA 
HETATM   11  O   UNL     1     -10.381  17.612  65.795  1.00  0.00    -0.558 OA 
ENDBRANCH   7   8
ENDBRANCH   5   7
ENDBRANCH   2   5
TORSDOF 3
ENDMDL
MODEL      127
REMARK 921   NORMALIZED FREE ENERGY PREDICTED BY IDOCK:   -2.49 KCAL/MOL
REMARK 922        TOTAL FREE ENERGY PREDICTED BY IDOCK:   -3.26 KCAL/MOL
REMARK 923 INTER-LIGAND FREE ENERGY PREDICTED BY IDOCK:   -3.16 KCAL/MOL
REMARK 924 INTRA-LIGAND FREE ENERGY PREDICTED BY IDOCK:   -0.10 KCAL/MOL
REMARK 927      BINDING AFFINITY PREDICTED BY RF-SCORE:    0.00 PKD
ROOT
HETATM    1  N   UNL     1     -11.013   7.901  67.594  1.00  0.00    -0.512 NA 
HETATM    2  C   UNL     1     -10.310   7.935  68.874  1.00  0.00    -0.213 C  
HETATM    3  H1  UNL     1     -10.905   6.984  67.162  1.00  0.00     0.000 HD 
HETATM    4  H2  UNL     1     -10.714   8.654  66.973  1.00  0.00     0.000 HD 
ENDROOT
BRANCH   2   5
HETATM    5  C   UNL     1     -10.471   9.311  69.522  1.00  0.00    -0.220 C  
HETATM    6  O   UNL     1     -10.249  10.368  68.920  1.00  0.00    -0.183 OA 
BRANCH   5   7
HETATM    7  C   UNL     1     -10.728   9.372  71.005  1.00  0.00    -0.407 C  
BRANCH   7   8
HETATM    8  C   UNL     1     -11.891   8.469  71.373  1.00  0.00    -0.345 C  
HETATM    9  C   UNL     1     -13.179   9.113  71.845  1.00  0.00    -0.416 C  
HETATM   10  O   UNL     1     -14.202   8.448  71.967  1.00  0.00    -0.414 OA 
HETATM   11  O   UNL     1     -13.166  10.418  72.160  1.00  0.00    -0.452 OA 
ENDBRANCH   7   8
ENDBRANCH   5   7
ENDBRANCH   2   5
TORSDOF 3
ENDMDL
MODEL      128
REMARK 921   NORMALIZED FREE ENERGY PREDICTED BY IDOCK:   -2.46 KCAL/MOL
REMARK 922        TOTAL FREE ENERGY PREDICTED BY IDOCK:   -3.21 KCAL/MOL
REMARK 923 INTER-LIGAND FREE ENERGY PREDICTED BY IDOCK:   -3.16 KCAL/MOL
REMARK 924 INTRA-LIGAND FREE ENERGY PREDICTED BY IDOCK:   -0.05 KCAL/MOL
REMARK 927      BINDING AFFINITY PREDICTED BY RF-SCORE:    0.00 PKD
ROOT
HETATM    1  N   UNL     1     -10.391  17.375  67.509  1.00  0.00    -0.339 NA 
HETATM    2  C   UNL     1     -10.678  17.583  68.926  1.00  0.00    -0.072 C  
HETATM    3  H1  UNL     1     -10.380  18.271  67.021  1.00  0.00     0.000 HD 
HETATM    4  H2  UNL     1     -11.038  16.714  67.080  1.00  0.00     0.000 HD 
ENDROOT
BRANCH   2   5
HETATM    5  C   UNL     1     -10.696  16.241  69.658  1.00  0.00    -0.338 C  
HETATM    6  O   UNL     1      -9.688  15.537  69.797  1.00  0.00    -0.287 OA 
BRANCH   5   7
HETATM    7  C   UNL     1     -12.029  15.668  70.059  1.00  0.00    -0.384 C  
BRANCH   7   8
HETATM    8  C   UNL     1     -12.211  15.764  71.562  1.00  0.00    -0.513 C  
HETATM    9  C   UNL     1     -12.942  14.641  72.271  1.00  0.00    -0.355 C  
HETATM   10  O   UNL     1     -12.945  14.572  73.495  1.00  0.00    -0.551 OA 
HETATM   11  O   UNL     1     -13.614  13.746  71.531  1.00  0.00    -0.322 OA 
ENDBRANCH   7   8
ENDBRANCH   5   7
ENDBRANCH   2   5
TORSDOF 3
ENDMDL
MODEL      129
REMARK 921   NORMALIZED FREE ENERGY PREDICTED BY IDOCK:   -2.45 KCAL/MOL
REMARK 922        TOTAL FREE ENERGY PREDICTED BY IDOCK:   -3.21 KCAL/MOL
REMARK 923 INTER-LIGAND FREE ENERGY PREDICTED BY IDOCK:   -2.79 KCAL/MOL
REMARK 924 INTRA-LIGAND FREE ENERGY PREDICTED BY IDOCK:   -0.42 KCAL/MOL
REMARK 927      BINDING AFFINITY PREDICTED BY RF-SCORE:    0.00 PKD
ROOT
HETATM    1  N   UNL     1      -8.786   6.483  71.272  1.00  0.00    -0.137 NA 
HETATM    2  C   UNL     1      -9.564   5.502  70.519  1.00  0.00    -0.173 C  
HETATM    3  H1  UNL     1      -7.824   6.161  71.373  1.00  0.00     0.000 HD 
HETATM    4  H2  UNL     1      -9.213   6.701  72.173  1.00  0.00     0.000 HD 
ENDROOT
BRANCH   2   5
HETATM    5  C   UNL     1     -11.007   5.984  70.368  1.00  0.00    -0.328 C  
HETATM    6  O   UNL     1     -11.522   6.233  69.272  1.00  0.00    -0.411 OA 
BRANCH   5   7
HETATM    7  C   UNL     1     -11.768   6.349  71.616  1.00  0.00    -0.367 C  
BRANCH   7   8
HETATM    8  C   UNL     1     -12.389   7.725  71.468  1.00  0.00    -0.345 C  
HETATM    9  C   UNL     1     -11.528   8.938  71.762  1.00  0.00    -0.353 C  
HETATM   10  O   UNL     1     -11.916  10.064  71.473  1.00  0.00    -0.377 OA 
HETATM   11  O   UNL     1     -10.350   8.753  72.378  1.00  0.00    -0.300 OA 
ENDBRANCH   7   8
ENDBRANCH   5   7
ENDBRANCH   2   5
TORSDOF 3
ENDMDL
MODEL      130
REMARK 921   NORMALIZED FREE ENERGY PREDICTED BY IDOCK:   -2.44 KCAL/MOL
REMARK 922        TOTAL FREE ENERGY PREDICTED BY IDOCK:   -3.19 KCAL/MOL
REMARK 923 INTER-LIGAND FREE ENERGY PREDICTED BY IDOCK:   -3.11 KCAL/MOL
REMARK 924 INTRA-LIGAND FREE ENERGY PREDICTED BY IDOCK:   -0.08 KCAL/MOL
REMARK 927      BINDING AFFINITY PREDICTED BY RF-SCORE:    0.00 PKD
ROOT
HETATM    1  N   UNL     1      -9.257  14.209  66.027  1.00  0.00    -0.513 NA 
HETATM    2  C   UNL     1     -10.410  14.195  65.130  1.00  0.00    -0.405 C  
HETATM    3  H1  UNL     1      -8.447  14.601  65.547  1.00  0.00     0.000 HD 
HETATM    4  H2  UNL     1      -9.061  13.285  66.413  1.00  0.00     0.000 HD 
ENDROOT
BRANCH   2   5
HETATM    5  C   UNL     1     -11.623  13.606  65.848  1.00  0.00    -0.328 C  
HETATM    6  O   UNL     1     -12.404  14.288  66.522  1.00  0.00    -0.445 OA 
BRANCH   5   7
HETATM    7  C   UNL     1     -11.765  12.107  65.891  1.00  0.00    -0.393 C  
BRANCH   7   8
HETATM    8  C   UNL     1     -11.355  11.579  67.253  1.00  0.00    -0.359 C  
HETATM    9  C   UNL     1     -10.441  10.371  67.312  1.00  0.00    -0.252 C  
HETATM   10  O   UNL     1      -9.927  10.028  68.370  1.00  0.00    -0.153 OA 
HETATM   11  O   UNL     1     -10.236   9.668  66.187  1.00  0.00    -0.266 OA 
ENDBRANCH   7   8
ENDBRANCH   5   7
ENDBRANCH   2   5
TORSDOF 3
ENDMDL
MODEL      131
REMARK 921   NORMALIZED FREE ENERGY PREDICTED BY IDOCK:   -2.42 KCAL/MOL
REMARK 922        TOTAL FREE ENERGY PREDICTED BY IDOCK:   -3.17 KCAL/MOL
REMARK 923 INTER-LIGAND FREE ENERGY PREDICTED BY IDOCK:   -3.02 KCAL/MOL
REMARK 924 INTRA-LIGAND FREE ENERGY PREDICTED BY IDOCK:   -0.15 KCAL/MOL
REMARK 927      BINDING AFFINITY PREDICTED BY RF-SCORE:    0.00 PKD
ROOT
HETATM    1  N   UNL     1      -9.423   8.896  72.044  1.00  0.00    -0.347 NA 
HETATM    2  C   UNL     1     -10.856   8.618  72.118  1.00  0.00    -0.354 C  
HETATM    3  H1  UNL     1      -9.268   9.818  71.636  1.00  0.00     0.000 HD 
HETATM    4  H2  UNL     1      -8.917   8.165  71.544  1.00  0.00     0.000 HD 
ENDROOT
BRANCH   2   5
HETATM    5  C   UNL     1     -11.089   7.236  72.730  1.00  0.00    -0.319 C  
HETATM    6  O   UNL     1     -10.545   6.863  73.776  1.00  0.00    -0.360 OA 
BRANCH   5   7
HETATM    7  C   UNL     1     -11.863   6.225  71.926  1.00  0.00    -0.359 C  
BRANCH   7   8
HETATM    8  C   UNL     1     -11.981   6.680  70.483  1.00  0.00    -0.377 C  
HETATM    9  C   UNL     1     -11.007   6.113  69.469  1.00  0.00    -0.393 C  
HETATM   10  O   UNL     1     -11.179   6.294  68.269  1.00  0.00    -0.328 OA 
HETATM   11  O   UNL     1      -9.935   5.441  69.916  1.00  0.00    -0.183 OA 
ENDBRANCH   7   8
ENDBRANCH   5   7
ENDBRANCH   2   5
TORSDOF 3
ENDMDL
MODEL      132
REMARK 921   NORMALIZED FREE ENERGY PREDICTED BY IDOCK:   -2.42 KCAL/MOL
REMARK 922        TOTAL FREE ENERGY PREDICTED BY IDOCK:   -3.17 KCAL/MOL
REMARK 923 INTER-LIGAND FREE ENERGY PREDICTED BY IDOCK:   -3.10 KCAL/MOL
REMARK 924 INTRA-LIGAND FREE ENERGY PREDICTED BY IDOCK:   -0.07 KCAL/MOL
REMARK 927      BINDING AFFINITY PREDICTED BY RF-SCORE:    0.00 PKD
ROOT
HETATM    1  N   UNL     1      -7.543  18.576  65.991  1.00  0.00    -0.430 NA 
HETATM    2  C   UNL     1      -7.875  19.876  66.569  1.00  0.00    -0.308 C  
HETATM    3  H1  UNL     1      -6.589  18.590  65.628  1.00  0.00     0.000 HD 
HETATM    4  H2  UNL     1      -8.217  18.289  65.282  1.00  0.00     0.000 HD 
ENDROOT
BRANCH   2   5
HETATM    5  C   UNL     1      -9.304  19.856  67.112  1.00  0.00    -0.364 C  
HETATM    6  O   UNL     1      -9.792  20.792  67.755  1.00  0.00    -0.335 OA 
BRANCH   5   7
HETATM    7  C   UNL     1     -10.080  18.569  67.020  1.00  0.00    -0.385 C  
BRANCH   7   8
HETATM    8  C   UNL     1     -10.443  18.075  68.408  1.00  0.00    -0.326 C  
HETATM    9  C   UNL     1     -10.694  16.592  68.601  1.00  0.00    -0.349 C  
HETATM   10  O   UNL     1     -10.796  16.118  69.726  1.00  0.00    -0.286 OA 
HETATM   11  O   UNL     1     -10.835  15.820  67.513  1.00  0.00    -0.313 OA 
ENDBRANCH   7   8
ENDBRANCH   5   7
ENDBRANCH   2   5
TORSDOF 3
ENDMDL
MODEL      133
REMARK 921   NORMALIZED FREE ENERGY PREDICTED BY IDOCK:   -2.42 KCAL/MOL
REMARK 922        TOTAL FREE ENERGY PREDICTED BY IDOCK:   -3.17 KCAL/MOL
REMARK 923 INTER-LIGAND FREE ENERGY PREDICTED BY IDOCK:   -3.00 KCAL/MOL
REMARK 924 INTRA-LIGAND FREE ENERGY PREDICTED BY IDOCK:   -0.17 KCAL/MOL
REMARK 927      BINDING AFFINITY PREDICTED BY RF-SCORE:    0.00 PKD
ROOT
HETATM    1  N   UNL     1      -7.048  20.863  65.832  1.00  0.00    -0.503 NA 
HETATM    2  C   UNL     1      -6.702  21.068  67.237  1.00  0.00    -0.364 C  
HETATM    3  H1  UNL     1      -6.773  21.678  65.283  1.00  0.00     0.000 HD 
HETATM    4  H2  UNL     1      -8.035  20.635  65.710  1.00  0.00     0.000 HD 
ENDROOT
BRANCH   2   5
HETATM    5  C   UNL     1      -7.115  19.848  68.060  1.00  0.00    -0.284 C  
HETATM    6  O   UNL     1      -6.308  19.001  68.458  1.00  0.00    -0.225 OA 
BRANCH   5   7
HETATM    7  C   UNL     1      -8.586  19.571  68.230  1.00  0.00    -0.380 C  
BRANCH   7   8
HETATM    8  C   UNL     1      -8.830  18.076  68.324  1.00  0.00    -0.291 C  
HETATM    9  C   UNL     1      -9.109  17.311  67.045  1.00  0.00    -0.236 C  
HETATM   10  O   UNL     1      -9.120  16.086  67.039  1.00  0.00    -0.200 OA 
HETATM   11  O   UNL     1      -9.379  18.006  65.929  1.00  0.00    -0.520 OA 
ENDBRANCH   7   8
ENDBRANCH   5   7
ENDBRANCH   2   5
TORSDOF 3
ENDMDL
MODEL      134
REMARK 921   NORMALIZED FREE ENERGY PREDICTED BY IDOCK:   -2.41 KCAL/MOL
REMARK 922        TOTAL FREE ENERGY PREDICTED BY IDOCK:   -3.16 KCAL/MOL
REMARK 923 INTER-LIGAND FREE ENERGY PREDICTED BY IDOCK:   -3.06 KCAL/MOL
REMARK 924 INTRA-LIGAND FREE ENERGY PREDICTED BY IDOCK:   -0.10 KCAL/MOL
REMARK 927      BINDING AFFINITY PREDICTED BY RF-SCORE:    0.00 PKD
ROOT
HETATM    1  N   UNL     1      -7.477   9.525  70.849  1.00  0.00    -0.308 NA 
HETATM    2  C   UNL     1      -8.829   9.655  70.309  1.00  0.00    -0.211 C  
HETATM    3  H1  UNL     1      -6.812  10.003  70.241  1.00  0.00     0.000 HD 
HETATM    4  H2  UNL     1      -7.220   8.550  71.005  1.00  0.00     0.000 HD 
ENDROOT
BRANCH   2   5
HETATM    5  C   UNL     1      -9.825   8.938  71.220  1.00  0.00    -0.291 C  
HETATM    6  O   UNL     1      -9.554   8.596  72.376  1.00  0.00    -0.288 OA 
BRANCH   5   7
HETATM    7  C   UNL     1     -11.123   8.466  70.619  1.00  0.00    -0.278 C  
BRANCH   7   8
HETATM    8  C   UNL     1     -12.125   8.153  71.715  1.00  0.00    -0.357 C  
HETATM    9  C   UNL     1     -13.295   9.098  71.910  1.00  0.00    -0.427 C  
HETATM   10  O   UNL     1     -14.230   8.791  72.641  1.00  0.00    -0.527 OA 
HETATM   11  O   UNL     1     -13.267  10.288  71.292  1.00  0.00    -0.375 OA 
ENDBRANCH   7   8
ENDBRANCH   5   7
ENDBRANCH   2   5
TORSDOF 3
ENDMDL
MODEL      135
REMARK 921   NORMALIZED FREE ENERGY PREDICTED BY IDOCK:   -2.41 KCAL/MOL
REMARK 922        TOTAL FREE ENERGY PREDICTED BY IDOCK:   -3.16 KCAL/MOL
REMARK 923 INTER-LIGAND FREE ENERGY PREDICTED BY IDOCK:   -2.85 KCAL/MOL
REMARK 924 INTRA-LIGAND FREE ENERGY PREDICTED BY IDOCK:   -0.31 KCAL/MOL
REMARK 927      BINDING AFFINITY PREDICTED BY RF-SCORE:    0.00 PKD
ROOT
HETATM    1  N   UNL     1     -12.312  14.403  67.799  1.00  0.00    -0.603 NA 
HETATM    2  C   UNL     1     -12.249  13.864  66.442  1.00  0.00    -0.449 C  
HETATM    3  H1  UNL     1     -12.921  13.822  68.376  1.00  0.00     0.000 HD 
HETATM    4  H2  UNL     1     -12.597  15.382  67.809  1.00  0.00     0.000 HD 
ENDROOT
BRANCH   2   5
HETATM    5  C   UNL     1     -11.338  14.734  65.577  1.00  0.00    -0.343 C  
HETATM    6  O   UNL     1     -11.204  14.565  64.359  1.00  0.00    -0.309 OA 
BRANCH   5   7
HETATM    7  C   UNL     1     -10.426  15.713  66.268  1.00  0.00    -0.313 C  
BRANCH   7   8
HETATM    8  C   UNL     1      -9.090  15.062  66.572  1.00  0.00    -0.319 C  
HETATM    9  C   UNL     1      -8.859  14.510  67.965  1.00  0.00    -0.175 C  
HETATM   10  O   UNL     1      -7.884  13.807  68.205  1.00  0.00    -0.125 OA 
HETATM   11  O   UNL     1      -9.727  14.838  68.935  1.00  0.00    -0.217 OA 
ENDBRANCH   7   8
ENDBRANCH   5   7
ENDBRANCH   2   5
TORSDOF 3
ENDMDL
MODEL      136
REMARK 921   NORMALIZED FREE ENERGY PREDICTED BY IDOCK:   -2.40 KCAL/MOL
REMARK 922        TOTAL FREE ENERGY PREDICTED BY IDOCK:   -3.15 KCAL/MOL
REMARK 923 INTER-LIGAND FREE ENERGY PREDICTED BY IDOCK:   -2.88 KCAL/MOL
REMARK 924 INTRA-LIGAND FREE ENERGY PREDICTED BY IDOCK:   -0.27 KCAL/MOL
REMARK 927      BINDING AFFINITY PREDICTED BY RF-SCORE:    0.00 PKD
ROOT
HETATM    1  N   UNL     1     -13.178  10.614  71.972  1.00  0.00    -0.532 NA 
HETATM    2  C   UNL     1     -13.862   9.416  72.454  1.00  0.00    -0.352 C  
HETATM    3  H1  UNL     1     -13.707  11.446  72.232  1.00  0.00     0.000 HD 
HETATM    4  H2  UNL     1     -12.997  10.574  70.969  1.00  0.00     0.000 HD 
ENDROOT
BRANCH   2   5
HETATM    5  C   UNL     1     -13.069   8.169  72.063  1.00  0.00    -0.293 C  
HETATM    6  O   UNL     1     -13.607   7.103  71.743  1.00  0.00    -0.354 OA 
BRANCH   5   7
HETATM    7  C   UNL     1     -11.576   8.188  72.258  1.00  0.00    -0.436 C  
BRANCH   7   8
HETATM    8  C   UNL     1     -10.874   7.814  70.965  1.00  0.00    -0.253 C  
HETATM    9  C   UNL     1     -10.587   8.912  69.960  1.00  0.00    -0.220 C  
HETATM   10  O   UNL     1      -9.857   8.703  68.998  1.00  0.00    -0.173 OA 
HETATM   11  O   UNL     1     -11.179  10.104  70.127  1.00  0.00    -0.266 OA 
ENDBRANCH   7   8
ENDBRANCH   5   7
ENDBRANCH   2   5
TORSDOF 3
ENDMDL
MODEL      137
REMARK 921   NORMALIZED FREE ENERGY PREDICTED BY IDOCK:   -2.40 KCAL/MOL
REMARK 922        TOTAL FREE ENERGY PREDICTED BY IDOCK:   -3.15 KCAL/MOL
REMARK 923 INTER-LIGAND FREE ENERGY PREDICTED BY IDOCK:   -3.03 KCAL/MOL
REMARK 924 INTRA-LIGAND FREE ENERGY PREDICTED BY IDOCK:   -0.12 KCAL/MOL
REMARK 927      BINDING AFFINITY PREDICTED BY RF-SCORE:    0.00 PKD
ROOT
HETATM    1  N   UNL     1     -12.473  14.567  68.945  1.00  0.00    -0.569 NA 
HETATM    2  C   UNL     1     -11.035  14.733  69.148  1.00  0.00    -0.267 C  
HETATM    3  H1  UNL     1     -12.840  13.878  69.602  1.00  0.00     0.000 HD 
HETATM    4  H2  UNL     1     -12.698  14.331  67.978  1.00  0.00     0.000 HD 
ENDROOT
BRANCH   2   5
HETATM    5  C   UNL     1     -10.485  15.764  68.163  1.00  0.00    -0.263 C  
HETATM    6  O   UNL     1     -10.947  16.906  68.056  1.00  0.00    -0.354 OA 
BRANCH   5   7
HETATM    7  C   UNL     1      -9.463  15.308  67.155  1.00  0.00    -0.223 C  
BRANCH   7   8
HETATM    8  C   UNL     1      -9.139  16.434  66.190  1.00  0.00    -0.362 C  
HETATM    9  C   UNL     1      -7.845  17.200  66.387  1.00  0.00    -0.317 C  
HETATM   10  O   UNL     1      -7.445  17.980  65.531  1.00  0.00    -0.538 OA 
HETATM   11  O   UNL     1      -7.169  17.030  67.533  1.00  0.00    -0.144 OA 
ENDBRANCH   7   8
ENDBRANCH   5   7
ENDBRANCH   2   5
TORSDOF 3
ENDMDL
MODEL      138
REMARK 921   NORMALIZED FREE ENERGY PREDICTED BY IDOCK:   -2.40 KCAL/MOL
REMARK 922        TOTAL FREE ENERGY PREDICTED BY IDOCK:   -3.15 KCAL/MOL
REMARK 923 INTER-LIGAND FREE ENERGY PREDICTED BY IDOCK:   -3.08 KCAL/MOL
REMARK 924 INTRA-LIGAND FREE ENERGY PREDICTED BY IDOCK:   -0.07 KCAL/MOL
REMARK 927      BINDING AFFINITY PREDICTED BY RF-SCORE:    0.00 PKD
ROOT
HETATM    1  N   UNL     1      -8.094  17.450  68.704  1.00  0.00    -0.269 NA 
HETATM    2  C   UNL     1      -8.714  16.538  67.745  1.00  0.00    -0.196 C  
HETATM    3  H1  UNL     1      -7.142  17.669  68.411  1.00  0.00     0.000 HD 
HETATM    4  H2  UNL     1      -8.127  17.083  69.656  1.00  0.00     0.000 HD 
ENDROOT
BRANCH   2   5
HETATM    5  C   UNL     1     -10.141  16.209  68.184  1.00  0.00    -0.237 C  
HETATM    6  O   UNL     1     -11.132  16.446  67.484  1.00  0.00    -0.241 OA 
BRANCH   5   7
HETATM    7  C   UNL     1     -10.360  15.751  69.602  1.00  0.00    -0.290 C  
BRANCH   7   8
HETATM    8  C   UNL     1     -11.793  15.289  69.789  1.00  0.00    -0.357 C  
HETATM    9  C   UNL     1     -12.521  15.698  71.054  1.00  0.00    -0.447 C  
HETATM   10  O   UNL     1     -13.728  15.520  71.166  1.00  0.00    -0.539 OA 
HETATM   11  O   UNL     1     -11.808  16.226  72.061  1.00  0.00    -0.505 OA 
ENDBRANCH   7   8
ENDBRANCH   5   7
ENDBRANCH   2   5
TORSDOF 3
ENDMDL
MODEL      139
REMARK 921   NORMALIZED FREE ENERGY PREDICTED BY IDOCK:   -2.40 KCAL/MOL
REMARK 922        TOTAL FREE ENERGY PREDICTED BY IDOCK:   -3.15 KCAL/MOL
REMARK 923 INTER-LIGAND FREE ENERGY PREDICTED BY IDOCK:   -2.86 KCAL/MOL
REMARK 924 INTRA-LIGAND FREE ENERGY PREDICTED BY IDOCK:   -0.29 KCAL/MOL
REMARK 927      BINDING AFFINITY PREDICTED BY RF-SCORE:    0.00 PKD
ROOT
HETATM    1  N   UNL     1      -8.433  17.083  68.515  1.00  0.00    -0.249 NA 
HETATM    2  C   UNL     1      -7.105  17.575  68.875  1.00  0.00    -0.253 C  
HETATM    3  H1  UNL     1      -8.416  16.067  68.427  1.00  0.00     0.000 HD 
HETATM    4  H2  UNL     1      -8.793  17.533  67.673  1.00  0.00     0.000 HD 
ENDROOT
BRANCH   2   5
HETATM    5  C   UNL     1      -7.130  19.098  69.005  1.00  0.00    -0.342 C  
HETATM    6  O   UNL     1      -6.523  19.707  69.893  1.00  0.00    -0.321 OA 
BRANCH   5   7
HETATM    7  C   UNL     1      -8.082  19.870  68.131  1.00  0.00    -0.287 C  
BRANCH   7   8
HETATM    8  C   UNL     1      -7.344  20.460  66.944  1.00  0.00    -0.349 C  
HETATM    9  C   UNL     1      -7.287  19.654  65.660  1.00  0.00    -0.251 C  
HETATM   10  O   UNL     1      -6.877  20.162  64.623  1.00  0.00    -0.288 OA 
HETATM   11  O   UNL     1      -7.660  18.366  65.695  1.00  0.00    -0.522 OA 
ENDBRANCH   7   8
ENDBRANCH   5   7
ENDBRANCH   2   5
TORSDOF 3
ENDMDL
MODEL      140
REMARK 921   NORMALIZED FREE ENERGY PREDICTED BY IDOCK:   -2.37 KCAL/MOL
REMARK 922        TOTAL FREE ENERGY PREDICTED BY IDOCK:   -3.12 KCAL/MOL
REMARK 923 INTER-LIGAND FREE ENERGY PREDICTED BY IDOCK:   -2.82 KCAL/MOL
REMARK 924 INTRA-LIGAND FREE ENERGY PREDICTED BY IDOCK:   -0.29 KCAL/MOL
REMARK 927      BINDING AFFINITY PREDICTED BY RF-SCORE:    0.00 PKD
ROOT
HETATM    1  N   UNL     1     -11.310  13.820  70.181  1.00  0.00    -0.488 NA 
HETATM    2  C   UNL     1     -12.018  14.577  69.151  1.00  0.00    -0.309 C  
HETATM    3  H1  UNL     1     -11.321  14.335  71.061  1.00  0.00     0.000 HD 
HETATM    4  H2  UNL     1     -10.362  13.575  69.893  1.00  0.00     0.000 HD 
ENDROOT
BRANCH   2   5
HETATM    5  C   UNL     1     -12.000  13.805  67.831  1.00  0.00    -0.356 C  
HETATM    6  O   UNL     1     -12.338  14.308  66.753  1.00  0.00    -0.429 OA 
BRANCH   5   7
HETATM    7  C   UNL     1     -11.742  12.323  67.879  1.00  0.00    -0.410 C  
BRANCH   7   8
HETATM    8  C   UNL     1     -10.718  11.934  66.829  1.00  0.00    -0.282 C  
HETATM    9  C   UNL     1      -9.247  12.060  67.177  1.00  0.00    -0.190 C  
HETATM   10  O   UNL     1      -8.389  11.581  66.445  1.00  0.00    -0.172 OA 
HETATM   11  O   UNL     1      -8.907  12.738  68.284  1.00  0.00    -0.186 OA 
ENDBRANCH   7   8
ENDBRANCH   5   7
ENDBRANCH   2   5
TORSDOF 3
ENDMDL
MODEL      141
REMARK 921   NORMALIZED FREE ENERGY PREDICTED BY IDOCK:   -2.36 KCAL/MOL
REMARK 922        TOTAL FREE ENERGY PREDICTED BY IDOCK:   -3.10 KCAL/MOL
REMARK 923 INTER-LIGAND FREE ENERGY PREDICTED BY IDOCK:   -2.69 KCAL/MOL
REMARK 924 INTRA-LIGAND FREE ENERGY PREDICTED BY IDOCK:   -0.41 KCAL/MOL
REMARK 927      BINDING AFFINITY PREDICTED BY RF-SCORE:    0.00 PKD
ROOT
HETATM    1  N   UNL     1     -12.716   7.755  70.926  1.00  0.00    -0.533 NA 
HETATM    2  C   UNL     1     -12.308   8.705  71.959  1.00  0.00    -0.371 C  
HETATM    3  H1  UNL     1     -13.721   7.824  70.767  1.00  0.00     0.000 HD 
HETATM    4  H2  UNL     1     -12.429   6.802  71.148  1.00  0.00     0.000 HD 
ENDROOT
BRANCH   2   5
HETATM    5  C   UNL     1     -10.802   8.601  72.198  1.00  0.00    -0.354 C  
HETATM    6  O   UNL     1      -9.964   9.105  71.441  1.00  0.00    -0.302 OA 
BRANCH   5   7
HETATM    7  C   UNL     1     -10.318   7.690  73.295  1.00  0.00    -0.405 C  
BRANCH   7   8
HETATM    8  C   UNL     1      -9.547   6.523  72.707  1.00  0.00    -0.157 C  
HETATM    9  C   UNL     1     -10.330   5.330  72.194  1.00  0.00    -0.212 C  
HETATM   10  O   UNL     1      -9.776   4.455  71.538  1.00  0.00    -0.155 OA 
HETATM   11  O   UNL     1     -11.632   5.236  72.505  1.00  0.00    -0.205 OA 
ENDBRANCH   7   8
ENDBRANCH   5   7
ENDBRANCH   2   5
TORSDOF 3
ENDMDL
MODEL      142
REMARK 921   NORMALIZED FREE ENERGY PREDICTED BY IDOCK:   -2.36 KCAL/MOL
REMARK 922        TOTAL FREE ENERGY PREDICTED BY IDOCK:   -3.10 KCAL/MOL
REMARK 923 INTER-LIGAND FREE ENERGY PREDICTED BY IDOCK:   -2.77 KCAL/MOL
REMARK 924 INTRA-LIGAND FREE ENERGY PREDICTED BY IDOCK:   -0.33 KCAL/MOL
REMARK 927      BINDING AFFINITY PREDICTED BY RF-SCORE:    0.00 PKD
ROOT
HETATM    1  N   UNL     1      -8.926   6.961  70.712  1.00  0.00    -0.150 NA 
HETATM    2  C   UNL     1      -8.990   6.467  72.086  1.00  0.00    -0.139 C  
HETATM    3  H1  UNL     1      -8.273   6.396  70.169  1.00  0.00     0.000 HD 
HETATM    4  H2  UNL     1      -8.697   7.954  70.672  1.00  0.00     0.000 HD 
ENDROOT
BRANCH   2   5
HETATM    5  C   UNL     1      -9.969   7.314  72.900  1.00  0.00    -0.213 C  
HETATM    6  O   UNL     1     -10.343   7.004  74.037  1.00  0.00    -0.364 OA 
BRANCH   5   7
HETATM    7  C   UNL     1     -10.646   8.472  72.215  1.00  0.00    -0.408 C  
BRANCH   7   8
HETATM    8  C   UNL     1     -12.153   8.300  72.260  1.00  0.00    -0.439 C  
HETATM    9  C   UNL     1     -12.780   7.225  71.396  1.00  0.00    -0.389 C  
HETATM   10  O   UNL     1     -13.957   6.916  71.539  1.00  0.00    -0.277 OA 
HETATM   11  O   UNL     1     -12.028   6.645  70.448  1.00  0.00    -0.396 OA 
ENDBRANCH   7   8
ENDBRANCH   5   7
ENDBRANCH   2   5
TORSDOF 3
ENDMDL
MODEL      143
REMARK 921   NORMALIZED FREE ENERGY PREDICTED BY IDOCK:   -2.35 KCAL/MOL
REMARK 922        TOTAL FREE ENERGY PREDICTED BY IDOCK:   -3.09 KCAL/MOL
REMARK 923 INTER-LIGAND FREE ENERGY PREDICTED BY IDOCK:   -2.97 KCAL/MOL
REMARK 924 INTRA-LIGAND FREE ENERGY PREDICTED BY IDOCK:   -0.11 KCAL/MOL
REMARK 927      BINDING AFFINITY PREDICTED BY RF-SCORE:    0.00 PKD
ROOT
HETATM    1  N   UNL     1      -7.204  11.645  68.303  1.00  0.00    -0.079 NA 
HETATM    2  C   UNL     1      -7.917  12.918  68.219  1.00  0.00    -0.151 C  
HETATM    3  H1  UNL     1      -6.251  11.801  68.634  1.00  0.00     0.000 HD 
HETATM    4  H2  UNL     1      -7.224  11.136  67.419  1.00  0.00     0.000 HD 
ENDROOT
BRANCH   2   5
HETATM    5  C   UNL     1      -9.344  12.686  67.723  1.00  0.00    -0.198 C  
HETATM    6  O   UNL     1     -10.126  11.900  68.269  1.00  0.00    -0.192 OA 
BRANCH   5   7
HETATM    7  C   UNL     1      -9.747  13.298  66.407  1.00  0.00    -0.279 C  
BRANCH   7   8
HETATM    8  C   UNL     1     -10.808  12.446  65.735  1.00  0.00    -0.312 C  
HETATM    9  C   UNL     1     -12.187  13.043  65.533  1.00  0.00    -0.469 C  
HETATM   10  O   UNL     1     -13.015  12.477  64.829  1.00  0.00    -0.827 OA 
HETATM   11  O   UNL     1     -12.491  14.184  66.171  1.00  0.00    -0.466 OA 
ENDBRANCH   7   8
ENDBRANCH   5   7
ENDBRANCH   2   5
TORSDOF 3
ENDMDL
MODEL      144
REMARK 921   NORMALIZED FREE ENERGY PREDICTED BY IDOCK:   -2.35 KCAL/MOL
REMARK 922        TOTAL FREE ENERGY PREDICTED BY IDOCK:   -3.09 KCAL/MOL
REMARK 923 INTER-LIGAND FREE ENERGY PREDICTED BY IDOCK:   -2.95 KCAL/MOL
REMARK 924 INTRA-LIGAND FREE ENERGY PREDICTED BY IDOCK:   -0.14 KCAL/MOL
REMARK 927      BINDING AFFINITY PREDICTED BY RF-SCORE:    0.00 PKD
ROOT
HETATM    1  N   UNL     1      -8.333  13.234  68.629  1.00  0.00    -0.338 NA 
HETATM    2  C   UNL     1      -9.075  14.482  68.459  1.00  0.00    -0.190 C  
HETATM    3  H1  UNL     1      -7.618  13.350  69.347  1.00  0.00     0.000 HD 
HETATM    4  H2  UNL     1      -7.941  12.899  67.749  1.00  0.00     0.000 HD 
ENDROOT
BRANCH   2   5
HETATM    5  C   UNL     1     -10.146  14.309  67.382  1.00  0.00    -0.247 C  
HETATM    6  O   UNL     1      -9.879  14.176  66.182  1.00  0.00    -0.292 OA 
BRANCH   5   7
HETATM    7  C   UNL     1     -11.587  14.496  67.777  1.00  0.00    -0.390 C  
BRANCH   7   8
HETATM    8  C   UNL     1     -11.917  13.636  68.984  1.00  0.00    -0.392 C  
HETATM    9  C   UNL     1     -12.447  14.318  70.230  1.00  0.00    -0.361 C  
HETATM   10  O   UNL     1     -12.908  13.658  71.154  1.00  0.00    -0.337 OA 
HETATM   11  O   UNL     1     -12.367  15.655  70.311  1.00  0.00    -0.400 OA 
ENDBRANCH   7   8
ENDBRANCH   5   7
ENDBRANCH   2   5
TORSDOF 3
ENDMDL
MODEL      145
REMARK 921   NORMALIZED FREE ENERGY PREDICTED BY IDOCK:   -2.34 KCAL/MOL
REMARK 922        TOTAL FREE ENERGY PREDICTED BY IDOCK:   -3.08 KCAL/MOL
REMARK 923 INTER-LIGAND FREE ENERGY PREDICTED BY IDOCK:   -2.72 KCAL/MOL
REMARK 924 INTRA-LIGAND FREE ENERGY PREDICTED BY IDOCK:   -0.37 KCAL/MOL
REMARK 927      BINDING AFFINITY PREDICTED BY RF-SCORE:    0.00 PKD
ROOT
HETATM    1  N   UNL     1     -12.327  10.869  71.056  1.00  0.00    -0.377 NA 
HETATM    2  C   UNL     1     -11.760  10.790  69.711  1.00  0.00    -0.324 C  
HETATM    3  H1  UNL     1     -13.297  11.182  71.007  1.00  0.00     0.000 HD 
HETATM    4  H2  UNL     1     -11.767  11.456  71.674  1.00  0.00     0.000 HD 
ENDROOT
BRANCH   2   5
HETATM    5  C   UNL     1     -10.307  10.321  69.785  1.00  0.00    -0.246 C  
HETATM    6  O   UNL     1      -9.463  10.610  68.929  1.00  0.00    -0.178 OA 
BRANCH   5   7
HETATM    7  C   UNL     1      -9.938   9.314  70.842  1.00  0.00    -0.367 C  
BRANCH   7   8
HETATM    8  C   UNL     1     -10.013   7.908  70.276  1.00  0.00    -0.189 C  
HETATM    9  C   UNL     1     -11.342   7.180  70.334  1.00  0.00    -0.289 C  
HETATM   10  O   UNL     1     -11.506   6.131  69.723  1.00  0.00    -0.433 OA 
HETATM   11  O   UNL     1     -12.320   7.692  71.097  1.00  0.00    -0.312 OA 
ENDBRANCH   7   8
ENDBRANCH   5   7
ENDBRANCH   2   5
TORSDOF 3
ENDMDL
MODEL      146
REMARK 921   NORMALIZED FREE ENERGY PREDICTED BY IDOCK:   -2.34 KCAL/MOL
REMARK 922        TOTAL FREE ENERGY PREDICTED BY IDOCK:   -3.08 KCAL/MOL
REMARK 923 INTER-LIGAND FREE ENERGY PREDICTED BY IDOCK:   -2.65 KCAL/MOL
REMARK 924 INTRA-LIGAND FREE ENERGY PREDICTED BY IDOCK:   -0.43 KCAL/MOL
REMARK 927      BINDING AFFINITY PREDICTED BY RF-SCORE:    0.00 PKD
ROOT
HETATM    1  N   UNL     1      -8.148  11.087  69.556  1.00  0.00    -0.373 NA 
HETATM    2  C   UNL     1      -8.487   9.668  69.637  1.00  0.00    -0.174 C  
HETATM    3  H1  UNL     1      -7.145  11.198  69.405  1.00  0.00     0.000 HD 
HETATM    4  H2  UNL     1      -8.470  11.605  70.374  1.00  0.00     0.000 HD 
ENDROOT
BRANCH   2   5
HETATM    5  C   UNL     1      -9.989   9.503  69.865  1.00  0.00    -0.230 C  
HETATM    6  O   UNL     1     -10.586   8.438  69.671  1.00  0.00    -0.224 OA 
BRANCH   5   7
HETATM    7  C   UNL     1     -10.803  10.736  70.158  1.00  0.00    -0.148 C  
BRANCH   7   8
HETATM    8  C   UNL     1     -11.798  10.986  69.040  1.00  0.00    -0.399 C  
HETATM    9  C   UNL     1     -11.351  11.817  67.853  1.00  0.00    -0.292 C  
HETATM   10  O   UNL     1     -12.042  11.885  66.843  1.00  0.00    -0.599 OA 
HETATM   11  O   UNL     1     -10.201  12.503  67.948  1.00  0.00    -0.207 OA 
ENDBRANCH   7   8
ENDBRANCH   5   7
ENDBRANCH   2   5
TORSDOF 3
ENDMDL
MODEL      147
REMARK 921   NORMALIZED FREE ENERGY PREDICTED BY IDOCK:   -2.34 KCAL/MOL
REMARK 922        TOTAL FREE ENERGY PREDICTED BY IDOCK:   -3.08 KCAL/MOL
REMARK 923 INTER-LIGAND FREE ENERGY PREDICTED BY IDOCK:   -2.71 KCAL/MOL
REMARK 924 INTRA-LIGAND FREE ENERGY PREDICTED BY IDOCK:   -0.37 KCAL/MOL
REMARK 927      BINDING AFFINITY PREDICTED BY RF-SCORE:    0.00 PKD
ROOT
HETATM    1  N   UNL     1      -6.969  16.780  66.473  1.00  0.00    -0.224 NA 
HETATM    2  C   UNL     1      -8.403  16.574  66.281  1.00  0.00    -0.329 C  
HETATM    3  H1  UNL     1      -6.444  16.054  65.985  1.00  0.00     0.000 HD 
HETATM    4  H2  UNL     1      -6.719  16.833  67.461  1.00  0.00     0.000 HD 
ENDROOT
BRANCH   2   5
HETATM    5  C   UNL     1      -9.189  17.661  67.014  1.00  0.00    -0.250 C  
HETATM    6  O   UNL     1     -10.362  17.516  67.374  1.00  0.00    -0.329 OA 
BRANCH   5   7
HETATM    7  C   UNL     1      -8.568  19.028  67.133  1.00  0.00    -0.298 C  
BRANCH   7   8
HETATM    8  C   UNL     1      -8.286  19.352  68.588  1.00  0.00    -0.397 C  
HETATM    9  C   UNL     1      -6.841  19.445  69.037  1.00  0.00    -0.342 C  
HETATM   10  O   UNL     1      -6.559  19.891  70.143  1.00  0.00    -0.334 OA 
HETATM   11  O   UNL     1      -5.884  18.996  68.211  1.00  0.00    -0.205 OA 
ENDBRANCH   7   8
ENDBRANCH   5   7
ENDBRANCH   2   5
TORSDOF 3
ENDMDL
MODEL      148
REMARK 921   NORMALIZED FREE ENERGY PREDICTED BY IDOCK:   -2.34 KCAL/MOL
REMARK 922        TOTAL FREE ENERGY PREDICTED BY IDOCK:   -3.08 KCAL/MOL
REMARK 923 INTER-LIGAND FREE ENERGY PREDICTED BY IDOCK:   -2.67 KCAL/MOL
REMARK 924 INTRA-LIGAND FREE ENERGY PREDICTED BY IDOCK:   -0.41 KCAL/MOL
REMARK 927      BINDING AFFINITY PREDICTED BY RF-SCORE:    0.00 PKD
ROOT
HETATM    1  N   UNL     1     -11.383   6.690  66.825  1.00  0.00    -0.795 NA 
HETATM    2  C   UNL     1     -10.544   7.687  67.486  1.00  0.00    -0.252 C  
HETATM    3  H1  UNL     1     -11.413   6.870  65.821  1.00  0.00     0.000 HD 
HETATM    4  H2  UNL     1     -12.317   6.645  67.233  1.00  0.00     0.000 HD 
ENDROOT
BRANCH   2   5
HETATM    5  C   UNL     1     -10.500   7.418  68.990  1.00  0.00    -0.210 C  
HETATM    6  O   UNL     1      -9.757   8.034  69.763  1.00  0.00    -0.174 OA 
BRANCH   5   7
HETATM    7  C   UNL     1     -11.255   6.228  69.521  1.00  0.00    -0.500 C  
BRANCH   7   8
HETATM    8  C   UNL     1     -10.295   5.237  70.153  1.00  0.00    -0.354 C  
HETATM    9  C   UNL     1      -9.505   4.319  69.241  1.00  0.00    -0.184 C  
HETATM   10  O   UNL     1      -8.583   3.643  69.683  1.00  0.00    -0.062 OA 
HETATM   11  O   UNL     1      -9.861   4.238  67.950  1.00  0.00    -0.140 OA 
ENDBRANCH   7   8
ENDBRANCH   5   7
ENDBRANCH   2   5
TORSDOF 3
ENDMDL
MODEL      149
REMARK 921   NORMALIZED FREE ENERGY PREDICTED BY IDOCK:   -2.34 KCAL/MOL
REMARK 922        TOTAL FREE ENERGY PREDICTED BY IDOCK:   -3.07 KCAL/MOL
REMARK 923 INTER-LIGAND FREE ENERGY PREDICTED BY IDOCK:   -2.92 KCAL/MOL
REMARK 924 INTRA-LIGAND FREE ENERGY PREDICTED BY IDOCK:   -0.15 KCAL/MOL
REMARK 927      BINDING AFFINITY PREDICTED BY RF-SCORE:    0.00 PKD
ROOT
HETATM    1  N   UNL     1     -11.441   4.489  64.975  1.00  0.00    -1.108 NA 
HETATM    2  C   UNL     1     -10.135   4.477  65.630  1.00  0.00    -0.244 C  
HETATM    3  H1  UNL     1     -11.361   4.110  64.031  1.00  0.00     0.000 HD 
HETATM    4  H2  UNL     1     -11.862   5.419  64.978  1.00  0.00     0.000 HD 
ENDROOT
BRANCH   2   5
HETATM    5  C   UNL     1     -10.255   5.046  67.044  1.00  0.00    -0.208 C  
HETATM    6  O   UNL     1      -9.910   4.420  68.053  1.00  0.00    -0.142 OA 
BRANCH   5   7
HETATM    7  C   UNL     1     -10.995   6.345  67.225  1.00  0.00    -0.474 C  
BRANCH   7   8
HETATM    8  C   UNL     1     -10.091   7.516  66.888  1.00  0.00    -0.336 C  
HETATM    9  C   UNL     1      -9.360   8.209  68.021  1.00  0.00    -0.135 C  
HETATM   10  O   UNL     1      -8.476   9.025  67.787  1.00  0.00    -0.117 OA 
HETATM   11  O   UNL     1      -9.727   7.936  69.283  1.00  0.00    -0.157 OA 
ENDBRANCH   7   8
ENDBRANCH   5   7
ENDBRANCH   2   5
TORSDOF 3
ENDMDL
MODEL      150
REMARK 921   NORMALIZED FREE ENERGY PREDICTED BY IDOCK:   -2.32 KCAL/MOL
REMARK 922        TOTAL FREE ENERGY PREDICTED BY IDOCK:   -3.05 KCAL/MOL
REMARK 923 INTER-LIGAND FREE ENERGY PREDICTED BY IDOCK:   -2.69 KCAL/MOL
REMARK 924 INTRA-LIGAND FREE ENERGY PREDICTED BY IDOCK:   -0.36 KCAL/MOL
REMARK 927      BINDING AFFINITY PREDICTED BY RF-SCORE:    0.00 PKD
ROOT
HETATM    1  N   UNL     1      -6.342  19.511  66.460  1.00  0.00    -0.184 NA 
HETATM    2  C   UNL     1      -6.536  18.344  65.603  1.00  0.00    -0.278 C  
HETATM    3  H1  UNL     1      -5.860  20.247  65.943  1.00  0.00     0.000 HD 
HETATM    4  H2  UNL     1      -5.857  19.274  67.326  1.00  0.00     0.000 HD 
ENDROOT
BRANCH   2   5
HETATM    5  C   UNL     1      -7.257  17.241  66.379  1.00  0.00    -0.292 C  
HETATM    6  O   UNL     1      -6.683  16.231  66.803  1.00  0.00    -0.229 OA 
BRANCH   5   7
HETATM    7  C   UNL     1      -8.759  17.299  66.466  1.00  0.00    -0.293 C  
BRANCH   7   8
HETATM    8  C   UNL     1      -9.185  17.901  67.792  1.00  0.00    -0.258 C  
HETATM    9  C   UNL     1      -9.647  19.345  67.811  1.00  0.00    -0.335 C  
HETATM   10  O   UNL     1     -10.182  19.817  68.808  1.00  0.00    -0.449 OA 
HETATM   11  O   UNL     1      -9.425  20.103  66.726  1.00  0.00    -0.371 OA 
ENDBRANCH   7   8
ENDBRANCH   5   7
ENDBRANCH   2   5
TORSDOF 3
ENDMDL
MODEL      151
REMARK 921   NORMALIZED FREE ENERGY PREDICTED BY IDOCK:   -2.31 KCAL/MOL
REMARK 922        TOTAL FREE ENERGY PREDICTED BY IDOCK:   -3.04 KCAL/MOL
REMARK 923 INTER-LIGAND FREE ENERGY PREDICTED BY IDOCK:   -2.62 KCAL/MOL
REMARK 924 INTRA-LIGAND FREE ENERGY PREDICTED BY IDOCK:   -0.42 KCAL/MOL
REMARK 927      BINDING AFFINITY PREDICTED BY RF-SCORE:    0.00 PKD
ROOT
HETATM    1  N   UNL     1     -11.535   4.257  64.867  1.00  0.00    -1.013 NA 
HETATM    2  C   UNL     1     -10.243   3.841  64.325  1.00  0.00    -0.235 C  
HETATM    3  H1  UNL     1     -12.250   4.208  64.141  1.00  0.00     0.000 HD 
HETATM    4  H2  UNL     1     -11.490   5.181  65.298  1.00  0.00     0.000 HD 
ENDROOT
BRANCH   2   5
HETATM    5  C   UNL     1      -9.172   3.916  65.413  1.00  0.00    -0.151 C  
HETATM    6  O   UNL     1      -8.711   2.914  65.973  1.00  0.00    -0.117 OA 
BRANCH   5   7
HETATM    7  C   UNL     1      -8.801   5.272  65.953  1.00  0.00    -0.145 C  
BRANCH   7   8
HETATM    8  C   UNL     1      -9.022   5.318  67.453  1.00  0.00    -0.108 C  
HETATM    9  C   UNL     1     -10.367   5.790  67.968  1.00  0.00    -0.206 C  
HETATM   10  O   UNL     1     -10.664   5.662  69.150  1.00  0.00    -0.276 OA 
HETATM   11  O   UNL     1     -11.210   6.383  67.107  1.00  0.00    -0.370 OA 
ENDBRANCH   7   8
ENDBRANCH   5   7
ENDBRANCH   2   5
TORSDOF 3
ENDMDL
MODEL      152
REMARK 921   NORMALIZED FREE ENERGY PREDICTED BY IDOCK:   -2.30 KCAL/MOL
REMARK 922        TOTAL FREE ENERGY PREDICTED BY IDOCK:   -3.03 KCAL/MOL
REMARK 923 INTER-LIGAND FREE ENERGY PREDICTED BY IDOCK:   -2.64 KCAL/MOL
REMARK 924 INTRA-LIGAND FREE ENERGY PREDICTED BY IDOCK:   -0.39 KCAL/MOL
REMARK 927      BINDING AFFINITY PREDICTED BY RF-SCORE:    0.00 PKD
ROOT
HETATM    1  N   UNL     1     -11.502   6.484  68.980  1.00  0.00    -0.615 NA 
HETATM    2  C   UNL     1     -10.600   7.633  68.982  1.00  0.00    -0.174 C  
HETATM    3  H1  UNL     1     -11.441   5.995  68.087  1.00  0.00     0.000 HD 
HETATM    4  H2  UNL     1     -12.461   6.751  69.204  1.00  0.00     0.000 HD 
ENDROOT
BRANCH   2   5
HETATM    5  C   UNL     1     -10.693   8.367  70.320  1.00  0.00    -0.234 C  
HETATM    6  O   UNL     1      -9.779   9.070  70.767  1.00  0.00    -0.204 OA 
BRANCH   5   7
HETATM    7  C   UNL     1     -11.869   8.070  71.213  1.00  0.00    -0.321 C  
BRANCH   7   8
HETATM    8  C   UNL     1     -11.389   7.655  72.591  1.00  0.00    -0.423 C  
HETATM    9  C   UNL     1     -10.824   6.260  72.767  1.00  0.00    -0.252 C  
HETATM   10  O   UNL     1     -10.248   5.944  73.802  1.00  0.00    -0.201 OA 
HETATM   11  O   UNL     1     -10.999   5.369  71.778  1.00  0.00    -0.213 OA 
ENDBRANCH   7   8
ENDBRANCH   5   7
ENDBRANCH   2   5
TORSDOF 3
ENDMDL
MODEL      153
REMARK 921   NORMALIZED FREE ENERGY PREDICTED BY IDOCK:   -2.29 KCAL/MOL
REMARK 922        TOTAL FREE ENERGY PREDICTED BY IDOCK:   -3.03 KCAL/MOL
REMARK 923 INTER-LIGAND FREE ENERGY PREDICTED BY IDOCK:   -2.86 KCAL/MOL
REMARK 924 INTRA-LIGAND FREE ENERGY PREDICTED BY IDOCK:   -0.16 KCAL/MOL
REMARK 927      BINDING AFFINITY PREDICTED BY RF-SCORE:    0.00 PKD
ROOT
HETATM    1  N   UNL     1     -10.352  17.690  66.854  1.00  0.00    -0.335 NA 
HETATM    2  C   UNL     1     -10.499  17.828  68.302  1.00  0.00    -0.364 C  
HETATM    3  H1  UNL     1     -10.258  18.610  66.424  1.00  0.00     0.000 HD 
HETATM    4  H2  UNL     1     -11.114  17.151  66.442  1.00  0.00     0.000 HD 
ENDROOT
BRANCH   2   5
HETATM    5  C   UNL     1     -10.641  16.450  68.947  1.00  0.00    -0.307 C  
HETATM    6  O   UNL     1      -9.697  15.856  69.480  1.00  0.00    -0.262 OA 
BRANCH   5   7
HETATM    7  C   UNL     1     -11.937  15.707  68.757  1.00  0.00    -0.247 C  
BRANCH   7   8
HETATM    8  C   UNL     1     -11.681  14.362  68.104  1.00  0.00    -0.377 C  
HETATM    9  C   UNL     1     -11.879  13.109  68.936  1.00  0.00    -0.320 C  
HETATM   10  O   UNL     1     -11.876  12.003  68.409  1.00  0.00    -0.320 OA 
HETATM   11  O   UNL     1     -12.022  13.238  70.264  1.00  0.00    -0.333 OA 
ENDBRANCH   7   8
ENDBRANCH   5   7
ENDBRANCH   2   5
TORSDOF 3
ENDMDL
MODEL      154
REMARK 921   NORMALIZED FREE ENERGY PREDICTED BY IDOCK:   -2.29 KCAL/MOL
REMARK 922        TOTAL FREE ENERGY PREDICTED BY IDOCK:   -3.02 KCAL/MOL
REMARK 923 INTER-LIGAND FREE ENERGY PREDICTED BY IDOCK:   -2.87 KCAL/MOL
REMARK 924 INTRA-LIGAND FREE ENERGY PREDICTED BY IDOCK:   -0.15 KCAL/MOL
REMARK 927      BINDING AFFINITY PREDICTED BY RF-SCORE:    0.00 PKD
ROOT
HETATM    1  N   UNL     1      -7.497  17.306  68.800  1.00  0.00    -0.254 NA 
HETATM    2  C   UNL     1      -7.653  15.877  69.063  1.00  0.00    -0.202 C  
HETATM    3  H1  UNL     1      -7.014  17.753  69.579  1.00  0.00     0.000 HD 
HETATM    4  H2  UNL     1      -8.389  17.757  68.594  1.00  0.00     0.000 HD 
ENDROOT
BRANCH   2   5
HETATM    5  C   UNL     1      -8.377  15.207  67.896  1.00  0.00    -0.149 C  
HETATM    6  O   UNL     1      -7.790  14.559  67.022  1.00  0.00    -0.151 OA 
BRANCH   5   7
HETATM    7  C   UNL     1      -9.840  15.508  67.701  1.00  0.00    -0.213 C  
BRANCH   7   8
HETATM    8  C   UNL     1     -10.041  16.359  66.461  1.00  0.00    -0.304 C  
HETATM    9  C   UNL     1     -10.679  15.717  65.245  1.00  0.00    -0.428 C  
HETATM   10  O   UNL     1     -11.040  16.402  64.294  1.00  0.00    -0.845 OA 
HETATM   11  O   UNL     1     -10.808  14.382  65.218  1.00  0.00    -0.319 OA 
ENDBRANCH   7   8
ENDBRANCH   5   7
ENDBRANCH   2   5
TORSDOF 3
ENDMDL
MODEL      155
REMARK 921   NORMALIZED FREE ENERGY PREDICTED BY IDOCK:   -2.28 KCAL/MOL
REMARK 922        TOTAL FREE ENERGY PREDICTED BY IDOCK:   -3.01 KCAL/MOL
REMARK 923 INTER-LIGAND FREE ENERGY PREDICTED BY IDOCK:   -2.71 KCAL/MOL
REMARK 924 INTRA-LIGAND FREE ENERGY PREDICTED BY IDOCK:   -0.30 KCAL/MOL
REMARK 927      BINDING AFFINITY PREDICTED BY RF-SCORE:    0.00 PKD
ROOT
HETATM    1  N   UNL     1     -12.911   9.347  72.200  1.00  0.00    -0.411 NA 
HETATM    2  C   UNL     1     -11.971   9.506  71.092  1.00  0.00    -0.348 C  
HETATM    3  H1  UNL     1     -13.240  10.262  72.511  1.00  0.00     0.000 HD 
HETATM    4  H2  UNL     1     -12.513   8.803  72.965  1.00  0.00     0.000 HD 
ENDROOT
BRANCH   2   5
HETATM    5  C   UNL     1     -11.478   8.136  70.626  1.00  0.00    -0.231 C  
HETATM    6  O   UNL     1     -10.683   7.990  69.690  1.00  0.00    -0.238 OA 
BRANCH   5   7
HETATM    7  C   UNL     1     -12.131   6.911  71.208  1.00  0.00    -0.419 C  
BRANCH   7   8
HETATM    8  C   UNL     1     -11.083   5.998  71.818  1.00  0.00    -0.332 C  
HETATM    9  C   UNL     1     -10.594   6.301  73.221  1.00  0.00    -0.262 C  
HETATM   10  O   UNL     1      -9.902   5.492  73.829  1.00  0.00    -0.155 OA 
HETATM   11  O   UNL     1     -10.907   7.486  73.766  1.00  0.00    -0.316 OA 
ENDBRANCH   7   8
ENDBRANCH   5   7
ENDBRANCH   2   5
TORSDOF 3
ENDMDL
MODEL      156
REMARK 921   NORMALIZED FREE ENERGY PREDICTED BY IDOCK:   -2.28 KCAL/MOL
REMARK 922        TOTAL FREE ENERGY PREDICTED BY IDOCK:   -3.01 KCAL/MOL
REMARK 923 INTER-LIGAND FREE ENERGY PREDICTED BY IDOCK:   -2.90 KCAL/MOL
REMARK 924 INTRA-LIGAND FREE ENERGY PREDICTED BY IDOCK:   -0.11 KCAL/MOL
REMARK 927      BINDING AFFINITY PREDICTED BY RF-SCORE:    0.00 PKD
ROOT
HETATM    1  N   UNL     1     -10.615  12.826  69.123  1.00  0.00    -0.439 NA 
HETATM    2  C   UNL     1     -11.816  11.994  69.113  1.00  0.00    -0.311 C  
HETATM    3  H1  UNL     1     -10.828  13.750  68.745  1.00  0.00     0.000 HD 
HETATM    4  H2  UNL     1      -9.838  12.383  68.633  1.00  0.00     0.000 HD 
ENDROOT
BRANCH   2   5
HETATM    5  C   UNL     1     -11.496  10.610  69.678  1.00  0.00    -0.291 C  
HETATM    6  O   UNL     1     -11.127   9.664  68.973  1.00  0.00    -0.177 OA 
BRANCH   5   7
HETATM    7  C   UNL     1     -11.825  10.340  71.123  1.00  0.00    -0.455 C  
BRANCH   7   8
HETATM    8  C   UNL     1     -11.811   8.847  71.394  1.00  0.00    -0.383 C  
HETATM    9  C   UNL     1     -10.600   8.254  72.088  1.00  0.00    -0.310 C  
HETATM   10  O   UNL     1     -10.621   7.101  72.502  1.00  0.00    -0.216 OA 
HETATM   11  O   UNL     1      -9.496   9.007  72.205  1.00  0.00    -0.315 OA 
ENDBRANCH   7   8
ENDBRANCH   5   7
ENDBRANCH   2   5
TORSDOF 3
ENDMDL
MODEL      157
REMARK 921   NORMALIZED FREE ENERGY PREDICTED BY IDOCK:   -2.27 KCAL/MOL
REMARK 922        TOTAL FREE ENERGY PREDICTED BY IDOCK:   -3.00 KCAL/MOL
REMARK 923 INTER-LIGAND FREE ENERGY PREDICTED BY IDOCK:   -2.87 KCAL/MOL
REMARK 924 INTRA-LIGAND FREE ENERGY PREDICTED BY IDOCK:   -0.13 KCAL/MOL
REMARK 927      BINDING AFFINITY PREDICTED BY RF-SCORE:    0.00 PKD
ROOT
HETATM    1  N   UNL     1     -10.446   7.294  66.463  1.00  0.00    -0.503 NA 
HETATM    2  C   UNL     1     -10.976   6.239  67.323  1.00  0.00    -0.366 C  
HETATM    3  H1  UNL     1     -10.510   7.011  65.485  1.00  0.00     0.000 HD 
HETATM    4  H2  UNL     1      -9.495   7.558  66.723  1.00  0.00     0.000 HD 
ENDROOT
BRANCH   2   5
HETATM    5  C   UNL     1     -10.879   6.662  68.789  1.00  0.00    -0.267 C  
HETATM    6  O   UNL     1     -11.220   5.929  69.725  1.00  0.00    -0.389 OA 
BRANCH   5   7
HETATM    7  C   UNL     1     -10.533   8.096  69.093  1.00  0.00    -0.217 C  
BRANCH   7   8
HETATM    8  C   UNL     1      -9.502   8.163  70.204  1.00  0.00    -0.167 C  
HETATM    9  C   UNL     1      -9.914   8.765  71.532  1.00  0.00    -0.300 C  
HETATM   10  O   UNL     1      -9.188   8.667  72.515  1.00  0.00    -0.293 OA 
HETATM   11  O   UNL     1     -11.073   9.438  71.598  1.00  0.00    -0.369 OA 
ENDBRANCH   7   8
ENDBRANCH   5   7
ENDBRANCH   2   5
TORSDOF 3
ENDMDL
MODEL      158
REMARK 921   NORMALIZED FREE ENERGY PREDICTED BY IDOCK:   -2.26 KCAL/MOL
REMARK 922        TOTAL FREE ENERGY PREDICTED BY IDOCK:   -2.98 KCAL/MOL
REMARK 923 INTER-LIGAND FREE ENERGY PREDICTED BY IDOCK:   -2.84 KCAL/MOL
REMARK 924 INTRA-LIGAND FREE ENERGY PREDICTED BY IDOCK:   -0.14 KCAL/MOL
REMARK 927      BINDING AFFINITY PREDICTED BY RF-SCORE:    0.00 PKD
ROOT
HETATM    1  N   UNL     1     -11.248  11.163  63.408  1.00  0.00    -0.718 NA 
HETATM    2  C   UNL     1     -10.440  12.045  64.248  1.00  0.00    -0.328 C  
HETATM    3  H1  UNL     1     -10.968  11.260  62.432  1.00  0.00     0.000 HD 
HETATM    4  H2  UNL     1     -12.248  11.322  63.537  1.00  0.00     0.000 HD 
ENDROOT
BRANCH   2   5
HETATM    5  C   UNL     1     -10.860  11.900  65.711  1.00  0.00    -0.295 C  
HETATM    6  O   UNL     1     -11.960  12.271  66.135  1.00  0.00    -0.579 OA 
BRANCH   5   7
HETATM    7  C   UNL     1      -9.820  11.460  66.708  1.00  0.00    -0.232 C  
BRANCH   7   8
HETATM    8  C   UNL     1     -10.098  10.040  67.164  1.00  0.00    -0.265 C  
HETATM    9  C   UNL     1      -9.191   8.933  66.662  1.00  0.00    -0.170 C  
HETATM   10  O   UNL     1      -9.249   7.810  67.148  1.00  0.00    -0.138 OA 
HETATM   11  O   UNL     1      -8.350   9.203  65.651  1.00  0.00    -0.115 OA 
ENDBRANCH   7   8
ENDBRANCH   5   7
ENDBRANCH   2   5
TORSDOF 3
ENDMDL
MODEL      159
REMARK 921   NORMALIZED FREE ENERGY PREDICTED BY IDOCK:   -2.25 KCAL/MOL
REMARK 922        TOTAL FREE ENERGY PREDICTED BY IDOCK:   -2.97 KCAL/MOL
REMARK 923 INTER-LIGAND FREE ENERGY PREDICTED BY IDOCK:   -2.91 KCAL/MOL
REMARK 924 INTRA-LIGAND FREE ENERGY PREDICTED BY IDOCK:   -0.07 KCAL/MOL
REMARK 927      BINDING AFFINITY PREDICTED BY RF-SCORE:    0.00 PKD
ROOT
HETATM    1  N   UNL     1     -12.103   6.805  72.686  1.00  0.00    -0.494 NA 
HETATM    2  C   UNL     1     -10.650   6.924  72.789  1.00  0.00    -0.240 C  
HETATM    3  H1  UNL     1     -12.403   5.893  73.030  1.00  0.00     0.000 HD 
HETATM    4  H2  UNL     1     -12.435   6.986  71.739  1.00  0.00     0.000 HD 
ENDROOT
BRANCH   2   5
HETATM    5  C   UNL     1     -10.200   8.291  72.273  1.00  0.00    -0.305 C  
HETATM    6  O   UNL     1      -9.061   8.737  72.455  1.00  0.00    -0.366 OA 
BRANCH   5   7
HETATM    7  C   UNL     1     -11.241   9.206  71.685  1.00  0.00    -0.447 C  
BRANCH   7   8
HETATM    8  C   UNL     1     -10.804   9.688  70.315  1.00  0.00    -0.339 C  
HETATM    9  C   UNL     1     -11.677  10.696  69.594  1.00  0.00    -0.296 C  
HETATM   10  O   UNL     1     -11.275  11.259  68.582  1.00  0.00    -0.206 OA 
HETATM   11  O   UNL     1     -12.910  10.929  70.068  1.00  0.00    -0.213 OA 
ENDBRANCH   7   8
ENDBRANCH   5   7
ENDBRANCH   2   5
TORSDOF 3
ENDMDL
MODEL      160
REMARK 921   NORMALIZED FREE ENERGY PREDICTED BY IDOCK:   -2.25 KCAL/MOL
REMARK 922        TOTAL FREE ENERGY PREDICTED BY IDOCK:   -2.97 KCAL/MOL
REMARK 923 INTER-LIGAND FREE ENERGY PREDICTED BY IDOCK:   -2.93 KCAL/MOL
REMARK 924 INTRA-LIGAND FREE ENERGY PREDICTED BY IDOCK:   -0.05 KCAL/MOL
REMARK 927      BINDING AFFINITY PREDICTED BY RF-SCORE:    0.00 PKD
ROOT
HETATM    1  N   UNL     1      -7.437  18.561  68.788  1.00  0.00    -0.295 NA 
HETATM    2  C   UNL     1      -8.296  17.510  68.245  1.00  0.00    -0.265 C  
HETATM    3  H1  UNL     1      -6.458  18.342  68.599  1.00  0.00     0.000 HD 
HETATM    4  H2  UNL     1      -7.608  18.720  69.781  1.00  0.00     0.000 HD 
ENDROOT
BRANCH   2   5
HETATM    5  C   UNL     1      -9.762  17.837  68.529  1.00  0.00    -0.343 C  
HETATM    6  O   UNL     1     -10.135  18.933  68.962  1.00  0.00    -0.395 OA 
BRANCH   5   7
HETATM    7  C   UNL     1     -10.766  16.717  68.456  1.00  0.00    -0.358 C  
BRANCH   7   8
HETATM    8  C   UNL     1     -11.115  16.233  69.851  1.00  0.00    -0.347 C  
HETATM    9  C   UNL     1     -11.741  14.860  70.000  1.00  0.00    -0.294 C  
HETATM   10  O   UNL     1     -11.861  14.345  71.105  1.00  0.00    -0.322 OA 
HETATM   11  O   UNL     1     -12.193  14.239  68.899  1.00  0.00    -0.306 OA 
ENDBRANCH   7   8
ENDBRANCH   5   7
ENDBRANCH   2   5
TORSDOF 3
ENDMDL
MODEL      161
REMARK 921   NORMALIZED FREE ENERGY PREDICTED BY IDOCK:   -2.24 KCAL/MOL
REMARK 922        TOTAL FREE ENERGY PREDICTED BY IDOCK:   -2.96 KCAL/MOL
REMARK 923 INTER-LIGAND FREE ENERGY PREDICTED BY IDOCK:   -2.81 KCAL/MOL
REMARK 924 INTRA-LIGAND FREE ENERGY PREDICTED BY IDOCK:   -0.15 KCAL/MOL
REMARK 927      BINDING AFFINITY PREDICTED BY RF-SCORE:    0.00 PKD
ROOT
HETATM    1  N   UNL     1      -9.735  14.478  69.331  1.00  0.00    -0.424 NA 
HETATM    2  C   UNL     1     -11.173  14.676  69.165  1.00  0.00    -0.270 C  
HETATM    3  H1  UNL     1      -9.223  15.120  68.724  1.00  0.00     0.000 HD 
HETATM    4  H2  UNL     1      -9.461  13.507  69.178  1.00  0.00     0.000 HD 
ENDROOT
BRANCH   2   5
HETATM    5  C   UNL     1     -11.940  13.714  70.073  1.00  0.00    -0.343 C  
HETATM    6  O   UNL     1     -12.156  13.946  71.268  1.00  0.00    -0.319 OA 
BRANCH   5   7
HETATM    7  C   UNL     1     -12.280  12.349  69.536  1.00  0.00    -0.145 C  
BRANCH   7   8
HETATM    8  C   UNL     1     -11.282  11.323  70.040  1.00  0.00    -0.213 C  
HETATM    9  C   UNL     1     -11.698  10.414  71.180  1.00  0.00    -0.296 C  
HETATM   10  O   UNL     1     -11.011   9.449  71.492  1.00  0.00    -0.355 OA 
HETATM   11  O   UNL     1     -12.816  10.712  71.861  1.00  0.00    -0.445 OA 
ENDBRANCH   7   8
ENDBRANCH   5   7
ENDBRANCH   2   5
TORSDOF 3
ENDMDL
MODEL      162
REMARK 921   NORMALIZED FREE ENERGY PREDICTED BY IDOCK:   -2.24 KCAL/MOL
REMARK 922        TOTAL FREE ENERGY PREDICTED BY IDOCK:   -2.96 KCAL/MOL
REMARK 923 INTER-LIGAND FREE ENERGY PREDICTED BY IDOCK:   -2.89 KCAL/MOL
REMARK 924 INTRA-LIGAND FREE ENERGY PREDICTED BY IDOCK:   -0.07 KCAL/MOL
REMARK 927      BINDING AFFINITY PREDICTED BY RF-SCORE:    0.00 PKD
ROOT
HETATM    1  N   UNL     1     -11.477   4.742  65.371  1.00  0.00    -1.023 NA 
HETATM    2  C   UNL     1     -10.424   4.774  66.383  1.00  0.00    -0.239 C  
HETATM    3  H1  UNL     1     -11.313   3.972  64.722  1.00  0.00     0.000 HD 
HETATM    4  H2  UNL     1     -11.572   5.635  64.889  1.00  0.00     0.000 HD 
ENDROOT
BRANCH   2   5
HETATM    5  C   UNL     1     -10.669   5.927  67.356  1.00  0.00    -0.287 C  
HETATM    6  O   UNL     1     -11.030   5.756  68.525  1.00  0.00    -0.242 OA 
BRANCH   5   7
HETATM    7  C   UNL     1     -10.651   7.331  66.811  1.00  0.00    -0.288 C  
BRANCH   7   8
HETATM    8  C   UNL     1      -9.261   7.684  66.315  1.00  0.00    -0.204 C  
HETATM    9  C   UNL     1      -9.029   9.075  65.757  1.00  0.00    -0.197 C  
HETATM   10  O   UNL     1      -7.893   9.473  65.527  1.00  0.00    -0.104 OA 
HETATM   11  O   UNL     1     -10.095   9.843  65.487  1.00  0.00    -0.303 OA 
ENDBRANCH   7   8
ENDBRANCH   5   7
ENDBRANCH   2   5
TORSDOF 3
ENDMDL
MODEL      163
REMARK 921   NORMALIZED FREE ENERGY PREDICTED BY IDOCK:   -2.24 KCAL/MOL
REMARK 922        TOTAL FREE ENERGY PREDICTED BY IDOCK:   -2.96 KCAL/MOL
REMARK 923 INTER-LIGAND FREE ENERGY PREDICTED BY IDOCK:   -2.83 KCAL/MOL
REMARK 924 INTRA-LIGAND FREE ENERGY PREDICTED BY IDOCK:   -0.13 KCAL/MOL
REMARK 927      BINDING AFFINITY PREDICTED BY RF-SCORE:    0.00 PKD
ROOT
HETATM    1  N   UNL     1     -12.239  14.746  68.203  1.00  0.00    -0.589 NA 
HETATM    2  C   UNL     1     -10.814  14.454  68.063  1.00  0.00    -0.243 C  
HETATM    3  H1  UNL     1     -12.736  13.912  68.517  1.00  0.00     0.000 HD 
HETATM    4  H2  UNL     1     -12.637  15.127  67.345  1.00  0.00     0.000 HD 
ENDROOT
BRANCH   2   5
HETATM    5  C   UNL     1     -10.069  15.702  67.591  1.00  0.00    -0.248 C  
HETATM    6  O   UNL     1      -9.186  15.672  66.726  1.00  0.00    -0.219 OA 
BRANCH   5   7
HETATM    7  C   UNL     1     -10.290  16.988  68.344  1.00  0.00    -0.351 C  
BRANCH   7   8
HETATM    8  C   UNL     1      -8.962  17.562  68.802  1.00  0.00    -0.211 C  
HETATM    9  C   UNL     1      -8.520  18.896  68.232  1.00  0.00    -0.330 C  
HETATM   10  O   UNL     1      -7.561  19.492  68.710  1.00  0.00    -0.344 OA 
HETATM   11  O   UNL     1      -9.179  19.390  67.173  1.00  0.00    -0.299 OA 
ENDBRANCH   7   8
ENDBRANCH   5   7
ENDBRANCH   2   5
TORSDOF 3
ENDMDL
MODEL      164
REMARK 921   NORMALIZED FREE ENERGY PREDICTED BY IDOCK:   -2.23 KCAL/MOL
REMARK 922        TOTAL FREE ENERGY PREDICTED BY IDOCK:   -2.95 KCAL/MOL
REMARK 923 INTER-LIGAND FREE ENERGY PREDICTED BY IDOCK:   -2.84 KCAL/MOL
REMARK 924 INTRA-LIGAND FREE ENERGY PREDICTED BY IDOCK:   -0.11 KCAL/MOL
REMARK 927      BINDING AFFINITY PREDICTED BY RF-SCORE:    0.00 PKD
ROOT
HETATM    1  N   UNL     1     -10.983   5.449  66.162  1.00  0.00    -0.767 NA 
HETATM    2  C   UNL     1     -11.258   6.484  67.156  1.00  0.00    -0.235 C  
HETATM    3  H1  UNL     1     -11.622   5.546  65.372  1.00  0.00     0.000 HD 
HETATM    4  H2  UNL     1     -11.014   4.512  66.565  1.00  0.00     0.000 HD 
ENDROOT
BRANCH   2   5
HETATM    5  C   UNL     1     -10.302   6.338  68.339  1.00  0.00    -0.200 C  
HETATM    6  O   UNL     1      -9.078   6.483  68.237  1.00  0.00    -0.121 OA 
BRANCH   5   7
HETATM    7  C   UNL     1     -10.854   5.813  69.638  1.00  0.00    -0.418 C  
BRANCH   7   8
HETATM    8  C   UNL     1     -11.649   6.895  70.345  1.00  0.00    -0.385 C  
HETATM    9  C   UNL     1     -10.991   7.638  71.491  1.00  0.00    -0.233 C  
HETATM   10  O   UNL     1     -11.510   8.643  71.964  1.00  0.00    -0.322 OA 
HETATM   11  O   UNL     1      -9.847   7.152  71.997  1.00  0.00    -0.159 OA 
ENDBRANCH   7   8
ENDBRANCH   5   7
ENDBRANCH   2   5
TORSDOF 3
ENDMDL
MODEL      165
REMARK 921   NORMALIZED FREE ENERGY PREDICTED BY IDOCK:   -2.20 KCAL/MOL
REMARK 922        TOTAL FREE ENERGY PREDICTED BY IDOCK:   -2.92 KCAL/MOL
REMARK 923 INTER-LIGAND FREE ENERGY PREDICTED BY IDOCK:   -2.55 KCAL/MOL
REMARK 924 INTRA-LIGAND FREE ENERGY PREDICTED BY IDOCK:   -0.37 KCAL/MOL
REMARK 927      BINDING AFFINITY PREDICTED BY RF-SCORE:    0.00 PKD
ROOT
HETATM    1  N   UNL     1      -7.745  18.113  68.768  1.00  0.00    -0.290 NA 
HETATM    2  C   UNL     1      -7.704  18.274  67.316  1.00  0.00    -0.219 C  
HETATM    3  H1  UNL     1      -7.265  18.893  69.218  1.00  0.00     0.000 HD 
HETATM    4  H2  UNL     1      -7.370  17.211  69.063  1.00  0.00     0.000 HD 
ENDROOT
BRANCH   2   5
HETATM    5  C   UNL     1      -8.423  17.106  66.641  1.00  0.00    -0.250 C  
HETATM    6  O   UNL     1      -7.824  16.146  66.141  1.00  0.00    -0.159 OA 
BRANCH   5   7
HETATM    7  C   UNL     1      -9.906  17.222  66.410  1.00  0.00    -0.310 C  
BRANCH   7   8
HETATM    8  C   UNL     1     -10.627  16.035  67.020  1.00  0.00    -0.302 C  
HETATM    9  C   UNL     1     -11.085  16.135  68.462  1.00  0.00    -0.357 C  
HETATM   10  O   UNL     1     -11.836  15.291  68.939  1.00  0.00    -0.338 OA 
HETATM   11  O   UNL     1     -10.623  17.147  69.212  1.00  0.00    -0.326 OA 
ENDBRANCH   7   8
ENDBRANCH   5   7
ENDBRANCH   2   5
TORSDOF 3
ENDMDL
MODEL      166
REMARK 921   NORMALIZED FREE ENERGY PREDICTED BY IDOCK:   -2.19 KCAL/MOL
REMARK 922        TOTAL FREE ENERGY PREDICTED BY IDOCK:   -2.91 KCAL/MOL
REMARK 923 INTER-LIGAND FREE ENERGY PREDICTED BY IDOCK:   -2.78 KCAL/MOL
REMARK 924 INTRA-LIGAND FREE ENERGY PREDICTED BY IDOCK:   -0.13 KCAL/MOL
REMARK 927      BINDING AFFINITY PREDICTED BY RF-SCORE:    0.00 PKD
ROOT
HETATM    1  N   UNL     1      -7.427   9.161  71.188  1.00  0.00    -0.246 NA 
HETATM    2  C   UNL     1      -8.620   9.467  70.403  1.00  0.00    -0.230 C  
HETATM    3  H1  UNL     1      -6.594   9.490  70.700  1.00  0.00     0.000 HD 
HETATM    4  H2  UNL     1      -7.366   8.169  71.422  1.00  0.00     0.000 HD 
ENDROOT
BRANCH   2   5
HETATM    5  C   UNL     1      -9.868   8.973  71.135  1.00  0.00    -0.300 C  
HETATM    6  O   UNL     1      -9.824   8.413  72.236  1.00  0.00    -0.259 OA 
BRANCH   5   7
HETATM    7  C   UNL     1     -11.181   9.002  70.398  1.00  0.00    -0.275 C  
BRANCH   7   8
HETATM    8  C   UNL     1     -11.575  10.433  70.084  1.00  0.00    -0.392 C  
HETATM    9  C   UNL     1     -11.651  10.855  68.630  1.00  0.00    -0.303 C  
HETATM   10  O   UNL     1     -12.148  11.931  68.317  1.00  0.00    -0.485 OA 
HETATM   11  O   UNL     1     -11.129  10.042  67.699  1.00  0.00    -0.285 OA 
ENDBRANCH   7   8
ENDBRANCH   5   7
ENDBRANCH   2   5
TORSDOF 3
ENDMDL
MODEL      167
REMARK 921   NORMALIZED FREE ENERGY PREDICTED BY IDOCK:   -2.16 KCAL/MOL
REMARK 922        TOTAL FREE ENERGY PREDICTED BY IDOCK:   -2.87 KCAL/MOL
REMARK 923 INTER-LIGAND FREE ENERGY PREDICTED BY IDOCK:   -2.77 KCAL/MOL
REMARK 924 INTRA-LIGAND FREE ENERGY PREDICTED BY IDOCK:   -0.10 KCAL/MOL
REMARK 927      BINDING AFFINITY PREDICTED BY RF-SCORE:    0.00 PKD
ROOT
HETATM    1  N   UNL     1     -11.449   6.677  66.904  1.00  0.00    -0.767 NA 
HETATM    2  C   UNL     1     -10.671   5.996  67.937  1.00  0.00    -0.284 C  
HETATM    3  H1  UNL     1     -12.000   5.998  66.379  1.00  0.00     0.000 HD 
HETATM    4  H2  UNL     1     -10.861   7.245  66.294  1.00  0.00     0.000 HD 
ENDROOT
BRANCH   2   5
HETATM    5  C   UNL     1      -9.843   7.013  68.722  1.00  0.00    -0.152 C  
HETATM    6  O   UNL     1      -8.618   7.121  68.602  1.00  0.00    -0.125 OA 
BRANCH   5   7
HETATM    7  C   UNL     1     -10.525   7.785  69.822  1.00  0.00    -0.233 C  
BRANCH   7   8
HETATM    8  C   UNL     1     -10.497   6.990  71.115  1.00  0.00    -0.229 C  
HETATM    9  C   UNL     1     -11.814   6.504  71.688  1.00  0.00    -0.333 C  
HETATM   10  O   UNL     1     -11.834   5.701  72.613  1.00  0.00    -0.283 OA 
HETATM   11  O   UNL     1     -12.954   7.000  71.183  1.00  0.00    -0.360 OA 
ENDBRANCH   7   8
ENDBRANCH   5   7
ENDBRANCH   2   5
TORSDOF 3
ENDMDL
MODEL      168
REMARK 921   NORMALIZED FREE ENERGY PREDICTED BY IDOCK:   -2.16 KCAL/MOL
REMARK 922        TOTAL FREE ENERGY PREDICTED BY IDOCK:   -2.86 KCAL/MOL
REMARK 923 INTER-LIGAND FREE ENERGY PREDICTED BY IDOCK:   -2.56 KCAL/MOL
REMARK 924 INTRA-LIGAND FREE ENERGY PREDICTED BY IDOCK:   -0.30 KCAL/MOL
REMARK 927      BINDING AFFINITY PREDICTED BY RF-SCORE:    0.00 PKD
ROOT
HETATM    1  N   UNL     1      -9.743  10.013  69.950  1.00  0.00    -0.317 NA 
HETATM    2  C   UNL     1     -10.244   9.356  71.155  1.00  0.00    -0.291 C  
HETATM    3  H1  UNL     1      -9.193  10.834  70.203  1.00  0.00     0.000 HD 
HETATM    4  H2  UNL     1     -10.495  10.243  69.299  1.00  0.00     0.000 HD 
ENDROOT
BRANCH   2   5
HETATM    5  C   UNL     1     -11.070   8.127  70.775  1.00  0.00    -0.259 C  
HETATM    6  O   UNL     1     -12.284   8.040  70.990  1.00  0.00    -0.280 OA 
BRANCH   5   7
HETATM    7  C   UNL     1     -10.339   6.902  70.292  1.00  0.00    -0.218 C  
BRANCH   7   8
HETATM    8  C   UNL     1     -11.090   6.266  69.136  1.00  0.00    -0.457 C  
HETATM    9  C   UNL     1     -10.858   6.811  67.741  1.00  0.00    -0.264 C  
HETATM   10  O   UNL     1     -11.283   6.214  66.759  1.00  0.00    -0.279 OA 
HETATM   11  O   UNL     1     -10.209   7.978  67.609  1.00  0.00    -0.196 OA 
ENDBRANCH   7   8
ENDBRANCH   5   7
ENDBRANCH   2   5
TORSDOF 3
ENDMDL
MODEL      169
REMARK 921   NORMALIZED FREE ENERGY PREDICTED BY IDOCK:   -2.13 KCAL/MOL
REMARK 922        TOTAL FREE ENERGY PREDICTED BY IDOCK:   -2.83 KCAL/MOL
REMARK 923 INTER-LIGAND FREE ENERGY PREDICTED BY IDOCK:   -2.72 KCAL/MOL
REMARK 924 INTRA-LIGAND FREE ENERGY PREDICTED BY IDOCK:   -0.11 KCAL/MOL
REMARK 927      BINDING AFFINITY PREDICTED BY RF-SCORE:    0.00 PKD
ROOT
HETATM    1  N   UNL     1      -9.565  18.723  66.655  1.00  0.00    -0.323 NA 
HETATM    2  C   UNL     1      -9.050  17.355  66.664  1.00  0.00    -0.258 C  
HETATM    3  H1  UNL     1      -8.905  19.347  67.120  1.00  0.00     0.000 HD 
HETATM    4  H2  UNL     1     -10.499  18.783  67.060  1.00  0.00     0.000 HD 
ENDROOT
BRANCH   2   5
HETATM    5  C   UNL     1     -10.039  16.420  65.968  1.00  0.00    -0.353 C  
HETATM    6  O   UNL     1     -10.669  16.742  64.954  1.00  0.00    -0.721 OA 
BRANCH   5   7
HETATM    7  C   UNL     1     -10.398  15.128  66.653  1.00  0.00    -0.274 C  
BRANCH   7   8
HETATM    8  C   UNL     1     -10.055  15.205  68.130  1.00  0.00    -0.222 C  
HETATM    9  C   UNL     1     -11.141  14.883  69.138  1.00  0.00    -0.269 C  
HETATM   10  O   UNL     1     -10.868  14.740  70.324  1.00  0.00    -0.161 OA 
HETATM   11  O   UNL     1     -12.408  14.793  68.707  1.00  0.00    -0.143 OA 
ENDBRANCH   7   8
ENDBRANCH   5   7
ENDBRANCH   2   5
TORSDOF 3
ENDMDL
MODEL      170
REMARK 921   NORMALIZED FREE ENERGY PREDICTED BY IDOCK:   -2.12 KCAL/MOL
REMARK 922        TOTAL FREE ENERGY PREDICTED BY IDOCK:   -2.82 KCAL/MOL
REMARK 923 INTER-LIGAND FREE ENERGY PREDICTED BY IDOCK:   -2.71 KCAL/MOL
REMARK 924 INTRA-LIGAND FREE ENERGY PREDICTED BY IDOCK:   -0.11 KCAL/MOL
REMARK 927      BINDING AFFINITY PREDICTED BY RF-SCORE:    0.00 PKD
ROOT
HETATM    1  N   UNL     1      -9.636   6.579  65.801  1.00  0.00    -0.368 NA 
HETATM    2  C   UNL     1      -8.968   7.723  66.418  1.00  0.00    -0.163 C  
HETATM    3  H1  UNL     1      -9.052   5.747  65.887  1.00  0.00     0.000 HD 
HETATM    4  H2  UNL     1      -9.896   6.765  64.833  1.00  0.00     0.000 HD 
ENDROOT
BRANCH   2   5
HETATM    5  C   UNL     1      -9.842   8.970  66.289  1.00  0.00    -0.291 C  
HETATM    6  O   UNL     1      -9.880   9.662  65.265  1.00  0.00    -0.310 OA 
BRANCH   5   7
HETATM    7  C   UNL     1     -10.539   9.480  67.523  1.00  0.00    -0.338 C  
BRANCH   7   8
HETATM    8  C   UNL     1      -9.950  10.813  67.945  1.00  0.00    -0.196 C  
HETATM    9  C   UNL     1     -10.865  12.021  67.991  1.00  0.00    -0.216 C  
HETATM   10  O   UNL     1     -10.492  13.068  68.508  1.00  0.00    -0.249 OA 
HETATM   11  O   UNL     1     -12.077  11.929  67.424  1.00  0.00    -0.577 OA 
ENDBRANCH   7   8
ENDBRANCH   5   7
ENDBRANCH   2   5
TORSDOF 3
ENDMDL
MODEL      171
REMARK 921   NORMALIZED FREE ENERGY PREDICTED BY IDOCK:   -2.12 KCAL/MOL
REMARK 922        TOTAL FREE ENERGY PREDICTED BY IDOCK:   -2.82 KCAL/MOL
REMARK 923 INTER-LIGAND FREE ENERGY PREDICTED BY IDOCK:   -2.67 KCAL/MOL
REMARK 924 INTRA-LIGAND FREE ENERGY PREDICTED BY IDOCK:   -0.14 KCAL/MOL
REMARK 927      BINDING AFFINITY PREDICTED BY RF-SCORE:    0.00 PKD
ROOT
HETATM    1  N   UNL     1      -9.631   5.285  72.523  1.00  0.00    -0.148 NA 
HETATM    2  C   UNL     1     -10.900   5.813  73.021  1.00  0.00    -0.271 C  
HETATM    3  H1  UNL     1      -9.246   4.617  73.190  1.00  0.00     0.000 HD 
HETATM    4  H2  UNL     1      -8.969   6.028  72.300  1.00  0.00     0.000 HD 
ENDROOT
BRANCH   2   5
HETATM    5  C   UNL     1     -11.477   6.815  72.022  1.00  0.00    -0.282 C  
HETATM    6  O   UNL     1     -11.970   6.477  70.939  1.00  0.00    -0.369 OA 
BRANCH   5   7
HETATM    7  C   UNL     1     -11.267   8.282  72.285  1.00  0.00    -0.443 C  
BRANCH   7   8
HETATM    8  C   UNL     1     -10.361   8.881  71.225  1.00  0.00    -0.355 C  
HETATM    9  C   UNL     1     -10.914   9.988  70.349  1.00  0.00    -0.320 C  
HETATM   10  O   UNL     1     -10.173  10.634  69.617  1.00  0.00    -0.206 OA 
HETATM   11  O   UNL     1     -12.236  10.219  70.366  1.00  0.00    -0.278 OA 
ENDBRANCH   7   8
ENDBRANCH   5   7
ENDBRANCH   2   5
TORSDOF 3
ENDMDL
MODEL      172
REMARK 921   NORMALIZED FREE ENERGY PREDICTED BY IDOCK:   -2.10 KCAL/MOL
REMARK 922        TOTAL FREE ENERGY PREDICTED BY IDOCK:   -2.80 KCAL/MOL
REMARK 923 INTER-LIGAND FREE ENERGY PREDICTED BY IDOCK:   -2.72 KCAL/MOL
REMARK 924 INTRA-LIGAND FREE ENERGY PREDICTED BY IDOCK:   -0.08 KCAL/MOL
REMARK 927      BINDING AFFINITY PREDICTED BY RF-SCORE:    0.00 PKD
ROOT
HETATM    1  N   UNL     1     -14.408   7.596  71.014  1.00  0.00    -0.643 NA 
HETATM    2  C   UNL     1     -13.587   8.610  71.673  1.00  0.00    -0.371 C  
HETATM    3  H1  UNL     1     -15.389   7.876  71.032  1.00  0.00     0.000 HD 
HETATM    4  H2  UNL     1     -14.267   6.669  71.416  1.00  0.00     0.000 HD 
ENDROOT
BRANCH   2   5
HETATM    5  C   UNL     1     -12.118   8.191  71.646  1.00  0.00    -0.304 C  
HETATM    6  O   UNL     1     -11.492   7.997  70.598  1.00  0.00    -0.277 OA 
BRANCH   5   7
HETATM    7  C   UNL     1     -11.462   7.818  72.950  1.00  0.00    -0.359 C  
BRANCH   7   8
HETATM    8  C   UNL     1     -10.436   6.722  72.726  1.00  0.00    -0.247 C  
HETATM    9  C   UNL     1      -9.083   6.855  73.398  1.00  0.00    -0.136 C  
HETATM   10  O   UNL     1      -8.297   5.916  73.410  1.00  0.00    -0.115 OA 
HETATM   11  O   UNL     1      -8.754   8.035  73.946  1.00  0.00    -0.266 OA 
ENDBRANCH   7   8
ENDBRANCH   5   7
ENDBRANCH   2   5
TORSDOF 3
ENDMDL
MODEL      173
REMARK 921   NORMALIZED FREE ENERGY PREDICTED BY IDOCK:   -2.10 KCAL/MOL
REMARK 922        TOTAL FREE ENERGY PREDICTED BY IDOCK:   -2.80 KCAL/MOL
REMARK 923 INTER-LIGAND FREE ENERGY PREDICTED BY IDOCK:   -2.74 KCAL/MOL
REMARK 924 INTRA-LIGAND FREE ENERGY PREDICTED BY IDOCK:   -0.05 KCAL/MOL
REMARK 927      BINDING AFFINITY PREDICTED BY RF-SCORE:    0.00 PKD
ROOT
HETATM    1  N   UNL     1      -9.296  13.663  67.824  1.00  0.00    -0.209 NA 
HETATM    2  C   UNL     1      -9.493  13.993  66.414  1.00  0.00    -0.259 C  
HETATM    3  H1  UNL     1      -8.544  14.231  68.213  1.00  0.00     0.000 HD 
HETATM    4  H2  UNL     1      -9.134  12.666  67.964  1.00  0.00     0.000 HD 
ENDROOT
BRANCH   2   5
HETATM    5  C   UNL     1     -10.620  13.141  65.831  1.00  0.00    -0.280 C  
HETATM    6  O   UNL     1     -11.495  12.615  66.527  1.00  0.00    -0.313 OA 
BRANCH   5   7
HETATM    7  C   UNL     1     -10.551  12.775  64.371  1.00  0.00    -0.402 C  
BRANCH   7   8
HETATM    8  C   UNL     1     -10.474  11.268  64.211  1.00  0.00    -0.419 C  
HETATM    9  C   UNL     1      -9.468  10.700  63.230  1.00  0.00    -0.329 C  
HETATM   10  O   UNL     1      -9.231   9.498  63.205  1.00  0.00    -0.216 OA 
HETATM   11  O   UNL     1      -8.872  11.537  62.367  1.00  0.00    -0.318 OA 
ENDBRANCH   7   8
ENDBRANCH   5   7
ENDBRANCH   2   5
TORSDOF 3
ENDMDL
MODEL      174
REMARK 921   NORMALIZED FREE ENERGY PREDICTED BY IDOCK:   -2.08 KCAL/MOL
REMARK 922        TOTAL FREE ENERGY PREDICTED BY IDOCK:   -2.77 KCAL/MOL
REMARK 923 INTER-LIGAND FREE ENERGY PREDICTED BY IDOCK:   -2.38 KCAL/MOL
REMARK 924 INTRA-LIGAND FREE ENERGY PREDICTED BY IDOCK:   -0.40 KCAL/MOL
REMARK 927      BINDING AFFINITY PREDICTED BY RF-SCORE:    0.00 PKD
ROOT
HETATM    1  N   UNL     1      -7.111  15.502  69.427  1.00  0.00    -0.180 NA 
HETATM    2  C   UNL     1      -7.160  16.126  68.106  1.00  0.00    -0.131 C  
HETATM    3  H1  UNL     1      -6.421  14.750  69.431  1.00  0.00     0.000 HD 
HETATM    4  H2  UNL     1      -8.029  15.181  69.733  1.00  0.00     0.000 HD 
ENDROOT
BRANCH   2   5
HETATM    5  C   UNL     1      -8.194  17.253  68.100  1.00  0.00    -0.231 C  
HETATM    6  O   UNL     1      -7.989  18.356  68.619  1.00  0.00    -0.306 OA 
BRANCH   5   7
HETATM    7  C   UNL     1      -9.582  16.940  67.607  1.00  0.00    -0.248 C  
BRANCH   7   8
HETATM    8  C   UNL     1     -10.599  17.204  68.701  1.00  0.00    -0.352 C  
HETATM    9  C   UNL     1     -10.749  16.178  69.807  1.00  0.00    -0.336 C  
HETATM   10  O   UNL     1     -11.408  16.431  70.809  1.00  0.00    -0.373 OA 
HETATM   11  O   UNL     1     -10.173  14.976  69.648  1.00  0.00    -0.217 OA 
ENDBRANCH   7   8
ENDBRANCH   5   7
ENDBRANCH   2   5
TORSDOF 3
ENDMDL
MODEL      175
REMARK 921   NORMALIZED FREE ENERGY PREDICTED BY IDOCK:   -2.08 KCAL/MOL
REMARK 922        TOTAL FREE ENERGY PREDICTED BY IDOCK:   -2.77 KCAL/MOL
REMARK 923 INTER-LIGAND FREE ENERGY PREDICTED BY IDOCK:   -2.66 KCAL/MOL
REMARK 924 INTRA-LIGAND FREE ENERGY PREDICTED BY IDOCK:   -0.11 KCAL/MOL
REMARK 927      BINDING AFFINITY PREDICTED BY RF-SCORE:    0.00 PKD
ROOT
HETATM    1  N   UNL     1     -12.497   9.508  71.852  1.00  0.00    -0.384 NA 
HETATM    2  C   UNL     1     -12.902  10.592  70.960  1.00  0.00    -0.407 C  
HETATM    3  H1  UNL     1     -13.124   9.466  72.656  1.00  0.00     0.000 HD 
HETATM    4  H2  UNL     1     -11.520   9.588  72.133  1.00  0.00     0.000 HD 
ENDROOT
BRANCH   2   5
HETATM    5  C   UNL     1     -11.962  10.655  69.756  1.00  0.00    -0.291 C  
HETATM    6  O   UNL     1     -12.269  11.202  68.691  1.00  0.00    -0.582 OA 
BRANCH   5   7
HETATM    7  C   UNL     1     -10.686   9.856  69.808  1.00  0.00    -0.298 C  
BRANCH   7   8
HETATM    8  C   UNL     1     -10.745   8.708  68.817  1.00  0.00    -0.098 C  
HETATM    9  C   UNL     1     -10.047   8.874  67.482  1.00  0.00    -0.227 C  
HETATM   10  O   UNL     1      -9.899   7.916  66.731  1.00  0.00    -0.209 OA 
HETATM   11  O   UNL     1      -9.629  10.098  67.125  1.00  0.00    -0.162 OA 
ENDBRANCH   7   8
ENDBRANCH   5   7
ENDBRANCH   2   5
TORSDOF 3
ENDMDL
MODEL      176
REMARK 921   NORMALIZED FREE ENERGY PREDICTED BY IDOCK:   -2.08 KCAL/MOL
REMARK 922        TOTAL FREE ENERGY PREDICTED BY IDOCK:   -2.77 KCAL/MOL
REMARK 923 INTER-LIGAND FREE ENERGY PREDICTED BY IDOCK:   -2.69 KCAL/MOL
REMARK 924 INTRA-LIGAND FREE ENERGY PREDICTED BY IDOCK:   -0.08 KCAL/MOL
REMARK 927      BINDING AFFINITY PREDICTED BY RF-SCORE:    0.00 PKD
ROOT
HETATM    1  N   UNL     1      -9.953   9.929  70.364  1.00  0.00    -0.373 NA 
HETATM    2  C   UNL     1     -10.642   9.221  69.287  1.00  0.00    -0.222 C  
HETATM    3  H1  UNL     1      -9.674   9.270  71.091  1.00  0.00     0.000 HD 
HETATM    4  H2  UNL     1     -10.513  10.696  70.737  1.00  0.00     0.000 HD 
ENDROOT
BRANCH   2   5
HETATM    5  C   UNL     1     -11.060  10.209  68.197  1.00  0.00    -0.230 C  
HETATM    6  O   UNL     1     -10.852  10.012  66.995  1.00  0.00    -0.215 OA 
BRANCH   5   7
HETATM    7  C   UNL     1     -11.578  11.558  68.623  1.00  0.00    -0.375 C  
BRANCH   7   8
HETATM    8  C   UNL     1     -11.767  12.453  67.412  1.00  0.00    -0.417 C  
HETATM    9  C   UNL     1     -11.089  13.809  67.407  1.00  0.00    -0.296 C  
HETATM   10  O   UNL     1     -11.048  14.483  66.385  1.00  0.00    -0.318 OA 
HETATM   11  O   UNL     1     -10.568  14.269  68.556  1.00  0.00    -0.243 OA 
ENDBRANCH   7   8
ENDBRANCH   5   7
ENDBRANCH   2   5
TORSDOF 3
ENDMDL
MODEL      177
REMARK 921   NORMALIZED FREE ENERGY PREDICTED BY IDOCK:   -2.05 KCAL/MOL
REMARK 922        TOTAL FREE ENERGY PREDICTED BY IDOCK:   -2.74 KCAL/MOL
REMARK 923 INTER-LIGAND FREE ENERGY PREDICTED BY IDOCK:   -2.64 KCAL/MOL
REMARK 924 INTRA-LIGAND FREE ENERGY PREDICTED BY IDOCK:   -0.10 KCAL/MOL
REMARK 927      BINDING AFFINITY PREDICTED BY RF-SCORE:    0.00 PKD
ROOT
HETATM    1  N   UNL     1      -6.155  16.558  66.906  1.00  0.00    -0.299 NA 
HETATM    2  C   UNL     1      -7.437  17.047  66.403  1.00  0.00    -0.301 C  
HETATM    3  H1  UNL     1      -5.409  16.807  66.256  1.00  0.00     0.000 HD 
HETATM    4  H2  UNL     1      -6.176  15.556  67.098  1.00  0.00     0.000 HD 
ENDROOT
BRANCH   2   5
HETATM    5  C   UNL     1      -8.556  16.673  67.375  1.00  0.00    -0.189 C  
HETATM    6  O   UNL     1      -8.378  16.559  68.594  1.00  0.00    -0.212 OA 
BRANCH   5   7
HETATM    7  C   UNL     1      -9.881  16.244  66.802  1.00  0.00    -0.254 C  
BRANCH   7   8
HETATM    8  C   UNL     1      -9.669  15.455  65.524  1.00  0.00    -0.318 C  
HETATM    9  C   UNL     1     -10.277  14.070  65.425  1.00  0.00    -0.347 C  
HETATM   10  O   UNL     1     -10.303  13.474  64.354  1.00  0.00    -0.433 OA 
HETATM   11  O   UNL     1     -10.753  13.498  66.541  1.00  0.00    -0.284 OA 
ENDBRANCH   7   8
ENDBRANCH   5   7
ENDBRANCH   2   5
TORSDOF 3
ENDMDL
MODEL      178
REMARK 921   NORMALIZED FREE ENERGY PREDICTED BY IDOCK:   -2.05 KCAL/MOL
REMARK 922        TOTAL FREE ENERGY PREDICTED BY IDOCK:   -2.74 KCAL/MOL
REMARK 923 INTER-LIGAND FREE ENERGY PREDICTED BY IDOCK:   -2.48 KCAL/MOL
REMARK 924 INTRA-LIGAND FREE ENERGY PREDICTED BY IDOCK:   -0.25 KCAL/MOL
REMARK 927      BINDING AFFINITY PREDICTED BY RF-SCORE:    0.00 PKD
ROOT
HETATM    1  N   UNL     1     -12.602   6.483  72.296  1.00  0.00    -0.554 NA 
HETATM    2  C   UNL     1     -11.820   7.716  72.348  1.00  0.00    -0.289 C  
HETATM    3  H1  UNL     1     -13.573   6.696  72.067  1.00  0.00     0.000 HD 
HETATM    4  H2  UNL     1     -12.522   5.942  73.157  1.00  0.00     0.000 HD 
ENDROOT
BRANCH   2   5
HETATM    5  C   UNL     1     -10.365   7.398  72.691  1.00  0.00    -0.244 C  
HETATM    6  O   UNL     1      -9.763   7.930  73.631  1.00  0.00    -0.273 OA 
BRANCH   5   7
HETATM    7  C   UNL     1      -9.580   6.543  71.731  1.00  0.00    -0.158 C  
BRANCH   7   8
HETATM    8  C   UNL     1      -9.442   7.246  70.394  1.00  0.00    -0.165 C  
HETATM    9  C   UNL     1     -10.457   6.938  69.311  1.00  0.00    -0.214 C  
HETATM   10  O   UNL     1     -10.508   7.616  68.291  1.00  0.00    -0.199 OA 
HETATM   11  O   UNL     1     -11.273   5.886  69.479  1.00  0.00    -0.389 OA 
ENDBRANCH   7   8
ENDBRANCH   5   7
ENDBRANCH   2   5
TORSDOF 3
ENDMDL
MODEL      179
REMARK 921   NORMALIZED FREE ENERGY PREDICTED BY IDOCK:   -2.04 KCAL/MOL
REMARK 922        TOTAL FREE ENERGY PREDICTED BY IDOCK:   -2.72 KCAL/MOL
REMARK 923 INTER-LIGAND FREE ENERGY PREDICTED BY IDOCK:   -2.61 KCAL/MOL
REMARK 924 INTRA-LIGAND FREE ENERGY PREDICTED BY IDOCK:   -0.11 KCAL/MOL
REMARK 927      BINDING AFFINITY PREDICTED BY RF-SCORE:    0.00 PKD
ROOT
HETATM    1  N   UNL     1     -12.238  14.769  67.966  1.00  0.00    -0.580 NA 
HETATM    2  C   UNL     1     -10.833  15.169  67.920  1.00  0.00    -0.291 C  
HETATM    3  H1  UNL     1     -12.488  14.485  68.914  1.00  0.00     0.000 HD 
HETATM    4  H2  UNL     1     -12.453  14.045  67.281  1.00  0.00     0.000 HD 
ENDROOT
BRANCH   2   5
HETATM    5  C   UNL     1     -10.459  15.595  66.500  1.00  0.00    -0.302 C  
HETATM    6  O   UNL     1     -11.151  15.325  65.512  1.00  0.00    -0.337 OA 
BRANCH   5   7
HETATM    7  C   UNL     1      -9.099  16.202  66.276  1.00  0.00    -0.373 C  
BRANCH   7   8
HETATM    8  C   UNL     1      -8.539  16.732  67.583  1.00  0.00    -0.211 C  
HETATM    9  C   UNL     1      -7.189  16.221  68.047  1.00  0.00    -0.132 C  
HETATM   10  O   UNL     1      -6.608  16.756  68.984  1.00  0.00    -0.179 OA 
HETATM   11  O   UNL     1      -6.663  15.151  67.432  1.00  0.00    -0.207 OA 
ENDBRANCH   7   8
ENDBRANCH   5   7
ENDBRANCH   2   5
TORSDOF 3
ENDMDL
MODEL      180
REMARK 921   NORMALIZED FREE ENERGY PREDICTED BY IDOCK:   -2.02 KCAL/MOL
REMARK 922        TOTAL FREE ENERGY PREDICTED BY IDOCK:   -2.70 KCAL/MOL
REMARK 923 INTER-LIGAND FREE ENERGY PREDICTED BY IDOCK:   -2.54 KCAL/MOL
REMARK 924 INTRA-LIGAND FREE ENERGY PREDICTED BY IDOCK:   -0.16 KCAL/MOL
REMARK 927      BINDING AFFINITY PREDICTED BY RF-SCORE:    0.00 PKD
ROOT
HETATM    1  N   UNL     1      -9.385   8.960  72.019  1.00  0.00    -0.370 NA 
HETATM    2  C   UNL     1     -10.795   8.617  72.189  1.00  0.00    -0.354 C  
HETATM    3  H1  UNL     1      -9.300   9.861  71.549  1.00  0.00     0.000 HD 
HETATM    4  H2  UNL     1      -8.868   8.226  71.536  1.00  0.00     0.000 HD 
ENDROOT
BRANCH   2   5
HETATM    5  C   UNL     1     -10.922   7.266  72.894  1.00  0.00    -0.337 C  
HETATM    6  O   UNL     1     -10.454   7.047  74.017  1.00  0.00    -0.366 OA 
BRANCH   5   7
HETATM    7  C   UNL     1     -11.476   6.106  72.110  1.00  0.00    -0.361 C  
BRANCH   7   8
HETATM    8  C   UNL     1     -10.371   5.119  71.782  1.00  0.00    -0.274 C  
HETATM    9  C   UNL     1     -10.338   3.801  72.529  1.00  0.00    -0.132 C  
HETATM   10  O   UNL     1      -9.593   2.897  72.169  1.00  0.00    -0.118 OA 
HETATM   11  O   UNL     1     -11.117   3.659  73.613  1.00  0.00    -0.231 OA 
ENDBRANCH   7   8
ENDBRANCH   5   7
ENDBRANCH   2   5
TORSDOF 3
ENDMDL
MODEL      181
REMARK 921   NORMALIZED FREE ENERGY PREDICTED BY IDOCK:   -1.98 KCAL/MOL
REMARK 922        TOTAL FREE ENERGY PREDICTED BY IDOCK:   -2.65 KCAL/MOL
REMARK 923 INTER-LIGAND FREE ENERGY PREDICTED BY IDOCK:   -2.30 KCAL/MOL
REMARK 924 INTRA-LIGAND FREE ENERGY PREDICTED BY IDOCK:   -0.36 KCAL/MOL
REMARK 927      BINDING AFFINITY PREDICTED BY RF-SCORE:    0.00 PKD
ROOT
HETATM    1  N   UNL     1      -8.156   7.003  71.442  1.00  0.00    -0.107 NA 
HETATM    2  C   UNL     1      -8.399   5.873  72.335  1.00  0.00    -0.117 C  
HETATM    3  H1  UNL     1      -7.211   7.361  71.582  1.00  0.00     0.000 HD 
HETATM    4  H2  UNL     1      -8.861   7.733  71.548  1.00  0.00     0.000 HD 
ENDROOT
BRANCH   2   5
HETATM    5  C   UNL     1      -9.815   5.337  72.126  1.00  0.00    -0.171 C  
HETATM    6  O   UNL     1     -10.195   4.248  72.573  1.00  0.00    -0.166 OA 
BRANCH   5   7
HETATM    7  C   UNL     1     -10.722   6.078  71.179  1.00  0.00    -0.323 C  
BRANCH   7   8
HETATM    8  C   UNL     1     -11.922   6.628  71.926  1.00  0.00    -0.386 C  
HETATM    9  C   UNL     1     -11.919   8.095  72.312  1.00  0.00    -0.377 C  
HETATM   10  O   UNL     1     -12.935   8.631  72.737  1.00  0.00    -0.305 OA 
HETATM   11  O   UNL     1     -10.770   8.781  72.209  1.00  0.00    -0.344 OA 
ENDBRANCH   7   8
ENDBRANCH   5   7
ENDBRANCH   2   5
TORSDOF 3
ENDMDL
MODEL      182
REMARK 921   NORMALIZED FREE ENERGY PREDICTED BY IDOCK:   -1.97 KCAL/MOL
REMARK 922        TOTAL FREE ENERGY PREDICTED BY IDOCK:   -2.64 KCAL/MOL
REMARK 923 INTER-LIGAND FREE ENERGY PREDICTED BY IDOCK:   -2.60 KCAL/MOL
REMARK 924 INTRA-LIGAND FREE ENERGY PREDICTED BY IDOCK:   -0.05 KCAL/MOL
REMARK 927      BINDING AFFINITY PREDICTED BY RF-SCORE:    0.00 PKD
ROOT
HETATM    1  N   UNL     1      -7.008   8.849  65.792  1.00  0.00    -0.079 NA 
HETATM    2  C   UNL     1      -8.124   9.394  65.023  1.00  0.00    -0.129 C  
HETATM    3  H1  UNL     1      -6.395   8.309  65.182  1.00  0.00     0.000 HD 
HETATM    4  H2  UNL     1      -7.326   8.304  66.594  1.00  0.00     0.000 HD 
ENDROOT
BRANCH   2   5
HETATM    5  C   UNL     1      -9.044  10.203  65.938  1.00  0.00    -0.156 C  
HETATM    6  O   UNL     1      -9.494   9.760  67.001  1.00  0.00    -0.149 OA 
BRANCH   5   7
HETATM    7  C   UNL     1      -9.571  11.519  65.431  1.00  0.00    -0.249 C  
BRANCH   7   8
HETATM    8  C   UNL     1     -11.080  11.574  65.583  1.00  0.00    -0.261 C  
HETATM    9  C   UNL     1     -11.818  12.765  65.005  1.00  0.00    -0.382 C  
HETATM   10  O   UNL     1     -13.042  12.764  64.928  1.00  0.00    -0.833 OA 
HETATM   11  O   UNL     1     -11.105  13.832  64.613  1.00  0.00    -0.357 OA 
ENDBRANCH   7   8
ENDBRANCH   5   7
ENDBRANCH   2   5
TORSDOF 3
ENDMDL
MODEL      183
REMARK 921   NORMALIZED FREE ENERGY PREDICTED BY IDOCK:   -1.96 KCAL/MOL
REMARK 922        TOTAL FREE ENERGY PREDICTED BY IDOCK:   -2.64 KCAL/MOL
REMARK 923 INTER-LIGAND FREE ENERGY PREDICTED BY IDOCK:   -2.33 KCAL/MOL
REMARK 924 INTRA-LIGAND FREE ENERGY PREDICTED BY IDOCK:   -0.31 KCAL/MOL
REMARK 927      BINDING AFFINITY PREDICTED BY RF-SCORE:    0.00 PKD
ROOT
HETATM    1  N   UNL     1      -8.633  10.353  68.163  1.00  0.00    -0.122 NA 
HETATM    2  C   UNL     1      -9.051   8.956  68.076  1.00  0.00    -0.139 C  
HETATM    3  H1  UNL     1      -8.295  10.673  67.255  1.00  0.00     0.000 HD 
HETATM    4  H2  UNL     1      -7.945  10.502  68.901  1.00  0.00     0.000 HD 
ENDROOT
BRANCH   2   5
HETATM    5  C   UNL     1      -9.557   8.477  69.436  1.00  0.00    -0.170 C  
HETATM    6  O   UNL     1     -10.160   7.408  69.592  1.00  0.00    -0.179 OA 
BRANCH   5   7
HETATM    7  C   UNL     1      -9.484   9.433  70.598  1.00  0.00    -0.325 C  
BRANCH   7   8
HETATM    8  C   UNL     1     -10.846   9.567  71.253  1.00  0.00    -0.413 C  
HETATM    9  C   UNL     1     -11.915  10.365  70.532  1.00  0.00    -0.334 C  
HETATM   10  O   UNL     1     -13.078  10.342  70.918  1.00  0.00    -0.386 OA 
HETATM   11  O   UNL     1     -11.553  11.123  69.486  1.00  0.00    -0.261 OA 
ENDBRANCH   7   8
ENDBRANCH   5   7
ENDBRANCH   2   5
TORSDOF 3
ENDMDL
MODEL      184
REMARK 921   NORMALIZED FREE ENERGY PREDICTED BY IDOCK:   -1.96 KCAL/MOL
REMARK 922        TOTAL FREE ENERGY PREDICTED BY IDOCK:   -2.63 KCAL/MOL
REMARK 923 INTER-LIGAND FREE ENERGY PREDICTED BY IDOCK:   -2.53 KCAL/MOL
REMARK 924 INTRA-LIGAND FREE ENERGY PREDICTED BY IDOCK:   -0.10 KCAL/MOL
REMARK 927      BINDING AFFINITY PREDICTED BY RF-SCORE:    0.00 PKD
ROOT
HETATM    1  N   UNL     1      -7.994  11.057  65.447  1.00  0.00    -0.367 NA 
HETATM    2  C   UNL     1      -9.424  11.335  65.340  1.00  0.00    -0.225 C  
HETATM    3  H1  UNL     1      -7.747  10.268  64.848  1.00  0.00     0.000 HD 
HETATM    4  H2  UNL     1      -7.704  10.908  66.414  1.00  0.00     0.000 HD 
ENDROOT
BRANCH   2   5
HETATM    5  C   UNL     1      -9.794  12.516  66.237  1.00  0.00    -0.252 C  
HETATM    6  O   UNL     1     -10.111  13.626  65.792  1.00  0.00    -0.295 OA 
BRANCH   5   7
HETATM    7  C   UNL     1      -9.583  12.375  67.721  1.00  0.00    -0.202 C  
BRANCH   7   8
HETATM    8  C   UNL     1     -10.918  12.335  68.440  1.00  0.00    -0.270 C  
HETATM    9  C   UNL     1     -11.563  10.985  68.686  1.00  0.00    -0.316 C  
HETATM   10  O   UNL     1     -12.534  10.883  69.427  1.00  0.00    -0.352 OA 
HETATM   11  O   UNL     1     -11.068   9.913  68.048  1.00  0.00    -0.249 OA 
ENDBRANCH   7   8
ENDBRANCH   5   7
ENDBRANCH   2   5
TORSDOF 3
ENDMDL
MODEL      185
REMARK 921   NORMALIZED FREE ENERGY PREDICTED BY IDOCK:   -1.96 KCAL/MOL
REMARK 922        TOTAL FREE ENERGY PREDICTED BY IDOCK:   -2.63 KCAL/MOL
REMARK 923 INTER-LIGAND FREE ENERGY PREDICTED BY IDOCK:   -2.57 KCAL/MOL
REMARK 924 INTRA-LIGAND FREE ENERGY PREDICTED BY IDOCK:   -0.05 KCAL/MOL
REMARK 927      BINDING AFFINITY PREDICTED BY RF-SCORE:    0.00 PKD
ROOT
HETATM    1  N   UNL     1     -11.314   8.763  72.124  1.00  0.00    -0.360 NA 
HETATM    2  C   UNL     1     -12.292   7.903  71.461  1.00  0.00    -0.315 C  
HETATM    3  H1  UNL     1     -11.732   9.671  72.330  1.00  0.00     0.000 HD 
HETATM    4  H2  UNL     1     -10.453   8.852  71.584  1.00  0.00     0.000 HD 
ENDROOT
BRANCH   2   5
HETATM    5  C   UNL     1     -11.666   6.542  71.153  1.00  0.00    -0.335 C  
HETATM    6  O   UNL     1     -11.360   5.728  72.032  1.00  0.00    -0.271 OA 
BRANCH   5   7
HETATM    7  C   UNL     1     -11.233   6.264  69.738  1.00  0.00    -0.499 C  
BRANCH   7   8
HETATM    8  C   UNL     1     -10.211   5.143  69.712  1.00  0.00    -0.357 C  
HETATM    9  C   UNL     1      -9.642   4.719  68.372  1.00  0.00    -0.151 C  
HETATM   10  O   UNL     1      -8.680   3.962  68.314  1.00  0.00    -0.093 OA 
HETATM   11  O   UNL     1     -10.238   5.162  67.255  1.00  0.00    -0.193 OA 
ENDBRANCH   7   8
ENDBRANCH   5   7
ENDBRANCH   2   5
TORSDOF 3
ENDMDL
MODEL      186
REMARK 921   NORMALIZED FREE ENERGY PREDICTED BY IDOCK:   -1.95 KCAL/MOL
REMARK 922        TOTAL FREE ENERGY PREDICTED BY IDOCK:   -2.62 KCAL/MOL
REMARK 923 INTER-LIGAND FREE ENERGY PREDICTED BY IDOCK:   -2.45 KCAL/MOL
REMARK 924 INTRA-LIGAND FREE ENERGY PREDICTED BY IDOCK:   -0.18 KCAL/MOL
REMARK 927      BINDING AFFINITY PREDICTED BY RF-SCORE:    0.00 PKD
ROOT
HETATM    1  N   UNL     1      -7.697   8.395  69.316  1.00  0.00    -0.096 NA 
HETATM    2  C   UNL     1      -8.450   9.623  69.070  1.00  0.00    -0.131 C  
HETATM    3  H1  UNL     1      -6.697   8.578  69.241  1.00  0.00     0.000 HD 
HETATM    4  H2  UNL     1      -7.993   7.635  68.703  1.00  0.00     0.000 HD 
ENDROOT
BRANCH   2   5
HETATM    5  C   UNL     1      -9.949   9.347  69.181  1.00  0.00    -0.182 C  
HETATM    6  O   UNL     1     -10.597   8.781  68.294  1.00  0.00    -0.210 OA 
BRANCH   5   7
HETATM    7  C   UNL     1     -10.699   9.957  70.336  1.00  0.00    -0.379 C  
BRANCH   7   8
HETATM    8  C   UNL     1     -11.301   8.868  71.205  1.00  0.00    -0.371 C  
HETATM    9  C   UNL     1     -10.512   8.391  72.408  1.00  0.00    -0.332 C  
HETATM   10  O   UNL     1     -11.030   7.661  73.246  1.00  0.00    -0.400 OA 
HETATM   11  O   UNL     1      -9.225   8.755  72.516  1.00  0.00    -0.347 OA 
ENDBRANCH   7   8
ENDBRANCH   5   7
ENDBRANCH   2   5
TORSDOF 3
ENDMDL
MODEL      187
REMARK 921   NORMALIZED FREE ENERGY PREDICTED BY IDOCK:   -1.95 KCAL/MOL
REMARK 922        TOTAL FREE ENERGY PREDICTED BY IDOCK:   -2.62 KCAL/MOL
REMARK 923 INTER-LIGAND FREE ENERGY PREDICTED BY IDOCK:   -2.35 KCAL/MOL
REMARK 924 INTRA-LIGAND FREE ENERGY PREDICTED BY IDOCK:   -0.28 KCAL/MOL
REMARK 927      BINDING AFFINITY PREDICTED BY RF-SCORE:    0.00 PKD
ROOT
HETATM    1  N   UNL     1     -12.523   6.905  70.263  1.00  0.00    -0.560 NA 
HETATM    2  C   UNL     1     -12.303   6.746  71.699  1.00  0.00    -0.362 C  
HETATM    3  H1  UNL     1     -13.522   6.881  70.059  1.00  0.00     0.000 HD 
HETATM    4  H2  UNL     1     -12.004   6.217  69.718  1.00  0.00     0.000 HD 
ENDROOT
BRANCH   2   5
HETATM    5  C   UNL     1     -10.806   6.782  72.005  1.00  0.00    -0.227 C  
HETATM    6  O   UNL     1     -10.189   5.811  72.458  1.00  0.00    -0.182 OA 
BRANCH   5   7
HETATM    7  C   UNL     1     -10.097   8.108  71.927  1.00  0.00    -0.285 C  
BRANCH   7   8
HETATM    8  C   UNL     1      -9.382   8.244  70.596  1.00  0.00    -0.172 C  
HETATM    9  C   UNL     1      -9.901   9.264  69.602  1.00  0.00    -0.186 C  
HETATM   10  O   UNL     1      -9.250   9.549  68.603  1.00  0.00    -0.134 OA 
HETATM   11  O   UNL     1     -11.102   9.820  69.822  1.00  0.00    -0.239 OA 
ENDBRANCH   7   8
ENDBRANCH   5   7
ENDBRANCH   2   5
TORSDOF 3
ENDMDL
MODEL      188
REMARK 921   NORMALIZED FREE ENERGY PREDICTED BY IDOCK:   -1.93 KCAL/MOL
REMARK 922        TOTAL FREE ENERGY PREDICTED BY IDOCK:   -2.60 KCAL/MOL
REMARK 923 INTER-LIGAND FREE ENERGY PREDICTED BY IDOCK:   -2.57 KCAL/MOL
REMARK 924 INTRA-LIGAND FREE ENERGY PREDICTED BY IDOCK:   -0.03 KCAL/MOL
REMARK 927      BINDING AFFINITY PREDICTED BY RF-SCORE:    0.00 PKD
ROOT
HETATM    1  N   UNL     1      -9.774  10.261  69.833  1.00  0.00    -0.412 NA 
HETATM    2  C   UNL     1     -10.439   9.028  69.419  1.00  0.00    -0.222 C  
HETATM    3  H1  UNL     1     -10.335  11.068  69.560  1.00  0.00     0.000 HD 
HETATM    4  H2  UNL     1      -8.820  10.320  69.476  1.00  0.00     0.000 HD 
ENDROOT
BRANCH   2   5
HETATM    5  C   UNL     1      -9.599   7.819  69.828  1.00  0.00    -0.167 C  
HETATM    6  O   UNL     1      -8.415   7.680  69.501  1.00  0.00    -0.129 OA 
BRANCH   5   7
HETATM    7  C   UNL     1     -10.296   6.663  70.498  1.00  0.00    -0.231 C  
BRANCH   7   8
HETATM    8  C   UNL     1     -11.786   6.932  70.590  1.00  0.00    -0.418 C  
HETATM    9  C   UNL     1     -12.326   7.566  71.857  1.00  0.00    -0.310 C  
HETATM   10  O   UNL     1     -13.479   7.979  71.906  1.00  0.00    -0.331 OA 
HETATM   11  O   UNL     1     -11.525   7.631  72.931  1.00  0.00    -0.354 OA 
ENDBRANCH   7   8
ENDBRANCH   5   7
ENDBRANCH   2   5
TORSDOF 3
ENDMDL
MODEL      189
REMARK 921   NORMALIZED FREE ENERGY PREDICTED BY IDOCK:   -1.92 KCAL/MOL
REMARK 922        TOTAL FREE ENERGY PREDICTED BY IDOCK:   -2.59 KCAL/MOL
REMARK 923 INTER-LIGAND FREE ENERGY PREDICTED BY IDOCK:   -2.50 KCAL/MOL
REMARK 924 INTRA-LIGAND FREE ENERGY PREDICTED BY IDOCK:   -0.09 KCAL/MOL
REMARK 927      BINDING AFFINITY PREDICTED BY RF-SCORE:    0.00 PKD
ROOT
HETATM    1  N   UNL     1     -11.050   5.537  66.158  1.00  0.00    -0.778 NA 
HETATM    2  C   UNL     1     -11.154   6.631  67.122  1.00  0.00    -0.357 C  
HETATM    3  H1  UNL     1     -11.403   5.839  65.249  1.00  0.00     0.000 HD 
HETATM    4  H2  UNL     1     -11.515   4.691  66.487  1.00  0.00     0.000 HD 
ENDROOT
BRANCH   2   5
HETATM    5  C   UNL     1     -10.625   6.179  68.483  1.00  0.00    -0.271 C  
HETATM    6  O   UNL     1     -10.225   5.029  68.701  1.00  0.00    -0.155 OA 
BRANCH   5   7
HETATM    7  C   UNL     1     -10.774   7.118  69.650  1.00  0.00    -0.256 C  
BRANCH   7   8
HETATM    8  C   UNL     1     -10.562   8.552  69.200  1.00  0.00    -0.188 C  
HETATM    9  C   UNL     1      -9.313   9.275  69.667  1.00  0.00    -0.179 C  
HETATM   10  O   UNL     1      -8.998  10.354  69.180  1.00  0.00    -0.169 OA 
HETATM   11  O   UNL     1      -8.583   8.723  70.648  1.00  0.00    -0.144 OA 
ENDBRANCH   7   8
ENDBRANCH   5   7
ENDBRANCH   2   5
TORSDOF 3
ENDMDL
MODEL      190
REMARK 921   NORMALIZED FREE ENERGY PREDICTED BY IDOCK:   -1.91 KCAL/MOL
REMARK 922        TOTAL FREE ENERGY PREDICTED BY IDOCK:   -2.57 KCAL/MOL
REMARK 923 INTER-LIGAND FREE ENERGY PREDICTED BY IDOCK:   -2.50 KCAL/MOL
REMARK 924 INTRA-LIGAND FREE ENERGY PREDICTED BY IDOCK:   -0.07 KCAL/MOL
REMARK 927      BINDING AFFINITY PREDICTED BY RF-SCORE:    0.00 PKD
ROOT
HETATM    1  N   UNL     1      -9.159  12.957  68.681  1.00  0.00    -0.396 NA 
HETATM    2  C   UNL     1     -10.133  13.221  67.624  1.00  0.00    -0.229 C  
HETATM    3  H1  UNL     1      -8.652  13.813  68.909  1.00  0.00     0.000 HD 
HETATM    4  H2  UNL     1      -8.529  12.193  68.439  1.00  0.00     0.000 HD 
ENDROOT
BRANCH   2   5
HETATM    5  C   UNL     1     -10.891  11.939  67.282  1.00  0.00    -0.247 C  
HETATM    6  O   UNL     1     -12.125  11.886  67.211  1.00  0.00    -0.582 OA 
BRANCH   5   7
HETATM    7  C   UNL     1     -10.115  10.651  67.213  1.00  0.00    -0.238 C  
BRANCH   7   8
HETATM    8  C   UNL     1      -9.315  10.589  65.925  1.00  0.00    -0.220 C  
HETATM    9  C   UNL     1      -9.057   9.230  65.303  1.00  0.00    -0.215 C  
HETATM   10  O   UNL     1      -8.591   9.138  64.173  1.00  0.00    -0.191 OA 
HETATM   11  O   UNL     1      -9.318   8.133  66.030  1.00  0.00    -0.182 OA 
ENDBRANCH   7   8
ENDBRANCH   5   7
ENDBRANCH   2   5
TORSDOF 3
ENDMDL
MODEL      191
REMARK 921   NORMALIZED FREE ENERGY PREDICTED BY IDOCK:   -1.91 KCAL/MOL
REMARK 922        TOTAL FREE ENERGY PREDICTED BY IDOCK:   -2.57 KCAL/MOL
REMARK 923 INTER-LIGAND FREE ENERGY PREDICTED BY IDOCK:   -2.54 KCAL/MOL
REMARK 924 INTRA-LIGAND FREE ENERGY PREDICTED BY IDOCK:   -0.03 KCAL/MOL
REMARK 927      BINDING AFFINITY PREDICTED BY RF-SCORE:    0.00 PKD
ROOT
HETATM    1  N   UNL     1     -12.022  14.506  65.733  1.00  0.00    -0.341 NA 
HETATM    2  C   UNL     1     -10.709  14.045  66.179  1.00  0.00    -0.289 C  
HETATM    3  H1  UNL     1     -11.915  15.181  64.976  1.00  0.00     0.000 HD 
HETATM    4  H2  UNL     1     -12.578  14.878  66.502  1.00  0.00     0.000 HD 
ENDROOT
BRANCH   2   5
HETATM    5  C   UNL     1     -10.868  13.034  67.314  1.00  0.00    -0.252 C  
HETATM    6  O   UNL     1     -10.502  13.259  68.473  1.00  0.00    -0.247 OA 
BRANCH   5   7
HETATM    7  C   UNL     1     -11.316  11.639  66.964  1.00  0.00    -0.373 C  
BRANCH   7   8
HETATM    8  C   UNL     1     -10.136  10.813  66.487  1.00  0.00    -0.277 C  
HETATM    9  C   UNL     1      -9.776  10.856  65.015  1.00  0.00    -0.267 C  
HETATM   10  O   UNL     1      -8.725  10.368  64.615  1.00  0.00    -0.174 OA 
HETATM   11  O   UNL     1     -10.649  11.408  64.158  1.00  0.00    -0.318 OA 
ENDBRANCH   7   8
ENDBRANCH   5   7
ENDBRANCH   2   5
TORSDOF 3
ENDMDL
MODEL      192
REMARK 921   NORMALIZED FREE ENERGY PREDICTED BY IDOCK:   -1.90 KCAL/MOL
REMARK 922        TOTAL FREE ENERGY PREDICTED BY IDOCK:   -2.56 KCAL/MOL
REMARK 923 INTER-LIGAND FREE ENERGY PREDICTED BY IDOCK:   -2.48 KCAL/MOL
REMARK 924 INTRA-LIGAND FREE ENERGY PREDICTED BY IDOCK:   -0.08 KCAL/MOL
REMARK 927      BINDING AFFINITY PREDICTED BY RF-SCORE:    0.00 PKD
ROOT
HETATM    1  N   UNL     1     -12.531  14.306  68.686  1.00  0.00    -0.516 NA 
HETATM    2  C   UNL     1     -11.389  13.405  68.818  1.00  0.00    -0.292 C  
HETATM    3  H1  UNL     1     -12.869  14.577  69.610  1.00  0.00     0.000 HD 
HETATM    4  H2  UNL     1     -13.272  13.905  68.111  1.00  0.00     0.000 HD 
ENDROOT
BRANCH   2   5
HETATM    5  C   UNL     1     -10.883  12.998  67.434  1.00  0.00    -0.251 C  
HETATM    6  O   UNL     1     -11.154  13.629  66.406  1.00  0.00    -0.299 OA 
BRANCH   5   7
HETATM    7  C   UNL     1     -10.183  11.672  67.295  1.00  0.00    -0.226 C  
BRANCH   7   8
HETATM    8  C   UNL     1     -10.296  10.881  68.585  1.00  0.00    -0.206 C  
HETATM    9  C   UNL     1     -10.444   9.375  68.495  1.00  0.00    -0.208 C  
HETATM   10  O   UNL     1     -10.343   8.676  69.497  1.00  0.00    -0.206 OA 
HETATM   11  O   UNL     1     -10.721   8.829  67.301  1.00  0.00    -0.276 OA 
ENDBRANCH   7   8
ENDBRANCH   5   7
ENDBRANCH   2   5
TORSDOF 3
ENDMDL
MODEL      193
REMARK 921   NORMALIZED FREE ENERGY PREDICTED BY IDOCK:   -1.90 KCAL/MOL
REMARK 922        TOTAL FREE ENERGY PREDICTED BY IDOCK:   -2.56 KCAL/MOL
REMARK 923 INTER-LIGAND FREE ENERGY PREDICTED BY IDOCK:   -2.21 KCAL/MOL
REMARK 924 INTRA-LIGAND FREE ENERGY PREDICTED BY IDOCK:   -0.35 KCAL/MOL
REMARK 927      BINDING AFFINITY PREDICTED BY RF-SCORE:    0.00 PKD
ROOT
HETATM    1  N   UNL     1      -9.388  14.647  67.299  1.00  0.00    -0.201 NA 
HETATM    2  C   UNL     1     -10.792  14.249  67.236  1.00  0.00    -0.284 C  
HETATM    3  H1  UNL     1      -9.233  15.253  68.104  1.00  0.00     0.000 HD 
HETATM    4  H2  UNL     1      -9.073  15.078  66.429  1.00  0.00     0.000 HD 
ENDROOT
BRANCH   2   5
HETATM    5  C   UNL     1     -11.025  13.341  66.029  1.00  0.00    -0.279 C  
HETATM    6  O   UNL     1     -11.364  13.770  64.920  1.00  0.00    -0.324 OA 
BRANCH   5   7
HETATM    7  C   UNL     1     -11.023  11.852  66.250  1.00  0.00    -0.345 C  
BRANCH   7   8
HETATM    8  C   UNL     1      -9.955  11.195  65.394  1.00  0.00    -0.309 C  
HETATM    9  C   UNL     1      -8.567  11.027  65.979  1.00  0.00    -0.172 C  
HETATM   10  O   UNL     1      -7.730  10.335  65.411  1.00  0.00    -0.139 OA 
HETATM   11  O   UNL     1      -8.266  11.679  67.113  1.00  0.00    -0.151 OA 
ENDBRANCH   7   8
ENDBRANCH   5   7
ENDBRANCH   2   5
TORSDOF 3
ENDMDL
MODEL      194
REMARK 921   NORMALIZED FREE ENERGY PREDICTED BY IDOCK:   -1.89 KCAL/MOL
REMARK 922        TOTAL FREE ENERGY PREDICTED BY IDOCK:   -2.55 KCAL/MOL
REMARK 923 INTER-LIGAND FREE ENERGY PREDICTED BY IDOCK:   -2.15 KCAL/MOL
REMARK 924 INTRA-LIGAND FREE ENERGY PREDICTED BY IDOCK:   -0.40 KCAL/MOL
REMARK 927      BINDING AFFINITY PREDICTED BY RF-SCORE:    0.00 PKD
ROOT
HETATM    1  N   UNL     1      -8.706   8.616  68.321  1.00  0.00    -0.141 NA 
HETATM    2  C   UNL     1      -8.984   9.770  67.468  1.00  0.00    -0.131 C  
HETATM    3  H1  UNL     1      -8.165   7.923  67.804  1.00  0.00     0.000 HD 
HETATM    4  H2  UNL     1      -9.559   8.219  68.716  1.00  0.00     0.000 HD 
ENDROOT
BRANCH   2   5
HETATM    5  C   UNL     1      -9.795  10.809  68.242  1.00  0.00    -0.166 C  
HETATM    6  O   UNL     1      -9.305  11.858  68.676  1.00  0.00    -0.165 OA 
BRANCH   5   7
HETATM    7  C   UNL     1     -11.199  10.451  68.653  1.00  0.00    -0.305 C  
BRANCH   7   8
HETATM    8  C   UNL     1     -11.319  10.452  70.166  1.00  0.00    -0.397 C  
HETATM    9  C   UNL     1     -11.115   9.144  70.904  1.00  0.00    -0.291 C  
HETATM   10  O   UNL     1     -11.008   9.126  72.125  1.00  0.00    -0.300 OA 
HETATM   11  O   UNL     1     -11.090   8.005  70.195  1.00  0.00    -0.251 OA 
ENDBRANCH   7   8
ENDBRANCH   5   7
ENDBRANCH   2   5
TORSDOF 3
ENDMDL
MODEL      195
REMARK 921   NORMALIZED FREE ENERGY PREDICTED BY IDOCK:   -1.88 KCAL/MOL
REMARK 922        TOTAL FREE ENERGY PREDICTED BY IDOCK:   -2.54 KCAL/MOL
REMARK 923 INTER-LIGAND FREE ENERGY PREDICTED BY IDOCK:   -2.16 KCAL/MOL
REMARK 924 INTRA-LIGAND FREE ENERGY PREDICTED BY IDOCK:   -0.39 KCAL/MOL
REMARK 927      BINDING AFFINITY PREDICTED BY RF-SCORE:    0.00 PKD
ROOT
HETATM    1  N   UNL     1     -11.905   5.256  73.451  1.00  0.00    -0.374 NA 
HETATM    2  C   UNL     1     -10.475   5.220  73.748  1.00  0.00    -0.266 C  
HETATM    3  H1  UNL     1     -12.437   4.936  74.260  1.00  0.00     0.000 HD 
HETATM    4  H2  UNL     1     -12.134   4.726  72.609  1.00  0.00     0.000 HD 
ENDROOT
BRANCH   2   5
HETATM    5  C   UNL     1      -9.678   5.698  72.534  1.00  0.00    -0.151 C  
HETATM    6  O   UNL     1      -9.091   4.926  71.768  1.00  0.00    -0.136 OA 
BRANCH   5   7
HETATM    7  C   UNL     1      -9.444   7.178  72.376  1.00  0.00    -0.166 C  
BRANCH   7   8
HETATM    8  C   UNL     1     -10.367   7.744  71.313  1.00  0.00    -0.222 C  
HETATM    9  C   UNL     1     -11.597   8.509  71.763  1.00  0.00    -0.312 C  
HETATM   10  O   UNL     1     -12.264   9.148  70.957  1.00  0.00    -0.294 OA 
HETATM   11  O   UNL     1     -11.957   8.441  73.053  1.00  0.00    -0.236 OA 
ENDBRANCH   7   8
ENDBRANCH   5   7
ENDBRANCH   2   5
TORSDOF 3
ENDMDL
MODEL      196
REMARK 921   NORMALIZED FREE ENERGY PREDICTED BY IDOCK:   -1.88 KCAL/MOL
REMARK 922        TOTAL FREE ENERGY PREDICTED BY IDOCK:   -2.54 KCAL/MOL
REMARK 923 INTER-LIGAND FREE ENERGY PREDICTED BY IDOCK:   -2.40 KCAL/MOL
REMARK 924 INTRA-LIGAND FREE ENERGY PREDICTED BY IDOCK:   -0.14 KCAL/MOL
REMARK 927      BINDING AFFINITY PREDICTED BY RF-SCORE:    0.00 PKD
ROOT
HETATM    1  N   UNL     1     -11.211   7.942  69.771  1.00  0.00    -0.451 NA 
HETATM    2  C   UNL     1     -11.208   9.364  70.110  1.00  0.00    -0.219 C  
HETATM    3  H1  UNL     1     -11.735   7.418  70.472  1.00  0.00     0.000 HD 
HETATM    4  H2  UNL     1     -10.267   7.577  69.646  1.00  0.00     0.000 HD 
ENDROOT
BRANCH   2   5
HETATM    5  C   UNL     1     -10.423  10.149  69.059  1.00  0.00    -0.219 C  
HETATM    6  O   UNL     1      -9.274  10.564  69.249  1.00  0.00    -0.191 OA 
BRANCH   5   7
HETATM    7  C   UNL     1     -11.149  10.596  67.817  1.00  0.00    -0.385 C  
BRANCH   7   8
HETATM    8  C   UNL     1     -10.407  10.129  66.579  1.00  0.00    -0.270 C  
HETATM    9  C   UNL     1      -9.671  11.162  65.749  1.00  0.00    -0.225 C  
HETATM   10  O   UNL     1      -8.902  10.816  64.860  1.00  0.00    -0.192 OA 
HETATM   11  O   UNL     1      -9.908  12.461  65.987  1.00  0.00    -0.251 OA 
ENDBRANCH   7   8
ENDBRANCH   5   7
ENDBRANCH   2   5
TORSDOF 3
ENDMDL
MODEL      197
REMARK 921   NORMALIZED FREE ENERGY PREDICTED BY IDOCK:   -1.87 KCAL/MOL
REMARK 922        TOTAL FREE ENERGY PREDICTED BY IDOCK:   -2.53 KCAL/MOL
REMARK 923 INTER-LIGAND FREE ENERGY PREDICTED BY IDOCK:   -2.42 KCAL/MOL
REMARK 924 INTRA-LIGAND FREE ENERGY PREDICTED BY IDOCK:   -0.11 KCAL/MOL
REMARK 927      BINDING AFFINITY PREDICTED BY RF-SCORE:    0.00 PKD
ROOT
HETATM    1  N   UNL     1     -10.937   7.446  66.849  1.00  0.00    -0.572 NA 
HETATM    2  C   UNL     1     -10.883   6.109  67.436  1.00  0.00    -0.343 C  
HETATM    3  H1  UNL     1     -10.959   7.378  65.832  1.00  0.00     0.000 HD 
HETATM    4  H2  UNL     1     -10.175   8.039  67.177  1.00  0.00     0.000 HD 
ENDROOT
BRANCH   2   5
HETATM    5  C   UNL     1     -10.850   6.209  68.961  1.00  0.00    -0.350 C  
HETATM    6  O   UNL     1     -11.829   6.553  69.634  1.00  0.00    -0.310 OA 
BRANCH   5   7
HETATM    7  C   UNL     1      -9.521   6.066  69.654  1.00  0.00    -0.167 C  
BRANCH   7   8
HETATM    8  C   UNL     1      -9.515   4.825  70.527  1.00  0.00    -0.240 C  
HETATM    9  C   UNL     1      -9.571   5.004  72.032  1.00  0.00    -0.156 C  
HETATM   10  O   UNL     1      -9.765   4.043  72.768  1.00  0.00    -0.131 OA 
HETATM   11  O   UNL     1      -9.369   6.229  72.539  1.00  0.00    -0.147 OA 
ENDBRANCH   7   8
ENDBRANCH   5   7
ENDBRANCH   2   5
TORSDOF 3
ENDMDL
MODEL      198
REMARK 921   NORMALIZED FREE ENERGY PREDICTED BY IDOCK:   -1.87 KCAL/MOL
REMARK 922        TOTAL FREE ENERGY PREDICTED BY IDOCK:   -2.53 KCAL/MOL
REMARK 923 INTER-LIGAND FREE ENERGY PREDICTED BY IDOCK:   -2.42 KCAL/MOL
REMARK 924 INTRA-LIGAND FREE ENERGY PREDICTED BY IDOCK:   -0.10 KCAL/MOL
REMARK 927      BINDING AFFINITY PREDICTED BY RF-SCORE:    0.00 PKD
ROOT
HETATM    1  N   UNL     1     -12.437   7.457  70.524  1.00  0.00    -0.557 NA 
HETATM    2  C   UNL     1     -12.656   6.767  71.793  1.00  0.00    -0.325 C  
HETATM    3  H1  UNL     1     -13.231   8.064  70.316  1.00  0.00     0.000 HD 
HETATM    4  H2  UNL     1     -12.244   6.807  69.762  1.00  0.00     0.000 HD 
ENDROOT
BRANCH   2   5
HETATM    5  C   UNL     1     -11.468   5.857  72.104  1.00  0.00    -0.276 C  
HETATM    6  O   UNL     1     -11.440   5.096  73.078  1.00  0.00    -0.316 OA 
BRANCH   5   7
HETATM    7  C   UNL     1     -10.208   6.035  71.298  1.00  0.00    -0.253 C  
BRANCH   7   8
HETATM    8  C   UNL     1     -10.072   4.915  70.283  1.00  0.00    -0.322 C  
HETATM    9  C   UNL     1      -9.370   3.640  70.708  1.00  0.00    -0.155 C  
HETATM   10  O   UNL     1      -9.405   2.642  69.999  1.00  0.00    -0.128 OA 
HETATM   11  O   UNL     1      -8.682   3.642  71.860  1.00  0.00    -0.091 OA 
ENDBRANCH   7   8
ENDBRANCH   5   7
ENDBRANCH   2   5
TORSDOF 3
ENDMDL
MODEL      199
REMARK 921   NORMALIZED FREE ENERGY PREDICTED BY IDOCK:   -1.86 KCAL/MOL
REMARK 922        TOTAL FREE ENERGY PREDICTED BY IDOCK:   -2.51 KCAL/MOL
REMARK 923 INTER-LIGAND FREE ENERGY PREDICTED BY IDOCK:   -2.44 KCAL/MOL
REMARK 924 INTRA-LIGAND FREE ENERGY PREDICTED BY IDOCK:   -0.08 KCAL/MOL
REMARK 927      BINDING AFFINITY PREDICTED BY RF-SCORE:    0.00 PKD
ROOT
HETATM    1  N   UNL     1     -12.349  12.385  67.615  1.00  0.00    -0.151 NA 
HETATM    2  C   UNL     1     -11.288  11.822  66.782  1.00  0.00    -0.320 C  
HETATM    3  H1  UNL     1     -12.112  12.274  68.602  1.00  0.00     0.000 HD 
HETATM    4  H2  UNL     1     -13.261  11.987  67.394  1.00  0.00     0.000 HD 
ENDROOT
BRANCH   2   5
HETATM    5  C   UNL     1     -11.643  11.988  65.304  1.00  0.00    -0.279 C  
HETATM    6  O   UNL     1     -12.627  12.629  64.916  1.00  0.00    -0.510 OA 
BRANCH   5   7
HETATM    7  C   UNL     1     -10.870  11.182  64.294  1.00  0.00    -0.354 C  
BRANCH   7   8
HETATM    8  C   UNL     1      -9.735  10.439  64.973  1.00  0.00    -0.362 C  
HETATM    9  C   UNL     1      -8.441  10.246  64.206  1.00  0.00    -0.179 C  
HETATM   10  O   UNL     1      -7.436   9.830  64.771  1.00  0.00    -0.118 OA 
HETATM   11  O   UNL     1      -8.432  10.507  62.890  1.00  0.00    -0.166 OA 
ENDBRANCH   7   8
ENDBRANCH   5   7
ENDBRANCH   2   5
TORSDOF 3
ENDMDL
MODEL      200
REMARK 921   NORMALIZED FREE ENERGY PREDICTED BY IDOCK:   -1.86 KCAL/MOL
REMARK 922        TOTAL FREE ENERGY PREDICTED BY IDOCK:   -2.51 KCAL/MOL
REMARK 923 INTER-LIGAND FREE ENERGY PREDICTED BY IDOCK:   -2.40 KCAL/MOL
REMARK 924 INTRA-LIGAND FREE ENERGY PREDICTED BY IDOCK:   -0.11 KCAL/MOL
REMARK 927      BINDING AFFINITY PREDICTED BY RF-SCORE:    0.00 PKD
ROOT
HETATM    1  N   UNL     1     -13.458   7.117  71.833  1.00  0.00    -0.547 NA 
HETATM    2  C   UNL     1     -12.147   7.714  72.078  1.00  0.00    -0.299 C  
HETATM    3  H1  UNL     1     -14.075   7.800  71.392  1.00  0.00     0.000 HD 
HETATM    4  H2  UNL     1     -13.866   6.728  72.684  1.00  0.00     0.000 HD 
ENDROOT
BRANCH   2   5
HETATM    5  C   UNL     1     -11.223   6.691  72.739  1.00  0.00    -0.227 C  
HETATM    6  O   UNL     1     -11.473   5.480  72.771  1.00  0.00    -0.303 OA 
BRANCH   5   7
HETATM    7  C   UNL     1     -10.059   7.202  73.546  1.00  0.00    -0.374 C  
BRANCH   7   8
HETATM    8  C   UNL     1      -8.751   6.744  72.929  1.00  0.00    -0.131 C  
HETATM    9  C   UNL     1      -7.892   7.771  72.219  1.00  0.00    -0.108 C  
HETATM   10  O   UNL     1      -6.747   7.499  71.877  1.00  0.00    -0.052 OA 
HETATM   11  O   UNL     1      -8.426   8.971  71.942  1.00  0.00    -0.363 OA 
ENDBRANCH   7   8
ENDBRANCH   5   7
ENDBRANCH   2   5
TORSDOF 3
ENDMDL
MODEL      201
REMARK 921   NORMALIZED FREE ENERGY PREDICTED BY IDOCK:   -1.86 KCAL/MOL
REMARK 922        TOTAL FREE ENERGY PREDICTED BY IDOCK:   -2.51 KCAL/MOL
REMARK 923 INTER-LIGAND FREE ENERGY PREDICTED BY IDOCK:   -2.38 KCAL/MOL
REMARK 924 INTRA-LIGAND FREE ENERGY PREDICTED BY IDOCK:   -0.13 KCAL/MOL
REMARK 927      BINDING AFFINITY PREDICTED BY RF-SCORE:    0.00 PKD
ROOT
HETATM    1  N   UNL     1      -8.668   8.488  71.331  1.00  0.00    -0.168 NA 
HETATM    2  C   UNL     1      -9.626   8.346  70.236  1.00  0.00    -0.165 C  
HETATM    3  H1  UNL     1      -8.602   7.613  71.851  1.00  0.00     0.000 HD 
HETATM    4  H2  UNL     1      -8.893   9.277  71.937  1.00  0.00     0.000 HD 
ENDROOT
BRANCH   2   5
HETATM    5  C   UNL     1      -9.726   9.658  69.457  1.00  0.00    -0.203 C  
HETATM    6  O   UNL     1      -8.855  10.535  69.502  1.00  0.00    -0.134 OA 
BRANCH   5   7
HETATM    7  C   UNL     1     -11.022   9.971  68.758  1.00  0.00    -0.242 C  
BRANCH   7   8
HETATM    8  C   UNL     1     -11.553  11.317  69.215  1.00  0.00    -0.390 C  
HETATM    9  C   UNL     1     -12.271  11.392  70.548  1.00  0.00    -0.386 C  
HETATM   10  O   UNL     1     -12.544  12.476  71.051  1.00  0.00    -0.361 OA 
HETATM   11  O   UNL     1     -12.632  10.246  71.146  1.00  0.00    -0.333 OA 
ENDBRANCH   7   8
ENDBRANCH   5   7
ENDBRANCH   2   5
TORSDOF 3
ENDMDL
MODEL      202
REMARK 921   NORMALIZED FREE ENERGY PREDICTED BY IDOCK:   -1.85 KCAL/MOL
REMARK 922        TOTAL FREE ENERGY PREDICTED BY IDOCK:   -2.51 KCAL/MOL
REMARK 923 INTER-LIGAND FREE ENERGY PREDICTED BY IDOCK:   -2.43 KCAL/MOL
REMARK 924 INTRA-LIGAND FREE ENERGY PREDICTED BY IDOCK:   -0.08 KCAL/MOL
REMARK 927      BINDING AFFINITY PREDICTED BY RF-SCORE:    0.00 PKD
ROOT
HETATM    1  N   UNL     1     -10.517  17.286  65.431  1.00  0.00    -0.646 NA 
HETATM    2  C   UNL     1      -9.377  16.798  66.205  1.00  0.00    -0.255 C  
HETATM    3  H1  UNL     1     -10.537  18.306  65.446  1.00  0.00     0.000 HD 
HETATM    4  H2  UNL     1     -11.398  16.882  65.750  1.00  0.00     0.000 HD 
ENDROOT
BRANCH   2   5
HETATM    5  C   UNL     1      -9.348  15.270  66.183  1.00  0.00    -0.325 C  
HETATM    6  O   UNL     1     -10.088  14.593  65.460  1.00  0.00    -0.336 OA 
BRANCH   5   7
HETATM    7  C   UNL     1      -8.517  14.561  67.220  1.00  0.00    -0.234 C  
BRANCH   7   8
HETATM    8  C   UNL     1      -9.166  13.243  67.601  1.00  0.00    -0.209 C  
HETATM    9  C   UNL     1      -8.297  12.002  67.651  1.00  0.00    -0.160 C  
HETATM   10  O   UNL     1      -8.723  10.961  68.137  1.00  0.00    -0.124 OA 
HETATM   11  O   UNL     1      -7.066  12.060  67.120  1.00  0.00    -0.137 OA 
ENDBRANCH   7   8
ENDBRANCH   5   7
ENDBRANCH   2   5
TORSDOF 3
ENDMDL
MODEL      203
REMARK 921   NORMALIZED FREE ENERGY PREDICTED BY IDOCK:   -1.84 KCAL/MOL
REMARK 922        TOTAL FREE ENERGY PREDICTED BY IDOCK:   -2.50 KCAL/MOL
REMARK 923 INTER-LIGAND FREE ENERGY PREDICTED BY IDOCK:   -2.38 KCAL/MOL
REMARK 924 INTRA-LIGAND FREE ENERGY PREDICTED BY IDOCK:   -0.12 KCAL/MOL
REMARK 927      BINDING AFFINITY PREDICTED BY RF-SCORE:    0.00 PKD
ROOT
HETATM    1  N   UNL     1     -11.936   6.993  70.059  1.00  0.00    -0.614 NA 
HETATM    2  C   UNL     1     -11.638   8.067  71.004  1.00  0.00    -0.283 C  
HETATM    3  H1  UNL     1     -12.591   6.332  70.477  1.00  0.00     0.000 HD 
HETATM    4  H2  UNL     1     -11.089   6.531  69.725  1.00  0.00     0.000 HD 
ENDROOT
BRANCH   2   5
HETATM    5  C   UNL     1     -10.655   9.056  70.377  1.00  0.00    -0.218 C  
HETATM    6  O   UNL     1      -9.554   9.317  70.876  1.00  0.00    -0.257 OA 
BRANCH   5   7
HETATM    7  C   UNL     1     -11.126   9.882  69.210  1.00  0.00    -0.220 C  
BRANCH   7   8
HETATM    8  C   UNL     1      -9.951  10.261  68.328  1.00  0.00    -0.166 C  
HETATM    9  C   UNL     1      -9.819   9.585  66.977  1.00  0.00    -0.190 C  
HETATM   10  O   UNL     1      -9.009   9.992  66.152  1.00  0.00    -0.144 OA 
HETATM   11  O   UNL     1     -10.582   8.511  66.721  1.00  0.00    -0.283 OA 
ENDBRANCH   7   8
ENDBRANCH   5   7
ENDBRANCH   2   5
TORSDOF 3
ENDMDL
MODEL      204
REMARK 921   NORMALIZED FREE ENERGY PREDICTED BY IDOCK:   -1.83 KCAL/MOL
REMARK 922        TOTAL FREE ENERGY PREDICTED BY IDOCK:   -2.48 KCAL/MOL
REMARK 923 INTER-LIGAND FREE ENERGY PREDICTED BY IDOCK:   -2.37 KCAL/MOL
REMARK 924 INTRA-LIGAND FREE ENERGY PREDICTED BY IDOCK:   -0.11 KCAL/MOL
REMARK 927      BINDING AFFINITY PREDICTED BY RF-SCORE:    0.00 PKD
ROOT
HETATM    1  N   UNL     1      -8.349   8.951  66.244  1.00  0.00    -0.114 NA 
HETATM    2  C   UNL     1      -9.632   9.472  65.778  1.00  0.00    -0.270 C  
HETATM    3  H1  UNL     1      -7.918   8.383  65.514  1.00  0.00     0.000 HD 
HETATM    4  H2  UNL     1      -8.440   8.440  67.122  1.00  0.00     0.000 HD 
ENDROOT
BRANCH   2   5
HETATM    5  C   UNL     1     -10.279  10.322  66.872  1.00  0.00    -0.230 C  
HETATM    6  O   UNL     1     -10.405   9.934  68.039  1.00  0.00    -0.179 OA 
BRANCH   5   7
HETATM    7  C   UNL     1     -10.956  11.605  66.467  1.00  0.00    -0.349 C  
BRANCH   7   8
HETATM    8  C   UNL     1     -11.853  12.100  67.586  1.00  0.00    -0.316 C  
HETATM    9  C   UNL     1     -11.437  13.345  68.344  1.00  0.00    -0.316 C  
HETATM   10  O   UNL     1     -12.214  13.895  69.117  1.00  0.00    -0.356 OA 
HETATM   11  O   UNL     1     -10.190  13.811  68.175  1.00  0.00    -0.239 OA 
ENDBRANCH   7   8
ENDBRANCH   5   7
ENDBRANCH   2   5
TORSDOF 3
ENDMDL
MODEL      205
REMARK 921   NORMALIZED FREE ENERGY PREDICTED BY IDOCK:   -1.83 KCAL/MOL
REMARK 922        TOTAL FREE ENERGY PREDICTED BY IDOCK:   -2.48 KCAL/MOL
REMARK 923 INTER-LIGAND FREE ENERGY PREDICTED BY IDOCK:   -2.38 KCAL/MOL
REMARK 924 INTRA-LIGAND FREE ENERGY PREDICTED BY IDOCK:   -0.10 KCAL/MOL
REMARK 927      BINDING AFFINITY PREDICTED BY RF-SCORE:    0.00 PKD
ROOT
HETATM    1  N   UNL     1     -12.358  12.553  65.658  1.00  0.00    -0.638 NA 
HETATM    2  C   UNL     1     -10.979  12.869  65.291  1.00  0.00    -0.283 C  
HETATM    3  H1  UNL     1     -12.911  13.409  65.705  1.00  0.00     0.000 HD 
HETATM    4  H2  UNL     1     -12.409  12.017  66.525  1.00  0.00     0.000 HD 
ENDROOT
BRANCH   2   5
HETATM    5  C   UNL     1     -10.150  11.587  65.221  1.00  0.00    -0.269 C  
HETATM    6  O   UNL     1     -10.497  10.596  64.569  1.00  0.00    -0.345 OA 
BRANCH   5   7
HETATM    7  C   UNL     1      -8.959  11.461  66.135  1.00  0.00    -0.207 C  
BRANCH   7   8
HETATM    8  C   UNL     1      -8.981  12.562  67.179  1.00  0.00    -0.200 C  
HETATM    9  C   UNL     1      -7.673  13.243  67.532  1.00  0.00    -0.171 C  
HETATM   10  O   UNL     1      -7.664  14.259  68.217  1.00  0.00    -0.117 OA 
HETATM   11  O   UNL     1      -6.527  12.689  67.108  1.00  0.00    -0.148 OA 
ENDBRANCH   7   8
ENDBRANCH   5   7
ENDBRANCH   2   5
TORSDOF 3
ENDMDL
MODEL      206
REMARK 921   NORMALIZED FREE ENERGY PREDICTED BY IDOCK:   -1.83 KCAL/MOL
REMARK 922        TOTAL FREE ENERGY PREDICTED BY IDOCK:   -2.48 KCAL/MOL
REMARK 923 INTER-LIGAND FREE ENERGY PREDICTED BY IDOCK:   -2.38 KCAL/MOL
REMARK 924 INTRA-LIGAND FREE ENERGY PREDICTED BY IDOCK:   -0.10 KCAL/MOL
REMARK 927      BINDING AFFINITY PREDICTED BY RF-SCORE:    0.00 PKD
ROOT
HETATM    1  N   UNL     1      -8.707   8.548  68.130  1.00  0.00    -0.141 NA 
HETATM    2  C   UNL     1      -8.961   9.428  66.991  1.00  0.00    -0.130 C  
HETATM    3  H1  UNL     1      -8.195   7.721  67.823  1.00  0.00     0.000 HD 
HETATM    4  H2  UNL     1      -9.564   8.305  68.625  1.00  0.00     0.000 HD 
ENDROOT
BRANCH   2   5
HETATM    5  C   UNL     1      -9.729  10.668  67.450  1.00  0.00    -0.167 C  
HETATM    6  O   UNL     1      -9.191  11.768  67.618  1.00  0.00    -0.172 OA 
BRANCH   5   7
HETATM    7  C   UNL     1     -11.157  10.494  67.896  1.00  0.00    -0.367 C  
BRANCH   7   8
HETATM    8  C   UNL     1     -11.680  11.786  68.496  1.00  0.00    -0.390 C  
HETATM    9  C   UNL     1     -11.820  11.874  70.003  1.00  0.00    -0.328 C  
HETATM   10  O   UNL     1     -12.049  12.949  70.547  1.00  0.00    -0.356 OA 
HETATM   11  O   UNL     1     -11.722  10.746  70.722  1.00  0.00    -0.328 OA 
ENDBRANCH   7   8
ENDBRANCH   5   7
ENDBRANCH   2   5
TORSDOF 3
ENDMDL
MODEL      207
REMARK 921   NORMALIZED FREE ENERGY PREDICTED BY IDOCK:   -1.81 KCAL/MOL
REMARK 922        TOTAL FREE ENERGY PREDICTED BY IDOCK:   -2.45 KCAL/MOL
REMARK 923 INTER-LIGAND FREE ENERGY PREDICTED BY IDOCK:   -2.50 KCAL/MOL
REMARK 924 INTRA-LIGAND FREE ENERGY PREDICTED BY IDOCK:    0.05 KCAL/MOL
REMARK 927      BINDING AFFINITY PREDICTED BY RF-SCORE:    0.00 PKD
ROOT
HETATM    1  N   UNL     1      -7.491  18.149  65.669  1.00  0.00    -0.544 NA 
HETATM    2  C   UNL     1      -8.384  18.260  66.820  1.00  0.00    -0.255 C  
HETATM    3  H1  UNL     1      -6.790  18.890  65.698  1.00  0.00     0.000 HD 
HETATM    4  H2  UNL     1      -8.003  18.142  64.786  1.00  0.00     0.000 HD 
ENDROOT
BRANCH   2   5
HETATM    5  C   UNL     1      -9.434  17.150  66.775  1.00  0.00    -0.267 C  
HETATM    6  O   UNL     1     -10.570  17.279  67.247  1.00  0.00    -0.338 OA 
BRANCH   5   7
HETATM    7  C   UNL     1      -9.005  15.785  66.306  1.00  0.00    -0.381 C  
BRANCH   7   8
HETATM    8  C   UNL     1      -7.867  15.268  67.167  1.00  0.00    -0.249 C  
HETATM    9  C   UNL     1      -8.211  14.501  68.429  1.00  0.00    -0.150 C  
HETATM   10  O   UNL     1      -7.343  13.900  69.051  1.00  0.00    -0.111 OA 
HETATM   11  O   UNL     1      -9.479  14.526  68.868  1.00  0.00    -0.203 OA 
ENDBRANCH   7   8
ENDBRANCH   5   7
ENDBRANCH   2   5
TORSDOF 3
ENDMDL
MODEL      208
REMARK 921   NORMALIZED FREE ENERGY PREDICTED BY IDOCK:   -1.80 KCAL/MOL
REMARK 922        TOTAL FREE ENERGY PREDICTED BY IDOCK:   -2.44 KCAL/MOL
REMARK 923 INTER-LIGAND FREE ENERGY PREDICTED BY IDOCK:   -2.33 KCAL/MOL
REMARK 924 INTRA-LIGAND FREE ENERGY PREDICTED BY IDOCK:   -0.12 KCAL/MOL
REMARK 927      BINDING AFFINITY PREDICTED BY RF-SCORE:    0.00 PKD
ROOT
HETATM    1  N   UNL     1      -8.645  10.681  69.574  1.00  0.00    -0.381 NA 
HETATM    2  C   UNL     1      -8.989   9.273  69.383  1.00  0.00    -0.147 C  
HETATM    3  H1  UNL     1      -7.802  10.759  70.143  1.00  0.00     0.000 HD 
HETATM    4  H2  UNL     1      -9.421  11.215  69.965  1.00  0.00     0.000 HD 
ENDROOT
BRANCH   2   5
HETATM    5  C   UNL     1     -10.253   9.156  68.530  1.00  0.00    -0.198 C  
HETATM    6  O   UNL     1     -11.126  10.030  68.499  1.00  0.00    -0.223 OA 
BRANCH   5   7
HETATM    7  C   UNL     1     -10.531   7.842  67.850  1.00  0.00    -0.263 C  
BRANCH   7   8
HETATM    8  C   UNL     1      -9.842   6.711  68.591  1.00  0.00    -0.138 C  
HETATM    9  C   UNL     1     -10.632   5.951  69.638  1.00  0.00    -0.313 C  
HETATM   10  O   UNL     1     -10.192   4.914  70.121  1.00  0.00    -0.260 OA 
HETATM   11  O   UNL     1     -11.805   6.457  70.047  1.00  0.00    -0.404 OA 
ENDBRANCH   7   8
ENDBRANCH   5   7
ENDBRANCH   2   5
TORSDOF 3
ENDMDL
MODEL      209
REMARK 921   NORMALIZED FREE ENERGY PREDICTED BY IDOCK:   -1.78 KCAL/MOL
REMARK 922        TOTAL FREE ENERGY PREDICTED BY IDOCK:   -2.42 KCAL/MOL
REMARK 923 INTER-LIGAND FREE ENERGY PREDICTED BY IDOCK:   -2.37 KCAL/MOL
REMARK 924 INTRA-LIGAND FREE ENERGY PREDICTED BY IDOCK:   -0.06 KCAL/MOL
REMARK 927      BINDING AFFINITY PREDICTED BY RF-SCORE:    0.00 PKD
ROOT
HETATM    1  N   UNL     1      -8.876   3.238  66.986  1.00  0.00    -0.126 NA 
HETATM    2  C   UNL     1      -9.059   4.461  67.766  1.00  0.00    -0.127 C  
HETATM    3  H1  UNL     1      -8.042   2.745  67.304  1.00  0.00     0.000 HD 
HETATM    4  H2  UNL     1      -8.852   3.424  65.983  1.00  0.00     0.000 HD 
ENDROOT
BRANCH   2   5
HETATM    5  C   UNL     1     -10.309   5.201  67.289  1.00  0.00    -0.168 C  
HETATM    6  O   UNL     1     -10.856   4.970  66.205  1.00  0.00    -0.294 OA 
BRANCH   5   7
HETATM    7  C   UNL     1     -10.780   6.388  68.089  1.00  0.00    -0.359 C  
BRANCH   7   8
HETATM    8  C   UNL     1     -10.992   5.992  69.538  1.00  0.00    -0.467 C  
HETATM    9  C   UNL     1     -11.383   7.072  70.528  1.00  0.00    -0.312 C  
HETATM   10  O   UNL     1     -11.754   6.778  71.659  1.00  0.00    -0.280 OA 
HETATM   11  O   UNL     1     -11.280   8.355  70.150  1.00  0.00    -0.233 OA 
ENDBRANCH   7   8
ENDBRANCH   5   7
ENDBRANCH   2   5
TORSDOF 3
ENDMDL
MODEL      210
REMARK 921   NORMALIZED FREE ENERGY PREDICTED BY IDOCK:   -1.77 KCAL/MOL
REMARK 922        TOTAL FREE ENERGY PREDICTED BY IDOCK:   -2.41 KCAL/MOL
REMARK 923 INTER-LIGAND FREE ENERGY PREDICTED BY IDOCK:   -2.02 KCAL/MOL
REMARK 924 INTRA-LIGAND FREE ENERGY PREDICTED BY IDOCK:   -0.40 KCAL/MOL
REMARK 927      BINDING AFFINITY PREDICTED BY RF-SCORE:    0.00 PKD
ROOT
HETATM    1  N   UNL     1      -9.171   7.229  72.517  1.00  0.00    -0.137 NA 
HETATM    2  C   UNL     1     -10.542   7.724  72.624  1.00  0.00    -0.317 C  
HETATM    3  H1  UNL     1      -8.703   7.305  73.420  1.00  0.00     0.000 HD 
HETATM    4  H2  UNL     1      -8.651   7.698  71.776  1.00  0.00     0.000 HD 
ENDROOT
BRANCH   2   5
HETATM    5  C   UNL     1     -11.244   7.611  71.271  1.00  0.00    -0.254 C  
HETATM    6  O   UNL     1     -12.428   7.276  71.153  1.00  0.00    -0.348 OA 
BRANCH   5   7
HETATM    7  C   UNL     1     -10.408   7.731  70.024  1.00  0.00    -0.221 C  
BRANCH   7   8
HETATM    8  C   UNL     1     -10.431   9.159  69.512  1.00  0.00    -0.226 C  
HETATM    9  C   UNL     1      -9.208  10.026  69.741  1.00  0.00    -0.199 C  
HETATM   10  O   UNL     1      -9.099  11.111  69.183  1.00  0.00    -0.082 OA 
HETATM   11  O   UNL     1      -8.268   9.593  70.595  1.00  0.00    -0.234 OA 
ENDBRANCH   7   8
ENDBRANCH   5   7
ENDBRANCH   2   5
TORSDOF 3
ENDMDL
MODEL      211
REMARK 921   NORMALIZED FREE ENERGY PREDICTED BY IDOCK:   -1.77 KCAL/MOL
REMARK 922        TOTAL FREE ENERGY PREDICTED BY IDOCK:   -2.41 KCAL/MOL
REMARK 923 INTER-LIGAND FREE ENERGY PREDICTED BY IDOCK:   -2.32 KCAL/MOL
REMARK 924 INTRA-LIGAND FREE ENERGY PREDICTED BY IDOCK:   -0.09 KCAL/MOL
REMARK 927      BINDING AFFINITY PREDICTED BY RF-SCORE:    0.00 PKD
ROOT
HETATM    1  N   UNL     1     -12.232  12.466  66.033  1.00  0.00    -0.624 NA 
HETATM    2  C   UNL     1     -10.802  12.174  66.102  1.00  0.00    -0.282 C  
HETATM    3  H1  UNL     1     -12.385  13.343  65.535  1.00  0.00     0.000 HD 
HETATM    4  H2  UNL     1     -12.666  12.470  66.956  1.00  0.00     0.000 HD 
ENDROOT
BRANCH   2   5
HETATM    5  C   UNL     1     -10.573  10.860  66.848  1.00  0.00    -0.261 C  
HETATM    6  O   UNL     1     -10.575  10.777  68.082  1.00  0.00    -0.179 OA 
BRANCH   5   7
HETATM    7  C   UNL     1     -10.143   9.656  66.052  1.00  0.00    -0.318 C  
BRANCH   7   8
HETATM    8  C   UNL     1      -9.092   8.870  66.814  1.00  0.00    -0.177 C  
HETATM    9  C   UNL     1      -9.524   7.614  67.546  1.00  0.00    -0.140 C  
HETATM   10  O   UNL     1      -8.691   6.844  68.009  1.00  0.00    -0.126 OA 
HETATM   11  O   UNL     1     -10.836   7.385  67.705  1.00  0.00    -0.215 OA 
ENDBRANCH   7   8
ENDBRANCH   5   7
ENDBRANCH   2   5
TORSDOF 3
ENDMDL
MODEL      212
REMARK 921   NORMALIZED FREE ENERGY PREDICTED BY IDOCK:   -1.74 KCAL/MOL
REMARK 922        TOTAL FREE ENERGY PREDICTED BY IDOCK:   -2.37 KCAL/MOL
REMARK 923 INTER-LIGAND FREE ENERGY PREDICTED BY IDOCK:   -2.27 KCAL/MOL
REMARK 924 INTRA-LIGAND FREE ENERGY PREDICTED BY IDOCK:   -0.10 KCAL/MOL
REMARK 927      BINDING AFFINITY PREDICTED BY RF-SCORE:    0.00 PKD
ROOT
HETATM    1  N   UNL     1     -12.764   9.785  71.919  1.00  0.00    -0.404 NA 
HETATM    2  C   UNL     1     -11.851  10.389  70.952  1.00  0.00    -0.377 C  
HETATM    3  H1  UNL     1     -13.610  10.350  72.000  1.00  0.00     0.000 HD 
HETATM    4  H2  UNL     1     -12.318   9.634  72.824  1.00  0.00     0.000 HD 
ENDROOT
BRANCH   2   5
HETATM    5  C   UNL     1     -10.583   9.544  70.833  1.00  0.00    -0.325 C  
HETATM    6  O   UNL     1     -10.044   9.289  69.750  1.00  0.00    -0.185 OA 
BRANCH   5   7
HETATM    7  C   UNL     1     -10.081   8.839  72.065  1.00  0.00    -0.397 C  
BRANCH   7   8
HETATM    8  C   UNL     1      -8.641   8.400  71.869  1.00  0.00    -0.248 C  
HETATM    9  C   UNL     1      -8.361   6.925  71.660  1.00  0.00    -0.109 C  
HETATM   10  O   UNL     1      -7.251   6.544  71.306  1.00  0.00    -0.075 OA 
HETATM   11  O   UNL     1      -9.344   6.045  71.907  1.00  0.00    -0.151 OA 
ENDBRANCH   7   8
ENDBRANCH   5   7
ENDBRANCH   2   5
TORSDOF 3
ENDMDL
MODEL      213
REMARK 921   NORMALIZED FREE ENERGY PREDICTED BY IDOCK:   -1.72 KCAL/MOL
REMARK 922        TOTAL FREE ENERGY PREDICTED BY IDOCK:   -2.35 KCAL/MOL
REMARK 923 INTER-LIGAND FREE ENERGY PREDICTED BY IDOCK:   -2.27 KCAL/MOL
REMARK 924 INTRA-LIGAND FREE ENERGY PREDICTED BY IDOCK:   -0.08 KCAL/MOL
REMARK 927      BINDING AFFINITY PREDICTED BY RF-SCORE:    0.00 PKD
ROOT
HETATM    1  N   UNL     1      -9.961   2.966  71.710  1.00  0.00    -0.153 NA 
HETATM    2  C   UNL     1      -9.771   3.272  73.126  1.00  0.00    -0.110 C  
HETATM    3  H1  UNL     1      -9.563   2.051  71.495  1.00  0.00     0.000 HD 
HETATM    4  H2  UNL     1      -9.585   3.697  71.106  1.00  0.00     0.000 HD 
ENDROOT
BRANCH   2   5
HETATM    5  C   UNL     1     -10.367   4.643  73.448  1.00  0.00    -0.185 C  
HETATM    6  O   UNL     1     -11.002   4.874  74.483  1.00  0.00    -0.273 OA 
BRANCH   5   7
HETATM    7  C   UNL     1     -10.338   5.699  72.375  1.00  0.00    -0.245 C  
BRANCH   7   8
HETATM    8  C   UNL     1     -11.009   6.967  72.869  1.00  0.00    -0.337 C  
HETATM    9  C   UNL     1     -12.110   7.575  72.022  1.00  0.00    -0.291 C  
HETATM   10  O   UNL     1     -12.811   8.478  72.464  1.00  0.00    -0.345 OA 
HETATM   11  O   UNL     1     -12.274   7.127  70.768  1.00  0.00    -0.327 OA 
ENDBRANCH   7   8
ENDBRANCH   5   7
ENDBRANCH   2   5
TORSDOF 3
ENDMDL
MODEL      214
REMARK 921   NORMALIZED FREE ENERGY PREDICTED BY IDOCK:   -1.71 KCAL/MOL
REMARK 922        TOTAL FREE ENERGY PREDICTED BY IDOCK:   -2.34 KCAL/MOL
REMARK 923 INTER-LIGAND FREE ENERGY PREDICTED BY IDOCK:   -2.21 KCAL/MOL
REMARK 924 INTRA-LIGAND FREE ENERGY PREDICTED BY IDOCK:   -0.13 KCAL/MOL
REMARK 927      BINDING AFFINITY PREDICTED BY RF-SCORE:    0.00 PKD
ROOT
HETATM    1  N   UNL     1     -12.156   7.976  72.985  1.00  0.00    -0.642 NA 
HETATM    2  C   UNL     1     -11.075   8.481  72.141  1.00  0.00    -0.366 C  
HETATM    3  H1  UNL     1     -13.021   8.476  72.778  1.00  0.00     0.000 HD 
HETATM    4  H2  UNL     1     -11.919   8.017  73.976  1.00  0.00     0.000 HD 
ENDROOT
BRANCH   2   5
HETATM    5  C   UNL     1      -9.778   7.733  72.451  1.00  0.00    -0.192 C  
HETATM    6  O   UNL     1      -9.042   7.269  71.573  1.00  0.00    -0.140 OA 
BRANCH   5   7
HETATM    7  C   UNL     1      -9.485   7.386  73.887  1.00  0.00    -0.312 C  
BRANCH   7   8
HETATM    8  C   UNL     1      -8.176   8.017  74.323  1.00  0.00    -0.308 C  
HETATM    9  C   UNL     1      -6.934   7.147  74.357  1.00  0.00    -0.092 C  
HETATM   10  O   UNL     1      -5.826   7.647  74.511  1.00  0.00    -0.076 OA 
HETATM   11  O   UNL     1      -7.081   5.818  74.251  1.00  0.00    -0.084 OA 
ENDBRANCH   7   8
ENDBRANCH   5   7
ENDBRANCH   2   5
TORSDOF 3
ENDMDL
MODEL      215
REMARK 921   NORMALIZED FREE ENERGY PREDICTED BY IDOCK:   -1.71 KCAL/MOL
REMARK 922        TOTAL FREE ENERGY PREDICTED BY IDOCK:   -2.34 KCAL/MOL
REMARK 923 INTER-LIGAND FREE ENERGY PREDICTED BY IDOCK:   -2.20 KCAL/MOL
REMARK 924 INTRA-LIGAND FREE ENERGY PREDICTED BY IDOCK:   -0.14 KCAL/MOL
REMARK 927      BINDING AFFINITY PREDICTED BY RF-SCORE:    0.00 PKD
ROOT
HETATM    1  N   UNL     1      -9.396  18.120  67.235  1.00  0.00    -0.250 NA 
HETATM    2  C   UNL     1      -7.975  18.324  66.966  1.00  0.00    -0.225 C  
HETATM    3  H1  UNL     1      -9.696  17.219  66.861  1.00  0.00     0.000 HD 
HETATM    4  H2  UNL     1      -9.967  18.889  66.882  1.00  0.00     0.000 HD 
ENDROOT
BRANCH   2   5
HETATM    5  C   UNL     1      -7.526  19.674  67.525  1.00  0.00    -0.256 C  
HETATM    6  O   UNL     1      -8.142  20.726  67.318  1.00  0.00    -0.319 OA 
BRANCH   5   7
HETATM    7  C   UNL     1      -6.180  19.753  68.196  1.00  0.00    -0.267 C  
BRANCH   7   8
HETATM    8  C   UNL     1      -6.228  19.070  69.550  1.00  0.00    -0.293 C  
HETATM    9  C   UNL     1      -5.538  17.728  69.703  1.00  0.00    -0.218 C  
HETATM   10  O   UNL     1      -5.380  17.231  70.812  1.00  0.00    -0.250 OA 
HETATM   11  O   UNL     1      -5.138  17.083  68.596  1.00  0.00    -0.121 OA 
ENDBRANCH   7   8
ENDBRANCH   5   7
ENDBRANCH   2   5
TORSDOF 3
ENDMDL
MODEL      216
REMARK 921   NORMALIZED FREE ENERGY PREDICTED BY IDOCK:   -1.70 KCAL/MOL
REMARK 922        TOTAL FREE ENERGY PREDICTED BY IDOCK:   -2.33 KCAL/MOL
REMARK 923 INTER-LIGAND FREE ENERGY PREDICTED BY IDOCK:   -2.20 KCAL/MOL
REMARK 924 INTRA-LIGAND FREE ENERGY PREDICTED BY IDOCK:   -0.13 KCAL/MOL
REMARK 927      BINDING AFFINITY PREDICTED BY RF-SCORE:    0.00 PKD
ROOT
HETATM    1  N   UNL     1      -6.646  12.638  69.781  1.00  0.00    -0.345 NA 
HETATM    2  C   UNL     1      -7.209  13.626  68.863  1.00  0.00    -0.083 C  
HETATM    3  H1  UNL     1      -5.763  12.979  70.161  1.00  0.00     0.000 HD 
HETATM    4  H2  UNL     1      -6.545  11.722  69.342  1.00  0.00     0.000 HD 
ENDROOT
BRANCH   2   5
HETATM    5  C   UNL     1      -8.532  13.115  68.293  1.00  0.00    -0.161 C  
HETATM    6  O   UNL     1      -9.083  12.082  68.693  1.00  0.00    -0.137 OA 
BRANCH   5   7
HETATM    7  C   UNL     1      -9.088  13.794  67.070  1.00  0.00    -0.253 C  
BRANCH   7   8
HETATM    8  C   UNL     1      -9.474  15.225  67.394  1.00  0.00    -0.200 C  
HETATM    9  C   UNL     1     -10.890  15.500  67.860  1.00  0.00    -0.307 C  
HETATM   10  O   UNL     1     -11.196  16.596  68.317  1.00  0.00    -0.349 OA 
HETATM   11  O   UNL     1     -11.808  14.530  67.727  1.00  0.00    -0.366 OA 
ENDBRANCH   7   8
ENDBRANCH   5   7
ENDBRANCH   2   5
TORSDOF 3
ENDMDL
MODEL      217
REMARK 921   NORMALIZED FREE ENERGY PREDICTED BY IDOCK:   -1.70 KCAL/MOL
REMARK 922        TOTAL FREE ENERGY PREDICTED BY IDOCK:   -2.32 KCAL/MOL
REMARK 923 INTER-LIGAND FREE ENERGY PREDICTED BY IDOCK:   -2.19 KCAL/MOL
REMARK 924 INTRA-LIGAND FREE ENERGY PREDICTED BY IDOCK:   -0.13 KCAL/MOL
REMARK 927      BINDING AFFINITY PREDICTED BY RF-SCORE:    0.00 PKD
ROOT
HETATM    1  N   UNL     1      -8.390   8.585  72.868  1.00  0.00    -0.393 NA 
HETATM    2  C   UNL     1      -9.187   7.599  73.596  1.00  0.00    -0.283 C  
HETATM    3  H1  UNL     1      -8.700   9.527  73.105  1.00  0.00     0.000 HD 
HETATM    4  H2  UNL     1      -8.404   8.420  71.861  1.00  0.00     0.000 HD 
ENDROOT
BRANCH   2   5
HETATM    5  C   UNL     1      -8.723   6.187  73.240  1.00  0.00    -0.123 C  
HETATM    6  O   UNL     1      -7.536   5.841  73.271  1.00  0.00    -0.094 OA 
BRANCH   5   7
HETATM    7  C   UNL     1      -9.730   5.237  72.648  1.00  0.00    -0.175 C  
BRANCH   7   8
HETATM    8  C   UNL     1     -10.222   5.760  71.311  1.00  0.00    -0.270 C  
HETATM    9  C   UNL     1     -11.620   6.344  71.238  1.00  0.00    -0.311 C  
HETATM   10  O   UNL     1     -11.991   6.952  70.241  1.00  0.00    -0.305 OA 
HETATM   11  O   UNL     1     -12.450   6.149  72.274  1.00  0.00    -0.236 OA 
ENDBRANCH   7   8
ENDBRANCH   5   7
ENDBRANCH   2   5
TORSDOF 3
ENDMDL
MODEL      218
REMARK 921   NORMALIZED FREE ENERGY PREDICTED BY IDOCK:   -1.68 KCAL/MOL
REMARK 922        TOTAL FREE ENERGY PREDICTED BY IDOCK:   -2.30 KCAL/MOL
REMARK 923 INTER-LIGAND FREE ENERGY PREDICTED BY IDOCK:   -2.25 KCAL/MOL
REMARK 924 INTRA-LIGAND FREE ENERGY PREDICTED BY IDOCK:   -0.05 KCAL/MOL
REMARK 927      BINDING AFFINITY PREDICTED BY RF-SCORE:    0.00 PKD
ROOT
HETATM    1  N   UNL     1      -6.489   6.455  71.894  1.00  0.00    -0.052 NA 
HETATM    2  C   UNL     1      -7.353   7.535  72.365  1.00  0.00    -0.074 C  
HETATM    3  H1  UNL     1      -5.599   6.479  72.391  1.00  0.00     0.000 HD 
HETATM    4  H2  UNL     1      -6.363   6.479  70.882  1.00  0.00     0.000 HD 
ENDROOT
BRANCH   2   5
HETATM    5  C   UNL     1      -8.687   7.499  71.620  1.00  0.00    -0.116 C  
HETATM    6  O   UNL     1      -9.034   6.551  70.906  1.00  0.00    -0.146 OA 
BRANCH   5   7
HETATM    7  C   UNL     1      -9.527   8.749  71.607  1.00  0.00    -0.358 C  
BRANCH   7   8
HETATM    8  C   UNL     1     -10.836   8.510  72.335  1.00  0.00    -0.378 C  
HETATM    9  C   UNL     1     -12.037   9.352  71.952  1.00  0.00    -0.357 C  
HETATM   10  O   UNL     1     -13.156   9.070  72.366  1.00  0.00    -0.412 OA 
HETATM   11  O   UNL     1     -11.842  10.432  71.179  1.00  0.00    -0.356 OA 
ENDBRANCH   7   8
ENDBRANCH   5   7
ENDBRANCH   2   5
TORSDOF 3
ENDMDL
MODEL      219
REMARK 921   NORMALIZED FREE ENERGY PREDICTED BY IDOCK:   -1.67 KCAL/MOL
REMARK 922        TOTAL FREE ENERGY PREDICTED BY IDOCK:   -2.30 KCAL/MOL
REMARK 923 INTER-LIGAND FREE ENERGY PREDICTED BY IDOCK:   -2.24 KCAL/MOL
REMARK 924 INTRA-LIGAND FREE ENERGY PREDICTED BY IDOCK:   -0.06 KCAL/MOL
REMARK 927      BINDING AFFINITY PREDICTED BY RF-SCORE:    0.00 PKD
ROOT
HETATM    1  N   UNL     1     -12.872  10.180  71.701  1.00  0.00    -0.417 NA 
HETATM    2  C   UNL     1     -11.674  10.376  70.888  1.00  0.00    -0.360 C  
HETATM    3  H1  UNL     1     -13.570  10.887  71.469  1.00  0.00     0.000 HD 
HETATM    4  H2  UNL     1     -12.660  10.167  72.699  1.00  0.00     0.000 HD 
ENDROOT
BRANCH   2   5
HETATM    5  C   UNL     1     -10.628   9.317  71.237  1.00  0.00    -0.347 C  
HETATM    6  O   UNL     1     -10.619   8.709  72.314  1.00  0.00    -0.334 OA 
BRANCH   5   7
HETATM    7  C   UNL     1      -9.455   9.144  70.309  1.00  0.00    -0.253 C  
BRANCH   7   8
HETATM    8  C   UNL     1      -9.192   7.670  70.064  1.00  0.00    -0.151 C  
HETATM    9  C   UNL     1      -8.961   7.207  68.639  1.00  0.00    -0.131 C  
HETATM   10  O   UNL     1      -8.554   6.074  68.409  1.00  0.00    -0.112 OA 
HETATM   11  O   UNL     1      -9.245   8.053  67.637  1.00  0.00    -0.133 OA 
ENDBRANCH   7   8
ENDBRANCH   5   7
ENDBRANCH   2   5
TORSDOF 3
ENDMDL
MODEL      220
REMARK 921   NORMALIZED FREE ENERGY PREDICTED BY IDOCK:   -1.65 KCAL/MOL
REMARK 922        TOTAL FREE ENERGY PREDICTED BY IDOCK:   -2.27 KCAL/MOL
REMARK 923 INTER-LIGAND FREE ENERGY PREDICTED BY IDOCK:   -2.17 KCAL/MOL
REMARK 924 INTRA-LIGAND FREE ENERGY PREDICTED BY IDOCK:   -0.10 KCAL/MOL
REMARK 927      BINDING AFFINITY PREDICTED BY RF-SCORE:    0.00 PKD
ROOT
HETATM    1  N   UNL     1     -13.311   6.770  72.328  1.00  0.00    -0.499 NA 
HETATM    2  C   UNL     1     -12.917   7.933  71.536  1.00  0.00    -0.311 C  
HETATM    3  H1  UNL     1     -14.315   6.792  72.505  1.00  0.00     0.000 HD 
HETATM    4  H2  UNL     1     -12.773   6.694  73.191  1.00  0.00     0.000 HD 
ENDROOT
BRANCH   2   5
HETATM    5  C   UNL     1     -11.412   7.899  71.272  1.00  0.00    -0.265 C  
HETATM    6  O   UNL     1     -10.618   7.270  71.981  1.00  0.00    -0.204 OA 
BRANCH   5   7
HETATM    7  C   UNL     1     -10.855   8.819  70.218  1.00  0.00    -0.252 C  
BRANCH   7   8
HETATM    8  C   UNL     1      -9.528   8.290  69.706  1.00  0.00    -0.163 C  
HETATM    9  C   UNL     1      -9.529   7.443  68.449  1.00  0.00    -0.143 C  
HETATM   10  O   UNL     1      -8.477   7.156  67.888  1.00  0.00    -0.121 OA 
HETATM   11  O   UNL     1     -10.702   6.986  67.984  1.00  0.00    -0.210 OA 
ENDBRANCH   7   8
ENDBRANCH   5   7
ENDBRANCH   2   5
TORSDOF 3
ENDMDL
MODEL      221
REMARK 921   NORMALIZED FREE ENERGY PREDICTED BY IDOCK:   -1.65 KCAL/MOL
REMARK 922        TOTAL FREE ENERGY PREDICTED BY IDOCK:   -2.27 KCAL/MOL
REMARK 923 INTER-LIGAND FREE ENERGY PREDICTED BY IDOCK:   -2.14 KCAL/MOL
REMARK 924 INTRA-LIGAND FREE ENERGY PREDICTED BY IDOCK:   -0.13 KCAL/MOL
REMARK 927      BINDING AFFINITY PREDICTED BY RF-SCORE:    0.00 PKD
ROOT
HETATM    1  N   UNL     1      -9.411  10.327  69.817  1.00  0.00    -0.393 NA 
HETATM    2  C   UNL     1     -10.119   9.389  70.686  1.00  0.00    -0.291 C  
HETATM    3  H1  UNL     1      -9.286  11.219  70.296  1.00  0.00     0.000 HD 
HETATM    4  H2  UNL     1      -9.876  10.440  68.916  1.00  0.00     0.000 HD 
ENDROOT
BRANCH   2   5
HETATM    5  C   UNL     1     -10.307   8.053  69.967  1.00  0.00    -0.218 C  
HETATM    6  O   UNL     1     -10.568   7.968  68.762  1.00  0.00    -0.195 OA 
BRANCH   5   7
HETATM    7  C   UNL     1     -10.361   6.800  70.801  1.00  0.00    -0.227 C  
BRANCH   7   8
HETATM    8  C   UNL     1      -9.211   6.778  71.791  1.00  0.00    -0.147 C  
HETATM    9  C   UNL     1      -9.534   6.862  73.270  1.00  0.00    -0.156 C  
HETATM   10  O   UNL     1      -8.667   6.654  74.111  1.00  0.00    -0.134 OA 
HETATM   11  O   UNL     1     -10.779   7.204  73.635  1.00  0.00    -0.375 OA 
ENDBRANCH   7   8
ENDBRANCH   5   7
ENDBRANCH   2   5
TORSDOF 3
ENDMDL
MODEL      222
REMARK 921   NORMALIZED FREE ENERGY PREDICTED BY IDOCK:   -1.64 KCAL/MOL
REMARK 922        TOTAL FREE ENERGY PREDICTED BY IDOCK:   -2.26 KCAL/MOL
REMARK 923 INTER-LIGAND FREE ENERGY PREDICTED BY IDOCK:   -2.14 KCAL/MOL
REMARK 924 INTRA-LIGAND FREE ENERGY PREDICTED BY IDOCK:   -0.12 KCAL/MOL
REMARK 927      BINDING AFFINITY PREDICTED BY RF-SCORE:    0.00 PKD
ROOT
HETATM    1  N   UNL     1     -10.146   9.301  70.638  1.00  0.00    -0.254 NA 
HETATM    2  C   UNL     1      -9.970   7.877  70.365  1.00  0.00    -0.192 C  
HETATM    3  H1  UNL     1      -9.381   9.833  70.222  1.00  0.00     0.000 HD 
HETATM    4  H2  UNL     1     -10.245   9.490  71.635  1.00  0.00     0.000 HD 
ENDROOT
BRANCH   2   5
HETATM    5  C   UNL     1     -11.116   7.080  70.988  1.00  0.00    -0.264 C  
HETATM    6  O   UNL     1     -12.108   6.715  70.347  1.00  0.00    -0.374 OA 
BRANCH   5   7
HETATM    7  C   UNL     1     -11.123   6.897  72.483  1.00  0.00    -0.302 C  
BRANCH   7   8
HETATM    8  C   UNL     1     -11.239   5.425  72.831  1.00  0.00    -0.372 C  
HETATM    9  C   UNL     1      -9.979   4.676  73.218  1.00  0.00    -0.151 C  
HETATM   10  O   UNL     1     -10.044   3.548  73.693  1.00  0.00    -0.115 OA 
HETATM   11  O   UNL     1      -8.792   5.262  72.996  1.00  0.00    -0.117 OA 
ENDBRANCH   7   8
ENDBRANCH   5   7
ENDBRANCH   2   5
TORSDOF 3
ENDMDL
MODEL      223
REMARK 921   NORMALIZED FREE ENERGY PREDICTED BY IDOCK:   -1.61 KCAL/MOL
REMARK 922        TOTAL FREE ENERGY PREDICTED BY IDOCK:   -2.22 KCAL/MOL
REMARK 923 INTER-LIGAND FREE ENERGY PREDICTED BY IDOCK:   -2.05 KCAL/MOL
REMARK 924 INTRA-LIGAND FREE ENERGY PREDICTED BY IDOCK:   -0.17 KCAL/MOL
REMARK 927      BINDING AFFINITY PREDICTED BY RF-SCORE:    0.00 PKD
ROOT
HETATM    1  N   UNL     1     -10.889   7.458  67.063  1.00  0.00    -0.532 NA 
HETATM    2  C   UNL     1     -10.680   6.057  67.423  1.00  0.00    -0.310 C  
HETATM    3  H1  UNL     1     -10.943   7.552  66.048  1.00  0.00     0.000 HD 
HETATM    4  H2  UNL     1     -10.178   8.067  67.466  1.00  0.00     0.000 HD 
ENDROOT
BRANCH   2   5
HETATM    5  C   UNL     1     -10.599   5.916  68.943  1.00  0.00    -0.288 C  
HETATM    6  O   UNL     1     -11.561   6.127  69.690  1.00  0.00    -0.407 OA 
BRANCH   5   7
HETATM    7  C   UNL     1      -9.245   5.693  69.564  1.00  0.00    -0.154 C  
BRANCH   7   8
HETATM    8  C   UNL     1      -8.512   7.013  69.712  1.00  0.00    -0.137 C  
HETATM    9  C   UNL     1      -7.374   7.314  68.757  1.00  0.00    -0.096 C  
HETATM   10  O   UNL     1      -6.881   8.436  68.707  1.00  0.00    -0.060 OA 
HETATM   11  O   UNL     1      -6.895   6.318  67.996  1.00  0.00    -0.065 OA 
ENDBRANCH   7   8
ENDBRANCH   5   7
ENDBRANCH   2   5
TORSDOF 3
ENDMDL
MODEL      224
REMARK 921   NORMALIZED FREE ENERGY PREDICTED BY IDOCK:   -1.60 KCAL/MOL
REMARK 922        TOTAL FREE ENERGY PREDICTED BY IDOCK:   -2.21 KCAL/MOL
REMARK 923 INTER-LIGAND FREE ENERGY PREDICTED BY IDOCK:   -2.51 KCAL/MOL
REMARK 924 INTRA-LIGAND FREE ENERGY PREDICTED BY IDOCK:    0.30 KCAL/MOL
REMARK 927      BINDING AFFINITY PREDICTED BY RF-SCORE:    0.00 PKD
ROOT
HETATM    1  N   UNL     1     -11.692   6.513  69.603  1.00  0.00    -0.643 NA 
HETATM    2  C   UNL     1     -10.642   7.262  68.917  1.00  0.00    -0.191 C  
HETATM    3  H1  UNL     1     -12.236   5.977  68.927  1.00  0.00     0.000 HD 
HETATM    4  H2  UNL     1     -12.282   7.117  70.176  1.00  0.00     0.000 HD 
ENDROOT
BRANCH   2   5
HETATM    5  C   UNL     1      -9.826   8.065  69.930  1.00  0.00    -0.186 C  
HETATM    6  O   UNL     1      -8.598   7.971  70.032  1.00  0.00    -0.131 OA 
BRANCH   5   7
HETATM    7  C   UNL     1     -10.571   8.862  70.969  1.00  0.00    -0.315 C  
BRANCH   7   8
HETATM    8  C   UNL     1     -11.482   9.874  70.300  1.00  0.00    -0.349 C  
HETATM    9  C   UNL     1     -10.879  10.823  69.284  1.00  0.00    -0.242 C  
HETATM   10  O   UNL     1     -11.598  11.522  68.578  1.00  0.00    -0.263 OA 
HETATM   11  O   UNL     1      -9.542  10.907  69.200  1.00  0.00    -0.186 OA 
ENDBRANCH   7   8
ENDBRANCH   5   7
ENDBRANCH   2   5
TORSDOF 3
ENDMDL
MODEL      225
REMARK 921   NORMALIZED FREE ENERGY PREDICTED BY IDOCK:   -1.59 KCAL/MOL
REMARK 922        TOTAL FREE ENERGY PREDICTED BY IDOCK:   -2.20 KCAL/MOL
REMARK 923 INTER-LIGAND FREE ENERGY PREDICTED BY IDOCK:   -2.11 KCAL/MOL
REMARK 924 INTRA-LIGAND FREE ENERGY PREDICTED BY IDOCK:   -0.09 KCAL/MOL
REMARK 927      BINDING AFFINITY PREDICTED BY RF-SCORE:    0.00 PKD
ROOT
HETATM    1  N   UNL     1      -8.424  10.799  64.738  1.00  0.00    -0.345 NA 
HETATM    2  C   UNL     1      -9.845  11.038  64.985  1.00  0.00    -0.269 C  
HETATM    3  H1  UNL     1      -8.309   9.991  64.125  1.00  0.00     0.000 HD 
HETATM    4  H2  UNL     1      -7.896  10.700  65.605  1.00  0.00     0.000 HD 
ENDROOT
BRANCH   2   5
HETATM    5  C   UNL     1     -10.018  12.248  65.903  1.00  0.00    -0.254 C  
HETATM    6  O   UNL     1     -10.791  13.179  65.651  1.00  0.00    -0.274 OA 
BRANCH   5   7
HETATM    7  C   UNL     1      -9.072  12.399  67.065  1.00  0.00    -0.207 C  
BRANCH   7   8
HETATM    8  C   UNL     1      -9.682  13.296  68.126  1.00  0.00    -0.227 C  
HETATM    9  C   UNL     1      -9.135  14.701  68.282  1.00  0.00    -0.189 C  
HETATM   10  O   UNL     1      -9.716  15.523  68.981  1.00  0.00    -0.207 OA 
HETATM   11  O   UNL     1      -7.984  15.012  67.666  1.00  0.00    -0.135 OA 
ENDBRANCH   7   8
ENDBRANCH   5   7
ENDBRANCH   2   5
TORSDOF 3
ENDMDL
MODEL      226
REMARK 921   NORMALIZED FREE ENERGY PREDICTED BY IDOCK:   -1.59 KCAL/MOL
REMARK 922        TOTAL FREE ENERGY PREDICTED BY IDOCK:   -2.20 KCAL/MOL
REMARK 923 INTER-LIGAND FREE ENERGY PREDICTED BY IDOCK:   -2.14 KCAL/MOL
REMARK 924 INTRA-LIGAND FREE ENERGY PREDICTED BY IDOCK:   -0.07 KCAL/MOL
REMARK 927      BINDING AFFINITY PREDICTED BY RF-SCORE:    0.00 PKD
ROOT
HETATM    1  N   UNL     1     -12.358  12.553  65.658  1.00  0.00    -0.638 NA 
HETATM    2  C   UNL     1     -10.979  12.869  65.291  1.00  0.00    -0.283 C  
HETATM    3  H1  UNL     1     -12.911  13.409  65.705  1.00  0.00     0.000 HD 
HETATM    4  H2  UNL     1     -12.409  12.017  66.525  1.00  0.00     0.000 HD 
ENDROOT
BRANCH   2   5
HETATM    5  C   UNL     1     -10.150  11.587  65.221  1.00  0.00    -0.269 C  
HETATM    6  O   UNL     1     -10.497  10.596  64.569  1.00  0.00    -0.345 OA 
BRANCH   5   7
HETATM    7  C   UNL     1      -8.959  11.461  66.135  1.00  0.00    -0.207 C  
BRANCH   7   8
HETATM    8  C   UNL     1      -8.328  10.089  65.987  1.00  0.00    -0.126 C  
HETATM    9  C   UNL     1      -7.858   9.376  67.240  1.00  0.00    -0.099 C  
HETATM   10  O   UNL     1      -7.523   8.197  67.199  1.00  0.00    -0.086 OA 
HETATM   11  O   UNL     1      -7.782  10.073  68.384  1.00  0.00    -0.083 OA 
ENDBRANCH   7   8
ENDBRANCH   5   7
ENDBRANCH   2   5
TORSDOF 3
ENDMDL
MODEL      227
REMARK 921   NORMALIZED FREE ENERGY PREDICTED BY IDOCK:   -1.59 KCAL/MOL
REMARK 922        TOTAL FREE ENERGY PREDICTED BY IDOCK:   -2.20 KCAL/MOL
REMARK 923 INTER-LIGAND FREE ENERGY PREDICTED BY IDOCK:   -2.09 KCAL/MOL
REMARK 924 INTRA-LIGAND FREE ENERGY PREDICTED BY IDOCK:   -0.12 KCAL/MOL
REMARK 927      BINDING AFFINITY PREDICTED BY RF-SCORE:    0.00 PKD
ROOT
HETATM    1  N   UNL     1     -11.332   8.277  70.057  1.00  0.00    -0.452 NA 
HETATM    2  C   UNL     1     -10.917   9.585  69.555  1.00  0.00    -0.195 C  
HETATM    3  H1  UNL     1     -11.990   8.393  70.828  1.00  0.00     0.000 HD 
HETATM    4  H2  UNL     1     -10.534   7.697  70.318  1.00  0.00     0.000 HD 
ENDROOT
BRANCH   2   5
HETATM    5  C   UNL     1      -9.930   9.413  68.400  1.00  0.00    -0.170 C  
HETATM    6  O   UNL     1      -8.766   9.828  68.442  1.00  0.00    -0.118 OA 
BRANCH   5   7
HETATM    7  C   UNL     1     -10.455   8.883  67.092  1.00  0.00    -0.344 C  
BRANCH   7   8
HETATM    8  C   UNL     1      -9.886   9.684  65.935  1.00  0.00    -0.358 C  
HETATM    9  C   UNL     1      -8.998   8.971  64.935  1.00  0.00    -0.118 C  
HETATM   10  O   UNL     1      -8.674   9.517  63.886  1.00  0.00    -0.200 OA 
HETATM   11  O   UNL     1      -8.546   7.744  65.240  1.00  0.00    -0.130 OA 
ENDBRANCH   7   8
ENDBRANCH   5   7
ENDBRANCH   2   5
TORSDOF 3
ENDMDL
MODEL      228
REMARK 921   NORMALIZED FREE ENERGY PREDICTED BY IDOCK:   -1.58 KCAL/MOL
REMARK 922        TOTAL FREE ENERGY PREDICTED BY IDOCK:   -2.19 KCAL/MOL
REMARK 923 INTER-LIGAND FREE ENERGY PREDICTED BY IDOCK:   -2.05 KCAL/MOL
REMARK 924 INTRA-LIGAND FREE ENERGY PREDICTED BY IDOCK:   -0.14 KCAL/MOL
REMARK 927      BINDING AFFINITY PREDICTED BY RF-SCORE:    0.00 PKD
ROOT
HETATM    1  N   UNL     1     -13.130   8.935  71.282  1.00  0.00    -0.500 NA 
HETATM    2  C   UNL     1     -11.724   8.799  70.910  1.00  0.00    -0.258 C  
HETATM    3  H1  UNL     1     -13.356   9.918  71.435  1.00  0.00     0.000 HD 
HETATM    4  H2  UNL     1     -13.371   8.357  72.087  1.00  0.00     0.000 HD 
ENDROOT
BRANCH   2   5
HETATM    5  C   UNL     1     -11.385   7.327  70.680  1.00  0.00    -0.284 C  
HETATM    6  O   UNL     1     -12.069   6.401  71.130  1.00  0.00    -0.307 OA 
BRANCH   5   7
HETATM    7  C   UNL     1     -10.063   6.994  70.039  1.00  0.00    -0.196 C  
BRANCH   7   8
HETATM    8  C   UNL     1      -9.020   6.708  71.105  1.00  0.00    -0.145 C  
HETATM    9  C   UNL     1      -8.678   5.263  71.407  1.00  0.00    -0.130 C  
HETATM   10  O   UNL     1      -7.714   4.983  72.110  1.00  0.00    -0.093 OA 
HETATM   11  O   UNL     1      -9.475   4.300  70.916  1.00  0.00    -0.141 OA 
ENDBRANCH   7   8
ENDBRANCH   5   7
ENDBRANCH   2   5
TORSDOF 3
ENDMDL
MODEL      229
REMARK 921   NORMALIZED FREE ENERGY PREDICTED BY IDOCK:   -1.58 KCAL/MOL
REMARK 922        TOTAL FREE ENERGY PREDICTED BY IDOCK:   -2.19 KCAL/MOL
REMARK 923 INTER-LIGAND FREE ENERGY PREDICTED BY IDOCK:   -2.08 KCAL/MOL
REMARK 924 INTRA-LIGAND FREE ENERGY PREDICTED BY IDOCK:   -0.11 KCAL/MOL
REMARK 927      BINDING AFFINITY PREDICTED BY RF-SCORE:    0.00 PKD
ROOT
HETATM    1  N   UNL     1      -7.944  12.937  68.967  1.00  0.00    -0.319 NA 
HETATM    2  C   UNL     1      -8.103  13.192  67.537  1.00  0.00    -0.181 C  
HETATM    3  H1  UNL     1      -7.307  13.621  69.374  1.00  0.00     0.000 HD 
HETATM    4  H2  UNL     1      -7.648  11.979  69.154  1.00  0.00     0.000 HD 
ENDROOT
BRANCH   2   5
HETATM    5  C   UNL     1      -9.058  12.166  66.926  1.00  0.00    -0.203 C  
HETATM    6  O   UNL     1      -9.705  12.380  65.895  1.00  0.00    -0.252 OA 
BRANCH   5   7
HETATM    7  C   UNL     1      -9.363  10.921  67.717  1.00  0.00    -0.162 C  
BRANCH   7   8
HETATM    8  C   UNL     1     -10.784  10.969  68.245  1.00  0.00    -0.235 C  
HETATM    9  C   UNL     1     -11.017  10.664  69.711  1.00  0.00    -0.280 C  
HETATM   10  O   UNL     1     -12.108  10.877  70.228  1.00  0.00    -0.294 OA 
HETATM   11  O   UNL     1     -10.015  10.122  70.420  1.00  0.00    -0.154 OA 
ENDBRANCH   7   8
ENDBRANCH   5   7
ENDBRANCH   2   5
TORSDOF 3
ENDMDL
MODEL      230
REMARK 921   NORMALIZED FREE ENERGY PREDICTED BY IDOCK:   -1.56 KCAL/MOL
REMARK 922        TOTAL FREE ENERGY PREDICTED BY IDOCK:   -2.16 KCAL/MOL
REMARK 923 INTER-LIGAND FREE ENERGY PREDICTED BY IDOCK:   -2.11 KCAL/MOL
REMARK 924 INTRA-LIGAND FREE ENERGY PREDICTED BY IDOCK:   -0.06 KCAL/MOL
REMARK 927      BINDING AFFINITY PREDICTED BY RF-SCORE:    0.00 PKD
ROOT
HETATM    1  N   UNL     1     -12.784   7.014  70.476  1.00  0.00    -0.559 NA 
HETATM    2  C   UNL     1     -12.501   7.352  71.869  1.00  0.00    -0.302 C  
HETATM    3  H1  UNL     1     -13.786   6.873  70.348  1.00  0.00     0.000 HD 
HETATM    4  H2  UNL     1     -12.242   6.210  70.159  1.00  0.00     0.000 HD 
ENDROOT
BRANCH   2   5
HETATM    5  C   UNL     1     -10.999   7.562  72.060  1.00  0.00    -0.242 C  
HETATM    6  O   UNL     1     -10.505   7.964  73.120  1.00  0.00    -0.345 OA 
BRANCH   5   7
HETATM    7  C   UNL     1     -10.107   7.453  70.852  1.00  0.00    -0.188 C  
BRANCH   7   8
HETATM    8  C   UNL     1      -9.334   6.148  70.885  1.00  0.00    -0.170 C  
HETATM    9  C   UNL     1      -8.360   5.860  69.760  1.00  0.00    -0.124 C  
HETATM   10  O   UNL     1      -7.574   4.922  69.838  1.00  0.00    -0.055 OA 
HETATM   11  O   UNL     1      -8.401   6.633  68.663  1.00  0.00    -0.121 OA 
ENDBRANCH   7   8
ENDBRANCH   5   7
ENDBRANCH   2   5
TORSDOF 3
ENDMDL
MODEL      231
REMARK 921   NORMALIZED FREE ENERGY PREDICTED BY IDOCK:   -1.54 KCAL/MOL
REMARK 922        TOTAL FREE ENERGY PREDICTED BY IDOCK:   -2.14 KCAL/MOL
REMARK 923 INTER-LIGAND FREE ENERGY PREDICTED BY IDOCK:   -2.23 KCAL/MOL
REMARK 924 INTRA-LIGAND FREE ENERGY PREDICTED BY IDOCK:    0.09 KCAL/MOL
REMARK 927      BINDING AFFINITY PREDICTED BY RF-SCORE:    0.00 PKD
ROOT
HETATM    1  N   UNL     1      -9.190  15.436  68.978  1.00  0.00    -0.218 NA 
HETATM    2  C   UNL     1      -7.865  14.858  68.764  1.00  0.00    -0.149 C  
HETATM    3  H1  UNL     1      -9.876  14.693  69.115  1.00  0.00     0.000 HD 
HETATM    4  H2  UNL     1      -9.458  16.069  68.224  1.00  0.00     0.000 HD 
ENDROOT
BRANCH   2   5
HETATM    5  C   UNL     1      -6.838  15.972  68.557  1.00  0.00    -0.129 C  
HETATM    6  O   UNL     1      -6.392  16.656  69.486  1.00  0.00    -0.209 OA 
BRANCH   5   7
HETATM    7  C   UNL     1      -6.499  16.372  67.146  1.00  0.00    -0.227 C  
BRANCH   7   8
HETATM    8  C   UNL     1      -7.745  16.848  66.422  1.00  0.00    -0.345 C  
HETATM    9  C   UNL     1      -8.194  18.281  66.630  1.00  0.00    -0.262 C  
HETATM   10  O   UNL     1      -9.071  18.769  65.926  1.00  0.00    -0.456 OA 
HETATM   11  O   UNL     1      -7.637  18.990  67.624  1.00  0.00    -0.234 OA 
ENDBRANCH   7   8
ENDBRANCH   5   7
ENDBRANCH   2   5
TORSDOF 3
ENDMDL
MODEL      232
REMARK 921   NORMALIZED FREE ENERGY PREDICTED BY IDOCK:   -1.54 KCAL/MOL
REMARK 922        TOTAL FREE ENERGY PREDICTED BY IDOCK:   -2.14 KCAL/MOL
REMARK 923 INTER-LIGAND FREE ENERGY PREDICTED BY IDOCK:   -2.02 KCAL/MOL
REMARK 924 INTRA-LIGAND FREE ENERGY PREDICTED BY IDOCK:   -0.12 KCAL/MOL
REMARK 927      BINDING AFFINITY PREDICTED BY RF-SCORE:    0.00 PKD
ROOT
HETATM    1  N   UNL     1      -9.552  10.561  69.796  1.00  0.00    -0.423 NA 
HETATM    2  C   UNL     1      -9.594   9.105  69.913  1.00  0.00    -0.192 C  
HETATM    3  H1  UNL     1     -10.345  10.889  69.243  1.00  0.00     0.000 HD 
HETATM    4  H2  UNL     1      -8.662  10.890  69.421  1.00  0.00     0.000 HD 
ENDROOT
BRANCH   2   5
HETATM    5  C   UNL     1      -8.406   8.614  70.741  1.00  0.00    -0.152 C  
HETATM    6  O   UNL     1      -7.242   8.631  70.324  1.00  0.00    -0.045 OA 
BRANCH   5   7
HETATM    7  C   UNL     1      -8.690   7.910  72.042  1.00  0.00    -0.180 C  
BRANCH   7   8
HETATM    8  C   UNL     1     -10.187   7.757  72.240  1.00  0.00    -0.285 C  
HETATM    9  C   UNL     1     -10.817   6.411  71.939  1.00  0.00    -0.240 C  
HETATM   10  O   UNL     1     -11.976   6.178  72.265  1.00  0.00    -0.318 OA 
HETATM   11  O   UNL     1     -10.091   5.497  71.278  1.00  0.00    -0.190 OA 
ENDBRANCH   7   8
ENDBRANCH   5   7
ENDBRANCH   2   5
TORSDOF 3
ENDMDL
MODEL      233
REMARK 921   NORMALIZED FREE ENERGY PREDICTED BY IDOCK:   -1.53 KCAL/MOL
REMARK 922        TOTAL FREE ENERGY PREDICTED BY IDOCK:   -2.13 KCAL/MOL
REMARK 923 INTER-LIGAND FREE ENERGY PREDICTED BY IDOCK:   -2.02 KCAL/MOL
REMARK 924 INTRA-LIGAND FREE ENERGY PREDICTED BY IDOCK:   -0.11 KCAL/MOL
REMARK 927      BINDING AFFINITY PREDICTED BY RF-SCORE:    0.00 PKD
ROOT
HETATM    1  N   UNL     1     -10.916   7.452  66.978  1.00  0.00    -0.560 NA 
HETATM    2  C   UNL     1     -11.003   6.089  67.498  1.00  0.00    -0.234 C  
HETATM    3  H1  UNL     1     -10.974   7.441  65.960  1.00  0.00     0.000 HD 
HETATM    4  H2  UNL     1     -10.080   7.935  67.308  1.00  0.00     0.000 HD 
ENDROOT
BRANCH   2   5
HETATM    5  C   UNL     1     -10.915   6.106  69.024  1.00  0.00    -0.367 C  
HETATM    6  O   UNL     1     -11.755   6.662  69.740  1.00  0.00    -0.332 OA 
BRANCH   5   7
HETATM    7  C   UNL     1      -9.657   5.586  69.668  1.00  0.00    -0.210 C  
BRANCH   7   8
HETATM    8  C   UNL     1      -8.661   5.158  68.606  1.00  0.00    -0.098 C  
HETATM    9  C   UNL     1      -8.352   3.681  68.464  1.00  0.00    -0.078 C  
HETATM   10  O   UNL     1      -7.711   3.266  67.505  1.00  0.00    -0.075 OA 
HETATM   11  O   UNL     1      -8.763   2.844  69.429  1.00  0.00    -0.064 OA 
ENDBRANCH   7   8
ENDBRANCH   5   7
ENDBRANCH   2   5
TORSDOF 3
ENDMDL
MODEL      234
REMARK 921   NORMALIZED FREE ENERGY PREDICTED BY IDOCK:   -1.53 KCAL/MOL
REMARK 922        TOTAL FREE ENERGY PREDICTED BY IDOCK:   -2.13 KCAL/MOL
REMARK 923 INTER-LIGAND FREE ENERGY PREDICTED BY IDOCK:   -2.07 KCAL/MOL
REMARK 924 INTRA-LIGAND FREE ENERGY PREDICTED BY IDOCK:   -0.06 KCAL/MOL
REMARK 927      BINDING AFFINITY PREDICTED BY RF-SCORE:    0.00 PKD
ROOT
HETATM    1  N   UNL     1      -8.060   9.492  66.036  1.00  0.00    -0.110 NA 
HETATM    2  C   UNL     1      -8.143  10.781  66.720  1.00  0.00    -0.137 C  
HETATM    3  H1  UNL     1      -7.329   8.920  66.460  1.00  0.00     0.000 HD 
HETATM    4  H2  UNL     1      -7.926   9.600  65.031  1.00  0.00     0.000 HD 
ENDROOT
BRANCH   2   5
HETATM    5  C   UNL     1      -9.237  11.639  66.085  1.00  0.00    -0.219 C  
HETATM    6  O   UNL     1      -9.452  11.663  64.867  1.00  0.00    -0.192 OA 
BRANCH   5   7
HETATM    7  C   UNL     1      -9.956  12.634  66.958  1.00  0.00    -0.220 C  
BRANCH   7   8
HETATM    8  C   UNL     1      -9.470  14.040  66.660  1.00  0.00    -0.300 C  
HETATM    9  C   UNL     1     -10.437  15.191  66.853  1.00  0.00    -0.282 C  
HETATM   10  O   UNL     1     -10.043  16.351  66.816  1.00  0.00    -0.267 OA 
HETATM   11  O   UNL     1     -11.738  14.912  67.030  1.00  0.00    -0.348 OA 
ENDBRANCH   7   8
ENDBRANCH   5   7
ENDBRANCH   2   5
TORSDOF 3
ENDMDL
MODEL      235
REMARK 921   NORMALIZED FREE ENERGY PREDICTED BY IDOCK:   -1.52 KCAL/MOL
REMARK 922        TOTAL FREE ENERGY PREDICTED BY IDOCK:   -2.11 KCAL/MOL
REMARK 923 INTER-LIGAND FREE ENERGY PREDICTED BY IDOCK:   -2.02 KCAL/MOL
REMARK 924 INTRA-LIGAND FREE ENERGY PREDICTED BY IDOCK:   -0.09 KCAL/MOL
REMARK 927      BINDING AFFINITY PREDICTED BY RF-SCORE:    0.00 PKD
ROOT
HETATM    1  N   UNL     1      -8.127  16.642  69.030  1.00  0.00    -0.229 NA 
HETATM    2  C   UNL     1      -6.735  16.304  69.320  1.00  0.00    -0.203 C  
HETATM    3  H1  UNL     1      -8.600  15.841  68.612  1.00  0.00     0.000 HD 
HETATM    4  H2  UNL     1      -8.204  17.478  68.451  1.00  0.00     0.000 HD 
ENDROOT
BRANCH   2   5
HETATM    5  C   UNL     1      -6.025  17.504  69.947  1.00  0.00    -0.223 C  
HETATM    6  O   UNL     1      -5.392  17.434  71.006  1.00  0.00    -0.237 OA 
BRANCH   5   7
HETATM    7  C   UNL     1      -6.265  18.864  69.346  1.00  0.00    -0.292 C  
BRANCH   7   8
HETATM    8  C   UNL     1      -5.686  18.928  67.945  1.00  0.00    -0.194 C  
HETATM    9  C   UNL     1      -6.433  19.725  66.893  1.00  0.00    -0.191 C  
HETATM   10  O   UNL     1      -5.915  19.970  65.810  1.00  0.00    -0.173 OA 
HETATM   11  O   UNL     1      -7.685  20.125  67.163  1.00  0.00    -0.280 OA 
ENDBRANCH   7   8
ENDBRANCH   5   7
ENDBRANCH   2   5
TORSDOF 3
ENDMDL
MODEL      236
REMARK 921   NORMALIZED FREE ENERGY PREDICTED BY IDOCK:   -1.52 KCAL/MOL
REMARK 922        TOTAL FREE ENERGY PREDICTED BY IDOCK:   -2.11 KCAL/MOL
REMARK 923 INTER-LIGAND FREE ENERGY PREDICTED BY IDOCK:   -2.00 KCAL/MOL
REMARK 924 INTRA-LIGAND FREE ENERGY PREDICTED BY IDOCK:   -0.11 KCAL/MOL
REMARK 927      BINDING AFFINITY PREDICTED BY RF-SCORE:    0.00 PKD
ROOT
HETATM    1  N   UNL     1      -6.886   9.352  71.819  1.00  0.00    -0.304 NA 
HETATM    2  C   UNL     1      -7.837   8.316  71.422  1.00  0.00    -0.106 C  
HETATM    3  H1  UNL     1      -6.528   9.156  72.754  1.00  0.00     0.000 HD 
HETATM    4  H2  UNL     1      -7.289  10.287  71.752  1.00  0.00     0.000 HD 
ENDROOT
BRANCH   2   5
HETATM    5  C   UNL     1      -8.375   8.609  70.022  1.00  0.00    -0.124 C  
HETATM    6  O   UNL     1      -7.674   9.074  69.116  1.00  0.00    -0.088 OA 
BRANCH   5   7
HETATM    7  C   UNL     1      -9.860   8.504  69.795  1.00  0.00    -0.186 C  
BRANCH   7   8
HETATM    8  C   UNL     1     -10.607   8.731  71.096  1.00  0.00    -0.310 C  
HETATM    9  C   UNL     1     -11.671   7.729  71.499  1.00  0.00    -0.280 C  
HETATM   10  O   UNL     1     -12.162   7.757  72.621  1.00  0.00    -0.210 OA 
HETATM   11  O   UNL     1     -12.087   6.836  70.588  1.00  0.00    -0.392 OA 
ENDBRANCH   7   8
ENDBRANCH   5   7
ENDBRANCH   2   5
TORSDOF 3
ENDMDL
MODEL      237
REMARK 921   NORMALIZED FREE ENERGY PREDICTED BY IDOCK:   -1.51 KCAL/MOL
REMARK 922        TOTAL FREE ENERGY PREDICTED BY IDOCK:   -2.10 KCAL/MOL
REMARK 923 INTER-LIGAND FREE ENERGY PREDICTED BY IDOCK:   -2.04 KCAL/MOL
REMARK 924 INTRA-LIGAND FREE ENERGY PREDICTED BY IDOCK:   -0.06 KCAL/MOL
REMARK 927      BINDING AFFINITY PREDICTED BY RF-SCORE:    0.00 PKD
ROOT
HETATM    1  N   UNL     1     -11.299   6.418  67.011  1.00  0.00    -0.730 NA 
HETATM    2  C   UNL     1     -10.663   7.716  67.225  1.00  0.00    -0.274 C  
HETATM    3  H1  UNL     1     -12.216   6.546  66.581  1.00  0.00     0.000 HD 
HETATM    4  H2  UNL     1     -11.354   5.872  67.871  1.00  0.00     0.000 HD 
ENDROOT
BRANCH   2   5
HETATM    5  C   UNL     1      -9.290   7.524  67.870  1.00  0.00    -0.138 C  
HETATM    6  O   UNL     1      -8.708   6.433  67.901  1.00  0.00    -0.116 OA 
BRANCH   5   7
HETATM    7  C   UNL     1      -8.712   8.666  68.662  1.00  0.00    -0.138 C  
BRANCH   7   8
HETATM    8  C   UNL     1      -8.457   8.236  70.095  1.00  0.00    -0.126 C  
HETATM    9  C   UNL     1      -7.455   9.024  70.915  1.00  0.00    -0.116 C  
HETATM   10  O   UNL     1      -7.357   8.843  72.123  1.00  0.00    -0.320 OA 
HETATM   11  O   UNL     1      -6.655   9.896  70.283  1.00  0.00    -0.086 OA 
ENDBRANCH   7   8
ENDBRANCH   5   7
ENDBRANCH   2   5
TORSDOF 3
ENDMDL
MODEL      238
REMARK 921   NORMALIZED FREE ENERGY PREDICTED BY IDOCK:   -1.51 KCAL/MOL
REMARK 922        TOTAL FREE ENERGY PREDICTED BY IDOCK:   -2.10 KCAL/MOL
REMARK 923 INTER-LIGAND FREE ENERGY PREDICTED BY IDOCK:   -2.04 KCAL/MOL
REMARK 924 INTRA-LIGAND FREE ENERGY PREDICTED BY IDOCK:   -0.06 KCAL/MOL
REMARK 927      BINDING AFFINITY PREDICTED BY RF-SCORE:    0.00 PKD
ROOT
HETATM    1  N   UNL     1     -11.240  12.375  70.041  1.00  0.00    -0.461 NA 
HETATM    2  C   UNL     1     -11.568  11.863  68.712  1.00  0.00    -0.309 C  
HETATM    3  H1  UNL     1     -12.095  12.531  70.575  1.00  0.00     0.000 HD 
HETATM    4  H2  UNL     1     -10.660  13.213  69.995  1.00  0.00     0.000 HD 
ENDROOT
BRANCH   2   5
HETATM    5  C   UNL     1     -10.288  11.630  67.911  1.00  0.00    -0.188 C  
HETATM    6  O   UNL     1     -10.204  10.796  67.003  1.00  0.00    -0.200 OA 
BRANCH   5   7
HETATM    7  C   UNL     1      -9.027  12.313  68.372  1.00  0.00    -0.141 C  
BRANCH   7   8
HETATM    8  C   UNL     1      -7.871  11.956  67.456  1.00  0.00    -0.152 C  
HETATM    9  C   UNL     1      -6.630  12.826  67.492  1.00  0.00    -0.158 C  
HETATM   10  O   UNL     1      -5.604  12.474  66.923  1.00  0.00    -0.334 OA 
HETATM   11  O   UNL     1      -6.693  14.005  68.130  1.00  0.00    -0.096 OA 
ENDBRANCH   7   8
ENDBRANCH   5   7
ENDBRANCH   2   5
TORSDOF 3
ENDMDL
MODEL      239
REMARK 921   NORMALIZED FREE ENERGY PREDICTED BY IDOCK:   -1.49 KCAL/MOL
REMARK 922        TOTAL FREE ENERGY PREDICTED BY IDOCK:   -2.08 KCAL/MOL
REMARK 923 INTER-LIGAND FREE ENERGY PREDICTED BY IDOCK:   -1.91 KCAL/MOL
REMARK 924 INTRA-LIGAND FREE ENERGY PREDICTED BY IDOCK:   -0.17 KCAL/MOL
REMARK 927      BINDING AFFINITY PREDICTED BY RF-SCORE:    0.00 PKD
ROOT
HETATM    1  N   UNL     1     -10.544  17.697  66.913  1.00  0.00    -0.285 NA 
HETATM    2  C   UNL     1     -10.348  17.381  68.326  1.00  0.00    -0.374 C  
HETATM    3  H1  UNL     1     -10.391  18.694  66.755  1.00  0.00     0.000 HD 
HETATM    4  H2  UNL     1     -11.458  17.393  66.576  1.00  0.00     0.000 HD 
ENDROOT
BRANCH   2   5
HETATM    5  C   UNL     1     -10.579  15.888  68.563  1.00  0.00    -0.263 C  
HETATM    6  O   UNL     1     -11.249  15.452  69.506  1.00  0.00    -0.246 OA 
BRANCH   5   7
HETATM    7  C   UNL     1      -9.803  14.908  67.724  1.00  0.00    -0.217 C  
BRANCH   7   8
HETATM    8  C   UNL     1      -8.773  14.188  68.575  1.00  0.00    -0.166 C  
HETATM    9  C   UNL     1      -7.391  14.798  68.700  1.00  0.00    -0.123 C  
HETATM   10  O   UNL     1      -6.590  14.368  69.522  1.00  0.00    -0.125 OA 
HETATM   11  O   UNL     1      -7.053  15.795  67.867  1.00  0.00    -0.114 OA 
ENDBRANCH   7   8
ENDBRANCH   5   7
ENDBRANCH   2   5
TORSDOF 3
ENDMDL
MODEL      240
REMARK 921   NORMALIZED FREE ENERGY PREDICTED BY IDOCK:   -1.48 KCAL/MOL
REMARK 922        TOTAL FREE ENERGY PREDICTED BY IDOCK:   -2.07 KCAL/MOL
REMARK 923 INTER-LIGAND FREE ENERGY PREDICTED BY IDOCK:   -1.97 KCAL/MOL
REMARK 924 INTRA-LIGAND FREE ENERGY PREDICTED BY IDOCK:   -0.11 KCAL/MOL
REMARK 927      BINDING AFFINITY PREDICTED BY RF-SCORE:    0.00 PKD
ROOT
HETATM    1  N   UNL     1      -7.728   5.944  70.914  1.00  0.00    -0.096 NA 
HETATM    2  C   UNL     1      -8.763   5.226  70.174  1.00  0.00    -0.121 C  
HETATM    3  H1  UNL     1      -6.861   5.959  70.376  1.00  0.00     0.000 HD 
HETATM    4  H2  UNL     1      -7.590   5.561  71.849  1.00  0.00     0.000 HD 
ENDROOT
BRANCH   2   5
HETATM    5  C   UNL     1     -10.061   5.203  70.981  1.00  0.00    -0.227 C  
HETATM    6  O   UNL     1     -10.231   4.469  71.961  1.00  0.00    -0.192 OA 
BRANCH   5   7
HETATM    7  C   UNL     1     -11.243   5.968  70.448  1.00  0.00    -0.380 C  
BRANCH   7   8
HETATM    8  C   UNL     1     -10.945   6.489  69.054  1.00  0.00    -0.378 C  
HETATM    9  C   UNL     1     -10.641   7.965  68.887  1.00  0.00    -0.145 C  
HETATM   10  O   UNL     1     -10.206   8.397  67.826  1.00  0.00    -0.198 OA 
HETATM   11  O   UNL     1     -10.892   8.790  69.915  1.00  0.00    -0.229 OA 
ENDBRANCH   7   8
ENDBRANCH   5   7
ENDBRANCH   2   5
TORSDOF 3
ENDMDL
MODEL      241
REMARK 921   NORMALIZED FREE ENERGY PREDICTED BY IDOCK:   -1.47 KCAL/MOL
REMARK 922        TOTAL FREE ENERGY PREDICTED BY IDOCK:   -2.05 KCAL/MOL
REMARK 923 INTER-LIGAND FREE ENERGY PREDICTED BY IDOCK:   -1.91 KCAL/MOL
REMARK 924 INTRA-LIGAND FREE ENERGY PREDICTED BY IDOCK:   -0.14 KCAL/MOL
REMARK 927      BINDING AFFINITY PREDICTED BY RF-SCORE:    0.00 PKD
ROOT
HETATM    1  N   UNL     1     -10.074   4.249  71.607  1.00  0.00    -0.175 NA 
HETATM    2  C   UNL     1     -10.578   5.523  72.115  1.00  0.00    -0.226 C  
HETATM    3  H1  UNL     1      -9.872   3.620  72.384  1.00  0.00     0.000 HD 
HETATM    4  H2  UNL     1      -9.268   4.373  70.995  1.00  0.00     0.000 HD 
ENDROOT
BRANCH   2   5
HETATM    5  C   UNL     1     -10.881   6.466  70.951  1.00  0.00    -0.263 C  
HETATM    6  O   UNL     1     -11.567   6.135  69.977  1.00  0.00    -0.392 OA 
BRANCH   5   7
HETATM    7  C   UNL     1     -10.160   7.788  70.901  1.00  0.00    -0.195 C  
BRANCH   7   8
HETATM    8  C   UNL     1      -8.676   7.567  70.668  1.00  0.00    -0.141 C  
HETATM    9  C   UNL     1      -7.714   7.914  71.788  1.00  0.00    -0.094 C  
HETATM   10  O   UNL     1      -6.538   7.576  71.727  1.00  0.00    -0.042 OA 
HETATM   11  O   UNL     1      -8.172   8.628  72.828  1.00  0.00    -0.385 OA 
ENDBRANCH   7   8
ENDBRANCH   5   7
ENDBRANCH   2   5
TORSDOF 3
ENDMDL
MODEL      242
REMARK 921   NORMALIZED FREE ENERGY PREDICTED BY IDOCK:   -1.45 KCAL/MOL
REMARK 922        TOTAL FREE ENERGY PREDICTED BY IDOCK:   -2.03 KCAL/MOL
REMARK 923 INTER-LIGAND FREE ENERGY PREDICTED BY IDOCK:   -1.93 KCAL/MOL
REMARK 924 INTRA-LIGAND FREE ENERGY PREDICTED BY IDOCK:   -0.10 KCAL/MOL
REMARK 927      BINDING AFFINITY PREDICTED BY RF-SCORE:    0.00 PKD
ROOT
HETATM    1  N   UNL     1     -10.019   8.865  65.484  1.00  0.00    -0.326 NA 
HETATM    2  C   UNL     1      -9.075   7.940  66.108  1.00  0.00    -0.163 C  
HETATM    3  H1  UNL     1      -9.514   9.554  64.926  1.00  0.00     0.000 HD 
HETATM    4  H2  UNL     1     -10.633   9.305  66.169  1.00  0.00     0.000 HD 
ENDROOT
BRANCH   2   5
HETATM    5  C   UNL     1      -9.831   6.909  66.945  1.00  0.00    -0.183 C  
HETATM    6  O   UNL     1     -10.577   7.218  67.880  1.00  0.00    -0.211 OA 
BRANCH   5   7
HETATM    7  C   UNL     1      -9.505   5.452  66.740  1.00  0.00    -0.144 C  
BRANCH   7   8
HETATM    8  C   UNL     1     -10.617   4.770  65.966  1.00  0.00    -0.300 C  
HETATM    9  C   UNL     1     -10.282   4.145  64.626  1.00  0.00    -0.180 C  
HETATM   10  O   UNL     1     -11.088   3.419  64.056  1.00  0.00    -0.278 OA 
HETATM   11  O   UNL     1      -9.098   4.433  64.063  1.00  0.00    -0.144 OA 
ENDBRANCH   7   8
ENDBRANCH   5   7
ENDBRANCH   2   5
TORSDOF 3
ENDMDL
MODEL      243
REMARK 921   NORMALIZED FREE ENERGY PREDICTED BY IDOCK:   -1.44 KCAL/MOL
REMARK 922        TOTAL FREE ENERGY PREDICTED BY IDOCK:   -2.02 KCAL/MOL
REMARK 923 INTER-LIGAND FREE ENERGY PREDICTED BY IDOCK:   -1.65 KCAL/MOL
REMARK 924 INTRA-LIGAND FREE ENERGY PREDICTED BY IDOCK:   -0.37 KCAL/MOL
REMARK 927      BINDING AFFINITY PREDICTED BY RF-SCORE:    0.00 PKD
ROOT
HETATM    1  N   UNL     1      -8.563   5.236  70.463  1.00  0.00    -0.118 NA 
HETATM    2  C   UNL     1      -9.693   6.153  70.337  1.00  0.00    -0.169 C  
HETATM    3  H1  UNL     1      -8.306   4.871  69.546  1.00  0.00     0.000 HD 
HETATM    4  H2  UNL     1      -8.749   4.489  71.133  1.00  0.00     0.000 HD 
ENDROOT
BRANCH   2   5
HETATM    5  C   UNL     1     -10.078   6.700  71.712  1.00  0.00    -0.183 C  
HETATM    6  O   UNL     1      -9.366   7.485  72.347  1.00  0.00    -0.139 OA 
BRANCH   5   7
HETATM    7  C   UNL     1     -11.283   6.111  72.398  1.00  0.00    -0.329 C  
BRANCH   7   8
HETATM    8  C   UNL     1     -10.860   5.359  73.646  1.00  0.00    -0.321 C  
HETATM    9  C   UNL     1     -10.281   3.967  73.486  1.00  0.00    -0.143 C  
HETATM   10  O   UNL     1      -9.748   3.399  74.432  1.00  0.00    -0.101 OA 
HETATM   11  O   UNL     1     -10.397   3.358  72.295  1.00  0.00    -0.142 OA 
ENDBRANCH   7   8
ENDBRANCH   5   7
ENDBRANCH   2   5
TORSDOF 3
ENDMDL
MODEL      244
REMARK 921   NORMALIZED FREE ENERGY PREDICTED BY IDOCK:   -1.43 KCAL/MOL
REMARK 922        TOTAL FREE ENERGY PREDICTED BY IDOCK:   -2.01 KCAL/MOL
REMARK 923 INTER-LIGAND FREE ENERGY PREDICTED BY IDOCK:   -1.87 KCAL/MOL
REMARK 924 INTRA-LIGAND FREE ENERGY PREDICTED BY IDOCK:   -0.14 KCAL/MOL
REMARK 927      BINDING AFFINITY PREDICTED BY RF-SCORE:    0.00 PKD
ROOT
HETATM    1  N   UNL     1     -10.012   8.640  66.055  1.00  0.00    -0.460 NA 
HETATM    2  C   UNL     1      -9.674   7.401  66.752  1.00  0.00    -0.207 C  
HETATM    3  H1  UNL     1     -10.790   8.479  65.415  1.00  0.00     0.000 HD 
HETATM    4  H2  UNL     1      -9.205   9.045  65.580  1.00  0.00     0.000 HD 
ENDROOT
BRANCH   2   5
HETATM    5  C   UNL     1      -8.508   7.642  67.710  1.00  0.00    -0.122 C  
HETATM    6  O   UNL     1      -7.454   8.189  67.363  1.00  0.00    -0.090 OA 
BRANCH   5   7
HETATM    7  C   UNL     1      -8.574   7.021  69.080  1.00  0.00    -0.129 C  
BRANCH   7   8
HETATM    8  C   UNL     1      -8.773   8.094  70.134  1.00  0.00    -0.130 C  
HETATM    9  C   UNL     1     -10.176   8.343  70.650  1.00  0.00    -0.194 C  
HETATM   10  O   UNL     1     -10.364   9.054  71.631  1.00  0.00    -0.311 OA 
HETATM   11  O   UNL     1     -11.208   7.798  69.988  1.00  0.00    -0.224 OA 
ENDBRANCH   7   8
ENDBRANCH   5   7
ENDBRANCH   2   5
TORSDOF 3
ENDMDL
MODEL      245
REMARK 921   NORMALIZED FREE ENERGY PREDICTED BY IDOCK:   -1.40 KCAL/MOL
REMARK 922        TOTAL FREE ENERGY PREDICTED BY IDOCK:   -1.97 KCAL/MOL
REMARK 923 INTER-LIGAND FREE ENERGY PREDICTED BY IDOCK:   -1.97 KCAL/MOL
REMARK 924 INTRA-LIGAND FREE ENERGY PREDICTED BY IDOCK:    0.00 KCAL/MOL
REMARK 927      BINDING AFFINITY PREDICTED BY RF-SCORE:    0.00 PKD
ROOT
HETATM    1  N   UNL     1      -8.138   8.504  72.933  1.00  0.00    -0.382 NA 
HETATM    2  C   UNL     1      -8.898   7.327  73.349  1.00  0.00    -0.154 C  
HETATM    3  H1  UNL     1      -7.930   9.088  73.744  1.00  0.00     0.000 HD 
HETATM    4  H2  UNL     1      -8.614   9.026  72.198  1.00  0.00     0.000 HD 
ENDROOT
BRANCH   2   5
HETATM    5  C   UNL     1      -9.210   6.452  72.134  1.00  0.00    -0.140 C  
HETATM    6  O   UNL     1      -8.349   5.793  71.540  1.00  0.00    -0.124 OA 
BRANCH   5   7
HETATM    7  C   UNL     1     -10.585   6.545  71.527  1.00  0.00    -0.265 C  
BRANCH   7   8
HETATM    8  C   UNL     1     -11.016   7.997  71.424  1.00  0.00    -0.273 C  
HETATM    9  C   UNL     1     -10.562   8.798  70.219  1.00  0.00    -0.216 C  
HETATM   10  O   UNL     1     -11.037   9.904  69.989  1.00  0.00    -0.251 OA 
HETATM   11  O   UNL     1      -9.605   8.283  69.431  1.00  0.00    -0.168 OA 
ENDBRANCH   7   8
ENDBRANCH   5   7
ENDBRANCH   2   5
TORSDOF 3
ENDMDL
MODEL      246
REMARK 921   NORMALIZED FREE ENERGY PREDICTED BY IDOCK:   -1.39 KCAL/MOL
REMARK 922        TOTAL FREE ENERGY PREDICTED BY IDOCK:   -1.96 KCAL/MOL
REMARK 923 INTER-LIGAND FREE ENERGY PREDICTED BY IDOCK:   -1.83 KCAL/MOL
REMARK 924 INTRA-LIGAND FREE ENERGY PREDICTED BY IDOCK:   -0.13 KCAL/MOL
REMARK 927      BINDING AFFINITY PREDICTED BY RF-SCORE:    0.00 PKD
ROOT
HETATM    1  N   UNL     1      -7.639   9.251  68.082  1.00  0.00    -0.083 NA 
HETATM    2  C   UNL     1      -8.846   8.594  67.586  1.00  0.00    -0.136 C  
HETATM    3  H1  UNL     1      -6.970   9.371  67.322  1.00  0.00     0.000 HD 
HETATM    4  H2  UNL     1      -7.232   8.755  68.875  1.00  0.00     0.000 HD 
ENDROOT
BRANCH   2   5
HETATM    5  C   UNL     1      -9.849   8.413  68.726  1.00  0.00    -0.173 C  
HETATM    6  O   UNL     1     -10.448   9.359  69.250  1.00  0.00    -0.207 OA 
BRANCH   5   7
HETATM    7  C   UNL     1      -9.968   7.052  69.358  1.00  0.00    -0.165 C  
BRANCH   7   8
HETATM    8  C   UNL     1     -10.020   7.177  70.869  1.00  0.00    -0.193 C  
HETATM    9  C   UNL     1     -11.330   6.878  71.571  1.00  0.00    -0.266 C  
HETATM   10  O   UNL     1     -11.375   6.775  72.791  1.00  0.00    -0.254 OA 
HETATM   11  O   UNL     1     -12.443   6.765  70.829  1.00  0.00    -0.351 OA 
ENDBRANCH   7   8
ENDBRANCH   5   7
ENDBRANCH   2   5
TORSDOF 3
ENDMDL
MODEL      247
REMARK 921   NORMALIZED FREE ENERGY PREDICTED BY IDOCK:   -1.39 KCAL/MOL
REMARK 922        TOTAL FREE ENERGY PREDICTED BY IDOCK:   -1.96 KCAL/MOL
REMARK 923 INTER-LIGAND FREE ENERGY PREDICTED BY IDOCK:   -1.83 KCAL/MOL
REMARK 924 INTRA-LIGAND FREE ENERGY PREDICTED BY IDOCK:   -0.14 KCAL/MOL
REMARK 927      BINDING AFFINITY PREDICTED BY RF-SCORE:    0.00 PKD
ROOT
HETATM    1  N   UNL     1      -6.940   8.411  68.242  1.00  0.00    -0.072 NA 
HETATM    2  C   UNL     1      -8.228   8.669  68.882  1.00  0.00    -0.123 C  
HETATM    3  H1  UNL     1      -6.368   9.256  68.259  1.00  0.00     0.000 HD 
HETATM    4  H2  UNL     1      -7.049   8.042  67.298  1.00  0.00     0.000 HD 
ENDROOT
BRANCH   2   5
HETATM    5  C   UNL     1      -9.086   7.405  68.856  1.00  0.00    -0.136 C  
HETATM    6  O   UNL     1      -9.456   6.864  67.808  1.00  0.00    -0.124 OA 
BRANCH   5   7
HETATM    7  C   UNL     1      -9.659   6.908  70.158  1.00  0.00    -0.162 C  
BRANCH   7   8
HETATM    8  C   UNL     1     -11.062   7.451  70.355  1.00  0.00    -0.284 C  
HETATM    9  C   UNL     1     -11.247   8.660  71.251  1.00  0.00    -0.276 C  
HETATM   10  O   UNL     1     -12.319   9.252  71.289  1.00  0.00    -0.310 OA 
HETATM   11  O   UNL     1     -10.222   9.044  72.027  1.00  0.00    -0.339 OA 
ENDBRANCH   7   8
ENDBRANCH   5   7
ENDBRANCH   2   5
TORSDOF 3
ENDMDL
MODEL      248
REMARK 921   NORMALIZED FREE ENERGY PREDICTED BY IDOCK:   -1.38 KCAL/MOL
REMARK 922        TOTAL FREE ENERGY PREDICTED BY IDOCK:   -1.95 KCAL/MOL
REMARK 923 INTER-LIGAND FREE ENERGY PREDICTED BY IDOCK:   -1.52 KCAL/MOL
REMARK 924 INTRA-LIGAND FREE ENERGY PREDICTED BY IDOCK:   -0.43 KCAL/MOL
REMARK 927      BINDING AFFINITY PREDICTED BY RF-SCORE:    0.00 PKD
ROOT
HETATM    1  N   UNL     1      -9.334   2.259  73.007  1.00  0.00    -0.079 NA 
HETATM    2  C   UNL     1      -9.595   3.201  74.093  1.00  0.00    -0.090 C  
HETATM    3  H1  UNL     1      -8.793   1.467  73.355  1.00  0.00     0.000 HD 
HETATM    4  H2  UNL     1      -8.882   2.710  72.210  1.00  0.00     0.000 HD 
ENDROOT
BRANCH   2   5
HETATM    5  C   UNL     1     -10.405   4.388  73.571  1.00  0.00    -0.182 C  
HETATM    6  O   UNL     1     -11.641   4.400  73.543  1.00  0.00    -0.268 OA 
BRANCH   5   7
HETATM    7  C   UNL     1      -9.663   5.509  72.890  1.00  0.00    -0.170 C  
BRANCH   7   8
HETATM    8  C   UNL     1     -10.180   5.697  71.476  1.00  0.00    -0.263 C  
HETATM    9  C   UNL     1      -9.617   4.813  70.381  1.00  0.00    -0.197 C  
HETATM   10  O   UNL     1     -10.134   4.789  69.270  1.00  0.00    -0.205 OA 
HETATM   11  O   UNL     1      -8.520   4.087  70.645  1.00  0.00    -0.068 OA 
ENDBRANCH   7   8
ENDBRANCH   5   7
ENDBRANCH   2   5
TORSDOF 3
ENDMDL
MODEL      249
REMARK 921   NORMALIZED FREE ENERGY PREDICTED BY IDOCK:   -1.37 KCAL/MOL
REMARK 922        TOTAL FREE ENERGY PREDICTED BY IDOCK:   -1.94 KCAL/MOL
REMARK 923 INTER-LIGAND FREE ENERGY PREDICTED BY IDOCK:   -1.53 KCAL/MOL
REMARK 924 INTRA-LIGAND FREE ENERGY PREDICTED BY IDOCK:   -0.41 KCAL/MOL
REMARK 927      BINDING AFFINITY PREDICTED BY RF-SCORE:    0.00 PKD
ROOT
HETATM    1  N   UNL     1      -7.804   6.596  69.613  1.00  0.00    -0.113 NA 
HETATM    2  C   UNL     1      -8.928   6.047  70.369  1.00  0.00    -0.149 C  
HETATM    3  H1  UNL     1      -7.113   6.989  70.253  1.00  0.00     0.000 HD 
HETATM    4  H2  UNL     1      -8.108   7.275  68.915  1.00  0.00     0.000 HD 
ENDROOT
BRANCH   2   5
HETATM    5  C   UNL     1      -9.963   5.459  69.411  1.00  0.00    -0.210 C  
HETATM    6  O   UNL     1     -11.101   5.925  69.281  1.00  0.00    -0.360 OA 
BRANCH   5   7
HETATM    7  C   UNL     1      -9.646   4.149  68.739  1.00  0.00    -0.210 C  
BRANCH   7   8
HETATM    8  C   UNL     1      -9.578   4.334  67.234  1.00  0.00    -0.224 C  
HETATM    9  C   UNL     1      -8.214   4.488  66.591  1.00  0.00    -0.102 C  
HETATM   10  O   UNL     1      -8.090   4.444  65.372  1.00  0.00    -0.100 OA 
HETATM   11  O   UNL     1      -7.153   4.708  67.382  1.00  0.00    -0.063 OA 
ENDBRANCH   7   8
ENDBRANCH   5   7
ENDBRANCH   2   5
TORSDOF 3
ENDMDL
MODEL      250
REMARK 921   NORMALIZED FREE ENERGY PREDICTED BY IDOCK:   -1.34 KCAL/MOL
REMARK 922        TOTAL FREE ENERGY PREDICTED BY IDOCK:   -1.90 KCAL/MOL
REMARK 923 INTER-LIGAND FREE ENERGY PREDICTED BY IDOCK:   -1.84 KCAL/MOL
REMARK 924 INTRA-LIGAND FREE ENERGY PREDICTED BY IDOCK:   -0.06 KCAL/MOL
REMARK 927      BINDING AFFINITY PREDICTED BY RF-SCORE:    0.00 PKD
ROOT
HETATM    1  N   UNL     1      -8.100   7.979  72.998  1.00  0.00    -0.154 NA 
HETATM    2  C   UNL     1      -8.712   7.844  71.678  1.00  0.00    -0.124 C  
HETATM    3  H1  UNL     1      -8.245   7.126  73.538  1.00  0.00     0.000 HD 
HETATM    4  H2  UNL     1      -8.435   8.807  73.492  1.00  0.00     0.000 HD 
ENDROOT
BRANCH   2   5
HETATM    5  C   UNL     1      -8.495   9.123  70.869  1.00  0.00    -0.201 C  
HETATM    6  O   UNL     1      -7.462   9.798  70.942  1.00  0.00    -0.320 OA 
BRANCH   5   7
HETATM    7  C   UNL     1      -9.661   9.680  70.095  1.00  0.00    -0.301 C  
BRANCH   7   8
HETATM    8  C   UNL     1      -9.196  10.205  68.750  1.00  0.00    -0.164 C  
HETATM    9  C   UNL     1      -9.910   9.721  67.503  1.00  0.00    -0.167 C  
HETATM   10  O   UNL     1      -9.706  10.256  66.419  1.00  0.00    -0.183 OA 
HETATM   11  O   UNL     1     -10.742   8.673  67.607  1.00  0.00    -0.224 OA 
ENDBRANCH   7   8
ENDBRANCH   5   7
ENDBRANCH   2   5
TORSDOF 3
ENDMDL
MODEL      251
REMARK 921   NORMALIZED FREE ENERGY PREDICTED BY IDOCK:   -1.33 KCAL/MOL
REMARK 922        TOTAL FREE ENERGY PREDICTED BY IDOCK:   -1.89 KCAL/MOL
REMARK 923 INTER-LIGAND FREE ENERGY PREDICTED BY IDOCK:   -1.75 KCAL/MOL
REMARK 924 INTRA-LIGAND FREE ENERGY PREDICTED BY IDOCK:   -0.15 KCAL/MOL
REMARK 927      BINDING AFFINITY PREDICTED BY RF-SCORE:    0.00 PKD
ROOT
HETATM    1  N   UNL     1      -6.607   4.289  70.833  1.00  0.00    -0.033 NA 
HETATM    2  C   UNL     1      -7.206   3.882  72.102  1.00  0.00    -0.052 C  
HETATM    3  H1  UNL     1      -5.849   3.652  70.586  1.00  0.00     0.000 HD 
HETATM    4  H2  UNL     1      -6.300   5.261  70.849  1.00  0.00     0.000 HD 
ENDROOT
BRANCH   2   5
HETATM    5  C   UNL     1      -8.342   4.836  72.473  1.00  0.00    -0.115 C  
HETATM    6  O   UNL     1      -8.163   5.880  73.110  1.00  0.00    -0.116 OA 
BRANCH   5   7
HETATM    7  C   UNL     1      -9.757   4.390  72.213  1.00  0.00    -0.221 C  
BRANCH   7   8
HETATM    8  C   UNL     1     -10.573   5.538  71.648  1.00  0.00    -0.294 C  
HETATM    9  C   UNL     1     -10.748   5.624  70.144  1.00  0.00    -0.305 C  
HETATM   10  O   UNL     1     -11.551   6.409  69.653  1.00  0.00    -0.417 OA 
HETATM   11  O   UNL     1      -9.980   4.847  69.365  1.00  0.00    -0.195 OA 
ENDBRANCH   7   8
ENDBRANCH   5   7
ENDBRANCH   2   5
TORSDOF 3
ENDMDL
MODEL      252
REMARK 921   NORMALIZED FREE ENERGY PREDICTED BY IDOCK:   -1.33 KCAL/MOL
REMARK 922        TOTAL FREE ENERGY PREDICTED BY IDOCK:   -1.89 KCAL/MOL
REMARK 923 INTER-LIGAND FREE ENERGY PREDICTED BY IDOCK:   -1.76 KCAL/MOL
REMARK 924 INTRA-LIGAND FREE ENERGY PREDICTED BY IDOCK:   -0.13 KCAL/MOL
REMARK 927      BINDING AFFINITY PREDICTED BY RF-SCORE:    0.00 PKD
ROOT
HETATM    1  N   UNL     1      -9.671  10.928  69.319  1.00  0.00    -0.401 NA 
HETATM    2  C   UNL     1     -10.265   9.804  70.039  1.00  0.00    -0.263 C  
HETATM    3  H1  UNL     1      -9.555  11.723  69.948  1.00  0.00     0.000 HD 
HETATM    4  H2  UNL     1     -10.205  11.175  68.486  1.00  0.00     0.000 HD 
ENDROOT
BRANCH   2   5
HETATM    5  C   UNL     1     -10.440   8.614  69.096  1.00  0.00    -0.211 C  
HETATM    6  O   UNL     1     -10.776   8.737  67.913  1.00  0.00    -0.203 OA 
BRANCH   5   7
HETATM    7  C   UNL     1     -10.382   7.228  69.684  1.00  0.00    -0.227 C  
BRANCH   7   8
HETATM    8  C   UNL     1      -8.961   6.697  69.635  1.00  0.00    -0.142 C  
HETATM    9  C   UNL     1      -8.224   6.493  70.944  1.00  0.00    -0.125 C  
HETATM   10  O   UNL     1      -7.158   5.888  70.973  1.00  0.00    -0.065 OA 
HETATM   11  O   UNL     1      -8.747   7.019  72.062  1.00  0.00    -0.123 OA 
ENDBRANCH   7   8
ENDBRANCH   5   7
ENDBRANCH   2   5
TORSDOF 3
ENDMDL
MODEL      253
REMARK 921   NORMALIZED FREE ENERGY PREDICTED BY IDOCK:   -1.32 KCAL/MOL
REMARK 922        TOTAL FREE ENERGY PREDICTED BY IDOCK:   -1.88 KCAL/MOL
REMARK 923 INTER-LIGAND FREE ENERGY PREDICTED BY IDOCK:   -1.77 KCAL/MOL
REMARK 924 INTRA-LIGAND FREE ENERGY PREDICTED BY IDOCK:   -0.11 KCAL/MOL
REMARK 927      BINDING AFFINITY PREDICTED BY RF-SCORE:    0.00 PKD
ROOT
HETATM    1  N   UNL     1      -7.873  12.978  69.043  1.00  0.00    -0.324 NA 
HETATM    2  C   UNL     1      -7.992  13.352  67.635  1.00  0.00    -0.174 C  
HETATM    3  H1  UNL     1      -7.349  13.692  69.550  1.00  0.00     0.000 HD 
HETATM    4  H2  UNL     1      -7.464  12.050  69.158  1.00  0.00     0.000 HD 
ENDROOT
BRANCH   2   5
HETATM    5  C   UNL     1      -8.776  12.282  66.875  1.00  0.00    -0.197 C  
HETATM    6  O   UNL     1      -9.926  12.459  66.458  1.00  0.00    -0.221 OA 
BRANCH   5   7
HETATM    7  C   UNL     1      -8.192  10.895  66.798  1.00  0.00    -0.140 C  
BRANCH   7   8
HETATM    8  C   UNL     1      -8.943   9.958  67.725  1.00  0.00    -0.134 C  
HETATM    9  C   UNL     1      -9.920   8.972  67.115  1.00  0.00    -0.224 C  
HETATM   10  O   UNL     1     -10.401   8.070  67.791  1.00  0.00    -0.212 OA 
HETATM   11  O   UNL     1     -10.272   9.132  65.830  1.00  0.00    -0.139 OA 
ENDBRANCH   7   8
ENDBRANCH   5   7
ENDBRANCH   2   5
TORSDOF 3
ENDMDL
MODEL      254
REMARK 921   NORMALIZED FREE ENERGY PREDICTED BY IDOCK:   -1.31 KCAL/MOL
REMARK 922        TOTAL FREE ENERGY PREDICTED BY IDOCK:   -1.87 KCAL/MOL
REMARK 923 INTER-LIGAND FREE ENERGY PREDICTED BY IDOCK:   -1.80 KCAL/MOL
REMARK 924 INTRA-LIGAND FREE ENERGY PREDICTED BY IDOCK:   -0.07 KCAL/MOL
REMARK 927      BINDING AFFINITY PREDICTED BY RF-SCORE:    0.00 PKD
ROOT
HETATM    1  N   UNL     1     -13.428   7.661  70.990  1.00  0.00    -0.589 NA 
HETATM    2  C   UNL     1     -12.570   8.840  70.890  1.00  0.00     0.030 C  
HETATM    3  H1  UNL     1     -14.408   7.945  71.013  1.00  0.00     0.000 HD 
HETATM    4  H2  UNL     1     -13.181   7.075  71.788  1.00  0.00     0.000 HD 
ENDROOT
BRANCH   2   5
HETATM    5  C   UNL     1     -11.102   8.415  70.857  1.00  0.00    -0.254 C  
HETATM    6  O   UNL     1     -10.657   7.481  71.533  1.00  0.00    -0.212 OA 
BRANCH   5   7
HETATM    7  C   UNL     1     -10.126   9.290  70.115  1.00  0.00    -0.249 C  
BRANCH   7   8
HETATM    8  C   UNL     1      -8.780   9.287  70.816  1.00  0.00    -0.272 C  
HETATM    9  C   UNL     1      -7.527   9.367  69.966  1.00  0.00    -0.107 C  
HETATM   10  O   UNL     1      -6.434   9.564  70.484  1.00  0.00    -0.065 OA 
HETATM   11  O   UNL     1      -7.638   9.184  68.641  1.00  0.00    -0.082 OA 
ENDBRANCH   7   8
ENDBRANCH   5   7
ENDBRANCH   2   5
TORSDOF 3
ENDMDL
MODEL      255
REMARK 921   NORMALIZED FREE ENERGY PREDICTED BY IDOCK:   -1.31 KCAL/MOL
REMARK 922        TOTAL FREE ENERGY PREDICTED BY IDOCK:   -1.86 KCAL/MOL
REMARK 923 INTER-LIGAND FREE ENERGY PREDICTED BY IDOCK:   -1.80 KCAL/MOL
REMARK 924 INTRA-LIGAND FREE ENERGY PREDICTED BY IDOCK:   -0.06 KCAL/MOL
REMARK 927      BINDING AFFINITY PREDICTED BY RF-SCORE:    0.00 PKD
ROOT
HETATM    1  N   UNL     1      -7.464   8.986  64.805  1.00  0.00    -0.100 NA 
HETATM    2  C   UNL     1      -8.193  10.151  65.301  1.00  0.00    -0.157 C  
HETATM    3  H1  UNL     1      -6.692   9.287  64.209  1.00  0.00     0.000 HD 
HETATM    4  H2  UNL     1      -8.078   8.324  64.330  1.00  0.00     0.000 HD 
ENDROOT
BRANCH   2   5
HETATM    5  C   UNL     1      -9.350   9.701  66.193  1.00  0.00    -0.194 C  
HETATM    6  O   UNL     1     -10.466  10.234  66.168  1.00  0.00    -0.210 OA 
BRANCH   5   7
HETATM    7  C   UNL     1      -9.063   8.694  67.275  1.00  0.00    -0.152 C  
BRANCH   7   8
HETATM    8  C   UNL     1     -10.359   8.191  67.883  1.00  0.00    -0.280 C  
HETATM    9  C   UNL     1     -10.444   6.734  68.293  1.00  0.00    -0.206 C  
HETATM   10  O   UNL     1     -11.387   6.328  68.961  1.00  0.00    -0.390 OA 
HETATM   11  O   UNL     1      -9.481   5.895  67.880  1.00  0.00    -0.110 OA 
ENDBRANCH   7   8
ENDBRANCH   5   7
ENDBRANCH   2   5
TORSDOF 3
ENDMDL
MODEL      256
REMARK 921   NORMALIZED FREE ENERGY PREDICTED BY IDOCK:   -1.31 KCAL/MOL
REMARK 922        TOTAL FREE ENERGY PREDICTED BY IDOCK:   -1.86 KCAL/MOL
REMARK 923 INTER-LIGAND FREE ENERGY PREDICTED BY IDOCK:   -1.72 KCAL/MOL
REMARK 924 INTRA-LIGAND FREE ENERGY PREDICTED BY IDOCK:   -0.14 KCAL/MOL
REMARK 927      BINDING AFFINITY PREDICTED BY RF-SCORE:    0.00 PKD
ROOT
HETATM    1  N   UNL     1     -10.365   4.108  73.632  1.00  0.00    -0.155 NA 
HETATM    2  C   UNL     1      -9.294   5.097  73.528  1.00  0.00    -0.133 C  
HETATM    3  H1  UNL     1     -10.592   3.942  74.613  1.00  0.00     0.000 HD 
HETATM    4  H2  UNL     1     -10.138   3.244  73.140  1.00  0.00     0.000 HD 
ENDROOT
BRANCH   2   5
HETATM    5  C   UNL     1      -8.954   5.346  72.059  1.00  0.00    -0.134 C  
HETATM    6  O   UNL     1      -8.234   6.278  71.683  1.00  0.00    -0.116 OA 
BRANCH   5   7
HETATM    7  C   UNL     1      -9.679   4.537  71.016  1.00  0.00    -0.259 C  
BRANCH   7   8
HETATM    8  C   UNL     1     -10.756   5.377  70.355  1.00  0.00    -0.276 C  
HETATM    9  C   UNL     1     -10.484   5.939  68.973  1.00  0.00    -0.265 C  
HETATM   10  O   UNL     1     -11.384   6.453  68.320  1.00  0.00    -0.268 OA 
HETATM   11  O   UNL     1      -9.229   5.891  68.499  1.00  0.00    -0.118 OA 
ENDBRANCH   7   8
ENDBRANCH   5   7
ENDBRANCH   2   5
TORSDOF 3
ENDMDL
MODEL      257
REMARK 921   NORMALIZED FREE ENERGY PREDICTED BY IDOCK:   -1.22 KCAL/MOL
REMARK 922        TOTAL FREE ENERGY PREDICTED BY IDOCK:   -1.77 KCAL/MOL
REMARK 923 INTER-LIGAND FREE ENERGY PREDICTED BY IDOCK:   -1.64 KCAL/MOL
REMARK 924 INTRA-LIGAND FREE ENERGY PREDICTED BY IDOCK:   -0.13 KCAL/MOL
REMARK 927      BINDING AFFINITY PREDICTED BY RF-SCORE:    0.00 PKD
ROOT
HETATM    1  N   UNL     1      -7.320   9.162  64.713  1.00  0.00    -0.097 NA 
HETATM    2  C   UNL     1      -7.941  10.409  65.157  1.00  0.00    -0.134 C  
HETATM    3  H1  UNL     1      -6.497   9.366  64.145  1.00  0.00     0.000 HD 
HETATM    4  H2  UNL     1      -7.982   8.559  64.224  1.00  0.00     0.000 HD 
ENDROOT
BRANCH   2   5
HETATM    5  C   UNL     1      -9.174  10.103  66.007  1.00  0.00    -0.158 C  
HETATM    6  O   UNL     1      -9.825   9.058  65.897  1.00  0.00    -0.276 OA 
BRANCH   5   7
HETATM    7  C   UNL     1      -9.726  11.201  66.878  1.00  0.00    -0.216 C  
BRANCH   7   8
HETATM    8  C   UNL     1      -9.196  11.064  68.293  1.00  0.00    -0.165 C  
HETATM    9  C   UNL     1     -10.075  10.389  69.328  1.00  0.00    -0.230 C  
HETATM   10  O   UNL     1      -9.623  10.080  70.424  1.00  0.00    -0.150 OA 
HETATM   11  O   UNL     1     -11.364  10.169  69.028  1.00  0.00    -0.211 OA 
ENDBRANCH   7   8
ENDBRANCH   5   7
ENDBRANCH   2   5
TORSDOF 3
ENDMDL
MODEL      258
REMARK 921   NORMALIZED FREE ENERGY PREDICTED BY IDOCK:   -1.21 KCAL/MOL
REMARK 922        TOTAL FREE ENERGY PREDICTED BY IDOCK:   -1.76 KCAL/MOL
REMARK 923 INTER-LIGAND FREE ENERGY PREDICTED BY IDOCK:   -1.66 KCAL/MOL
REMARK 924 INTRA-LIGAND FREE ENERGY PREDICTED BY IDOCK:   -0.10 KCAL/MOL
REMARK 927      BINDING AFFINITY PREDICTED BY RF-SCORE:    0.00 PKD
ROOT
HETATM    1  N   UNL     1      -6.415  10.091  71.100  1.00  0.00    -0.326 NA 
HETATM    2  C   UNL     1      -7.443   9.088  70.835  1.00  0.00    -0.116 C  
HETATM    3  H1  UNL     1      -6.007   9.937  72.023  1.00  0.00     0.000 HD 
HETATM    4  H2  UNL     1      -6.771  11.041  70.995  1.00  0.00     0.000 HD 
ENDROOT
BRANCH   2   5
HETATM    5  C   UNL     1      -8.055   9.320  69.454  1.00  0.00    -0.108 C  
HETATM    6  O   UNL     1      -7.409   9.765  68.498  1.00  0.00    -0.073 OA 
BRANCH   5   7
HETATM    7  C   UNL     1      -9.547   9.178  69.305  1.00  0.00    -0.159 C  
BRANCH   7   8
HETATM    8  C   UNL     1     -10.003   9.787  67.992  1.00  0.00    -0.185 C  
HETATM    9  C   UNL     1     -10.674  11.146  68.025  1.00  0.00    -0.211 C  
HETATM   10  O   UNL     1     -10.883  11.765  66.988  1.00  0.00    -0.237 OA 
HETATM   11  O   UNL     1     -11.065  11.640  69.210  1.00  0.00    -0.240 OA 
ENDBRANCH   7   8
ENDBRANCH   5   7
ENDBRANCH   2   5
TORSDOF 3
ENDMDL
MODEL      259
REMARK 921   NORMALIZED FREE ENERGY PREDICTED BY IDOCK:   -1.17 KCAL/MOL
REMARK 922        TOTAL FREE ENERGY PREDICTED BY IDOCK:   -1.70 KCAL/MOL
REMARK 923 INTER-LIGAND FREE ENERGY PREDICTED BY IDOCK:   -1.29 KCAL/MOL
REMARK 924 INTRA-LIGAND FREE ENERGY PREDICTED BY IDOCK:   -0.41 KCAL/MOL
REMARK 927      BINDING AFFINITY PREDICTED BY RF-SCORE:    0.00 PKD
ROOT
HETATM    1  N   UNL     1      -9.584   4.909  64.257  1.00  0.00    -0.345 NA 
HETATM    2  C   UNL     1      -9.700   3.772  65.168  1.00  0.00    -0.176 C  
HETATM    3  H1  UNL     1      -9.939   4.654  63.335  1.00  0.00     0.000 HD 
HETATM    4  H2  UNL     1      -8.631   5.269  64.214  1.00  0.00     0.000 HD 
ENDROOT
BRANCH   2   5
HETATM    5  C   UNL     1      -9.168   4.153  66.549  1.00  0.00    -0.156 C  
HETATM    6  O   UNL     1      -9.906   4.416  67.506  1.00  0.00    -0.177 OA 
BRANCH   5   7
HETATM    7  C   UNL     1      -7.690   4.401  66.698  1.00  0.00    -0.094 C  
BRANCH   7   8
HETATM    8  C   UNL     1      -7.448   5.690  67.460  1.00  0.00    -0.081 C  
HETATM    9  C   UNL     1      -7.545   7.001  66.705  1.00  0.00    -0.089 C  
HETATM   10  O   UNL     1      -7.552   8.069  67.306  1.00  0.00    -0.094 OA 
HETATM   11  O   UNL     1      -7.587   6.966  65.364  1.00  0.00    -0.083 OA 
ENDBRANCH   7   8
ENDBRANCH   5   7
ENDBRANCH   2   5
TORSDOF 3
ENDMDL
MODEL      260
REMARK 921   NORMALIZED FREE ENERGY PREDICTED BY IDOCK:   -1.10 KCAL/MOL
REMARK 922        TOTAL FREE ENERGY PREDICTED BY IDOCK:   -1.62 KCAL/MOL
REMARK 923 INTER-LIGAND FREE ENERGY PREDICTED BY IDOCK:   -1.48 KCAL/MOL
REMARK 924 INTRA-LIGAND FREE ENERGY PREDICTED BY IDOCK:   -0.14 KCAL/MOL
REMARK 927      BINDING AFFINITY PREDICTED BY RF-SCORE:    0.00 PKD
ROOT
HETATM    1  N   UNL     1     -12.215   5.714  72.818  1.00  0.00    -0.493 NA 
HETATM    2  C   UNL     1     -10.962   5.361  73.481  1.00  0.00    -0.268 C  
HETATM    3  H1  UNL     1     -12.910   5.992  73.512  1.00  0.00     0.000 HD 
HETATM    4  H2  UNL     1     -12.555   4.963  72.216  1.00  0.00     0.000 HD 
ENDROOT
BRANCH   2   5
HETATM    5  C   UNL     1      -9.921   4.944  72.441  1.00  0.00    -0.177 C  
HETATM    6  O   UNL     1     -10.216   4.635  71.281  1.00  0.00    -0.192 OA 
BRANCH   5   7
HETATM    7  C   UNL     1      -8.506   4.721  72.903  1.00  0.00    -0.111 C  
BRANCH   7   8
HETATM    8  C   UNL     1      -7.686   5.984  72.715  1.00  0.00    -0.102 C  
HETATM    9  C   UNL     1      -6.875   6.132  71.443  1.00  0.00    -0.067 C  
HETATM   10  O   UNL     1      -6.357   7.204  71.153  1.00  0.00    -0.036 OA 
HETATM   11  O   UNL     1      -6.708   5.054  70.660  1.00  0.00    -0.037 OA 
ENDBRANCH   7   8
ENDBRANCH   5   7
ENDBRANCH   2   5
TORSDOF 3
ENDMDL
MODEL      261
REMARK 921   NORMALIZED FREE ENERGY PREDICTED BY IDOCK:   -1.10 KCAL/MOL
REMARK 922        TOTAL FREE ENERGY PREDICTED BY IDOCK:   -1.62 KCAL/MOL
REMARK 923 INTER-LIGAND FREE ENERGY PREDICTED BY IDOCK:   -1.54 KCAL/MOL
REMARK 924 INTRA-LIGAND FREE ENERGY PREDICTED BY IDOCK:   -0.08 KCAL/MOL
REMARK 927      BINDING AFFINITY PREDICTED BY RF-SCORE:    0.00 PKD
ROOT
HETATM    1  N   UNL     1      -9.346   9.520  71.173  1.00  0.00    -0.337 NA 
HETATM    2  C   UNL     1      -9.645   8.513  72.188  1.00  0.00    -0.312 C  
HETATM    3  H1  UNL     1      -9.730  10.423  71.453  1.00  0.00     0.000 HD 
HETATM    4  H2  UNL     1      -9.669   9.238  70.247  1.00  0.00     0.000 HD 
ENDROOT
BRANCH   2   5
HETATM    5  C   UNL     1      -9.070   7.161  71.768  1.00  0.00    -0.139 C  
HETATM    6  O   UNL     1      -7.959   7.037  71.240  1.00  0.00    -0.101 OA 
BRANCH   5   7
HETATM    7  C   UNL     1      -9.972   5.956  71.828  1.00  0.00    -0.200 C  
BRANCH   7   8
HETATM    8  C   UNL     1      -9.615   4.978  70.724  1.00  0.00    -0.244 C  
HETATM    9  C   UNL     1      -8.753   3.781  71.075  1.00  0.00    -0.078 C  
HETATM   10  O   UNL     1      -8.600   2.866  70.274  1.00  0.00    -0.054 OA 
HETATM   11  O   UNL     1      -8.135   3.764  72.266  1.00  0.00    -0.074 OA 
ENDBRANCH   7   8
ENDBRANCH   5   7
ENDBRANCH   2   5
TORSDOF 3
ENDMDL
MODEL      262
REMARK 921   NORMALIZED FREE ENERGY PREDICTED BY IDOCK:   -1.09 KCAL/MOL
REMARK 922        TOTAL FREE ENERGY PREDICTED BY IDOCK:   -1.61 KCAL/MOL
REMARK 923 INTER-LIGAND FREE ENERGY PREDICTED BY IDOCK:   -1.46 KCAL/MOL
REMARK 924 INTRA-LIGAND FREE ENERGY PREDICTED BY IDOCK:   -0.15 KCAL/MOL
REMARK 927      BINDING AFFINITY PREDICTED BY RF-SCORE:    0.00 PKD
ROOT
HETATM    1  N   UNL     1     -11.504   5.752  73.174  1.00  0.00    -0.500 NA 
HETATM    2  C   UNL     1     -10.256   5.175  73.669  1.00  0.00    -0.205 C  
HETATM    3  H1  UNL     1     -11.967   6.271  73.920  1.00  0.00     0.000 HD 
HETATM    4  H2  UNL     1     -12.115   5.047  72.762  1.00  0.00     0.000 HD 
ENDROOT
BRANCH   2   5
HETATM    5  C   UNL     1      -9.562   4.396  72.552  1.00  0.00    -0.144 C  
HETATM    6  O   UNL     1      -9.813   3.212  72.300  1.00  0.00    -0.144 OA 
BRANCH   5   7
HETATM    7  C   UNL     1      -8.394   5.043  71.855  1.00  0.00    -0.120 C  
BRANCH   7   8
HETATM    8  C   UNL     1      -8.761   5.385  70.423  1.00  0.00    -0.136 C  
HETATM    9  C   UNL     1      -8.239   4.494  69.313  1.00  0.00    -0.068 C  
HETATM   10  O   UNL     1      -8.662   4.609  68.169  1.00  0.00    -0.101 OA 
HETATM   11  O   UNL     1      -7.280   3.602  69.606  1.00  0.00    -0.042 OA 
ENDBRANCH   7   8
ENDBRANCH   5   7
ENDBRANCH   2   5
TORSDOF 3
ENDMDL
MODEL      263
REMARK 921   NORMALIZED FREE ENERGY PREDICTED BY IDOCK:   -1.08 KCAL/MOL
REMARK 922        TOTAL FREE ENERGY PREDICTED BY IDOCK:   -1.59 KCAL/MOL
REMARK 923 INTER-LIGAND FREE ENERGY PREDICTED BY IDOCK:   -1.46 KCAL/MOL
REMARK 924 INTRA-LIGAND FREE ENERGY PREDICTED BY IDOCK:   -0.14 KCAL/MOL
REMARK 927      BINDING AFFINITY PREDICTED BY RF-SCORE:    0.00 PKD
ROOT
HETATM    1  N   UNL     1      -7.645   8.736  72.549  1.00  0.00    -0.359 NA 
HETATM    2  C   UNL     1      -7.900   7.510  71.795  1.00  0.00    -0.086 C  
HETATM    3  H1  UNL     1      -7.821   8.578  73.541  1.00  0.00     0.000 HD 
HETATM    4  H2  UNL     1      -8.179   9.526  72.187  1.00  0.00     0.000 HD 
ENDROOT
BRANCH   2   5
HETATM    5  C   UNL     1      -7.637   7.747  70.308  1.00  0.00    -0.087 C  
HETATM    6  O   UNL     1      -7.399   8.865  69.837  1.00  0.00    -0.049 OA 
BRANCH   5   7
HETATM    7  C   UNL     1      -7.862   6.603  69.356  1.00  0.00    -0.113 C  
BRANCH   7   8
HETATM    8  C   UNL     1      -9.343   6.292  69.250  1.00  0.00    -0.139 C  
HETATM    9  C   UNL     1     -10.109   6.835  68.060  1.00  0.00    -0.159 C  
HETATM   10  O   UNL     1     -11.250   6.455  67.825  1.00  0.00    -0.323 OA 
HETATM   11  O   UNL     1      -9.522   7.766  67.291  1.00  0.00    -0.138 OA 
ENDBRANCH   7   8
ENDBRANCH   5   7
ENDBRANCH   2   5
TORSDOF 3
ENDMDL
MODEL      264
REMARK 921   NORMALIZED FREE ENERGY PREDICTED BY IDOCK:   -1.03 KCAL/MOL
REMARK 922        TOTAL FREE ENERGY PREDICTED BY IDOCK:   -1.54 KCAL/MOL
REMARK 923 INTER-LIGAND FREE ENERGY PREDICTED BY IDOCK:   -1.43 KCAL/MOL
REMARK 924 INTRA-LIGAND FREE ENERGY PREDICTED BY IDOCK:   -0.11 KCAL/MOL
REMARK 927      BINDING AFFINITY PREDICTED BY RF-SCORE:    0.00 PKD
ROOT
HETATM    1  N   UNL     1      -6.185   8.648  66.525  1.00  0.00    -0.057 NA 
HETATM    2  C   UNL     1      -7.439   9.332  66.833  1.00  0.00    -0.091 C  
HETATM    3  H1  UNL     1      -5.483   9.325  66.225  1.00  0.00     0.000 HD 
HETATM    4  H2  UNL     1      -6.314   7.903  65.840  1.00  0.00     0.000 HD 
ENDROOT
BRANCH   2   5
HETATM    5  C   UNL     1      -8.491   8.318  67.281  1.00  0.00    -0.124 C  
HETATM    6  O   UNL     1      -8.319   7.095  67.211  1.00  0.00    -0.117 OA 
BRANCH   5   7
HETATM    7  C   UNL     1      -9.860   8.828  67.645  1.00  0.00    -0.228 C  
BRANCH   7   8
HETATM    8  C   UNL     1      -9.873   9.313  69.083  1.00  0.00    -0.167 C  
HETATM    9  C   UNL     1     -10.483   8.414  70.140  1.00  0.00    -0.228 C  
HETATM   10  O   UNL     1     -10.346   8.668  71.331  1.00  0.00    -0.218 OA 
HETATM   11  O   UNL     1     -11.206   7.356  69.741  1.00  0.00    -0.202 OA 
ENDBRANCH   7   8
ENDBRANCH   5   7
ENDBRANCH   2   5
TORSDOF 3
ENDMDL
MODEL      265
REMARK 921   NORMALIZED FREE ENERGY PREDICTED BY IDOCK:   -1.01 KCAL/MOL
REMARK 922        TOTAL FREE ENERGY PREDICTED BY IDOCK:   -1.51 KCAL/MOL
REMARK 923 INTER-LIGAND FREE ENERGY PREDICTED BY IDOCK:   -1.38 KCAL/MOL
REMARK 924 INTRA-LIGAND FREE ENERGY PREDICTED BY IDOCK:   -0.13 KCAL/MOL
REMARK 927      BINDING AFFINITY PREDICTED BY RF-SCORE:    0.00 PKD
ROOT
HETATM    1  N   UNL     1      -9.776   4.791  64.187  1.00  0.00    -0.349 NA 
HETATM    2  C   UNL     1      -9.571   4.218  65.516  1.00  0.00    -0.188 C  
HETATM    3  H1  UNL     1      -9.540   4.103  63.471  1.00  0.00     0.000 HD 
HETATM    4  H2  UNL     1      -9.262   5.663  64.063  1.00  0.00     0.000 HD 
ENDROOT
BRANCH   2   5
HETATM    5  C   UNL     1      -9.923   5.248  66.589  1.00  0.00    -0.202 C  
HETATM    6  O   UNL     1     -11.023   5.810  66.646  1.00  0.00    -0.277 OA 
BRANCH   5   7
HETATM    7  C   UNL     1      -8.824   5.733  67.496  1.00  0.00    -0.106 C  
BRANCH   7   8
HETATM    8  C   UNL     1      -8.864   4.986  68.816  1.00  0.00    -0.109 C  
HETATM    9  C   UNL     1      -7.876   3.856  69.032  1.00  0.00    -0.056 C  
HETATM   10  O   UNL     1      -7.736   3.353  70.141  1.00  0.00    -0.044 OA 
HETATM   11  O   UNL     1      -7.187   3.397  67.977  1.00  0.00    -0.050 OA 
ENDBRANCH   7   8
ENDBRANCH   5   7
ENDBRANCH   2   5
TORSDOF 3
ENDMDL
MODEL      266
REMARK 921   NORMALIZED FREE ENERGY PREDICTED BY IDOCK:   -0.92 KCAL/MOL
REMARK 922        TOTAL FREE ENERGY PREDICTED BY IDOCK:   -1.41 KCAL/MOL
REMARK 923 INTER-LIGAND FREE ENERGY PREDICTED BY IDOCK:   -1.31 KCAL/MOL
REMARK 924 INTRA-LIGAND FREE ENERGY PREDICTED BY IDOCK:   -0.09 KCAL/MOL
REMARK 927      BINDING AFFINITY PREDICTED BY RF-SCORE:    0.00 PKD
ROOT
HETATM    1  N   UNL     1      -9.798   8.754  70.862  1.00  0.00    -0.204 NA 
HETATM    2  C   UNL     1      -9.617   7.681  69.887  1.00  0.00    -0.160 C  
HETATM    3  H1  UNL     1     -10.236   8.386  71.707  1.00  0.00     0.000 HD 
HETATM    4  H2  UNL     1     -10.319   9.540  70.473  1.00  0.00     0.000 HD 
ENDROOT
BRANCH   2   5
HETATM    5  C   UNL     1      -8.961   8.232  68.620  1.00  0.00    -0.137 C  
HETATM    6  O   UNL     1      -7.988   8.994  68.644  1.00  0.00    -0.100 OA 
BRANCH   5   7
HETATM    7  C   UNL     1      -9.645   7.986  67.302  1.00  0.00    -0.210 C  
BRANCH   7   8
HETATM    8  C   UNL     1      -8.701   7.285  66.343  1.00  0.00    -0.152 C  
HETATM    9  C   UNL     1      -8.666   5.769  66.349  1.00  0.00    -0.128 C  
HETATM   10  O   UNL     1      -8.072   5.155  65.470  1.00  0.00    -0.109 OA 
HETATM   11  O   UNL     1      -9.268   5.118  67.357  1.00  0.00    -0.113 OA 
ENDBRANCH   7   8
ENDBRANCH   5   7
ENDBRANCH   2   5
TORSDOF 3
ENDMDL
MODEL      267
REMARK 921   NORMALIZED FREE ENERGY PREDICTED BY IDOCK:   -0.89 KCAL/MOL
REMARK 922        TOTAL FREE ENERGY PREDICTED BY IDOCK:   -1.38 KCAL/MOL
REMARK 923 INTER-LIGAND FREE ENERGY PREDICTED BY IDOCK:   -1.22 KCAL/MOL
REMARK 924 INTRA-LIGAND FREE ENERGY PREDICTED BY IDOCK:   -0.16 KCAL/MOL
REMARK 927      BINDING AFFINITY PREDICTED BY RF-SCORE:    0.00 PKD
ROOT
HETATM    1  N   UNL     1      -6.401   6.907  69.880  1.00  0.00    -0.037 NA 
HETATM    2  C   UNL     1      -6.540   8.027  70.808  1.00  0.00    -0.037 C  
HETATM    3  H1  UNL     1      -5.485   6.472  69.993  1.00  0.00     0.000 HD 
HETATM    4  H2  UNL     1      -6.574   7.186  68.914  1.00  0.00     0.000 HD 
ENDROOT
BRANCH   2   5
HETATM    5  C   UNL     1      -7.912   8.679  70.637  1.00  0.00    -0.110 C  
HETATM    6  O   UNL     1      -8.143   9.853  70.950  1.00  0.00    -0.161 OA 
BRANCH   5   7
HETATM    7  C   UNL     1      -9.072   7.801  70.248  1.00  0.00    -0.152 C  
BRANCH   7   8
HETATM    8  C   UNL     1     -10.043   8.572  69.374  1.00  0.00    -0.205 C  
HETATM    9  C   UNL     1      -9.992   8.351  67.875  1.00  0.00    -0.184 C  
HETATM   10  O   UNL     1     -10.874   8.795  67.148  1.00  0.00    -0.209 OA 
HETATM   11  O   UNL     1      -8.943   7.692  67.359  1.00  0.00    -0.126 OA 
ENDBRANCH   7   8
ENDBRANCH   5   7
ENDBRANCH   2   5
TORSDOF 3
ENDMDL
MODEL      268
REMARK 921   NORMALIZED FREE ENERGY PREDICTED BY IDOCK:   -0.80 KCAL/MOL
REMARK 922        TOTAL FREE ENERGY PREDICTED BY IDOCK:   -1.27 KCAL/MOL
REMARK 923 INTER-LIGAND FREE ENERGY PREDICTED BY IDOCK:   -0.90 KCAL/MOL
REMARK 924 INTRA-LIGAND FREE ENERGY PREDICTED BY IDOCK:   -0.37 KCAL/MOL
REMARK 927      BINDING AFFINITY PREDICTED BY RF-SCORE:    0.00 PKD
ROOT
HETATM    1  N   UNL     1      -7.105   4.334  70.824  1.00  0.00    -0.036 NA 
HETATM    2  C   UNL     1      -7.537   4.265  72.218  1.00  0.00    -0.080 C  
HETATM    3  H1  UNL     1      -6.966   3.393  70.455  1.00  0.00     0.000 HD 
HETATM    4  H2  UNL     1      -6.276   4.917  70.708  1.00  0.00     0.000 HD 
ENDROOT
BRANCH   2   5
HETATM    5  C   UNL     1      -7.746   5.675  72.770  1.00  0.00    -0.098 C  
HETATM    6  O   UNL     1      -7.125   6.115  73.745  1.00  0.00    -0.083 OA 
BRANCH   5   7
HETATM    7  C   UNL     1      -8.886   6.491  72.221  1.00  0.00    -0.134 C  
BRANCH   7   8
HETATM    8  C   UNL     1      -8.362   7.766  71.587  1.00  0.00    -0.125 C  
HETATM    9  C   UNL     1      -8.361   7.870  70.075  1.00  0.00    -0.121 C  
HETATM   10  O   UNL     1      -8.134   8.940  69.522  1.00  0.00    -0.096 OA 
HETATM   11  O   UNL     1      -8.579   6.758  69.356  1.00  0.00    -0.131 OA 
ENDBRANCH   7   8
ENDBRANCH   5   7
ENDBRANCH   2   5
TORSDOF 3
ENDMDL
MODEL      269
REMARK 921   NORMALIZED FREE ENERGY PREDICTED BY IDOCK:   -0.72 KCAL/MOL
REMARK 922        TOTAL FREE ENERGY PREDICTED BY IDOCK:   -1.18 KCAL/MOL
REMARK 923 INTER-LIGAND FREE ENERGY PREDICTED BY IDOCK:   -1.07 KCAL/MOL
REMARK 924 INTRA-LIGAND FREE ENERGY PREDICTED BY IDOCK:   -0.11 KCAL/MOL
REMARK 927      BINDING AFFINITY PREDICTED BY RF-SCORE:    0.00 PKD
ROOT
HETATM    1  N   UNL     1      -5.845   4.407  70.604  1.00  0.00    -0.013 NA 
HETATM    2  C   UNL     1      -7.266   4.713  70.758  1.00  0.00    -0.045 C  
HETATM    3  H1  UNL     1      -5.590   3.626  71.209  1.00  0.00     0.000 HD 
HETATM    4  H2  UNL     1      -5.258   5.225  70.768  1.00  0.00     0.000 HD 
ENDROOT
BRANCH   2   5
HETATM    5  C   UNL     1      -7.648   5.884  69.853  1.00  0.00    -0.080 C  
HETATM    6  O   UNL     1      -8.108   5.733  68.715  1.00  0.00    -0.100 OA 
BRANCH   5   7
HETATM    7  C   UNL     1      -7.274   7.274  70.294  1.00  0.00    -0.067 C  
BRANCH   7   8
HETATM    8  C   UNL     1      -8.447   8.218  70.108  1.00  0.00    -0.126 C  
HETATM    9  C   UNL     1      -9.374   8.454  71.284  1.00  0.00    -0.187 C  
HETATM   10  O   UNL     1     -10.213   9.347  71.248  1.00  0.00    -0.315 OA 
HETATM   11  O   UNL     1      -9.278   7.643  72.348  1.00  0.00    -0.137 OA 
ENDBRANCH   7   8
ENDBRANCH   5   7
ENDBRANCH   2   5
TORSDOF 3
ENDMDL
MODEL      270
REMARK 921   NORMALIZED FREE ENERGY PREDICTED BY IDOCK:   -0.65 KCAL/MOL
REMARK 922        TOTAL FREE ENERGY PREDICTED BY IDOCK:   -1.09 KCAL/MOL
REMARK 923 INTER-LIGAND FREE ENERGY PREDICTED BY IDOCK:   -0.95 KCAL/MOL
REMARK 924 INTRA-LIGAND FREE ENERGY PREDICTED BY IDOCK:   -0.15 KCAL/MOL
REMARK 927      BINDING AFFINITY PREDICTED BY RF-SCORE:    0.00 PKD
ROOT
HETATM    1  N   UNL     1      -7.337   2.688  67.771  1.00  0.00    -0.052 NA 
HETATM    2  C   UNL     1      -8.565   2.915  67.012  1.00  0.00    -0.106 C  
HETATM    3  H1  UNL     1      -7.507   2.006  68.512  1.00  0.00     0.000 HD 
HETATM    4  H2  UNL     1      -6.946   3.557  68.134  1.00  0.00     0.000 HD 
ENDROOT
BRANCH   2   5
HETATM    5  C   UNL     1      -8.312   3.937  65.904  1.00  0.00    -0.109 C  
HETATM    6  O   UNL     1      -7.318   3.900  65.169  1.00  0.00    -0.066 OA 
BRANCH   5   7
HETATM    7  C   UNL     1      -9.212   5.141  65.829  1.00  0.00    -0.162 C  
BRANCH   7   8
HETATM    8  C   UNL     1      -9.446   5.709  67.216  1.00  0.00    -0.115 C  
HETATM    9  C   UNL     1      -8.472   6.744  67.744  1.00  0.00    -0.122 C  
HETATM   10  O   UNL     1      -8.721   7.372  68.766  1.00  0.00    -0.129 OA 
HETATM   11  O   UNL     1      -7.318   6.931  67.085  1.00  0.00    -0.085 OA 
ENDBRANCH   7   8
ENDBRANCH   5   7
ENDBRANCH   2   5
TORSDOF 3
ENDMDL
MODEL      271
REMARK 921   NORMALIZED FREE ENERGY PREDICTED BY IDOCK:   -0.63 KCAL/MOL
REMARK 922        TOTAL FREE ENERGY PREDICTED BY IDOCK:   -1.07 KCAL/MOL
REMARK 923 INTER-LIGAND FREE ENERGY PREDICTED BY IDOCK:   -0.98 KCAL/MOL
REMARK 924 INTRA-LIGAND FREE ENERGY PREDICTED BY IDOCK:   -0.09 KCAL/MOL
REMARK 927      BINDING AFFINITY PREDICTED BY RF-SCORE:    0.00 PKD
ROOT
HETATM    1  N   UNL     1      -7.212   4.077  68.862  1.00  0.00    -0.054 NA 
HETATM    2  C   UNL     1      -8.425   4.436  68.130  1.00  0.00    -0.094 C  
HETATM    3  H1  UNL     1      -7.437   3.417  69.607  1.00  0.00     0.000 HD 
HETATM    4  H2  UNL     1      -6.720   4.898  69.214  1.00  0.00     0.000 HD 
ENDROOT
BRANCH   2   5
HETATM    5  C   UNL     1      -8.088   5.425  67.014  1.00  0.00    -0.101 C  
HETATM    6  O   UNL     1      -7.228   5.201  66.154  1.00  0.00    -0.071 OA 
BRANCH   5   7
HETATM    7  C   UNL     1      -8.694   6.802  67.079  1.00  0.00    -0.114 C  
BRANCH   7   8
HETATM    8  C   UNL     1      -9.773   6.851  68.145  1.00  0.00    -0.134 C  
HETATM    9  C   UNL     1     -10.155   8.201  68.719  1.00  0.00    -0.199 C  
HETATM   10  O   UNL     1     -11.145   8.318  69.432  1.00  0.00    -0.075 OA 
HETATM   11  O   UNL     1      -9.366   9.255  68.458  1.00  0.00    -0.141 OA 
ENDBRANCH   7   8
ENDBRANCH   5   7
ENDBRANCH   2   5
TORSDOF 3
ENDMDL
