MODEL        1
REMARK 921   NORMALIZED FREE ENERGY PREDICTED BY IDOCK:   -4.16 KCAL/MOL
REMARK 922        TOTAL FREE ENERGY PREDICTED BY IDOCK:   -5.21 KCAL/MOL
REMARK 923 INTER-LIGAND FREE ENERGY PREDICTED BY IDOCK:   -5.13 KCAL/MOL
REMARK 924 INTRA-LIGAND FREE ENERGY PREDICTED BY IDOCK:   -0.08 KCAL/MOL
REMARK 927      BINDING AFFINITY PREDICTED BY RF-SCORE:    0.00 PKD
ROOT
HETATM    1  N   UNL     1     -10.148  10.431  62.380  1.00  0.00    -0.717 NA 
HETATM    2  C   UNL     1     -10.260  11.392  63.472  1.00  0.00    -0.413 C  
HETATM    3  H1  UNL     1      -9.207  10.042  62.318  1.00  0.00     0.000 HD 
HETATM    4  H2  UNL     1     -10.441  10.839  61.492  1.00  0.00     0.000 HD 
ENDROOT
BRANCH   2   5
HETATM    5  C   UNL     1     -11.672  11.975  63.564  1.00  0.00    -0.566 C  
BRANCH   5   6
HETATM    6  C   UNL     1     -12.071  12.493  64.953  1.00  0.00    -0.499 C  
BRANCH   6   7
HETATM    7  C   UNL     1     -12.387  13.990  64.963  1.00  0.00    -0.458 C  
BRANCH   7   8
HETATM    8  C   UNL     1     -11.282  14.796  65.639  1.00  0.00    -0.343 C  
HETATM    9  C   UNL     1     -11.003  16.083  64.896  1.00  0.00    -0.384 C  
HETATM   10  O   UNL     1     -11.601  16.478  63.909  1.00  0.00    -1.175 OA 
HETATM   11  O   UNL     1      -9.991  16.789  65.453  1.00  0.00    -0.572 OA 
ENDBRANCH   7   8
ENDBRANCH   6   7
ENDBRANCH   5   6
ENDBRANCH   2   5
TORSDOF 4
ENDMDL
MODEL        2
REMARK 921   NORMALIZED FREE ENERGY PREDICTED BY IDOCK:   -4.10 KCAL/MOL
REMARK 922        TOTAL FREE ENERGY PREDICTED BY IDOCK:   -5.14 KCAL/MOL
REMARK 923 INTER-LIGAND FREE ENERGY PREDICTED BY IDOCK:   -4.99 KCAL/MOL
REMARK 924 INTRA-LIGAND FREE ENERGY PREDICTED BY IDOCK:   -0.16 KCAL/MOL
REMARK 927      BINDING AFFINITY PREDICTED BY RF-SCORE:    0.00 PKD
ROOT
HETATM    1  N   UNL     1     -12.369  11.644  62.976  1.00  0.00    -0.956 NA 
HETATM    2  C   UNL     1     -12.048  12.874  63.693  1.00  0.00    -0.535 C  
HETATM    3  H1  UNL     1     -12.004  11.658  62.024  1.00  0.00     0.000 HD 
HETATM    4  H2  UNL     1     -13.371  11.456  62.989  1.00  0.00     0.000 HD 
ENDROOT
BRANCH   2   5
HETATM    5  C   UNL     1     -12.595  12.852  65.122  1.00  0.00    -0.536 C  
BRANCH   5   6
HETATM    6  C   UNL     1     -11.876  13.783  66.107  1.00  0.00    -0.424 C  
BRANCH   6   7
HETATM    7  C   UNL     1     -10.520  14.265  65.589  1.00  0.00    -0.336 C  
BRANCH   7   8
HETATM    8  C   UNL     1     -10.231  15.702  66.016  1.00  0.00    -0.354 C  
HETATM    9  C   UNL     1     -10.787  16.697  65.023  1.00  0.00    -0.176 C  
HETATM   10  O   UNL     1     -11.432  16.420  64.026  1.00  0.00    -1.048 OA 
HETATM   11  O   UNL     1     -10.497  17.975  65.360  1.00  0.00    -0.621 OA 
ENDBRANCH   7   8
ENDBRANCH   6   7
ENDBRANCH   5   6
ENDBRANCH   2   5
TORSDOF 4
ENDMDL
MODEL        3
REMARK 921   NORMALIZED FREE ENERGY PREDICTED BY IDOCK:   -3.91 KCAL/MOL
REMARK 922        TOTAL FREE ENERGY PREDICTED BY IDOCK:   -4.91 KCAL/MOL
REMARK 923 INTER-LIGAND FREE ENERGY PREDICTED BY IDOCK:   -4.67 KCAL/MOL
REMARK 924 INTRA-LIGAND FREE ENERGY PREDICTED BY IDOCK:   -0.24 KCAL/MOL
REMARK 927      BINDING AFFINITY PREDICTED BY RF-SCORE:    0.00 PKD
ROOT
HETATM    1  N   UNL     1     -11.670  16.337  63.837  1.00  0.00    -1.518 NA 
HETATM    2  C   UNL     1     -11.438  15.119  64.605  1.00  0.00    -0.362 C  
HETATM    3  H1  UNL     1     -12.482  16.247  63.226  1.00  0.00     0.000 HD 
HETATM    4  H2  UNL     1     -10.838  16.612  63.314  1.00  0.00     0.000 HD 
ENDROOT
BRANCH   2   5
HETATM    5  C   UNL     1     -10.220  15.254  65.522  1.00  0.00    -0.417 C  
BRANCH   5   6
HETATM    6  C   UNL     1     -10.542  15.343  67.020  1.00  0.00    -0.309 C  
BRANCH   6   7
HETATM    7  C   UNL     1     -11.874  14.685  67.384  1.00  0.00    -0.374 C  
BRANCH   7   8
HETATM    8  C   UNL     1     -11.676  13.461  68.273  1.00  0.00    -0.391 C  
HETATM    9  C   UNL     1     -11.787  12.178  67.482  1.00  0.00    -0.237 C  
HETATM   10  O   UNL     1     -11.962  12.099  66.278  1.00  0.00    -0.605 OA 
HETATM   11  O   UNL     1     -11.662  11.080  68.264  1.00  0.00    -0.461 OA 
ENDBRANCH   7   8
ENDBRANCH   6   7
ENDBRANCH   5   6
ENDBRANCH   2   5
TORSDOF 4
ENDMDL
MODEL        4
REMARK 921   NORMALIZED FREE ENERGY PREDICTED BY IDOCK:   -3.87 KCAL/MOL
REMARK 922        TOTAL FREE ENERGY PREDICTED BY IDOCK:   -4.86 KCAL/MOL
REMARK 923 INTER-LIGAND FREE ENERGY PREDICTED BY IDOCK:   -4.39 KCAL/MOL
REMARK 924 INTRA-LIGAND FREE ENERGY PREDICTED BY IDOCK:   -0.47 KCAL/MOL
REMARK 927      BINDING AFFINITY PREDICTED BY RF-SCORE:    0.00 PKD
ROOT
HETATM    1  N   UNL     1     -11.774  16.149  63.844  1.00  0.00    -1.452 NA 
HETATM    2  C   UNL     1     -11.566  15.008  64.728  1.00  0.00    -0.395 C  
HETATM    3  H1  UNL     1     -12.720  16.162  63.464  1.00  0.00     0.000 HD 
HETATM    4  H2  UNL     1     -11.073  16.179  63.103  1.00  0.00     0.000 HD 
ENDROOT
BRANCH   2   5
HETATM    5  C   UNL     1     -10.146  14.990  65.300  1.00  0.00    -0.378 C  
BRANCH   5   6
HETATM    6  C   UNL     1     -10.058  15.131  66.826  1.00  0.00    -0.261 C  
BRANCH   6   7
HETATM    7  C   UNL     1     -10.765  16.382  67.350  1.00  0.00    -0.278 C  
BRANCH   7   8
HETATM    8  C   UNL     1      -9.819  17.577  67.424  1.00  0.00    -0.297 C  
HETATM    9  C   UNL     1     -10.050  18.537  66.279  1.00  0.00    -0.398 C  
HETATM   10  O   UNL     1     -10.907  18.425  65.420  1.00  0.00    -0.577 OA 
HETATM   11  O   UNL     1      -9.186  19.579  66.301  1.00  0.00    -0.353 OA 
ENDBRANCH   7   8
ENDBRANCH   6   7
ENDBRANCH   5   6
ENDBRANCH   2   5
TORSDOF 4
ENDMDL
MODEL        5
REMARK 921   NORMALIZED FREE ENERGY PREDICTED BY IDOCK:   -3.81 KCAL/MOL
REMARK 922        TOTAL FREE ENERGY PREDICTED BY IDOCK:   -4.78 KCAL/MOL
REMARK 923 INTER-LIGAND FREE ENERGY PREDICTED BY IDOCK:   -4.70 KCAL/MOL
REMARK 924 INTRA-LIGAND FREE ENERGY PREDICTED BY IDOCK:   -0.08 KCAL/MOL
REMARK 927      BINDING AFFINITY PREDICTED BY RF-SCORE:    0.00 PKD
ROOT
HETATM    1  N   UNL     1     -14.029   9.152  73.041  1.00  0.00    -1.110 NA 
HETATM    2  C   UNL     1     -13.506   9.074  71.681  1.00  0.00    -0.386 C  
HETATM    3  H1  UNL     1     -14.367   8.246  73.365  1.00  0.00     0.000 HD 
HETATM    4  H2  UNL     1     -14.748   9.870  73.123  1.00  0.00     0.000 HD 
ENDROOT
BRANCH   2   5
HETATM    5  C   UNL     1     -12.998  10.434  71.195  1.00  0.00    -0.506 C  
BRANCH   5   6
HETATM    6  C   UNL     1     -13.219  11.597  72.172  1.00  0.00    -0.327 C  
BRANCH   6   7
HETATM    7  C   UNL     1     -13.021  12.967  71.520  1.00  0.00    -0.398 C  
BRANCH   7   8
HETATM    8  C   UNL     1     -13.926  14.026  72.145  1.00  0.00    -0.633 C  
HETATM    9  C   UNL     1     -13.121  15.143  72.769  1.00  0.00    -0.448 C  
HETATM   10  O   UNL     1     -11.906  15.240  72.750  1.00  0.00    -0.411 OA 
HETATM   11  O   UNL     1     -13.906  16.066  73.372  1.00  0.00    -0.481 OA 
ENDBRANCH   7   8
ENDBRANCH   6   7
ENDBRANCH   5   6
ENDBRANCH   2   5
TORSDOF 4
ENDMDL
MODEL        6
REMARK 921   NORMALIZED FREE ENERGY PREDICTED BY IDOCK:   -3.79 KCAL/MOL
REMARK 922        TOTAL FREE ENERGY PREDICTED BY IDOCK:   -4.76 KCAL/MOL
REMARK 923 INTER-LIGAND FREE ENERGY PREDICTED BY IDOCK:   -4.74 KCAL/MOL
REMARK 924 INTRA-LIGAND FREE ENERGY PREDICTED BY IDOCK:   -0.03 KCAL/MOL
REMARK 927      BINDING AFFINITY PREDICTED BY RF-SCORE:    0.00 PKD
ROOT
HETATM    1  N   UNL     1     -11.292  16.587  64.020  1.00  0.00    -1.559 NA 
HETATM    2  C   UNL     1     -10.732  16.405  65.355  1.00  0.00    -0.296 C  
HETATM    3  H1  UNL     1     -11.795  17.470  63.941  1.00  0.00     0.000 HD 
HETATM    4  H2  UNL     1     -11.880  15.797  63.752  1.00  0.00     0.000 HD 
ENDROOT
BRANCH   2   5
HETATM    5  C   UNL     1      -9.977  15.080  65.473  1.00  0.00    -0.390 C  
BRANCH   5   6
HETATM    6  C   UNL     1     -10.707  13.862  64.890  1.00  0.00    -0.422 C  
BRANCH   6   7
HETATM    7  C   UNL     1     -11.828  13.350  65.796  1.00  0.00    -0.412 C  
BRANCH   7   8
HETATM    8  C   UNL     1     -11.561  13.672  67.264  1.00  0.00    -0.387 C  
HETATM    9  C   UNL     1     -11.747  12.454  68.140  1.00  0.00    -0.353 C  
HETATM   10  O   UNL     1     -12.026  11.333  67.750  1.00  0.00    -0.637 OA 
HETATM   11  O   UNL     1     -11.562  12.733  69.452  1.00  0.00    -0.282 OA 
ENDBRANCH   7   8
ENDBRANCH   6   7
ENDBRANCH   5   6
ENDBRANCH   2   5
TORSDOF 4
ENDMDL
MODEL        7
REMARK 921   NORMALIZED FREE ENERGY PREDICTED BY IDOCK:   -3.78 KCAL/MOL
REMARK 922        TOTAL FREE ENERGY PREDICTED BY IDOCK:   -4.74 KCAL/MOL
REMARK 923 INTER-LIGAND FREE ENERGY PREDICTED BY IDOCK:   -4.48 KCAL/MOL
REMARK 924 INTRA-LIGAND FREE ENERGY PREDICTED BY IDOCK:   -0.27 KCAL/MOL
REMARK 927      BINDING AFFINITY PREDICTED BY RF-SCORE:    0.00 PKD
ROOT
HETATM    1  N   UNL     1      -9.621  12.003  63.332  1.00  0.00    -0.636 NA 
HETATM    2  C   UNL     1     -10.630  11.388  64.188  1.00  0.00    -0.369 C  
HETATM    3  H1  UNL     1      -9.953  12.104  62.373  1.00  0.00     0.000 HD 
HETATM    4  H2  UNL     1      -8.739  11.491  63.369  1.00  0.00     0.000 HD 
ENDROOT
BRANCH   2   5
HETATM    5  C   UNL     1     -10.132  11.237  65.627  1.00  0.00    -0.295 C  
BRANCH   5   6
HETATM    6  C   UNL     1     -10.328  12.473  66.516  1.00  0.00    -0.254 C  
BRANCH   6   7
HETATM    7  C   UNL     1     -11.584  13.270  66.158  1.00  0.00    -0.385 C  
BRANCH   7   8
HETATM    8  C   UNL     1     -11.252  14.715  65.796  1.00  0.00    -0.336 C  
HETATM    9  C   UNL     1     -11.791  15.082  64.432  1.00  0.00    -0.339 C  
HETATM   10  O   UNL     1     -12.453  14.356  63.711  1.00  0.00    -0.814 OA 
HETATM   11  O   UNL     1     -11.463  16.345  64.074  1.00  0.00    -1.048 OA 
ENDBRANCH   7   8
ENDBRANCH   6   7
ENDBRANCH   5   6
ENDBRANCH   2   5
TORSDOF 4
ENDMDL
MODEL        8
REMARK 921   NORMALIZED FREE ENERGY PREDICTED BY IDOCK:   -3.74 KCAL/MOL
REMARK 922        TOTAL FREE ENERGY PREDICTED BY IDOCK:   -4.70 KCAL/MOL
REMARK 923 INTER-LIGAND FREE ENERGY PREDICTED BY IDOCK:   -4.32 KCAL/MOL
REMARK 924 INTRA-LIGAND FREE ENERGY PREDICTED BY IDOCK:   -0.39 KCAL/MOL
REMARK 927      BINDING AFFINITY PREDICTED BY RF-SCORE:    0.00 PKD
ROOT
HETATM    1  N   UNL     1     -10.377  19.346  65.910  1.00  0.00    -0.483 NA 
HETATM    2  C   UNL     1     -10.366  19.013  67.330  1.00  0.00    -0.424 C  
HETATM    3  H1  UNL     1     -11.073  20.061  65.697  1.00  0.00     0.000 HD 
HETATM    4  H2  UNL     1     -10.508  18.515  65.333  1.00  0.00     0.000 HD 
ENDROOT
BRANCH   2   5
HETATM    5  C   UNL     1      -9.321  17.941  67.648  1.00  0.00    -0.258 C  
BRANCH   5   6
HETATM    6  C   UNL     1      -9.784  16.495  67.421  1.00  0.00    -0.246 C  
BRANCH   6   7
HETATM    7  C   UNL     1      -9.382  15.950  66.050  1.00  0.00    -0.385 C  
BRANCH   7   8
HETATM    8  C   UNL     1     -10.495  15.111  65.427  1.00  0.00    -0.416 C  
HETATM    9  C   UNL     1     -11.430  15.961  64.597  1.00  0.00    -0.263 C  
HETATM   10  O   UNL     1     -11.309  17.156  64.390  1.00  0.00    -1.115 OA 
HETATM   11  O   UNL     1     -12.452  15.241  64.077  1.00  0.00    -0.725 OA 
ENDBRANCH   7   8
ENDBRANCH   6   7
ENDBRANCH   5   6
ENDBRANCH   2   5
TORSDOF 4
ENDMDL
MODEL        9
REMARK 921   NORMALIZED FREE ENERGY PREDICTED BY IDOCK:   -3.74 KCAL/MOL
REMARK 922        TOTAL FREE ENERGY PREDICTED BY IDOCK:   -4.69 KCAL/MOL
REMARK 923 INTER-LIGAND FREE ENERGY PREDICTED BY IDOCK:   -4.44 KCAL/MOL
REMARK 924 INTRA-LIGAND FREE ENERGY PREDICTED BY IDOCK:   -0.25 KCAL/MOL
REMARK 927      BINDING AFFINITY PREDICTED BY RF-SCORE:    0.00 PKD
ROOT
HETATM    1  N   UNL     1     -14.280   8.883  73.246  1.00  0.00    -1.237 NA 
HETATM    2  C   UNL     1     -13.547   8.682  72.001  1.00  0.00    -0.412 C  
HETATM    3  H1  UNL     1     -15.274   8.689  73.132  1.00  0.00     0.000 HD 
HETATM    4  H2  UNL     1     -14.123   9.818  73.624  1.00  0.00     0.000 HD 
ENDROOT
BRANCH   2   5
HETATM    5  C   UNL     1     -12.054   8.973  72.173  1.00  0.00    -0.412 C  
BRANCH   5   6
HETATM    6  C   UNL     1     -11.418   9.795  71.043  1.00  0.00    -0.458 C  
BRANCH   6   7
HETATM    7  C   UNL     1     -12.438  10.628  70.266  1.00  0.00    -0.381 C  
BRANCH   7   8
HETATM    8  C   UNL     1     -12.076  12.111  70.269  1.00  0.00    -0.385 C  
HETATM    9  C   UNL     1     -12.791  12.853  71.375  1.00  0.00    -0.283 C  
HETATM   10  O   UNL     1     -13.529  12.351  72.206  1.00  0.00    -0.541 OA 
HETATM   11  O   UNL     1     -12.520  14.179  71.363  1.00  0.00    -0.334 OA 
ENDBRANCH   7   8
ENDBRANCH   6   7
ENDBRANCH   5   6
ENDBRANCH   2   5
TORSDOF 4
ENDMDL
MODEL       10
REMARK 921   NORMALIZED FREE ENERGY PREDICTED BY IDOCK:   -3.73 KCAL/MOL
REMARK 922        TOTAL FREE ENERGY PREDICTED BY IDOCK:   -4.68 KCAL/MOL
REMARK 923 INTER-LIGAND FREE ENERGY PREDICTED BY IDOCK:   -4.21 KCAL/MOL
REMARK 924 INTRA-LIGAND FREE ENERGY PREDICTED BY IDOCK:   -0.48 KCAL/MOL
REMARK 927      BINDING AFFINITY PREDICTED BY RF-SCORE:    0.00 PKD
ROOT
HETATM    1  N   UNL     1     -12.397  13.854  63.302  1.00  0.00    -1.148 NA 
HETATM    2  C   UNL     1     -12.018  12.456  63.474  1.00  0.00    -0.538 C  
HETATM    3  H1  UNL     1     -13.385  13.949  63.068  1.00  0.00     0.000 HD 
HETATM    4  H2  UNL     1     -11.804  14.319  62.615  1.00  0.00     0.000 HD 
ENDROOT
BRANCH   2   5
HETATM    5  C   UNL     1     -10.536  12.314  63.826  1.00  0.00    -0.476 C  
BRANCH   5   6
HETATM    6  C   UNL     1     -10.249  11.599  65.154  1.00  0.00    -0.319 C  
BRANCH   6   7
HETATM    7  C   UNL     1     -11.392  11.733  66.161  1.00  0.00    -0.342 C  
BRANCH   7   8
HETATM    8  C   UNL     1     -11.029  12.674  67.307  1.00  0.00    -0.291 C  
HETATM    9  C   UNL     1     -11.738  14.003  67.177  1.00  0.00    -0.393 C  
HETATM   10  O   UNL     1     -12.541  14.298  66.308  1.00  0.00    -0.416 OA 
HETATM   11  O   UNL     1     -11.389  14.868  68.158  1.00  0.00    -0.285 OA 
ENDBRANCH   7   8
ENDBRANCH   6   7
ENDBRANCH   5   6
ENDBRANCH   2   5
TORSDOF 4
ENDMDL
MODEL       11
REMARK 921   NORMALIZED FREE ENERGY PREDICTED BY IDOCK:   -3.72 KCAL/MOL
REMARK 922        TOTAL FREE ENERGY PREDICTED BY IDOCK:   -4.67 KCAL/MOL
REMARK 923 INTER-LIGAND FREE ENERGY PREDICTED BY IDOCK:   -4.53 KCAL/MOL
REMARK 924 INTRA-LIGAND FREE ENERGY PREDICTED BY IDOCK:   -0.14 KCAL/MOL
REMARK 927      BINDING AFFINITY PREDICTED BY RF-SCORE:    0.00 PKD
ROOT
HETATM    1  N   UNL     1     -11.420  16.498  63.903  1.00  0.00    -1.599 NA 
HETATM    2  C   UNL     1     -11.301  15.532  64.990  1.00  0.00    -0.299 C  
HETATM    3  H1  UNL     1     -10.768  17.274  64.018  1.00  0.00     0.000 HD 
HETATM    4  H2  UNL     1     -12.379  16.828  63.801  1.00  0.00     0.000 HD 
ENDROOT
BRANCH   2   5
HETATM    5  C   UNL     1     -12.279  14.367  64.816  1.00  0.00    -0.458 C  
BRANCH   5   6
HETATM    6  C   UNL     1     -12.603  13.594  66.102  1.00  0.00    -0.391 C  
BRANCH   6   7
HETATM    7  C   UNL     1     -11.488  13.680  67.146  1.00  0.00    -0.367 C  
BRANCH   7   8
HETATM    8  C   UNL     1     -12.033  14.037  68.526  1.00  0.00    -0.383 C  
HETATM    9  C   UNL     1     -11.615  15.428  68.944  1.00  0.00    -0.354 C  
HETATM   10  O   UNL     1     -10.968  16.209  68.266  1.00  0.00    -0.312 OA 
HETATM   11  O   UNL     1     -12.048  15.743  70.187  1.00  0.00    -0.365 OA 
ENDBRANCH   7   8
ENDBRANCH   6   7
ENDBRANCH   5   6
ENDBRANCH   2   5
TORSDOF 4
ENDMDL
MODEL       12
REMARK 921   NORMALIZED FREE ENERGY PREDICTED BY IDOCK:   -3.71 KCAL/MOL
REMARK 922        TOTAL FREE ENERGY PREDICTED BY IDOCK:   -4.66 KCAL/MOL
REMARK 923 INTER-LIGAND FREE ENERGY PREDICTED BY IDOCK:   -4.61 KCAL/MOL
REMARK 924 INTRA-LIGAND FREE ENERGY PREDICTED BY IDOCK:   -0.05 KCAL/MOL
REMARK 927      BINDING AFFINITY PREDICTED BY RF-SCORE:    0.00 PKD
ROOT
HETATM    1  N   UNL     1     -13.981   8.916  73.253  1.00  0.00    -1.217 NA 
HETATM    2  C   UNL     1     -12.833   9.185  72.394  1.00  0.00    -0.367 C  
HETATM    3  H1  UNL     1     -13.729   8.316  74.038  1.00  0.00     0.000 HD 
HETATM    4  H2  UNL     1     -14.760   8.527  72.722  1.00  0.00     0.000 HD 
ENDROOT
BRANCH   2   5
HETATM    5  C   UNL     1     -13.210  10.085  71.215  1.00  0.00    -0.469 C  
BRANCH   5   6
HETATM    6  C   UNL     1     -12.238  11.242  70.944  1.00  0.00    -0.460 C  
BRANCH   6   7
HETATM    7  C   UNL     1     -11.807  11.326  69.479  1.00  0.00    -0.427 C  
BRANCH   7   8
HETATM    8  C   UNL     1     -11.595  12.771  69.034  1.00  0.00    -0.366 C  
HETATM    9  C   UNL     1     -11.810  12.929  67.546  1.00  0.00    -0.351 C  
HETATM   10  O   UNL     1     -12.157  12.046  66.780  1.00  0.00    -0.613 OA 
HETATM   11  O   UNL     1     -11.579  14.194  67.126  1.00  0.00    -0.336 OA 
ENDBRANCH   7   8
ENDBRANCH   6   7
ENDBRANCH   5   6
ENDBRANCH   2   5
TORSDOF 4
ENDMDL
MODEL       13
REMARK 921   NORMALIZED FREE ENERGY PREDICTED BY IDOCK:   -3.70 KCAL/MOL
REMARK 922        TOTAL FREE ENERGY PREDICTED BY IDOCK:   -4.65 KCAL/MOL
REMARK 923 INTER-LIGAND FREE ENERGY PREDICTED BY IDOCK:   -4.50 KCAL/MOL
REMARK 924 INTRA-LIGAND FREE ENERGY PREDICTED BY IDOCK:   -0.15 KCAL/MOL
REMARK 927      BINDING AFFINITY PREDICTED BY RF-SCORE:    0.00 PKD
ROOT
HETATM    1  N   UNL     1     -11.056  11.547  63.063  1.00  0.00    -0.805 NA 
HETATM    2  C   UNL     1     -12.463  11.873  63.264  1.00  0.00    -0.384 C  
HETATM    3  H1  UNL     1     -10.905  11.063  62.178  1.00  0.00     0.000 HD 
HETATM    4  H2  UNL     1     -10.681  11.013  63.848  1.00  0.00     0.000 HD 
ENDROOT
BRANCH   2   5
HETATM    5  C   UNL     1     -12.689  12.599  64.592  1.00  0.00    -0.458 C  
BRANCH   5   6
HETATM    6  C   UNL     1     -11.534  12.488  65.597  1.00  0.00    -0.400 C  
BRANCH   6   7
HETATM    7  C   UNL     1     -10.895  13.840  65.921  1.00  0.00    -0.283 C  
BRANCH   7   8
HETATM    8  C   UNL     1     -11.552  14.977  65.142  1.00  0.00    -0.294 C  
HETATM    9  C   UNL     1     -10.689  16.218  65.142  1.00  0.00    -0.331 C  
HETATM   10  O   UNL     1      -9.584  16.315  65.648  1.00  0.00    -0.466 OA 
HETATM   11  O   UNL     1     -11.278  17.252  64.497  1.00  0.00    -1.083 OA 
ENDBRANCH   7   8
ENDBRANCH   6   7
ENDBRANCH   5   6
ENDBRANCH   2   5
TORSDOF 4
ENDMDL
MODEL       14
REMARK 921   NORMALIZED FREE ENERGY PREDICTED BY IDOCK:   -3.68 KCAL/MOL
REMARK 922        TOTAL FREE ENERGY PREDICTED BY IDOCK:   -4.63 KCAL/MOL
REMARK 923 INTER-LIGAND FREE ENERGY PREDICTED BY IDOCK:   -4.54 KCAL/MOL
REMARK 924 INTRA-LIGAND FREE ENERGY PREDICTED BY IDOCK:   -0.09 KCAL/MOL
REMARK 927      BINDING AFFINITY PREDICTED BY RF-SCORE:    0.00 PKD
ROOT
HETATM    1  N   UNL     1     -13.979   8.969  73.052  1.00  0.00    -1.141 NA 
HETATM    2  C   UNL     1     -13.607   9.415  71.714  1.00  0.00    -0.388 C  
HETATM    3  H1  UNL     1     -14.359   8.022  73.041  1.00  0.00     0.000 HD 
HETATM    4  H2  UNL     1     -14.623   9.623  73.498  1.00  0.00     0.000 HD 
ENDROOT
BRANCH   2   5
HETATM    5  C   UNL     1     -13.037  10.835  71.732  1.00  0.00    -0.573 C  
BRANCH   5   6
HETATM    6  C   UNL     1     -12.071  11.162  70.585  1.00  0.00    -0.477 C  
BRANCH   6   7
HETATM    7  C   UNL     1     -12.015  12.656  70.261  1.00  0.00    -0.363 C  
BRANCH   7   8
HETATM    8  C   UNL     1     -12.726  13.491  71.323  1.00  0.00    -0.432 C  
HETATM    9  C   UNL     1     -12.762  14.954  70.943  1.00  0.00    -0.360 C  
HETATM   10  O   UNL     1     -12.332  15.430  69.906  1.00  0.00    -0.341 OA 
HETATM   11  O   UNL     1     -13.344  15.718  71.897  1.00  0.00    -0.470 OA 
ENDBRANCH   7   8
ENDBRANCH   6   7
ENDBRANCH   5   6
ENDBRANCH   2   5
TORSDOF 4
ENDMDL
MODEL       15
REMARK 921   NORMALIZED FREE ENERGY PREDICTED BY IDOCK:   -3.68 KCAL/MOL
REMARK 922        TOTAL FREE ENERGY PREDICTED BY IDOCK:   -4.62 KCAL/MOL
REMARK 923 INTER-LIGAND FREE ENERGY PREDICTED BY IDOCK:   -4.67 KCAL/MOL
REMARK 924 INTRA-LIGAND FREE ENERGY PREDICTED BY IDOCK:    0.04 KCAL/MOL
REMARK 927      BINDING AFFINITY PREDICTED BY RF-SCORE:    0.00 PKD
ROOT
HETATM    1  N   UNL     1     -11.944  11.056  68.023  1.00  0.00    -0.761 NA 
HETATM    2  C   UNL     1     -11.055  11.826  67.160  1.00  0.00    -0.296 C  
HETATM    3  H1  UNL     1     -11.612  11.040  68.987  1.00  0.00     0.000 HD 
HETATM    4  H2  UNL     1     -12.088  10.112  67.663  1.00  0.00     0.000 HD 
ENDROOT
BRANCH   2   5
HETATM    5  C   UNL     1     -11.554  11.849  65.714  1.00  0.00    -0.281 C  
BRANCH   5   6
HETATM    6  C   UNL     1     -12.648  12.885  65.421  1.00  0.00    -0.440 C  
BRANCH   6   7
HETATM    7  C   UNL     1     -12.120  14.118  64.685  1.00  0.00    -0.469 C  
BRANCH   7   8
HETATM    8  C   UNL     1     -10.991  14.796  65.457  1.00  0.00    -0.350 C  
HETATM    9  C   UNL     1     -10.761  16.209  64.972  1.00  0.00    -0.337 C  
HETATM   10  O   UNL     1     -11.410  16.780  64.112  1.00  0.00    -1.194 OA 
HETATM   11  O   UNL     1      -9.731  16.810  65.612  1.00  0.00    -0.539 OA 
ENDBRANCH   7   8
ENDBRANCH   6   7
ENDBRANCH   5   6
ENDBRANCH   2   5
TORSDOF 4
ENDMDL
MODEL       16
REMARK 921   NORMALIZED FREE ENERGY PREDICTED BY IDOCK:   -3.67 KCAL/MOL
REMARK 922        TOTAL FREE ENERGY PREDICTED BY IDOCK:   -4.62 KCAL/MOL
REMARK 923 INTER-LIGAND FREE ENERGY PREDICTED BY IDOCK:   -4.31 KCAL/MOL
REMARK 924 INTRA-LIGAND FREE ENERGY PREDICTED BY IDOCK:   -0.31 KCAL/MOL
REMARK 927      BINDING AFFINITY PREDICTED BY RF-SCORE:    0.00 PKD
ROOT
HETATM    1  N   UNL     1      -9.680  12.410  63.583  1.00  0.00    -0.671 NA 
HETATM    2  C   UNL     1     -10.782  11.485  63.829  1.00  0.00    -0.408 C  
HETATM    3  H1  UNL     1      -8.775  11.962  63.729  1.00  0.00     0.000 HD 
HETATM    4  H2  UNL     1      -9.773  13.257  64.144  1.00  0.00     0.000 HD 
ENDROOT
BRANCH   2   5
HETATM    5  C   UNL     1     -12.139  12.157  63.609  1.00  0.00    -0.648 C  
BRANCH   5   6
HETATM    6  C   UNL     1     -12.218  13.624  64.052  1.00  0.00    -0.443 C  
BRANCH   6   7
HETATM    7  C   UNL     1     -12.777  13.789  65.467  1.00  0.00    -0.530 C  
BRANCH   7   8
HETATM    8  C   UNL     1     -11.668  14.027  66.488  1.00  0.00    -0.412 C  
HETATM    9  C   UNL     1     -11.430  12.803  67.342  1.00  0.00    -0.340 C  
HETATM   10  O   UNL     1     -12.000  11.731  67.222  1.00  0.00    -0.618 OA 
HETATM   11  O   UNL     1     -10.484  13.012  68.287  1.00  0.00    -0.237 OA 
ENDBRANCH   7   8
ENDBRANCH   6   7
ENDBRANCH   5   6
ENDBRANCH   2   5
TORSDOF 4
ENDMDL
MODEL       17
REMARK 921   NORMALIZED FREE ENERGY PREDICTED BY IDOCK:   -3.66 KCAL/MOL
REMARK 922        TOTAL FREE ENERGY PREDICTED BY IDOCK:   -4.60 KCAL/MOL
REMARK 923 INTER-LIGAND FREE ENERGY PREDICTED BY IDOCK:   -4.58 KCAL/MOL
REMARK 924 INTRA-LIGAND FREE ENERGY PREDICTED BY IDOCK:   -0.03 KCAL/MOL
REMARK 927      BINDING AFFINITY PREDICTED BY RF-SCORE:    0.00 PKD
ROOT
HETATM    1  N   UNL     1     -11.580  12.183  70.080  1.00  0.00    -0.536 NA 
HETATM    2  C   UNL     1     -11.376  11.881  68.668  1.00  0.00    -0.276 C  
HETATM    3  H1  UNL     1     -11.616  11.334  70.644  1.00  0.00     0.000 HD 
HETATM    4  H2  UNL     1     -12.409  12.761  70.222  1.00  0.00     0.000 HD 
ENDROOT
BRANCH   2   5
HETATM    5  C   UNL     1     -11.322  13.155  67.822  1.00  0.00    -0.326 C  
BRANCH   5   6
HETATM    6  C   UNL     1     -11.991  13.050  66.444  1.00  0.00    -0.466 C  
BRANCH   6   7
HETATM    7  C   UNL     1     -11.014  13.276  65.289  1.00  0.00    -0.307 C  
BRANCH   7   8
HETATM    8  C   UNL     1     -10.633  14.748  65.151  1.00  0.00    -0.439 C  
HETATM    9  C   UNL     1     -11.661  15.512  64.347  1.00  0.00    -0.258 C  
HETATM   10  O   UNL     1     -12.696  15.052  63.897  1.00  0.00    -0.775 OA 
HETATM   11  O   UNL     1     -11.314  16.809  64.173  1.00  0.00    -1.194 OA 
ENDBRANCH   7   8
ENDBRANCH   6   7
ENDBRANCH   5   6
ENDBRANCH   2   5
TORSDOF 4
ENDMDL
MODEL       18
REMARK 921   NORMALIZED FREE ENERGY PREDICTED BY IDOCK:   -3.65 KCAL/MOL
REMARK 922        TOTAL FREE ENERGY PREDICTED BY IDOCK:   -4.59 KCAL/MOL
REMARK 923 INTER-LIGAND FREE ENERGY PREDICTED BY IDOCK:   -4.48 KCAL/MOL
REMARK 924 INTRA-LIGAND FREE ENERGY PREDICTED BY IDOCK:   -0.10 KCAL/MOL
REMARK 927      BINDING AFFINITY PREDICTED BY RF-SCORE:    0.00 PKD
ROOT
HETATM    1  N   UNL     1     -11.748  16.371  63.757  1.00  0.00    -1.498 NA 
HETATM    2  C   UNL     1     -10.992  15.606  64.742  1.00  0.00    -0.400 C  
HETATM    3  H1  UNL     1     -11.282  17.248  63.524  1.00  0.00     0.000 HD 
HETATM    4  H2  UNL     1     -12.708  16.530  64.064  1.00  0.00     0.000 HD 
ENDROOT
BRANCH   2   5
HETATM    5  C   UNL     1     -11.692  14.291  65.091  1.00  0.00    -0.368 C  
BRANCH   5   6
HETATM    6  C   UNL     1     -12.190  13.480  63.887  1.00  0.00    -0.458 C  
BRANCH   6   7
HETATM    7  C   UNL     1     -11.212  12.384  63.461  1.00  0.00    -0.540 C  
BRANCH   7   8
HETATM    8  C   UNL     1     -10.811  11.497  64.637  1.00  0.00    -0.372 C  
HETATM    9  C   UNL     1      -9.920  10.359  64.193  1.00  0.00    -0.267 C  
HETATM   10  O   UNL     1      -9.515  10.175  63.058  1.00  0.00    -0.298 OA 
HETATM   11  O   UNL     1      -9.594   9.533  65.215  1.00  0.00    -0.283 OA 
ENDBRANCH   7   8
ENDBRANCH   6   7
ENDBRANCH   5   6
ENDBRANCH   2   5
TORSDOF 4
ENDMDL
MODEL       19
REMARK 921   NORMALIZED FREE ENERGY PREDICTED BY IDOCK:   -3.64 KCAL/MOL
REMARK 922        TOTAL FREE ENERGY PREDICTED BY IDOCK:   -4.58 KCAL/MOL
REMARK 923 INTER-LIGAND FREE ENERGY PREDICTED BY IDOCK:   -4.47 KCAL/MOL
REMARK 924 INTRA-LIGAND FREE ENERGY PREDICTED BY IDOCK:   -0.11 KCAL/MOL
REMARK 927      BINDING AFFINITY PREDICTED BY RF-SCORE:    0.00 PKD
ROOT
HETATM    1  N   UNL     1     -13.678  16.301  73.663  1.00  0.00    -0.812 NA 
HETATM    2  C   UNL     1     -12.273  15.995  73.420  1.00  0.00    -0.525 C  
HETATM    3  H1  UNL     1     -13.904  16.262  74.657  1.00  0.00     0.000 HD 
HETATM    4  H2  UNL     1     -14.292  15.696  73.118  1.00  0.00     0.000 HD 
ENDROOT
BRANCH   2   5
HETATM    5  C   UNL     1     -11.934  16.054  71.929  1.00  0.00    -0.606 C  
BRANCH   5   6
HETATM    6  C   UNL     1     -12.914  15.312  71.010  1.00  0.00    -0.526 C  
BRANCH   6   7
HETATM    7  C   UNL     1     -12.498  13.865  70.740  1.00  0.00    -0.445 C  
BRANCH   7   8
HETATM    8  C   UNL     1     -13.161  12.894  71.714  1.00  0.00    -0.479 C  
HETATM    9  C   UNL     1     -12.794  11.461  71.403  1.00  0.00    -0.397 C  
HETATM   10  O   UNL     1     -12.030  11.098  70.526  1.00  0.00    -0.336 OA 
HETATM   11  O   UNL     1     -13.413  10.583  72.227  1.00  0.00    -0.340 OA 
ENDBRANCH   7   8
ENDBRANCH   6   7
ENDBRANCH   5   6
ENDBRANCH   2   5
TORSDOF 4
ENDMDL
MODEL       20
REMARK 921   NORMALIZED FREE ENERGY PREDICTED BY IDOCK:   -3.63 KCAL/MOL
REMARK 922        TOTAL FREE ENERGY PREDICTED BY IDOCK:   -4.57 KCAL/MOL
REMARK 923 INTER-LIGAND FREE ENERGY PREDICTED BY IDOCK:   -4.45 KCAL/MOL
REMARK 924 INTRA-LIGAND FREE ENERGY PREDICTED BY IDOCK:   -0.12 KCAL/MOL
REMARK 927      BINDING AFFINITY PREDICTED BY RF-SCORE:    0.00 PKD
ROOT
HETATM    1  N   UNL     1     -11.620  16.430  63.942  1.00  0.00    -1.602 NA 
HETATM    2  C   UNL     1     -11.991  15.099  64.410  1.00  0.00    -0.310 C  
HETATM    3  H1  UNL     1     -12.415  16.918  63.529  1.00  0.00     0.000 HD 
HETATM    4  H2  UNL     1     -10.830  16.392  63.298  1.00  0.00     0.000 HD 
ENDROOT
BRANCH   2   5
HETATM    5  C   UNL     1     -10.798  14.369  65.031  1.00  0.00    -0.420 C  
BRANCH   5   6
HETATM    6  C   UNL     1     -10.681  14.493  66.556  1.00  0.00    -0.312 C  
BRANCH   6   7
HETATM    7  C   UNL     1     -12.036  14.424  67.265  1.00  0.00    -0.409 C  
BRANCH   7   8
HETATM    8  C   UNL     1     -11.958  13.612  68.555  1.00  0.00    -0.396 C  
HETATM    9  C   UNL     1     -12.042  14.502  69.774  1.00  0.00    -0.331 C  
HETATM   10  O   UNL     1     -12.201  15.711  69.762  1.00  0.00    -0.360 OA 
HETATM   11  O   UNL     1     -11.924  13.805  70.928  1.00  0.00    -0.312 OA 
ENDBRANCH   7   8
ENDBRANCH   6   7
ENDBRANCH   5   6
ENDBRANCH   2   5
TORSDOF 4
ENDMDL
MODEL       21
REMARK 921   NORMALIZED FREE ENERGY PREDICTED BY IDOCK:   -3.62 KCAL/MOL
REMARK 922        TOTAL FREE ENERGY PREDICTED BY IDOCK:   -4.56 KCAL/MOL
REMARK 923 INTER-LIGAND FREE ENERGY PREDICTED BY IDOCK:   -4.34 KCAL/MOL
REMARK 924 INTRA-LIGAND FREE ENERGY PREDICTED BY IDOCK:   -0.22 KCAL/MOL
REMARK 927      BINDING AFFINITY PREDICTED BY RF-SCORE:    0.00 PKD
ROOT
HETATM    1  N   UNL     1     -11.594  16.236  63.777  1.00  0.00    -1.482 NA 
HETATM    2  C   UNL     1     -11.264  15.223  64.773  1.00  0.00    -0.396 C  
HETATM    3  H1  UNL     1     -10.878  16.961  63.728  1.00  0.00     0.000 HD 
HETATM    4  H2  UNL     1     -12.518  16.636  63.944  1.00  0.00     0.000 HD 
ENDROOT
BRANCH   2   5
HETATM    5  C   UNL     1     -12.338  14.135  64.846  1.00  0.00    -0.446 C  
BRANCH   5   6
HETATM    6  C   UNL     1     -11.805  12.706  65.022  1.00  0.00    -0.439 C  
BRANCH   6   7
HETATM    7  C   UNL     1     -10.909  12.552  66.252  1.00  0.00    -0.299 C  
BRANCH   7   8
HETATM    8  C   UNL     1     -11.725  12.478  67.540  1.00  0.00    -0.439 C  
HETATM    9  C   UNL     1     -11.389  13.618  68.475  1.00  0.00    -0.290 C  
HETATM   10  O   UNL     1     -10.608  14.524  68.238  1.00  0.00    -0.233 OA 
HETATM   11  O   UNL     1     -12.067  13.540  69.643  1.00  0.00    -0.316 OA 
ENDBRANCH   7   8
ENDBRANCH   6   7
ENDBRANCH   5   6
ENDBRANCH   2   5
TORSDOF 4
ENDMDL
MODEL       22
REMARK 921   NORMALIZED FREE ENERGY PREDICTED BY IDOCK:   -3.58 KCAL/MOL
REMARK 922        TOTAL FREE ENERGY PREDICTED BY IDOCK:   -4.50 KCAL/MOL
REMARK 923 INTER-LIGAND FREE ENERGY PREDICTED BY IDOCK:   -4.40 KCAL/MOL
REMARK 924 INTRA-LIGAND FREE ENERGY PREDICTED BY IDOCK:   -0.10 KCAL/MOL
REMARK 927      BINDING AFFINITY PREDICTED BY RF-SCORE:    0.00 PKD
ROOT
HETATM    1  N   UNL     1     -12.477  13.956  63.316  1.00  0.00    -1.112 NA 
HETATM    2  C   UNL     1     -12.287  12.590  63.793  1.00  0.00    -0.502 C  
HETATM    3  H1  UNL     1     -12.483  14.000  62.297  1.00  0.00     0.000 HD 
HETATM    4  H2  UNL     1     -11.783  14.589  63.713  1.00  0.00     0.000 HD 
ENDROOT
BRANCH   2   5
HETATM    5  C   UNL     1     -12.279  12.524  65.321  1.00  0.00    -0.493 C  
BRANCH   5   6
HETATM    6  C   UNL     1     -12.497  13.867  66.031  1.00  0.00    -0.501 C  
BRANCH   6   7
HETATM    7  C   UNL     1     -11.480  14.125  67.144  1.00  0.00    -0.373 C  
BRANCH   7   8
HETATM    8  C   UNL     1     -11.885  13.446  68.449  1.00  0.00    -0.401 C  
HETATM    9  C   UNL     1     -12.072  14.453  69.562  1.00  0.00    -0.322 C  
HETATM   10  O   UNL     1     -11.968  15.662  69.450  1.00  0.00    -0.361 OA 
HETATM   11  O   UNL     1     -12.383  13.864  70.740  1.00  0.00    -0.338 OA 
ENDBRANCH   7   8
ENDBRANCH   6   7
ENDBRANCH   5   6
ENDBRANCH   2   5
TORSDOF 4
ENDMDL
MODEL       23
REMARK 921   NORMALIZED FREE ENERGY PREDICTED BY IDOCK:   -3.57 KCAL/MOL
REMARK 922        TOTAL FREE ENERGY PREDICTED BY IDOCK:   -4.49 KCAL/MOL
REMARK 923 INTER-LIGAND FREE ENERGY PREDICTED BY IDOCK:   -4.39 KCAL/MOL
REMARK 924 INTRA-LIGAND FREE ENERGY PREDICTED BY IDOCK:   -0.10 KCAL/MOL
REMARK 927      BINDING AFFINITY PREDICTED BY RF-SCORE:    0.00 PKD
ROOT
HETATM    1  N   UNL     1     -11.598  16.231  63.915  1.00  0.00    -1.573 NA 
HETATM    2  C   UNL     1     -11.412  15.092  64.807  1.00  0.00    -0.403 C  
HETATM    3  H1  UNL     1     -11.180  17.079  64.297  1.00  0.00     0.000 HD 
HETATM    4  H2  UNL     1     -12.583  16.370  63.689  1.00  0.00     0.000 HD 
ENDROOT
BRANCH   2   5
HETATM    5  C   UNL     1     -12.040  13.819  64.232  1.00  0.00    -0.481 C  
BRANCH   5   6
HETATM    6  C   UNL     1     -12.403  12.748  65.270  1.00  0.00    -0.546 C  
BRANCH   6   7
HETATM    7  C   UNL     1     -11.175  12.117  65.929  1.00  0.00    -0.384 C  
BRANCH   7   8
HETATM    8  C   UNL     1     -10.304  11.382  64.913  1.00  0.00    -0.347 C  
HETATM    9  C   UNL     1     -10.029   9.960  65.346  1.00  0.00    -0.279 C  
HETATM   10  O   UNL     1     -10.474   9.423  66.346  1.00  0.00    -0.204 OA 
HETATM   11  O   UNL     1      -9.217   9.308  64.481  1.00  0.00    -0.172 OA 
ENDBRANCH   7   8
ENDBRANCH   6   7
ENDBRANCH   5   6
ENDBRANCH   2   5
TORSDOF 4
ENDMDL
MODEL       24
REMARK 921   NORMALIZED FREE ENERGY PREDICTED BY IDOCK:   -3.55 KCAL/MOL
REMARK 922        TOTAL FREE ENERGY PREDICTED BY IDOCK:   -4.46 KCAL/MOL
REMARK 923 INTER-LIGAND FREE ENERGY PREDICTED BY IDOCK:   -4.32 KCAL/MOL
REMARK 924 INTRA-LIGAND FREE ENERGY PREDICTED BY IDOCK:   -0.14 KCAL/MOL
REMARK 927      BINDING AFFINITY PREDICTED BY RF-SCORE:    0.00 PKD
ROOT
HETATM    1  N   UNL     1     -11.899  10.920  67.991  1.00  0.00    -0.759 NA 
HETATM    2  C   UNL     1     -10.451  11.075  68.081  1.00  0.00    -0.189 C  
HETATM    3  H1  UNL     1     -12.321  10.797  68.911  1.00  0.00     0.000 HD 
HETATM    4  H2  UNL     1     -12.154  10.161  67.359  1.00  0.00     0.000 HD 
ENDROOT
BRANCH   2   5
HETATM    5  C   UNL     1      -9.818  11.260  66.700  1.00  0.00    -0.235 C  
BRANCH   5   6
HETATM    6  C   UNL     1     -10.497  10.483  65.564  1.00  0.00    -0.220 C  
BRANCH   6   7
HETATM    7  C   UNL     1     -10.337  11.160  64.202  1.00  0.00    -0.423 C  
BRANCH   7   8
HETATM    8  C   UNL     1     -10.710  12.639  64.257  1.00  0.00    -0.409 C  
HETATM    9  C   UNL     1     -12.087  12.884  63.683  1.00  0.00    -0.535 C  
HETATM   10  O   UNL     1     -12.847  12.026  63.267  1.00  0.00    -0.732 OA 
HETATM   11  O   UNL     1     -12.415  14.197  63.680  1.00  0.00    -0.819 OA 
ENDBRANCH   7   8
ENDBRANCH   6   7
ENDBRANCH   5   6
ENDBRANCH   2   5
TORSDOF 4
ENDMDL
MODEL       25
REMARK 921   NORMALIZED FREE ENERGY PREDICTED BY IDOCK:   -3.53 KCAL/MOL
REMARK 922        TOTAL FREE ENERGY PREDICTED BY IDOCK:   -4.45 KCAL/MOL
REMARK 923 INTER-LIGAND FREE ENERGY PREDICTED BY IDOCK:   -4.39 KCAL/MOL
REMARK 924 INTRA-LIGAND FREE ENERGY PREDICTED BY IDOCK:   -0.05 KCAL/MOL
REMARK 927      BINDING AFFINITY PREDICTED BY RF-SCORE:    0.00 PKD
ROOT
HETATM    1  N   UNL     1     -12.403  13.782  63.348  1.00  0.00    -1.100 NA 
HETATM    2  C   UNL     1     -12.239  12.658  64.263  1.00  0.00    -0.445 C  
HETATM    3  H1  UNL     1     -12.522  13.468  62.385  1.00  0.00     0.000 HD 
HETATM    4  H2  UNL     1     -11.633  14.446  63.432  1.00  0.00     0.000 HD 
ENDROOT
BRANCH   2   5
HETATM    5  C   UNL     1     -12.062  13.129  65.708  1.00  0.00    -0.502 C  
BRANCH   5   6
HETATM    6  C   UNL     1     -11.526  12.066  66.677  1.00  0.00    -0.411 C  
BRANCH   6   7
HETATM    7  C   UNL     1     -11.785  12.414  68.144  1.00  0.00    -0.408 C  
BRANCH   7   8
HETATM    8  C   UNL     1     -11.787  11.170  69.028  1.00  0.00    -0.418 C  
HETATM    9  C   UNL     1     -12.071  11.517  70.472  1.00  0.00    -0.378 C  
HETATM   10  O   UNL     1     -12.320  12.632  70.899  1.00  0.00    -0.374 OA 
HETATM   11  O   UNL     1     -12.028  10.431  71.279  1.00  0.00    -0.358 OA 
ENDBRANCH   7   8
ENDBRANCH   6   7
ENDBRANCH   5   6
ENDBRANCH   2   5
TORSDOF 4
ENDMDL
MODEL       26
REMARK 921   NORMALIZED FREE ENERGY PREDICTED BY IDOCK:   -3.53 KCAL/MOL
REMARK 922        TOTAL FREE ENERGY PREDICTED BY IDOCK:   -4.44 KCAL/MOL
REMARK 923 INTER-LIGAND FREE ENERGY PREDICTED BY IDOCK:   -4.29 KCAL/MOL
REMARK 924 INTRA-LIGAND FREE ENERGY PREDICTED BY IDOCK:   -0.16 KCAL/MOL
REMARK 927      BINDING AFFINITY PREDICTED BY RF-SCORE:    0.00 PKD
ROOT
HETATM    1  N   UNL     1     -12.397  14.336  63.476  1.00  0.00    -1.122 NA 
HETATM    2  C   UNL     1     -12.253  12.969  63.964  1.00  0.00    -0.417 C  
HETATM    3  H1  UNL     1     -12.804  14.361  62.542  1.00  0.00     0.000 HD 
HETATM    4  H2  UNL     1     -11.510  14.839  63.509  1.00  0.00     0.000 HD 
ENDROOT
BRANCH   2   5
HETATM    5  C   UNL     1     -11.642  12.933  65.367  1.00  0.00    -0.386 C  
BRANCH   5   6
HETATM    6  C   UNL     1     -12.087  14.069  66.298  1.00  0.00    -0.482 C  
BRANCH   6   7
HETATM    7  C   UNL     1     -10.912  14.780  66.973  1.00  0.00    -0.324 C  
BRANCH   7   8
HETATM    8  C   UNL     1     -10.273  15.815  66.050  1.00  0.00    -0.352 C  
HETATM    9  C   UNL     1     -10.361  17.206  66.635  1.00  0.00    -0.310 C  
HETATM   10  O   UNL     1     -10.831  17.491  67.723  1.00  0.00    -0.368 OA 
HETATM   11  O   UNL     1      -9.843  18.144  65.807  1.00  0.00    -0.527 OA 
ENDBRANCH   7   8
ENDBRANCH   6   7
ENDBRANCH   5   6
ENDBRANCH   2   5
TORSDOF 4
ENDMDL
MODEL       27
REMARK 921   NORMALIZED FREE ENERGY PREDICTED BY IDOCK:   -3.53 KCAL/MOL
REMARK 922        TOTAL FREE ENERGY PREDICTED BY IDOCK:   -4.44 KCAL/MOL
REMARK 923 INTER-LIGAND FREE ENERGY PREDICTED BY IDOCK:   -4.35 KCAL/MOL
REMARK 924 INTRA-LIGAND FREE ENERGY PREDICTED BY IDOCK:   -0.09 KCAL/MOL
REMARK 927      BINDING AFFINITY PREDICTED BY RF-SCORE:    0.00 PKD
ROOT
HETATM    1  N   UNL     1      -7.571  19.027  68.859  1.00  0.00    -0.336 NA 
HETATM    2  C   UNL     1      -8.411  19.629  67.829  1.00  0.00    -0.310 C  
HETATM    3  H1  UNL     1      -6.601  18.950  68.554  1.00  0.00     0.000 HD 
HETATM    4  H2  UNL     1      -7.940  18.125  69.161  1.00  0.00     0.000 HD 
ENDROOT
BRANCH   2   5
HETATM    5  C   UNL     1      -9.867  19.744  68.286  1.00  0.00    -0.537 C  
BRANCH   5   6
HETATM    6  C   UNL     1     -10.895  19.094  67.351  1.00  0.00    -0.533 C  
BRANCH   6   7
HETATM    7  C   UNL     1     -10.256  18.438  66.126  1.00  0.00    -0.408 C  
BRANCH   7   8
HETATM    8  C   UNL     1     -10.154  16.923  66.285  1.00  0.00    -0.335 C  
HETATM    9  C   UNL     1     -10.835  16.200  65.145  1.00  0.00    -0.361 C  
HETATM   10  O   UNL     1     -11.363  16.730  64.182  1.00  0.00    -1.194 OA 
HETATM   11  O   UNL     1     -10.798  14.856  65.294  1.00  0.00    -0.334 OA 
ENDBRANCH   7   8
ENDBRANCH   6   7
ENDBRANCH   5   6
ENDBRANCH   2   5
TORSDOF 4
ENDMDL
MODEL       28
REMARK 921   NORMALIZED FREE ENERGY PREDICTED BY IDOCK:   -3.52 KCAL/MOL
REMARK 922        TOTAL FREE ENERGY PREDICTED BY IDOCK:   -4.42 KCAL/MOL
REMARK 923 INTER-LIGAND FREE ENERGY PREDICTED BY IDOCK:   -4.31 KCAL/MOL
REMARK 924 INTRA-LIGAND FREE ENERGY PREDICTED BY IDOCK:   -0.11 KCAL/MOL
REMARK 927      BINDING AFFINITY PREDICTED BY RF-SCORE:    0.00 PKD
ROOT
HETATM    1  N   UNL     1     -10.896  14.746  70.310  1.00  0.00    -0.477 NA 
HETATM    2  C   UNL     1     -10.979  16.121  69.828  1.00  0.00    -0.349 C  
HETATM    3  H1  UNL     1     -10.967  14.699  71.326  1.00  0.00     0.000 HD 
HETATM    4  H2  UNL     1     -10.051  14.284  69.973  1.00  0.00     0.000 HD 
ENDROOT
BRANCH   2   5
HETATM    5  C   UNL     1     -10.873  16.191  68.303  1.00  0.00    -0.326 C  
BRANCH   5   6
HETATM    6  C   UNL     1      -9.913  15.174  67.672  1.00  0.00    -0.229 C  
BRANCH   6   7
HETATM    7  C   UNL     1      -9.752  15.364  66.162  1.00  0.00    -0.347 C  
BRANCH   7   8
HETATM    8  C   UNL     1     -10.845  14.638  65.382  1.00  0.00    -0.365 C  
HETATM    9  C   UNL     1     -11.569  15.575  64.442  1.00  0.00    -0.258 C  
HETATM   10  O   UNL     1     -11.305  16.753  64.270  1.00  0.00    -1.170 OA 
HETATM   11  O   UNL     1     -12.574  14.958  63.777  1.00  0.00    -0.791 OA 
ENDBRANCH   7   8
ENDBRANCH   6   7
ENDBRANCH   5   6
ENDBRANCH   2   5
TORSDOF 4
ENDMDL
MODEL       29
REMARK 921   NORMALIZED FREE ENERGY PREDICTED BY IDOCK:   -3.51 KCAL/MOL
REMARK 922        TOTAL FREE ENERGY PREDICTED BY IDOCK:   -4.42 KCAL/MOL
REMARK 923 INTER-LIGAND FREE ENERGY PREDICTED BY IDOCK:   -4.11 KCAL/MOL
REMARK 924 INTRA-LIGAND FREE ENERGY PREDICTED BY IDOCK:   -0.30 KCAL/MOL
REMARK 927      BINDING AFFINITY PREDICTED BY RF-SCORE:    0.00 PKD
ROOT
HETATM    1  N   UNL     1     -12.242  14.980  68.527  1.00  0.00    -0.602 NA 
HETATM    2  C   UNL     1     -11.669  13.798  69.162  1.00  0.00    -0.334 C  
HETATM    3  H1  UNL     1     -12.211  15.790  69.145  1.00  0.00     0.000 HD 
HETATM    4  H2  UNL     1     -13.190  14.801  68.194  1.00  0.00     0.000 HD 
ENDROOT
BRANCH   2   5
HETATM    5  C   UNL     1     -11.716  12.582  68.233  1.00  0.00    -0.390 C  
BRANCH   5   6
HETATM    6  C   UNL     1     -10.761  12.644  67.033  1.00  0.00    -0.268 C  
BRANCH   6   7
HETATM    7  C   UNL     1     -11.396  12.133  65.739  1.00  0.00    -0.402 C  
BRANCH   7   8
HETATM    8  C   UNL     1     -11.361  13.188  64.637  1.00  0.00    -0.363 C  
HETATM    9  C   UNL     1     -12.551  14.117  64.722  1.00  0.00    -0.302 C  
HETATM   10  O   UNL     1     -13.418  14.084  65.579  1.00  0.00    -0.677 OA 
HETATM   11  O   UNL     1     -12.563  15.029  63.723  1.00  0.00    -0.776 OA 
ENDBRANCH   7   8
ENDBRANCH   6   7
ENDBRANCH   5   6
ENDBRANCH   2   5
TORSDOF 4
ENDMDL
MODEL       30
REMARK 921   NORMALIZED FREE ENERGY PREDICTED BY IDOCK:   -3.50 KCAL/MOL
REMARK 922        TOTAL FREE ENERGY PREDICTED BY IDOCK:   -4.40 KCAL/MOL
REMARK 923 INTER-LIGAND FREE ENERGY PREDICTED BY IDOCK:   -4.26 KCAL/MOL
REMARK 924 INTRA-LIGAND FREE ENERGY PREDICTED BY IDOCK:   -0.14 KCAL/MOL
REMARK 927      BINDING AFFINITY PREDICTED BY RF-SCORE:    0.00 PKD
ROOT
HETATM    1  N   UNL     1     -12.242  11.042  68.507  1.00  0.00    -0.781 NA 
HETATM    2  C   UNL     1     -11.343  12.182  68.654  1.00  0.00    -0.280 C  
HETATM    3  H1  UNL     1     -11.864  10.206  68.951  1.00  0.00     0.000 HD 
HETATM    4  H2  UNL     1     -12.471  10.873  67.527  1.00  0.00     0.000 HD 
ENDROOT
BRANCH   2   5
HETATM    5  C   UNL     1     -11.911  13.437  67.988  1.00  0.00    -0.357 C  
BRANCH   5   6
HETATM    6  C   UNL     1     -10.990  14.664  68.022  1.00  0.00    -0.274 C  
BRANCH   6   7
HETATM    7  C   UNL     1     -10.130  14.798  66.764  1.00  0.00    -0.258 C  
BRANCH   7   8
HETATM    8  C   UNL     1     -10.529  16.015  65.934  1.00  0.00    -0.373 C  
HETATM    9  C   UNL     1     -11.265  15.610  64.677  1.00  0.00    -0.369 C  
HETATM   10  O   UNL     1     -11.560  14.469  64.363  1.00  0.00    -0.369 OA 
HETATM   11  O   UNL     1     -11.583  16.674  63.903  1.00  0.00    -1.204 OA 
ENDBRANCH   7   8
ENDBRANCH   6   7
ENDBRANCH   5   6
ENDBRANCH   2   5
TORSDOF 4
ENDMDL
MODEL       31
REMARK 921   NORMALIZED FREE ENERGY PREDICTED BY IDOCK:   -3.49 KCAL/MOL
REMARK 922        TOTAL FREE ENERGY PREDICTED BY IDOCK:   -4.40 KCAL/MOL
REMARK 923 INTER-LIGAND FREE ENERGY PREDICTED BY IDOCK:   -3.99 KCAL/MOL
REMARK 924 INTRA-LIGAND FREE ENERGY PREDICTED BY IDOCK:   -0.41 KCAL/MOL
REMARK 927      BINDING AFFINITY PREDICTED BY RF-SCORE:    0.00 PKD
ROOT
HETATM    1  N   UNL     1     -12.368  14.696  68.180  1.00  0.00    -0.592 NA 
HETATM    2  C   UNL     1     -10.913  14.781  68.130  1.00  0.00    -0.268 C  
HETATM    3  H1  UNL     1     -12.681  13.997  68.854  1.00  0.00     0.000 HD 
HETATM    4  H2  UNL     1     -12.764  14.526  67.256  1.00  0.00     0.000 HD 
ENDROOT
BRANCH   2   5
HETATM    5  C   UNL     1     -10.444  15.830  67.120  1.00  0.00    -0.309 C  
BRANCH   5   6
HETATM    6  C   UNL     1      -9.933  15.266  65.787  1.00  0.00    -0.391 C  
BRANCH   6   7
HETATM    7  C   UNL     1     -10.100  13.750  65.679  1.00  0.00    -0.315 C  
BRANCH   7   8
HETATM    8  C   UNL     1     -10.694  13.341  64.333  1.00  0.00    -0.432 C  
HETATM    9  C   UNL     1     -12.205  13.325  64.377  1.00  0.00    -0.390 C  
HETATM   10  O   UNL     1     -12.891  13.640  65.334  1.00  0.00    -0.634 OA 
HETATM   11  O   UNL     1     -12.748  12.917  63.206  1.00  0.00    -0.660 OA 
ENDBRANCH   7   8
ENDBRANCH   6   7
ENDBRANCH   5   6
ENDBRANCH   2   5
TORSDOF 4
ENDMDL
MODEL       32
REMARK 921   NORMALIZED FREE ENERGY PREDICTED BY IDOCK:   -3.49 KCAL/MOL
REMARK 922        TOTAL FREE ENERGY PREDICTED BY IDOCK:   -4.39 KCAL/MOL
REMARK 923 INTER-LIGAND FREE ENERGY PREDICTED BY IDOCK:   -4.32 KCAL/MOL
REMARK 924 INTRA-LIGAND FREE ENERGY PREDICTED BY IDOCK:   -0.08 KCAL/MOL
REMARK 927      BINDING AFFINITY PREDICTED BY RF-SCORE:    0.00 PKD
ROOT
HETATM    1  N   UNL     1     -13.361  16.290  73.877  1.00  0.00    -0.906 NA 
HETATM    2  C   UNL     1     -12.298  15.300  73.742  1.00  0.00    -0.605 C  
HETATM    3  H1  UNL     1     -13.259  16.837  74.732  1.00  0.00     0.000 HD 
HETATM    4  H2  UNL     1     -14.283  15.858  73.818  1.00  0.00     0.000 HD 
ENDROOT
BRANCH   2   5
HETATM    5  C   UNL     1     -12.451  14.481  72.459  1.00  0.00    -0.340 C  
BRANCH   5   6
HETATM    6  C   UNL     1     -12.989  15.260  71.251  1.00  0.00    -0.511 C  
BRANCH   6   7
HETATM    7  C   UNL     1     -12.061  15.193  70.037  1.00  0.00    -0.384 C  
BRANCH   7   8
HETATM    8  C   UNL     1     -11.971  13.778  69.471  1.00  0.00    -0.399 C  
HETATM    9  C   UNL     1     -11.975  13.785  67.960  1.00  0.00    -0.355 C  
HETATM   10  O   UNL     1     -11.996  14.779  67.254  1.00  0.00    -0.362 OA 
HETATM   11  O   UNL     1     -11.946  12.536  67.441  1.00  0.00    -0.456 OA 
ENDBRANCH   7   8
ENDBRANCH   6   7
ENDBRANCH   5   6
ENDBRANCH   2   5
TORSDOF 4
ENDMDL
MODEL       33
REMARK 921   NORMALIZED FREE ENERGY PREDICTED BY IDOCK:   -3.49 KCAL/MOL
REMARK 922        TOTAL FREE ENERGY PREDICTED BY IDOCK:   -4.39 KCAL/MOL
REMARK 923 INTER-LIGAND FREE ENERGY PREDICTED BY IDOCK:   -4.33 KCAL/MOL
REMARK 924 INTRA-LIGAND FREE ENERGY PREDICTED BY IDOCK:   -0.06 KCAL/MOL
REMARK 927      BINDING AFFINITY PREDICTED BY RF-SCORE:    0.00 PKD
ROOT
HETATM    1  N   UNL     1     -13.184  15.676  70.354  1.00  0.00    -0.748 NA 
HETATM    2  C   UNL     1     -11.824  15.149  70.339  1.00  0.00    -0.307 C  
HETATM    3  H1  UNL     1     -13.269  16.479  70.978  1.00  0.00     0.000 HD 
HETATM    4  H2  UNL     1     -13.863  14.951  70.586  1.00  0.00     0.000 HD 
ENDROOT
BRANCH   2   5
HETATM    5  C   UNL     1     -11.697  13.945  69.403  1.00  0.00    -0.367 C  
BRANCH   5   6
HETATM    6  C   UNL     1     -11.619  14.289  67.909  1.00  0.00    -0.367 C  
BRANCH   6   7
HETATM    7  C   UNL     1     -11.750  13.060  67.008  1.00  0.00    -0.441 C  
BRANCH   7   8
HETATM    8  C   UNL     1     -12.590  13.356  65.768  1.00  0.00    -0.455 C  
HETATM    9  C   UNL     1     -11.741  13.899  64.641  1.00  0.00    -0.397 C  
HETATM   10  O   UNL     1     -10.532  14.047  64.670  1.00  0.00    -0.434 OA 
HETATM   11  O   UNL     1     -12.478  14.213  63.550  1.00  0.00    -0.817 OA 
ENDBRANCH   7   8
ENDBRANCH   6   7
ENDBRANCH   5   6
ENDBRANCH   2   5
TORSDOF 4
ENDMDL
MODEL       34
REMARK 921   NORMALIZED FREE ENERGY PREDICTED BY IDOCK:   -3.46 KCAL/MOL
REMARK 922        TOTAL FREE ENERGY PREDICTED BY IDOCK:   -4.36 KCAL/MOL
REMARK 923 INTER-LIGAND FREE ENERGY PREDICTED BY IDOCK:   -4.23 KCAL/MOL
REMARK 924 INTRA-LIGAND FREE ENERGY PREDICTED BY IDOCK:   -0.13 KCAL/MOL
REMARK 927      BINDING AFFINITY PREDICTED BY RF-SCORE:    0.00 PKD
ROOT
HETATM    1  N   UNL     1     -12.085  10.915  68.395  1.00  0.00    -0.818 NA 
HETATM    2  C   UNL     1     -11.937  12.350  68.611  1.00  0.00    -0.225 C  
HETATM    3  H1  UNL     1     -12.187  10.411  69.276  1.00  0.00     0.000 HD 
HETATM    4  H2  UNL     1     -11.316  10.540  67.839  1.00  0.00     0.000 HD 
ENDROOT
BRANCH   2   5
HETATM    5  C   UNL     1     -11.785  13.105  67.288  1.00  0.00    -0.425 C  
BRANCH   5   6
HETATM    6  C   UNL     1     -11.495  12.223  66.066  1.00  0.00    -0.434 C  
BRANCH   6   7
HETATM    7  C   UNL     1     -10.723  12.959  64.970  1.00  0.00    -0.326 C  
BRANCH   7   8
HETATM    8  C   UNL     1     -11.576  14.033  64.300  1.00  0.00    -0.348 C  
HETATM    9  C   UNL     1     -10.979  15.409  64.486  1.00  0.00    -0.203 C  
HETATM   10  O   UNL     1      -9.926  15.657  65.049  1.00  0.00    -0.362 OA 
HETATM   11  O   UNL     1     -11.749  16.380  63.941  1.00  0.00    -1.085 OA 
ENDBRANCH   7   8
ENDBRANCH   6   7
ENDBRANCH   5   6
ENDBRANCH   2   5
TORSDOF 4
ENDMDL
MODEL       35
REMARK 921   NORMALIZED FREE ENERGY PREDICTED BY IDOCK:   -3.46 KCAL/MOL
REMARK 922        TOTAL FREE ENERGY PREDICTED BY IDOCK:   -4.36 KCAL/MOL
REMARK 923 INTER-LIGAND FREE ENERGY PREDICTED BY IDOCK:   -4.25 KCAL/MOL
REMARK 924 INTRA-LIGAND FREE ENERGY PREDICTED BY IDOCK:   -0.11 KCAL/MOL
REMARK 927      BINDING AFFINITY PREDICTED BY RF-SCORE:    0.00 PKD
ROOT
HETATM    1  N   UNL     1     -10.653  10.176  70.597  1.00  0.00    -0.404 NA 
HETATM    2  C   UNL     1     -11.777  10.758  69.872  1.00  0.00    -0.333 C  
HETATM    3  H1  UNL     1     -10.340   9.305  70.168  1.00  0.00     0.000 HD 
HETATM    4  H2  UNL     1     -10.873  10.047  71.585  1.00  0.00     0.000 HD 
ENDROOT
BRANCH   2   5
HETATM    5  C   UNL     1     -12.246  12.065  70.515  1.00  0.00    -0.414 C  
BRANCH   5   6
HETATM    6  C   UNL     1     -13.036  11.900  71.821  1.00  0.00    -0.465 C  
BRANCH   6   7
HETATM    7  C   UNL     1     -13.615  13.218  72.337  1.00  0.00    -0.694 C  
BRANCH   7   8
HETATM    8  C   UNL     1     -12.909  14.424  71.724  1.00  0.00    -0.423 C  
HETATM    9  C   UNL     1     -12.396  15.365  72.791  1.00  0.00    -0.407 C  
HETATM   10  O   UNL     1     -12.476  15.187  73.994  1.00  0.00    -0.575 OA 
HETATM   11  O   UNL     1     -11.810  16.466  72.264  1.00  0.00    -0.534 OA 
ENDBRANCH   7   8
ENDBRANCH   6   7
ENDBRANCH   5   6
ENDBRANCH   2   5
TORSDOF 4
ENDMDL
MODEL       36
REMARK 921   NORMALIZED FREE ENERGY PREDICTED BY IDOCK:   -3.45 KCAL/MOL
REMARK 922        TOTAL FREE ENERGY PREDICTED BY IDOCK:   -4.34 KCAL/MOL
REMARK 923 INTER-LIGAND FREE ENERGY PREDICTED BY IDOCK:   -4.25 KCAL/MOL
REMARK 924 INTRA-LIGAND FREE ENERGY PREDICTED BY IDOCK:   -0.09 KCAL/MOL
REMARK 927      BINDING AFFINITY PREDICTED BY RF-SCORE:    0.00 PKD
ROOT
HETATM    1  N   UNL     1     -11.728  16.123  63.768  1.00  0.00    -1.406 NA 
HETATM    2  C   UNL     1     -12.303  15.046  64.567  1.00  0.00    -0.262 C  
HETATM    3  H1  UNL     1     -11.942  17.039  64.162  1.00  0.00     0.000 HD 
HETATM    4  H2  UNL     1     -12.018  16.059  62.792  1.00  0.00     0.000 HD 
ENDROOT
BRANCH   2   5
HETATM    5  C   UNL     1     -11.981  13.672  63.975  1.00  0.00    -0.478 C  
BRANCH   5   6
HETATM    6  C   UNL     1     -10.570  13.149  64.279  1.00  0.00    -0.432 C  
BRANCH   6   7
HETATM    7  C   UNL     1     -10.376  12.780  65.751  1.00  0.00    -0.297 C  
BRANCH   7   8
HETATM    8  C   UNL     1     -10.127  11.285  65.930  1.00  0.00    -0.291 C  
HETATM    9  C   UNL     1     -10.994  10.708  67.027  1.00  0.00    -0.208 C  
HETATM   10  O   UNL     1     -11.829  11.321  67.669  1.00  0.00    -0.614 OA 
HETATM   11  O   UNL     1     -10.751   9.392  67.233  1.00  0.00    -0.267 OA 
ENDBRANCH   7   8
ENDBRANCH   6   7
ENDBRANCH   5   6
ENDBRANCH   2   5
TORSDOF 4
ENDMDL
MODEL       37
REMARK 921   NORMALIZED FREE ENERGY PREDICTED BY IDOCK:   -3.45 KCAL/MOL
REMARK 922        TOTAL FREE ENERGY PREDICTED BY IDOCK:   -4.34 KCAL/MOL
REMARK 923 INTER-LIGAND FREE ENERGY PREDICTED BY IDOCK:   -4.21 KCAL/MOL
REMARK 924 INTRA-LIGAND FREE ENERGY PREDICTED BY IDOCK:   -0.13 KCAL/MOL
REMARK 927      BINDING AFFINITY PREDICTED BY RF-SCORE:    0.00 PKD
ROOT
HETATM    1  N   UNL     1     -12.305  14.968  69.007  1.00  0.00    -0.590 NA 
HETATM    2  C   UNL     1     -11.615  13.708  68.752  1.00  0.00    -0.324 C  
HETATM    3  H1  UNL     1     -12.445  15.125  70.005  1.00  0.00     0.000 HD 
HETATM    4  H2  UNL     1     -13.185  15.022  68.494  1.00  0.00     0.000 HD 
ENDROOT
BRANCH   2   5
HETATM    5  C   UNL     1     -11.405  13.474  67.255  1.00  0.00    -0.339 C  
BRANCH   5   6
HETATM    6  C   UNL     1     -11.309  14.749  66.405  1.00  0.00    -0.339 C  
BRANCH   6   7
HETATM    7  C   UNL     1     -10.652  14.509  65.044  1.00  0.00    -0.458 C  
BRANCH   7   8
HETATM    8  C   UNL     1     -10.880  13.083  64.550  1.00  0.00    -0.390 C  
HETATM    9  C   UNL     1     -12.062  13.005  63.612  1.00  0.00    -0.531 C  
HETATM   10  O   UNL     1     -12.737  13.950  63.239  1.00  0.00    -0.775 OA 
HETATM   11  O   UNL     1     -12.309  11.739  63.202  1.00  0.00    -0.465 OA 
ENDBRANCH   7   8
ENDBRANCH   6   7
ENDBRANCH   5   6
ENDBRANCH   2   5
TORSDOF 4
ENDMDL
MODEL       38
REMARK 921   NORMALIZED FREE ENERGY PREDICTED BY IDOCK:   -3.44 KCAL/MOL
REMARK 922        TOTAL FREE ENERGY PREDICTED BY IDOCK:   -4.33 KCAL/MOL
REMARK 923 INTER-LIGAND FREE ENERGY PREDICTED BY IDOCK:   -4.26 KCAL/MOL
REMARK 924 INTRA-LIGAND FREE ENERGY PREDICTED BY IDOCK:   -0.07 KCAL/MOL
REMARK 927      BINDING AFFINITY PREDICTED BY RF-SCORE:    0.00 PKD
ROOT
HETATM    1  N   UNL     1     -11.717   6.652  69.369  1.00  0.00    -0.648 NA 
HETATM    2  C   UNL     1     -11.485   6.824  70.799  1.00  0.00    -0.342 C  
HETATM    3  H1  UNL     1     -11.133   5.911  68.980  1.00  0.00     0.000 HD 
HETATM    4  H2  UNL     1     -11.593   7.529  68.863  1.00  0.00     0.000 HD 
ENDROOT
BRANCH   2   5
HETATM    5  C   UNL     1     -12.361   7.935  71.382  1.00  0.00    -0.334 C  
BRANCH   5   6
HETATM    6  C   UNL     1     -11.610   9.210  71.787  1.00  0.00    -0.457 C  
BRANCH   6   7
HETATM    7  C   UNL     1     -12.156  10.466  71.105  1.00  0.00    -0.487 C  
BRANCH   7   8
HETATM    8  C   UNL     1     -13.261  11.122  71.929  1.00  0.00    -0.488 C  
HETATM    9  C   UNL     1     -13.202  12.629  71.833  1.00  0.00    -0.403 C  
HETATM   10  O   UNL     1     -12.417  13.268  71.153  1.00  0.00    -0.363 OA 
HETATM   11  O   UNL     1     -14.144  13.229  72.597  1.00  0.00    -0.744 OA 
ENDBRANCH   7   8
ENDBRANCH   6   7
ENDBRANCH   5   6
ENDBRANCH   2   5
TORSDOF 4
ENDMDL
MODEL       39
REMARK 921   NORMALIZED FREE ENERGY PREDICTED BY IDOCK:   -3.43 KCAL/MOL
REMARK 922        TOTAL FREE ENERGY PREDICTED BY IDOCK:   -4.31 KCAL/MOL
REMARK 923 INTER-LIGAND FREE ENERGY PREDICTED BY IDOCK:   -4.26 KCAL/MOL
REMARK 924 INTRA-LIGAND FREE ENERGY PREDICTED BY IDOCK:   -0.05 KCAL/MOL
REMARK 927      BINDING AFFINITY PREDICTED BY RF-SCORE:    0.00 PKD
ROOT
HETATM    1  N   UNL     1     -12.347  13.765  63.189  1.00  0.00    -1.106 NA 
HETATM    2  C   UNL     1     -12.104  14.317  64.517  1.00  0.00    -0.480 C  
HETATM    3  H1  UNL     1     -11.989  14.377  62.456  1.00  0.00     0.000 HD 
HETATM    4  H2  UNL     1     -13.336  13.555  63.048  1.00  0.00     0.000 HD 
ENDROOT
BRANCH   2   5
HETATM    5  C   UNL     1     -12.641  13.398  65.616  1.00  0.00    -0.496 C  
BRANCH   5   6
HETATM    6  C   UNL     1     -11.727  13.243  66.839  1.00  0.00    -0.437 C  
BRANCH   6   7
HETATM    7  C   UNL     1     -11.973  14.312  67.905  1.00  0.00    -0.364 C  
BRANCH   7   8
HETATM    8  C   UNL     1     -11.961  13.720  69.312  1.00  0.00    -0.399 C  
HETATM    9  C   UNL     1     -12.329  14.755  70.351  1.00  0.00    -0.344 C  
HETATM   10  O   UNL     1     -12.647  15.910  70.122  1.00  0.00    -0.297 OA 
HETATM   11  O   UNL     1     -12.276  14.260  71.609  1.00  0.00    -0.340 OA 
ENDBRANCH   7   8
ENDBRANCH   6   7
ENDBRANCH   5   6
ENDBRANCH   2   5
TORSDOF 4
ENDMDL
MODEL       40
REMARK 921   NORMALIZED FREE ENERGY PREDICTED BY IDOCK:   -3.39 KCAL/MOL
REMARK 922        TOTAL FREE ENERGY PREDICTED BY IDOCK:   -4.27 KCAL/MOL
REMARK 923 INTER-LIGAND FREE ENERGY PREDICTED BY IDOCK:   -4.22 KCAL/MOL
REMARK 924 INTRA-LIGAND FREE ENERGY PREDICTED BY IDOCK:   -0.05 KCAL/MOL
REMARK 927      BINDING AFFINITY PREDICTED BY RF-SCORE:    0.00 PKD
ROOT
HETATM    1  N   UNL     1     -12.477  13.864  63.217  1.00  0.00    -1.112 NA 
HETATM    2  C   UNL     1     -12.077  14.609  64.406  1.00  0.00    -0.462 C  
HETATM    3  H1  UNL     1     -12.157  14.321  62.363  1.00  0.00     0.000 HD 
HETATM    4  H2  UNL     1     -13.484  13.703  63.199  1.00  0.00     0.000 HD 
ENDROOT
BRANCH   2   5
HETATM    5  C   UNL     1     -12.556  13.922  65.687  1.00  0.00    -0.553 C  
BRANCH   5   6
HETATM    6  C   UNL     1     -11.905  14.433  66.980  1.00  0.00    -0.437 C  
BRANCH   6   7
HETATM    7  C   UNL     1     -11.711  13.332  68.024  1.00  0.00    -0.394 C  
BRANCH   7   8
HETATM    8  C   UNL     1     -12.227  13.757  69.396  1.00  0.00    -0.325 C  
HETATM    9  C   UNL     1     -12.227  12.600  70.370  1.00  0.00    -0.288 C  
HETATM   10  O   UNL     1     -11.826  11.473  70.134  1.00  0.00    -0.326 OA 
HETATM   11  O   UNL     1     -12.729  12.947  71.578  1.00  0.00    -0.325 OA 
ENDBRANCH   7   8
ENDBRANCH   6   7
ENDBRANCH   5   6
ENDBRANCH   2   5
TORSDOF 4
ENDMDL
MODEL       41
REMARK 921   NORMALIZED FREE ENERGY PREDICTED BY IDOCK:   -3.38 KCAL/MOL
REMARK 922        TOTAL FREE ENERGY PREDICTED BY IDOCK:   -4.26 KCAL/MOL
REMARK 923 INTER-LIGAND FREE ENERGY PREDICTED BY IDOCK:   -4.20 KCAL/MOL
REMARK 924 INTRA-LIGAND FREE ENERGY PREDICTED BY IDOCK:   -0.06 KCAL/MOL
REMARK 927      BINDING AFFINITY PREDICTED BY RF-SCORE:    0.00 PKD
ROOT
HETATM    1  N   UNL     1     -12.916  11.689  62.844  1.00  0.00    -0.792 NA 
HETATM    2  C   UNL     1     -11.904  12.468  63.549  1.00  0.00    -0.534 C  
HETATM    3  H1  UNL     1     -12.741  11.666  61.840  1.00  0.00     0.000 HD 
HETATM    4  H2  UNL     1     -13.857  12.025  63.051  1.00  0.00     0.000 HD 
ENDROOT
BRANCH   2   5
HETATM    5  C   UNL     1     -12.167  12.500  65.056  1.00  0.00    -0.519 C  
BRANCH   5   6
HETATM    6  C   UNL     1     -12.483  13.888  65.631  1.00  0.00    -0.538 C  
BRANCH   6   7
HETATM    7  C   UNL     1     -11.876  14.110  67.018  1.00  0.00    -0.458 C  
BRANCH   7   8
HETATM    8  C   UNL     1     -11.091  15.417  67.088  1.00  0.00    -0.291 C  
HETATM    9  C   UNL     1     -11.263  16.094  68.429  1.00  0.00    -0.358 C  
HETATM   10  O   UNL     1     -11.899  15.653  69.371  1.00  0.00    -0.355 OA 
HETATM   11  O   UNL     1     -10.613  17.280  68.493  1.00  0.00    -0.354 OA 
ENDBRANCH   7   8
ENDBRANCH   6   7
ENDBRANCH   5   6
ENDBRANCH   2   5
TORSDOF 4
ENDMDL
MODEL       42
REMARK 921   NORMALIZED FREE ENERGY PREDICTED BY IDOCK:   -3.38 KCAL/MOL
REMARK 922        TOTAL FREE ENERGY PREDICTED BY IDOCK:   -4.25 KCAL/MOL
REMARK 923 INTER-LIGAND FREE ENERGY PREDICTED BY IDOCK:   -4.12 KCAL/MOL
REMARK 924 INTRA-LIGAND FREE ENERGY PREDICTED BY IDOCK:   -0.14 KCAL/MOL
REMARK 927      BINDING AFFINITY PREDICTED BY RF-SCORE:    0.00 PKD
ROOT
HETATM    1  N   UNL     1     -10.164  10.782  62.710  1.00  0.00    -0.773 NA 
HETATM    2  C   UNL     1     -10.568  11.910  63.542  1.00  0.00    -0.453 C  
HETATM    3  H1  UNL     1      -9.171  10.573  62.818  1.00  0.00     0.000 HD 
HETATM    4  H2  UNL     1     -10.408  10.935  61.731  1.00  0.00     0.000 HD 
ENDROOT
BRANCH   2   5
HETATM    5  C   UNL     1     -12.057  12.223  63.379  1.00  0.00    -0.615 C  
BRANCH   5   6
HETATM    6  C   UNL     1     -12.772  12.666  64.664  1.00  0.00    -0.458 C  
BRANCH   6   7
HETATM    7  C   UNL     1     -11.859  12.644  65.891  1.00  0.00    -0.499 C  
BRANCH   7   8
HETATM    8  C   UNL     1     -12.026  13.901  66.742  1.00  0.00    -0.472 C  
HETATM    9  C   UNL     1     -10.691  14.538  67.053  1.00  0.00    -0.291 C  
HETATM   10  O   UNL     1      -9.607  14.151  66.650  1.00  0.00    -0.268 OA 
HETATM   11  O   UNL     1     -10.815  15.627  67.848  1.00  0.00    -0.288 OA 
ENDBRANCH   7   8
ENDBRANCH   6   7
ENDBRANCH   5   6
ENDBRANCH   2   5
TORSDOF 4
ENDMDL
MODEL       43
REMARK 921   NORMALIZED FREE ENERGY PREDICTED BY IDOCK:   -3.38 KCAL/MOL
REMARK 922        TOTAL FREE ENERGY PREDICTED BY IDOCK:   -4.25 KCAL/MOL
REMARK 923 INTER-LIGAND FREE ENERGY PREDICTED BY IDOCK:   -4.14 KCAL/MOL
REMARK 924 INTRA-LIGAND FREE ENERGY PREDICTED BY IDOCK:   -0.11 KCAL/MOL
REMARK 927      BINDING AFFINITY PREDICTED BY RF-SCORE:    0.00 PKD
ROOT
HETATM    1  N   UNL     1     -10.361  18.230  68.303  1.00  0.00    -0.372 NA 
HETATM    2  C   UNL     1     -10.875  16.872  68.441  1.00  0.00    -0.347 C  
HETATM    3  H1  UNL     1     -10.765  18.857  68.998  1.00  0.00     0.000 HD 
HETATM    4  H2  UNL     1     -10.497  18.586  67.356  1.00  0.00     0.000 HD 
ENDROOT
BRANCH   2   5
HETATM    5  C   UNL     1     -10.267  15.931  67.398  1.00  0.00    -0.270 C  
BRANCH   5   6
HETATM    6  C   UNL     1     -10.149  16.518  65.984  1.00  0.00    -0.368 C  
BRANCH   6   7
HETATM    7  C   UNL     1     -10.963  15.742  64.947  1.00  0.00    -0.443 C  
BRANCH   7   8
HETATM    8  C   UNL     1     -11.617  14.503  65.554  1.00  0.00    -0.350 C  
HETATM    9  C   UNL     1     -12.408  13.733  64.521  1.00  0.00    -0.358 C  
HETATM   10  O   UNL     1     -12.491  14.012  63.337  1.00  0.00    -0.826 OA 
HETATM   11  O   UNL     1     -13.036  12.659  65.052  1.00  0.00    -0.808 OA 
ENDBRANCH   7   8
ENDBRANCH   6   7
ENDBRANCH   5   6
ENDBRANCH   2   5
TORSDOF 4
ENDMDL
MODEL       44
REMARK 921   NORMALIZED FREE ENERGY PREDICTED BY IDOCK:   -3.37 KCAL/MOL
REMARK 922        TOTAL FREE ENERGY PREDICTED BY IDOCK:   -4.24 KCAL/MOL
REMARK 923 INTER-LIGAND FREE ENERGY PREDICTED BY IDOCK:   -3.92 KCAL/MOL
REMARK 924 INTRA-LIGAND FREE ENERGY PREDICTED BY IDOCK:   -0.33 KCAL/MOL
REMARK 927      BINDING AFFINITY PREDICTED BY RF-SCORE:    0.00 PKD
ROOT
HETATM    1  N   UNL     1     -12.837  12.346  63.576  1.00  0.00    -0.764 NA 
HETATM    2  C   UNL     1     -11.518  12.958  63.457  1.00  0.00    -0.412 C  
HETATM    3  H1  UNL     1     -13.571  13.049  63.658  1.00  0.00     0.000 HD 
HETATM    4  H2  UNL     1     -12.870  11.679  64.347  1.00  0.00     0.000 HD 
ENDROOT
BRANCH   2   5
HETATM    5  C   UNL     1     -10.417  11.903  63.333  1.00  0.00    -0.487 C  
BRANCH   5   6
HETATM    6  C   UNL     1     -10.410  10.837  64.438  1.00  0.00    -0.405 C  
BRANCH   6   7
HETATM    7  C   UNL     1      -9.845  11.356  65.762  1.00  0.00    -0.270 C  
BRANCH   7   8
HETATM    8  C   UNL     1     -10.573  10.755  66.961  1.00  0.00    -0.312 C  
HETATM    9  C   UNL     1     -11.761  11.598  67.366  1.00  0.00    -0.201 C  
HETATM   10  O   UNL     1     -12.144  12.606  66.797  1.00  0.00    -0.504 OA 
HETATM   11  O   UNL     1     -12.390  11.106  68.459  1.00  0.00    -0.561 OA 
ENDBRANCH   7   8
ENDBRANCH   6   7
ENDBRANCH   5   6
ENDBRANCH   2   5
TORSDOF 4
ENDMDL
MODEL       45
REMARK 921   NORMALIZED FREE ENERGY PREDICTED BY IDOCK:   -3.37 KCAL/MOL
REMARK 922        TOTAL FREE ENERGY PREDICTED BY IDOCK:   -4.24 KCAL/MOL
REMARK 923 INTER-LIGAND FREE ENERGY PREDICTED BY IDOCK:   -4.07 KCAL/MOL
REMARK 924 INTRA-LIGAND FREE ENERGY PREDICTED BY IDOCK:   -0.17 KCAL/MOL
REMARK 927      BINDING AFFINITY PREDICTED BY RF-SCORE:    0.00 PKD
ROOT
HETATM    1  N   UNL     1     -14.333  15.261  70.860  1.00  0.00    -0.819 NA 
HETATM    2  C   UNL     1     -13.085  15.612  71.529  1.00  0.00    -0.485 C  
HETATM    3  H1  UNL     1     -15.021  16.011  70.930  1.00  0.00     0.000 HD 
HETATM    4  H2  UNL     1     -14.707  14.378  71.208  1.00  0.00     0.000 HD 
ENDROOT
BRANCH   2   5
HETATM    5  C   UNL     1     -12.054  14.486  71.422  1.00  0.00    -0.420 C  
BRANCH   5   6
HETATM    6  C   UNL     1     -12.288  13.497  70.272  1.00  0.00    -0.370 C  
BRANCH   6   7
HETATM    7  C   UNL     1     -11.339  13.720  69.093  1.00  0.00    -0.329 C  
BRANCH   7   8
HETATM    8  C   UNL     1     -12.042  14.404  67.923  1.00  0.00    -0.280 C  
HETATM    9  C   UNL     1     -12.203  13.466  66.749  1.00  0.00    -0.312 C  
HETATM   10  O   UNL     1     -11.869  12.293  66.725  1.00  0.00    -0.533 OA 
HETATM   11  O   UNL     1     -12.780  14.070  65.684  1.00  0.00    -0.526 OA 
ENDBRANCH   7   8
ENDBRANCH   6   7
ENDBRANCH   5   6
ENDBRANCH   2   5
TORSDOF 4
ENDMDL
MODEL       46
REMARK 921   NORMALIZED FREE ENERGY PREDICTED BY IDOCK:   -3.37 KCAL/MOL
REMARK 922        TOTAL FREE ENERGY PREDICTED BY IDOCK:   -4.24 KCAL/MOL
REMARK 923 INTER-LIGAND FREE ENERGY PREDICTED BY IDOCK:   -3.79 KCAL/MOL
REMARK 924 INTRA-LIGAND FREE ENERGY PREDICTED BY IDOCK:   -0.45 KCAL/MOL
REMARK 927      BINDING AFFINITY PREDICTED BY RF-SCORE:    0.00 PKD
ROOT
HETATM    1  N   UNL     1      -8.641  14.096  66.626  1.00  0.00    -0.441 NA 
HETATM    2  C   UNL     1      -9.732  14.566  67.472  1.00  0.00    -0.211 C  
HETATM    3  H1  UNL     1      -8.147  14.871  66.184  1.00  0.00     0.000 HD 
HETATM    4  H2  UNL     1      -8.969  13.421  65.934  1.00  0.00     0.000 HD 
ENDROOT
BRANCH   2   5
HETATM    5  C   UNL     1     -10.472  13.402  68.134  1.00  0.00    -0.250 C  
BRANCH   5   6
HETATM    6  C   UNL     1     -11.849  13.082  67.536  1.00  0.00    -0.408 C  
BRANCH   6   7
HETATM    7  C   UNL     1     -11.772  12.133  66.338  1.00  0.00    -0.394 C  
BRANCH   7   8
HETATM    8  C   UNL     1     -12.626  12.624  65.172  1.00  0.00    -0.459 C  
HETATM    9  C   UNL     1     -11.799  13.387  64.163  1.00  0.00    -0.442 C  
HETATM   10  O   UNL     1     -10.594  13.563  64.219  1.00  0.00    -0.412 OA 
HETATM   11  O   UNL     1     -12.549  13.873  63.147  1.00  0.00    -0.775 OA 
ENDBRANCH   7   8
ENDBRANCH   6   7
ENDBRANCH   5   6
ENDBRANCH   2   5
TORSDOF 4
ENDMDL
MODEL       47
REMARK 921   NORMALIZED FREE ENERGY PREDICTED BY IDOCK:   -3.35 KCAL/MOL
REMARK 922        TOTAL FREE ENERGY PREDICTED BY IDOCK:   -4.22 KCAL/MOL
REMARK 923 INTER-LIGAND FREE ENERGY PREDICTED BY IDOCK:   -4.12 KCAL/MOL
REMARK 924 INTRA-LIGAND FREE ENERGY PREDICTED BY IDOCK:   -0.09 KCAL/MOL
REMARK 927      BINDING AFFINITY PREDICTED BY RF-SCORE:    0.00 PKD
ROOT
HETATM    1  N   UNL     1     -12.400  13.881  63.160  1.00  0.00    -1.106 NA 
HETATM    2  C   UNL     1     -12.044  14.494  64.436  1.00  0.00    -0.472 C  
HETATM    3  H1  UNL     1     -12.043  14.421  62.372  1.00  0.00     0.000 HD 
HETATM    4  H2  UNL     1     -13.406  13.734  63.086  1.00  0.00     0.000 HD 
ENDROOT
BRANCH   2   5
HETATM    5  C   UNL     1     -12.579  13.683  65.618  1.00  0.00    -0.531 C  
BRANCH   5   6
HETATM    6  C   UNL     1     -12.022  14.089  66.990  1.00  0.00    -0.472 C  
BRANCH   6   7
HETATM    7  C   UNL     1     -11.783  12.894  67.913  1.00  0.00    -0.405 C  
BRANCH   7   8
HETATM    8  C   UNL     1     -11.450  11.629  67.126  1.00  0.00    -0.344 C  
HETATM    9  C   UNL     1     -11.075  10.488  68.044  1.00  0.00    -0.300 C  
HETATM   10  O   UNL     1     -11.076  10.527  69.263  1.00  0.00    -0.215 OA 
HETATM   11  O   UNL     1     -10.729   9.372  67.361  1.00  0.00    -0.280 OA 
ENDBRANCH   7   8
ENDBRANCH   6   7
ENDBRANCH   5   6
ENDBRANCH   2   5
TORSDOF 4
ENDMDL
MODEL       48
REMARK 921   NORMALIZED FREE ENERGY PREDICTED BY IDOCK:   -3.30 KCAL/MOL
REMARK 922        TOTAL FREE ENERGY PREDICTED BY IDOCK:   -4.16 KCAL/MOL
REMARK 923 INTER-LIGAND FREE ENERGY PREDICTED BY IDOCK:   -4.05 KCAL/MOL
REMARK 924 INTRA-LIGAND FREE ENERGY PREDICTED BY IDOCK:   -0.11 KCAL/MOL
REMARK 927      BINDING AFFINITY PREDICTED BY RF-SCORE:    0.00 PKD
ROOT
HETATM    1  N   UNL     1     -12.320  13.569  63.115  1.00  0.00    -1.024 NA 
HETATM    2  C   UNL     1     -11.971  14.025  64.456  1.00  0.00    -0.448 C  
HETATM    3  H1  UNL     1     -13.299  13.755  62.898  1.00  0.00     0.000 HD 
HETATM    4  H2  UNL     1     -12.089  12.584  62.985  1.00  0.00     0.000 HD 
ENDROOT
BRANCH   2   5
HETATM    5  C   UNL     1     -10.501  13.747  64.781  1.00  0.00    -0.448 C  
BRANCH   5   6
HETATM    6  C   UNL     1      -9.795  14.845  65.588  1.00  0.00    -0.372 C  
BRANCH   6   7
HETATM    7  C   UNL     1     -10.437  16.222  65.410  1.00  0.00    -0.365 C  
BRANCH   7   8
HETATM    8  C   UNL     1     -10.766  16.869  66.752  1.00  0.00    -0.111 C  
HETATM    9  C   UNL     1     -10.536  18.363  66.717  1.00  0.00    -0.385 C  
HETATM   10  O   UNL     1     -10.181  19.005  65.742  1.00  0.00    -0.517 OA 
HETATM   11  O   UNL     1     -10.776  18.948  67.914  1.00  0.00    -0.376 OA 
ENDBRANCH   7   8
ENDBRANCH   6   7
ENDBRANCH   5   6
ENDBRANCH   2   5
TORSDOF 4
ENDMDL
MODEL       49
REMARK 921   NORMALIZED FREE ENERGY PREDICTED BY IDOCK:   -3.30 KCAL/MOL
REMARK 922        TOTAL FREE ENERGY PREDICTED BY IDOCK:   -4.15 KCAL/MOL
REMARK 923 INTER-LIGAND FREE ENERGY PREDICTED BY IDOCK:   -4.02 KCAL/MOL
REMARK 924 INTRA-LIGAND FREE ENERGY PREDICTED BY IDOCK:   -0.13 KCAL/MOL
REMARK 927      BINDING AFFINITY PREDICTED BY RF-SCORE:    0.00 PKD
ROOT
HETATM    1  N   UNL     1      -9.769   9.347  65.093  1.00  0.00    -0.449 NA 
HETATM    2  C   UNL     1     -10.151  10.753  65.018  1.00  0.00    -0.313 C  
HETATM    3  H1  UNL     1      -9.536   9.071  66.047  1.00  0.00     0.000 HD 
HETATM    4  H2  UNL     1      -9.009   9.132  64.447  1.00  0.00     0.000 HD 
ENDROOT
BRANCH   2   5
HETATM    5  C   UNL     1     -10.501  11.165  63.586  1.00  0.00    -0.438 C  
BRANCH   5   6
HETATM    6  C   UNL     1     -11.313  12.462  63.464  1.00  0.00    -0.553 C  
BRANCH   6   7
HETATM    7  C   UNL     1     -12.418  12.574  64.516  1.00  0.00    -0.539 C  
BRANCH   7   8
HETATM    8  C   UNL     1     -12.281  13.849  65.345  1.00  0.00    -0.463 C  
HETATM    9  C   UNL     1     -12.053  13.537  66.807  1.00  0.00    -0.375 C  
HETATM   10  O   UNL     1     -11.939  12.421  67.286  1.00  0.00    -0.516 OA 
HETATM   11  O   UNL     1     -11.979  14.656  67.565  1.00  0.00    -0.375 OA 
ENDBRANCH   7   8
ENDBRANCH   6   7
ENDBRANCH   5   6
ENDBRANCH   2   5
TORSDOF 4
ENDMDL
MODEL       50
REMARK 921   NORMALIZED FREE ENERGY PREDICTED BY IDOCK:   -3.26 KCAL/MOL
REMARK 922        TOTAL FREE ENERGY PREDICTED BY IDOCK:   -4.11 KCAL/MOL
REMARK 923 INTER-LIGAND FREE ENERGY PREDICTED BY IDOCK:   -3.99 KCAL/MOL
REMARK 924 INTRA-LIGAND FREE ENERGY PREDICTED BY IDOCK:   -0.11 KCAL/MOL
REMARK 927      BINDING AFFINITY PREDICTED BY RF-SCORE:    0.00 PKD
ROOT
HETATM    1  N   UNL     1     -12.453  15.448  69.522  1.00  0.00    -0.603 NA 
HETATM    2  C   UNL     1     -12.255  14.039  69.845  1.00  0.00    -0.340 C  
HETATM    3  H1  UNL     1     -13.132  15.884  70.146  1.00  0.00     0.000 HD 
HETATM    4  H2  UNL     1     -12.711  15.573  68.543  1.00  0.00     0.000 HD 
ENDROOT
BRANCH   2   5
HETATM    5  C   UNL     1     -11.235  13.385  68.909  1.00  0.00    -0.320 C  
BRANCH   5   6
HETATM    6  C   UNL     1     -11.834  12.699  67.674  1.00  0.00    -0.390 C  
BRANCH   6   7
HETATM    7  C   UNL     1     -11.533  13.445  66.373  1.00  0.00    -0.359 C  
BRANCH   7   8
HETATM    8  C   UNL     1     -12.578  13.153  65.299  1.00  0.00    -0.531 C  
HETATM    9  C   UNL     1     -12.017  12.270  64.208  1.00  0.00    -0.407 C  
HETATM   10  O   UNL     1     -10.895  11.795  64.184  1.00  0.00    -0.307 OA 
HETATM   11  O   UNL     1     -12.915  12.040  63.221  1.00  0.00    -0.736 OA 
ENDBRANCH   7   8
ENDBRANCH   6   7
ENDBRANCH   5   6
ENDBRANCH   2   5
TORSDOF 4
ENDMDL
MODEL       51
REMARK 921   NORMALIZED FREE ENERGY PREDICTED BY IDOCK:   -3.24 KCAL/MOL
REMARK 922        TOTAL FREE ENERGY PREDICTED BY IDOCK:   -4.09 KCAL/MOL
REMARK 923 INTER-LIGAND FREE ENERGY PREDICTED BY IDOCK:   -4.00 KCAL/MOL
REMARK 924 INTRA-LIGAND FREE ENERGY PREDICTED BY IDOCK:   -0.08 KCAL/MOL
REMARK 927      BINDING AFFINITY PREDICTED BY RF-SCORE:    0.00 PKD
ROOT
HETATM    1  N   UNL     1     -12.861  10.269  70.195  1.00  0.00    -0.562 NA 
HETATM    2  C   UNL     1     -12.160  11.518  69.922  1.00  0.00    -0.316 C  
HETATM    3  H1  UNL     1     -13.214  10.238  71.152  1.00  0.00     0.000 HD 
HETATM    4  H2  UNL     1     -12.276   9.459  69.987  1.00  0.00     0.000 HD 
ENDROOT
BRANCH   2   5
HETATM    5  C   UNL     1     -11.632  11.565  68.486  1.00  0.00    -0.377 C  
BRANCH   5   6
HETATM    6  C   UNL     1     -11.861  12.893  67.752  1.00  0.00    -0.391 C  
BRANCH   6   7
HETATM    7  C   UNL     1     -10.935  13.076  66.548  1.00  0.00    -0.307 C  
BRANCH   7   8
HETATM    8  C   UNL     1     -11.625  12.693  65.242  1.00  0.00    -0.389 C  
HETATM    9  C   UNL     1     -12.002  13.916  64.436  1.00  0.00    -0.450 C  
HETATM   10  O   UNL     1     -11.757  15.070  64.741  1.00  0.00    -0.396 OA 
HETATM   11  O   UNL     1     -12.660  13.597  63.297  1.00  0.00    -0.816 OA 
ENDBRANCH   7   8
ENDBRANCH   6   7
ENDBRANCH   5   6
ENDBRANCH   2   5
TORSDOF 4
ENDMDL
MODEL       52
REMARK 921   NORMALIZED FREE ENERGY PREDICTED BY IDOCK:   -3.23 KCAL/MOL
REMARK 922        TOTAL FREE ENERGY PREDICTED BY IDOCK:   -4.06 KCAL/MOL
REMARK 923 INTER-LIGAND FREE ENERGY PREDICTED BY IDOCK:   -3.92 KCAL/MOL
REMARK 924 INTRA-LIGAND FREE ENERGY PREDICTED BY IDOCK:   -0.15 KCAL/MOL
REMARK 927      BINDING AFFINITY PREDICTED BY RF-SCORE:    0.00 PKD
ROOT
HETATM    1  N   UNL     1      -7.317  20.571  65.545  1.00  0.00    -0.534 NA 
HETATM    2  C   UNL     1      -7.187  20.473  66.995  1.00  0.00    -0.317 C  
HETATM    3  H1  UNL     1      -6.501  21.015  65.124  1.00  0.00     0.000 HD 
HETATM    4  H2  UNL     1      -8.179  21.046  65.280  1.00  0.00     0.000 HD 
ENDROOT
BRANCH   2   5
HETATM    5  C   UNL     1      -8.411  19.805  67.626  1.00  0.00    -0.355 C  
BRANCH   5   6
HETATM    6  C   UNL     1      -9.763  20.261  67.061  1.00  0.00    -0.598 C  
BRANCH   6   7
HETATM    7  C   UNL     1     -10.838  19.176  67.141  1.00  0.00    -0.507 C  
BRANCH   7   8
HETATM    8  C   UNL     1     -10.237  17.806  67.443  1.00  0.00    -0.353 C  
HETATM    9  C   UNL     1     -10.275  16.905  66.230  1.00  0.00    -0.329 C  
HETATM   10  O   UNL     1     -10.681  17.220  65.124  1.00  0.00    -0.687 OA 
HETATM   11  O   UNL     1      -9.791  15.669  66.493  1.00  0.00    -0.238 OA 
ENDBRANCH   7   8
ENDBRANCH   6   7
ENDBRANCH   5   6
ENDBRANCH   2   5
TORSDOF 4
ENDMDL
MODEL       53
REMARK 921   NORMALIZED FREE ENERGY PREDICTED BY IDOCK:   -3.21 KCAL/MOL
REMARK 922        TOTAL FREE ENERGY PREDICTED BY IDOCK:   -4.04 KCAL/MOL
REMARK 923 INTER-LIGAND FREE ENERGY PREDICTED BY IDOCK:   -3.95 KCAL/MOL
REMARK 924 INTRA-LIGAND FREE ENERGY PREDICTED BY IDOCK:   -0.09 KCAL/MOL
REMARK 927      BINDING AFFINITY PREDICTED BY RF-SCORE:    0.00 PKD
ROOT
HETATM    1  N   UNL     1     -10.485  18.513  65.892  1.00  0.00    -0.600 NA 
HETATM    2  C   UNL     1      -9.549  18.377  67.003  1.00  0.00    -0.298 C  
HETATM    3  H1  UNL     1     -10.531  19.475  65.557  1.00  0.00     0.000 HD 
HETATM    4  H2  UNL     1     -11.409  18.158  66.138  1.00  0.00     0.000 HD 
ENDROOT
BRANCH   2   5
HETATM    5  C   UNL     1      -9.479  16.933  67.506  1.00  0.00    -0.241 C  
BRANCH   5   6
HETATM    6  C   UNL     1      -9.704  15.859  66.432  1.00  0.00    -0.310 C  
BRANCH   6   7
HETATM    7  C   UNL     1     -10.705  14.786  66.864  1.00  0.00    -0.308 C  
BRANCH   7   8
HETATM    8  C   UNL     1     -11.613  14.363  65.712  1.00  0.00    -0.353 C  
HETATM    9  C   UNL     1     -12.212  12.996  65.953  1.00  0.00    -0.432 C  
HETATM   10  O   UNL     1     -12.050  12.315  66.951  1.00  0.00    -0.583 OA 
HETATM   11  O   UNL     1     -12.981  12.584  64.918  1.00  0.00    -0.821 OA 
ENDBRANCH   7   8
ENDBRANCH   6   7
ENDBRANCH   5   6
ENDBRANCH   2   5
TORSDOF 4
ENDMDL
MODEL       54
REMARK 921   NORMALIZED FREE ENERGY PREDICTED BY IDOCK:   -3.18 KCAL/MOL
REMARK 922        TOTAL FREE ENERGY PREDICTED BY IDOCK:   -4.01 KCAL/MOL
REMARK 923 INTER-LIGAND FREE ENERGY PREDICTED BY IDOCK:   -3.90 KCAL/MOL
REMARK 924 INTRA-LIGAND FREE ENERGY PREDICTED BY IDOCK:   -0.11 KCAL/MOL
REMARK 927      BINDING AFFINITY PREDICTED BY RF-SCORE:    0.00 PKD
ROOT
HETATM    1  N   UNL     1      -8.298  16.439  68.955  1.00  0.00    -0.240 NA 
HETATM    2  C   UNL     1      -9.471  15.572  68.915  1.00  0.00    -0.223 C  
HETATM    3  H1  UNL     1      -7.432  15.901  68.921  1.00  0.00     0.000 HD 
HETATM    4  H2  UNL     1      -8.320  17.059  69.765  1.00  0.00     0.000 HD 
ENDROOT
BRANCH   2   5
HETATM    5  C   UNL     1     -10.769  16.381  68.966  1.00  0.00    -0.322 C  
BRANCH   5   6
HETATM    6  C   UNL     1     -11.964  15.652  69.597  1.00  0.00    -0.367 C  
BRANCH   6   7
HETATM    7  C   UNL     1     -11.642  15.058  70.969  1.00  0.00    -0.367 C  
BRANCH   7   8
HETATM    8  C   UNL     1     -11.831  16.080  72.087  1.00  0.00    -0.623 C  
HETATM    9  C   UNL     1     -12.804  15.583  73.132  1.00  0.00    -0.497 C  
HETATM   10  O   UNL     1     -13.345  14.490  73.137  1.00  0.00    -0.595 OA 
HETATM   11  O   UNL     1     -13.022  16.497  74.106  1.00  0.00    -0.668 OA 
ENDBRANCH   7   8
ENDBRANCH   6   7
ENDBRANCH   5   6
ENDBRANCH   2   5
TORSDOF 4
ENDMDL
MODEL       55
REMARK 921   NORMALIZED FREE ENERGY PREDICTED BY IDOCK:   -3.18 KCAL/MOL
REMARK 922        TOTAL FREE ENERGY PREDICTED BY IDOCK:   -4.01 KCAL/MOL
REMARK 923 INTER-LIGAND FREE ENERGY PREDICTED BY IDOCK:   -3.92 KCAL/MOL
REMARK 924 INTRA-LIGAND FREE ENERGY PREDICTED BY IDOCK:   -0.09 KCAL/MOL
REMARK 927      BINDING AFFINITY PREDICTED BY RF-SCORE:    0.00 PKD
ROOT
HETATM    1  N   UNL     1     -13.397   9.793  70.941  1.00  0.00    -0.588 NA 
HETATM    2  C   UNL     1     -12.088  10.323  71.307  1.00  0.00    -0.382 C  
HETATM    3  H1  UNL     1     -13.914   9.469  71.758  1.00  0.00     0.000 HD 
HETATM    4  H2  UNL     1     -13.318   9.061  70.235  1.00  0.00     0.000 HD 
ENDROOT
BRANCH   2   5
HETATM    5  C   UNL     1     -11.314  10.810  70.080  1.00  0.00    -0.390 C  
BRANCH   5   6
HETATM    6  C   UNL     1     -12.129  11.653  69.090  1.00  0.00    -0.315 C  
BRANCH   6   7
HETATM    7  C   UNL     1     -11.252  12.451  68.124  1.00  0.00    -0.313 C  
BRANCH   7   8
HETATM    8  C   UNL     1     -12.051  13.523  67.388  1.00  0.00    -0.360 C  
HETATM    9  C   UNL     1     -12.279  13.148  65.941  1.00  0.00    -0.436 C  
HETATM   10  O   UNL     1     -11.925  12.108  65.413  1.00  0.00    -0.410 OA 
HETATM   11  O   UNL     1     -12.944  14.110  65.260  1.00  0.00    -0.725 OA 
ENDBRANCH   7   8
ENDBRANCH   6   7
ENDBRANCH   5   6
ENDBRANCH   2   5
TORSDOF 4
ENDMDL
MODEL       56
REMARK 921   NORMALIZED FREE ENERGY PREDICTED BY IDOCK:   -3.17 KCAL/MOL
REMARK 922        TOTAL FREE ENERGY PREDICTED BY IDOCK:   -4.00 KCAL/MOL
REMARK 923 INTER-LIGAND FREE ENERGY PREDICTED BY IDOCK:   -3.91 KCAL/MOL
REMARK 924 INTRA-LIGAND FREE ENERGY PREDICTED BY IDOCK:   -0.09 KCAL/MOL
REMARK 927      BINDING AFFINITY PREDICTED BY RF-SCORE:    0.00 PKD
ROOT
HETATM    1  N   UNL     1     -13.553  15.409  70.607  1.00  0.00    -0.826 NA 
HETATM    2  C   UNL     1     -12.372  14.840  69.968  1.00  0.00    -0.316 C  
HETATM    3  H1  UNL     1     -13.989  14.747  71.249  1.00  0.00     0.000 HD 
HETATM    4  H2  UNL     1     -14.221  15.754  69.917  1.00  0.00     0.000 HD 
ENDROOT
BRANCH   2   5
HETATM    5  C   UNL     1     -11.718  15.834  69.006  1.00  0.00    -0.405 C  
BRANCH   5   6
HETATM    6  C   UNL     1     -10.700  16.786  69.648  1.00  0.00    -0.229 C  
BRANCH   6   7
HETATM    7  C   UNL     1      -9.871  17.555  68.618  1.00  0.00    -0.338 C  
BRANCH   7   8
HETATM    8  C   UNL     1     -10.752  18.195  67.548  1.00  0.00    -0.365 C  
HETATM    9  C   UNL     1     -10.089  18.157  66.190  1.00  0.00    -0.336 C  
HETATM   10  O   UNL     1      -9.011  17.644  65.939  1.00  0.00    -0.519 OA 
HETATM   11  O   UNL     1     -10.834  18.765  65.238  1.00  0.00    -0.576 OA 
ENDBRANCH   7   8
ENDBRANCH   6   7
ENDBRANCH   5   6
ENDBRANCH   2   5
TORSDOF 4
ENDMDL
MODEL       57
REMARK 921   NORMALIZED FREE ENERGY PREDICTED BY IDOCK:   -3.17 KCAL/MOL
REMARK 922        TOTAL FREE ENERGY PREDICTED BY IDOCK:   -4.00 KCAL/MOL
REMARK 923 INTER-LIGAND FREE ENERGY PREDICTED BY IDOCK:   -3.92 KCAL/MOL
REMARK 924 INTRA-LIGAND FREE ENERGY PREDICTED BY IDOCK:   -0.08 KCAL/MOL
REMARK 927      BINDING AFFINITY PREDICTED BY RF-SCORE:    0.00 PKD
ROOT
HETATM    1  N   UNL     1     -12.990  15.309  70.242  1.00  0.00    -0.670 NA 
HETATM    2  C   UNL     1     -13.500  15.286  71.609  1.00  0.00    -0.481 C  
HETATM    3  H1  UNL     1     -13.057  16.241  69.833  1.00  0.00     0.000 HD 
HETATM    4  H2  UNL     1     -13.453  14.611  69.660  1.00  0.00     0.000 HD 
ENDROOT
BRANCH   2   5
HETATM    5  C   UNL     1     -13.399  13.888  72.224  1.00  0.00    -0.599 C  
BRANCH   5   6
HETATM    6  C   UNL     1     -12.668  12.850  71.361  1.00  0.00    -0.366 C  
BRANCH   6   7
HETATM    7  C   UNL     1     -13.230  11.437  71.525  1.00  0.00    -0.333 C  
BRANCH   7   8
HETATM    8  C   UNL     1     -12.396  10.406  70.768  1.00  0.00    -0.463 C  
HETATM    9  C   UNL     1     -12.365   9.080  71.494  1.00  0.00    -0.331 C  
HETATM   10  O   UNL     1     -12.959   8.821  72.526  1.00  0.00    -0.397 OA 
HETATM   11  O   UNL     1     -11.590   8.168  70.862  1.00  0.00    -0.282 OA 
ENDBRANCH   7   8
ENDBRANCH   6   7
ENDBRANCH   5   6
ENDBRANCH   2   5
TORSDOF 4
ENDMDL
MODEL       58
REMARK 921   NORMALIZED FREE ENERGY PREDICTED BY IDOCK:   -3.17 KCAL/MOL
REMARK 922        TOTAL FREE ENERGY PREDICTED BY IDOCK:   -3.99 KCAL/MOL
REMARK 923 INTER-LIGAND FREE ENERGY PREDICTED BY IDOCK:   -3.89 KCAL/MOL
REMARK 924 INTRA-LIGAND FREE ENERGY PREDICTED BY IDOCK:   -0.11 KCAL/MOL
REMARK 927      BINDING AFFINITY PREDICTED BY RF-SCORE:    0.00 PKD
ROOT
HETATM    1  N   UNL     1      -8.932  12.693  68.487  1.00  0.00    -0.365 NA 
HETATM    2  C   UNL     1      -8.411  13.528  67.410  1.00  0.00    -0.200 C  
HETATM    3  H1  UNL     1      -8.305  11.918  68.698  1.00  0.00     0.000 HD 
HETATM    4  H2  UNL     1      -9.876  12.364  68.281  1.00  0.00     0.000 HD 
ENDROOT
BRANCH   2   5
HETATM    5  C   UNL     1      -9.353  14.692  67.094  1.00  0.00    -0.231 C  
BRANCH   5   6
HETATM    6  C   UNL     1     -10.566  14.329  66.225  1.00  0.00    -0.291 C  
BRANCH   6   7
HETATM    7  C   UNL     1     -10.177  13.903  64.808  1.00  0.00    -0.353 C  
BRANCH   7   8
HETATM    8  C   UNL     1     -10.961  12.675  64.352  1.00  0.00    -0.386 C  
HETATM    9  C   UNL     1     -12.256  13.066  63.677  1.00  0.00    -0.491 C  
HETATM   10  O   UNL     1     -12.631  14.206  63.465  1.00  0.00    -0.834 OA 
HETATM   11  O   UNL     1     -12.988  11.988  63.310  1.00  0.00    -0.736 OA 
ENDBRANCH   7   8
ENDBRANCH   6   7
ENDBRANCH   5   6
ENDBRANCH   2   5
TORSDOF 4
ENDMDL
MODEL       59
REMARK 921   NORMALIZED FREE ENERGY PREDICTED BY IDOCK:   -3.17 KCAL/MOL
REMARK 922        TOTAL FREE ENERGY PREDICTED BY IDOCK:   -3.99 KCAL/MOL
REMARK 923 INTER-LIGAND FREE ENERGY PREDICTED BY IDOCK:   -3.59 KCAL/MOL
REMARK 924 INTRA-LIGAND FREE ENERGY PREDICTED BY IDOCK:   -0.40 KCAL/MOL
REMARK 927      BINDING AFFINITY PREDICTED BY RF-SCORE:    0.00 PKD
ROOT
HETATM    1  N   UNL     1      -9.847   9.098  65.510  1.00  0.00    -0.452 NA 
HETATM    2  C   UNL     1     -10.189   8.898  66.914  1.00  0.00    -0.276 C  
HETATM    3  H1  UNL     1      -9.870   8.221  64.990  1.00  0.00     0.000 HD 
HETATM    4  H2  UNL     1      -8.947   9.567  65.409  1.00  0.00     0.000 HD 
ENDROOT
BRANCH   2   5
HETATM    5  C   UNL     1     -10.155  10.214  67.694  1.00  0.00    -0.231 C  
BRANCH   5   6
HETATM    6  C   UNL     1     -11.353  11.143  67.455  1.00  0.00    -0.351 C  
BRANCH   6   7
HETATM    7  C   UNL     1     -10.987  12.394  66.654  1.00  0.00    -0.309 C  
BRANCH   7   8
HETATM    8  C   UNL     1     -12.106  12.801  65.698  1.00  0.00    -0.514 C  
HETATM    9  C   UNL     1     -11.905  12.201  64.325  1.00  0.00    -0.378 C  
HETATM   10  O   UNL     1     -11.003  11.446  64.005  1.00  0.00    -0.364 OA 
HETATM   11  O   UNL     1     -12.861  12.591  63.450  1.00  0.00    -0.711 OA 
ENDBRANCH   7   8
ENDBRANCH   6   7
ENDBRANCH   5   6
ENDBRANCH   2   5
TORSDOF 4
ENDMDL
MODEL       60
REMARK 921   NORMALIZED FREE ENERGY PREDICTED BY IDOCK:   -3.15 KCAL/MOL
REMARK 922        TOTAL FREE ENERGY PREDICTED BY IDOCK:   -3.97 KCAL/MOL
REMARK 923 INTER-LIGAND FREE ENERGY PREDICTED BY IDOCK:   -3.57 KCAL/MOL
REMARK 924 INTRA-LIGAND FREE ENERGY PREDICTED BY IDOCK:   -0.40 KCAL/MOL
REMARK 927      BINDING AFFINITY PREDICTED BY RF-SCORE:    0.00 PKD
ROOT
HETATM    1  N   UNL     1      -9.700  13.467  65.269  1.00  0.00    -0.531 NA 
HETATM    2  C   UNL     1     -10.500  13.027  66.406  1.00  0.00    -0.276 C  
HETATM    3  H1  UNL     1      -8.958  12.801  65.052  1.00  0.00     0.000 HD 
HETATM    4  H2  UNL     1      -9.328  14.405  65.415  1.00  0.00     0.000 HD 
ENDROOT
BRANCH   2   5
HETATM    5  C   UNL     1     -11.614  14.026  66.730  1.00  0.00    -0.406 C  
BRANCH   5   6
HETATM    6  C   UNL     1     -11.432  14.799  68.043  1.00  0.00    -0.351 C  
BRANCH   6   7
HETATM    7  C   UNL     1     -10.236  15.752  68.012  1.00  0.00    -0.229 C  
BRANCH   7   8
HETATM    8  C   UNL     1     -10.646  17.160  67.587  1.00  0.00    -0.343 C  
HETATM    9  C   UNL     1     -10.308  17.420  66.137  1.00  0.00    -0.327 C  
HETATM   10  O   UNL     1      -9.818  16.613  65.365  1.00  0.00    -0.538 OA 
HETATM   11  O   UNL     1     -10.620  18.681  65.756  1.00  0.00    -0.567 OA 
ENDBRANCH   7   8
ENDBRANCH   6   7
ENDBRANCH   5   6
ENDBRANCH   2   5
TORSDOF 4
ENDMDL
MODEL       61
REMARK 921   NORMALIZED FREE ENERGY PREDICTED BY IDOCK:   -3.14 KCAL/MOL
REMARK 922        TOTAL FREE ENERGY PREDICTED BY IDOCK:   -3.96 KCAL/MOL
REMARK 923 INTER-LIGAND FREE ENERGY PREDICTED BY IDOCK:   -3.87 KCAL/MOL
REMARK 924 INTRA-LIGAND FREE ENERGY PREDICTED BY IDOCK:   -0.09 KCAL/MOL
REMARK 927      BINDING AFFINITY PREDICTED BY RF-SCORE:    0.00 PKD
ROOT
HETATM    1  N   UNL     1     -12.666   7.463  70.898  1.00  0.00    -0.581 NA 
HETATM    2  C   UNL     1     -11.774   8.020  71.909  1.00  0.00    -0.303 C  
HETATM    3  H1  UNL     1     -13.052   6.566  71.191  1.00  0.00     0.000 HD 
HETATM    4  H2  UNL     1     -12.204   7.392  69.991  1.00  0.00     0.000 HD 
ENDROOT
BRANCH   2   5
HETATM    5  C   UNL     1     -11.196   9.367  71.469  1.00  0.00    -0.457 C  
BRANCH   5   6
HETATM    6  C   UNL     1     -12.206  10.330  70.830  1.00  0.00    -0.465 C  
BRANCH   6   7
HETATM    7  C   UNL     1     -11.777  10.809  69.442  1.00  0.00    -0.378 C  
BRANCH   7   8
HETATM    8  C   UNL     1     -11.757  12.333  69.351  1.00  0.00    -0.392 C  
HETATM    9  C   UNL     1     -11.898  12.804  67.922  1.00  0.00    -0.339 C  
HETATM   10  O   UNL     1     -12.059  12.085  66.950  1.00  0.00    -0.608 OA 
HETATM   11  O   UNL     1     -11.833  14.151  67.817  1.00  0.00    -0.350 OA 
ENDBRANCH   7   8
ENDBRANCH   6   7
ENDBRANCH   5   6
ENDBRANCH   2   5
TORSDOF 4
ENDMDL
MODEL       62
REMARK 921   NORMALIZED FREE ENERGY PREDICTED BY IDOCK:   -3.12 KCAL/MOL
REMARK 922        TOTAL FREE ENERGY PREDICTED BY IDOCK:   -3.94 KCAL/MOL
REMARK 923 INTER-LIGAND FREE ENERGY PREDICTED BY IDOCK:   -3.51 KCAL/MOL
REMARK 924 INTRA-LIGAND FREE ENERGY PREDICTED BY IDOCK:   -0.43 KCAL/MOL
REMARK 927      BINDING AFFINITY PREDICTED BY RF-SCORE:    0.00 PKD
ROOT
HETATM    1  N   UNL     1     -10.355  10.614  65.005  1.00  0.00    -0.301 NA 
HETATM    2  C   UNL     1      -9.444  10.592  66.144  1.00  0.00    -0.180 C  
HETATM    3  H1  UNL     1      -9.906  10.263  64.158  1.00  0.00     0.000 HD 
HETATM    4  H2  UNL     1     -10.747  11.545  64.860  1.00  0.00     0.000 HD 
ENDROOT
BRANCH   2   5
HETATM    5  C   UNL     1     -10.117  11.118  67.413  1.00  0.00    -0.213 C  
BRANCH   5   6
HETATM    6  C   UNL     1     -10.256  12.645  67.490  1.00  0.00    -0.215 C  
BRANCH   6   7
HETATM    7  C   UNL     1     -11.709  13.105  67.622  1.00  0.00    -0.414 C  
BRANCH   7   8
HETATM    8  C   UNL     1     -12.050  14.197  66.612  1.00  0.00    -0.480 C  
HETATM    9  C   UNL     1     -12.565  13.612  65.317  1.00  0.00    -0.469 C  
HETATM   10  O   UNL     1     -12.744  12.427  65.095  1.00  0.00    -0.630 OA 
HETATM   11  O   UNL     1     -12.826  14.565  64.392  1.00  0.00    -0.603 OA 
ENDBRANCH   7   8
ENDBRANCH   6   7
ENDBRANCH   5   6
ENDBRANCH   2   5
TORSDOF 4
ENDMDL
MODEL       63
REMARK 921   NORMALIZED FREE ENERGY PREDICTED BY IDOCK:   -3.12 KCAL/MOL
REMARK 922        TOTAL FREE ENERGY PREDICTED BY IDOCK:   -3.94 KCAL/MOL
REMARK 923 INTER-LIGAND FREE ENERGY PREDICTED BY IDOCK:   -3.92 KCAL/MOL
REMARK 924 INTRA-LIGAND FREE ENERGY PREDICTED BY IDOCK:   -0.02 KCAL/MOL
REMARK 927      BINDING AFFINITY PREDICTED BY RF-SCORE:    0.00 PKD
ROOT
HETATM    1  N   UNL     1     -11.556  16.389  63.954  1.00  0.00    -1.602 NA 
HETATM    2  C   UNL     1     -11.309  15.056  64.493  1.00  0.00    -0.287 C  
HETATM    3  H1  UNL     1     -11.609  16.379  62.936  1.00  0.00     0.000 HD 
HETATM    4  H2  UNL     1     -10.863  17.060  64.286  1.00  0.00     0.000 HD 
ENDROOT
BRANCH   2   5
HETATM    5  C   UNL     1     -11.232  15.072  66.022  1.00  0.00    -0.310 C  
BRANCH   5   6
HETATM    6  C   UNL     1      -9.816  14.950  66.602  1.00  0.00    -0.272 C  
BRANCH   6   7
HETATM    7  C   UNL     1      -8.856  16.010  66.060  1.00  0.00    -0.314 C  
BRANCH   7   8
HETATM    8  C   UNL     1      -7.597  16.123  66.915  1.00  0.00    -0.275 C  
HETATM    9  C   UNL     1      -6.779  17.337  66.538  1.00  0.00    -0.251 C  
HETATM   10  O   UNL     1      -7.084  18.166  65.698  1.00  0.00    -0.488 OA 
HETATM   11  O   UNL     1      -5.633  17.426  67.253  1.00  0.00    -0.115 OA 
ENDBRANCH   7   8
ENDBRANCH   6   7
ENDBRANCH   5   6
ENDBRANCH   2   5
TORSDOF 4
ENDMDL
MODEL       64
REMARK 921   NORMALIZED FREE ENERGY PREDICTED BY IDOCK:   -3.11 KCAL/MOL
REMARK 922        TOTAL FREE ENERGY PREDICTED BY IDOCK:   -3.92 KCAL/MOL
REMARK 923 INTER-LIGAND FREE ENERGY PREDICTED BY IDOCK:   -3.80 KCAL/MOL
REMARK 924 INTRA-LIGAND FREE ENERGY PREDICTED BY IDOCK:   -0.12 KCAL/MOL
REMARK 927      BINDING AFFINITY PREDICTED BY RF-SCORE:    0.00 PKD
ROOT
HETATM    1  N   UNL     1      -7.426  10.383  65.858  1.00  0.00    -0.135 NA 
HETATM    2  C   UNL     1      -8.857  10.665  65.826  1.00  0.00    -0.184 C  
HETATM    3  H1  UNL     1      -7.033  10.541  66.786  1.00  0.00     0.000 HD 
HETATM    4  H2  UNL     1      -6.926  10.914  65.145  1.00  0.00     0.000 HD 
ENDROOT
BRANCH   2   5
HETATM    5  C   UNL     1      -9.447  10.426  64.435  1.00  0.00    -0.343 C  
BRANCH   5   6
HETATM    6  C   UNL     1      -9.861  11.696  63.678  1.00  0.00    -0.366 C  
BRANCH   6   7
HETATM    7  C   UNL     1     -11.353  11.731  63.343  1.00  0.00    -0.437 C  
BRANCH   7   8
HETATM    8  C   UNL     1     -11.993  13.054  63.753  1.00  0.00    -0.585 C  
HETATM    9  C   UNL     1     -12.403  13.044  65.208  1.00  0.00    -0.486 C  
HETATM   10  O   UNL     1     -12.215  12.130  65.993  1.00  0.00    -0.609 OA 
HETATM   11  O   UNL     1     -13.018  14.193  65.576  1.00  0.00    -0.657 OA 
ENDBRANCH   7   8
ENDBRANCH   6   7
ENDBRANCH   5   6
ENDBRANCH   2   5
TORSDOF 4
ENDMDL
MODEL       65
REMARK 921   NORMALIZED FREE ENERGY PREDICTED BY IDOCK:   -3.10 KCAL/MOL
REMARK 922        TOTAL FREE ENERGY PREDICTED BY IDOCK:   -3.91 KCAL/MOL
REMARK 923 INTER-LIGAND FREE ENERGY PREDICTED BY IDOCK:   -3.52 KCAL/MOL
REMARK 924 INTRA-LIGAND FREE ENERGY PREDICTED BY IDOCK:   -0.39 KCAL/MOL
REMARK 927      BINDING AFFINITY PREDICTED BY RF-SCORE:    0.00 PKD
ROOT
HETATM    1  N   UNL     1      -8.431  16.656  68.902  1.00  0.00    -0.249 NA 
HETATM    2  C   UNL     1      -7.425  17.612  68.453  1.00  0.00    -0.253 C  
HETATM    3  H1  UNL     1      -8.226  15.712  68.572  1.00  0.00     0.000 HD 
HETATM    4  H2  UNL     1      -9.370  16.949  68.633  1.00  0.00     0.000 HD 
ENDROOT
BRANCH   2   5
HETATM    5  C   UNL     1      -7.732  19.026  68.948  1.00  0.00    -0.344 C  
BRANCH   5   6
HETATM    6  C   UNL     1      -7.624  20.126  67.883  1.00  0.00    -0.311 C  
BRANCH   6   7
HETATM    7  C   UNL     1      -8.987  20.587  67.363  1.00  0.00    -0.420 C  
BRANCH   7   8
HETATM    8  C   UNL     1      -9.412  19.808  66.121  1.00  0.00    -0.464 C  
HETATM    9  C   UNL     1     -10.413  18.727  66.462  1.00  0.00    -0.427 C  
HETATM   10  O   UNL     1     -10.878  18.513  67.568  1.00  0.00    -0.422 OA 
HETATM   11  O   UNL     1     -10.764  17.993  65.380  1.00  0.00    -0.632 OA 
ENDBRANCH   7   8
ENDBRANCH   6   7
ENDBRANCH   5   6
ENDBRANCH   2   5
TORSDOF 4
ENDMDL
MODEL       66
REMARK 921   NORMALIZED FREE ENERGY PREDICTED BY IDOCK:   -3.09 KCAL/MOL
REMARK 922        TOTAL FREE ENERGY PREDICTED BY IDOCK:   -3.90 KCAL/MOL
REMARK 923 INTER-LIGAND FREE ENERGY PREDICTED BY IDOCK:   -3.80 KCAL/MOL
REMARK 924 INTRA-LIGAND FREE ENERGY PREDICTED BY IDOCK:   -0.10 KCAL/MOL
REMARK 927      BINDING AFFINITY PREDICTED BY RF-SCORE:    0.00 PKD
ROOT
HETATM    1  N   UNL     1      -8.140  14.703  69.623  1.00  0.00    -0.404 NA 
HETATM    2  C   UNL     1      -9.130  15.757  69.431  1.00  0.00    -0.254 C  
HETATM    3  H1  UNL     1      -8.107  14.391  70.593  1.00  0.00     0.000 HD 
HETATM    4  H2  UNL     1      -7.219  14.992  69.292  1.00  0.00     0.000 HD 
ENDROOT
BRANCH   2   5
HETATM    5  C   UNL     1      -9.179  16.224  67.974  1.00  0.00    -0.196 C  
BRANCH   5   6
HETATM    6  C   UNL     1     -10.558  16.127  67.307  1.00  0.00    -0.305 C  
BRANCH   6   7
HETATM    7  C   UNL     1     -10.887  14.715  66.820  1.00  0.00    -0.312 C  
BRANCH   7   8
HETATM    8  C   UNL     1     -10.978  14.649  65.297  1.00  0.00    -0.374 C  
HETATM    9  C   UNL     1     -12.339  14.172  64.845  1.00  0.00    -0.430 C  
HETATM   10  O   UNL     1     -13.280  13.912  65.575  1.00  0.00    -0.698 OA 
HETATM   11  O   UNL     1     -12.422  14.060  63.498  1.00  0.00    -0.826 OA 
ENDBRANCH   7   8
ENDBRANCH   6   7
ENDBRANCH   5   6
ENDBRANCH   2   5
TORSDOF 4
ENDMDL
MODEL       67
REMARK 921   NORMALIZED FREE ENERGY PREDICTED BY IDOCK:   -3.09 KCAL/MOL
REMARK 922        TOTAL FREE ENERGY PREDICTED BY IDOCK:   -3.90 KCAL/MOL
REMARK 923 INTER-LIGAND FREE ENERGY PREDICTED BY IDOCK:   -3.79 KCAL/MOL
REMARK 924 INTRA-LIGAND FREE ENERGY PREDICTED BY IDOCK:   -0.11 KCAL/MOL
REMARK 927      BINDING AFFINITY PREDICTED BY RF-SCORE:    0.00 PKD
ROOT
HETATM    1  N   UNL     1      -5.974  20.369  70.718  1.00  0.00    -0.536 NA 
HETATM    2  C   UNL     1      -5.486  20.809  69.415  1.00  0.00    -0.380 C  
HETATM    3  H1  UNL     1      -5.309  20.586  71.460  1.00  0.00     0.000 HD 
HETATM    4  H2  UNL     1      -6.214  19.378  70.711  1.00  0.00     0.000 HD 
ENDROOT
BRANCH   2   5
HETATM    5  C   UNL     1      -6.484  20.484  68.302  1.00  0.00    -0.338 C  
BRANCH   5   6
HETATM    6  C   UNL     1      -7.456  19.337  68.615  1.00  0.00    -0.380 C  
BRANCH   6   7
HETATM    7  C   UNL     1      -8.911  19.685  68.296  1.00  0.00    -0.361 C  
BRANCH   7   8
HETATM    8  C   UNL     1      -9.246  19.426  66.829  1.00  0.00    -0.387 C  
HETATM    9  C   UNL     1     -10.303  18.355  66.684  1.00  0.00    -0.396 C  
HETATM   10  O   UNL     1     -10.870  17.787  67.602  1.00  0.00    -0.363 OA 
HETATM   11  O   UNL     1     -10.577  18.077  65.388  1.00  0.00    -0.648 OA 
ENDBRANCH   7   8
ENDBRANCH   6   7
ENDBRANCH   5   6
ENDBRANCH   2   5
TORSDOF 4
ENDMDL
MODEL       68
REMARK 921   NORMALIZED FREE ENERGY PREDICTED BY IDOCK:   -3.04 KCAL/MOL
REMARK 922        TOTAL FREE ENERGY PREDICTED BY IDOCK:   -3.83 KCAL/MOL
REMARK 923 INTER-LIGAND FREE ENERGY PREDICTED BY IDOCK:   -3.50 KCAL/MOL
REMARK 924 INTRA-LIGAND FREE ENERGY PREDICTED BY IDOCK:   -0.33 KCAL/MOL
REMARK 927      BINDING AFFINITY PREDICTED BY RF-SCORE:    0.00 PKD
ROOT
HETATM    1  N   UNL     1     -11.453  11.616  69.963  1.00  0.00    -0.484 NA 
HETATM    2  C   UNL     1     -12.489  10.613  70.184  1.00  0.00    -0.270 C  
HETATM    3  H1  UNL     1     -11.091  11.577  69.010  1.00  0.00     0.000 HD 
HETATM    4  H2  UNL     1     -10.704  11.535  70.650  1.00  0.00     0.000 HD 
ENDROOT
BRANCH   2   5
HETATM    5  C   UNL     1     -13.033  10.672  71.613  1.00  0.00    -0.582 C  
BRANCH   5   6
HETATM    6  C   UNL     1     -13.215   9.309  72.295  1.00  0.00    -0.535 C  
BRANCH   6   7
HETATM    7  C   UNL     1     -12.266   8.239  71.751  1.00  0.00    -0.367 C  
BRANCH   7   8
HETATM    8  C   UNL     1     -11.234   7.817  72.793  1.00  0.00    -0.456 C  
HETATM    9  C   UNL     1      -9.889   8.454  72.528  1.00  0.00    -0.289 C  
HETATM   10  O   UNL     1      -9.641   9.246  71.635  1.00  0.00    -0.277 OA 
HETATM   11  O   UNL     1      -8.947   8.052  73.414  1.00  0.00    -0.245 OA 
ENDBRANCH   7   8
ENDBRANCH   6   7
ENDBRANCH   5   6
ENDBRANCH   2   5
TORSDOF 4
ENDMDL
MODEL       69
REMARK 921   NORMALIZED FREE ENERGY PREDICTED BY IDOCK:   -3.00 KCAL/MOL
REMARK 922        TOTAL FREE ENERGY PREDICTED BY IDOCK:   -3.79 KCAL/MOL
REMARK 923 INTER-LIGAND FREE ENERGY PREDICTED BY IDOCK:   -3.67 KCAL/MOL
REMARK 924 INTRA-LIGAND FREE ENERGY PREDICTED BY IDOCK:   -0.12 KCAL/MOL
REMARK 927      BINDING AFFINITY PREDICTED BY RF-SCORE:    0.00 PKD
ROOT
HETATM    1  N   UNL     1     -10.897  16.504  64.787  1.00  0.00    -0.747 NA 
HETATM    2  C   UNL     1     -10.069  16.753  65.963  1.00  0.00    -0.332 C  
HETATM    3  H1  UNL     1     -11.093  17.365  64.277  1.00  0.00     0.000 HD 
HETATM    4  H2  UNL     1     -11.756  16.012  65.034  1.00  0.00     0.000 HD 
ENDROOT
BRANCH   2   5
HETATM    5  C   UNL     1      -9.774  15.460  66.727  1.00  0.00    -0.254 C  
BRANCH   5   6
HETATM    6  C   UNL     1     -10.843  15.053  67.751  1.00  0.00    -0.284 C  
BRANCH   6   7
HETATM    7  C   UNL     1     -11.287  16.214  68.643  1.00  0.00    -0.365 C  
BRANCH   7   8
HETATM    8  C   UNL     1     -10.836  16.021  70.088  1.00  0.00    -0.349 C  
HETATM    9  C   UNL     1     -12.015  15.810  71.011  1.00  0.00    -0.419 C  
HETATM   10  O   UNL     1     -13.184  15.746  70.669  1.00  0.00    -0.501 OA 
HETATM   11  O   UNL     1     -11.638  15.686  72.305  1.00  0.00    -0.420 OA 
ENDBRANCH   7   8
ENDBRANCH   6   7
ENDBRANCH   5   6
ENDBRANCH   2   5
TORSDOF 4
ENDMDL
MODEL       70
REMARK 921   NORMALIZED FREE ENERGY PREDICTED BY IDOCK:   -2.99 KCAL/MOL
REMARK 922        TOTAL FREE ENERGY PREDICTED BY IDOCK:   -3.77 KCAL/MOL
REMARK 923 INTER-LIGAND FREE ENERGY PREDICTED BY IDOCK:   -3.60 KCAL/MOL
REMARK 924 INTRA-LIGAND FREE ENERGY PREDICTED BY IDOCK:   -0.17 KCAL/MOL
REMARK 927      BINDING AFFINITY PREDICTED BY RF-SCORE:    0.00 PKD
ROOT
HETATM    1  N   UNL     1     -11.655   6.582  69.120  1.00  0.00    -0.624 NA 
HETATM    2  C   UNL     1     -10.758   5.717  69.879  1.00  0.00    -0.329 C  
HETATM    3  H1  UNL     1     -11.494   6.501  68.116  1.00  0.00     0.000 HD 
HETATM    4  H2  UNL     1     -11.589   7.551  69.431  1.00  0.00     0.000 HD 
ENDROOT
BRANCH   2   5
HETATM    5  C   UNL     1     -10.999   5.838  71.385  1.00  0.00    -0.304 C  
BRANCH   5   6
HETATM    6  C   UNL     1     -10.242   6.981  72.074  1.00  0.00    -0.209 C  
BRANCH   6   7
HETATM    7  C   UNL     1     -11.173   8.021  72.701  1.00  0.00    -0.462 C  
BRANCH   7   8
HETATM    8  C   UNL     1     -11.532   9.127  71.712  1.00  0.00    -0.452 C  
HETATM    9  C   UNL     1     -13.001   9.476  71.782  1.00  0.00    -0.412 C  
HETATM   10  O   UNL     1     -13.811   8.990  72.552  1.00  0.00    -0.473 OA 
HETATM   11  O   UNL     1     -13.347  10.421  70.877  1.00  0.00    -0.337 OA 
ENDBRANCH   7   8
ENDBRANCH   6   7
ENDBRANCH   5   6
ENDBRANCH   2   5
TORSDOF 4
ENDMDL
MODEL       71
REMARK 921   NORMALIZED FREE ENERGY PREDICTED BY IDOCK:   -2.99 KCAL/MOL
REMARK 922        TOTAL FREE ENERGY PREDICTED BY IDOCK:   -3.77 KCAL/MOL
REMARK 923 INTER-LIGAND FREE ENERGY PREDICTED BY IDOCK:   -3.70 KCAL/MOL
REMARK 924 INTRA-LIGAND FREE ENERGY PREDICTED BY IDOCK:   -0.07 KCAL/MOL
REMARK 927      BINDING AFFINITY PREDICTED BY RF-SCORE:    0.00 PKD
ROOT
HETATM    1  N   UNL     1     -12.840   6.806  72.129  1.00  0.00    -0.556 NA 
HETATM    2  C   UNL     1     -11.616   7.372  71.574  1.00  0.00    -0.275 C  
HETATM    3  H1  UNL     1     -12.955   5.828  71.865  1.00  0.00     0.000 HD 
HETATM    4  H2  UNL     1     -13.657   7.360  71.871  1.00  0.00     0.000 HD 
ENDROOT
BRANCH   2   5
HETATM    5  C   UNL     1     -11.444   8.840  71.971  1.00  0.00    -0.441 C  
BRANCH   5   6
HETATM    6  C   UNL     1     -12.482   9.800  71.373  1.00  0.00    -0.482 C  
BRANCH   6   7
HETATM    7  C   UNL     1     -11.847  10.989  70.648  1.00  0.00    -0.434 C  
BRANCH   7   8
HETATM    8  C   UNL     1     -11.988  10.867  69.133  1.00  0.00    -0.359 C  
HETATM    9  C   UNL     1     -11.826  12.208  68.454  1.00  0.00    -0.303 C  
HETATM   10  O   UNL     1     -11.567  13.261  69.011  1.00  0.00    -0.270 OA 
HETATM   11  O   UNL     1     -11.997  12.127  67.113  1.00  0.00    -0.580 OA 
ENDBRANCH   7   8
ENDBRANCH   6   7
ENDBRANCH   5   6
ENDBRANCH   2   5
TORSDOF 4
ENDMDL
MODEL       72
REMARK 921   NORMALIZED FREE ENERGY PREDICTED BY IDOCK:   -2.97 KCAL/MOL
REMARK 922        TOTAL FREE ENERGY PREDICTED BY IDOCK:   -3.75 KCAL/MOL
REMARK 923 INTER-LIGAND FREE ENERGY PREDICTED BY IDOCK:   -3.58 KCAL/MOL
REMARK 924 INTRA-LIGAND FREE ENERGY PREDICTED BY IDOCK:   -0.17 KCAL/MOL
REMARK 927      BINDING AFFINITY PREDICTED BY RF-SCORE:    0.00 PKD
ROOT
HETATM    1  N   UNL     1     -12.389  15.683  68.999  1.00  0.00    -0.578 NA 
HETATM    2  C   UNL     1     -11.492  14.726  69.636  1.00  0.00    -0.292 C  
HETATM    3  H1  UNL     1     -12.062  16.642  69.117  1.00  0.00     0.000 HD 
HETATM    4  H2  UNL     1     -13.348  15.573  69.330  1.00  0.00     0.000 HD 
ENDROOT
BRANCH   2   5
HETATM    5  C   UNL     1     -11.983  13.288  69.458  1.00  0.00    -0.366 C  
BRANCH   5   6
HETATM    6  C   UNL     1     -12.440  12.593  70.749  1.00  0.00    -0.357 C  
BRANCH   6   7
HETATM    7  C   UNL     1     -13.327  13.483  71.622  1.00  0.00    -0.420 C  
BRANCH   7   8
HETATM    8  C   UNL     1     -12.684  13.764  72.978  1.00  0.00     0.089 C  
HETATM    9  C   UNL     1     -12.796  15.225  73.351  1.00  0.00    -0.543 C  
HETATM   10  O   UNL     1     -13.365  16.083  72.699  1.00  0.00    -0.468 OA 
HETATM   11  O   UNL     1     -12.188  15.502  74.528  1.00  0.00    -0.645 OA 
ENDBRANCH   7   8
ENDBRANCH   6   7
ENDBRANCH   5   6
ENDBRANCH   2   5
TORSDOF 4
ENDMDL
MODEL       73
REMARK 921   NORMALIZED FREE ENERGY PREDICTED BY IDOCK:   -2.97 KCAL/MOL
REMARK 922        TOTAL FREE ENERGY PREDICTED BY IDOCK:   -3.75 KCAL/MOL
REMARK 923 INTER-LIGAND FREE ENERGY PREDICTED BY IDOCK:   -3.36 KCAL/MOL
REMARK 924 INTRA-LIGAND FREE ENERGY PREDICTED BY IDOCK:   -0.39 KCAL/MOL
REMARK 927      BINDING AFFINITY PREDICTED BY RF-SCORE:    0.00 PKD
ROOT
HETATM    1  N   UNL     1      -9.048  16.056  67.086  1.00  0.00    -0.203 NA 
HETATM    2  C   UNL     1     -10.474  16.299  67.272  1.00  0.00    -0.300 C  
HETATM    3  H1  UNL     1      -8.863  15.545  66.223  1.00  0.00     0.000 HD 
HETATM    4  H2  UNL     1      -8.642  15.582  67.894  1.00  0.00     0.000 HD 
ENDROOT
BRANCH   2   5
HETATM    5  C   UNL     1     -10.751  17.065  68.567  1.00  0.00    -0.352 C  
BRANCH   5   6
HETATM    6  C   UNL     1      -9.993  18.393  68.711  1.00  0.00    -0.404 C  
BRANCH   6   7
HETATM    7  C   UNL     1     -10.389  19.422  67.651  1.00  0.00    -0.550 C  
BRANCH   7   8
HETATM    8  C   UNL     1      -9.234  20.363  67.318  1.00  0.00    -0.525 C  
HETATM    9  C   UNL     1      -8.316  19.765  66.277  1.00  0.00    -0.357 C  
HETATM   10  O   UNL     1      -8.476  18.693  65.719  1.00  0.00    -0.446 OA 
HETATM   11  O   UNL     1      -7.258  20.566  66.005  1.00  0.00    -0.221 OA 
ENDBRANCH   7   8
ENDBRANCH   6   7
ENDBRANCH   5   6
ENDBRANCH   2   5
TORSDOF 4
ENDMDL
MODEL       74
REMARK 921   NORMALIZED FREE ENERGY PREDICTED BY IDOCK:   -2.97 KCAL/MOL
REMARK 922        TOTAL FREE ENERGY PREDICTED BY IDOCK:   -3.75 KCAL/MOL
REMARK 923 INTER-LIGAND FREE ENERGY PREDICTED BY IDOCK:   -3.68 KCAL/MOL
REMARK 924 INTRA-LIGAND FREE ENERGY PREDICTED BY IDOCK:   -0.06 KCAL/MOL
REMARK 927      BINDING AFFINITY PREDICTED BY RF-SCORE:    0.00 PKD
ROOT
HETATM    1  N   UNL     1     -12.430   6.264  72.391  1.00  0.00    -0.545 NA 
HETATM    2  C   UNL     1     -11.484   7.254  71.888  1.00  0.00    -0.267 C  
HETATM    3  H1  UNL     1     -12.226   5.332  72.029  1.00  0.00     0.000 HD 
HETATM    4  H2  UNL     1     -13.393   6.537  72.198  1.00  0.00     0.000 HD 
ENDROOT
BRANCH   2   5
HETATM    5  C   UNL     1     -11.789   8.651  72.432  1.00  0.00    -0.402 C  
BRANCH   5   6
HETATM    6  C   UNL     1     -13.082   9.287  71.901  1.00  0.00    -0.490 C  
BRANCH   6   7
HETATM    7  C   UNL     1     -13.036  10.816  71.900  1.00  0.00    -0.557 C  
BRANCH   7   8
HETATM    8  C   UNL     1     -12.280  11.358  70.690  1.00  0.00    -0.484 C  
HETATM    9  C   UNL     1     -12.238  12.869  70.695  1.00  0.00    -0.302 C  
HETATM   10  O   UNL     1     -12.697  13.590  71.565  1.00  0.00    -0.352 OA 
HETATM   11  O   UNL     1     -11.613  13.369  69.603  1.00  0.00    -0.285 OA 
ENDBRANCH   7   8
ENDBRANCH   6   7
ENDBRANCH   5   6
ENDBRANCH   2   5
TORSDOF 4
ENDMDL
MODEL       75
REMARK 921   NORMALIZED FREE ENERGY PREDICTED BY IDOCK:   -2.97 KCAL/MOL
REMARK 922        TOTAL FREE ENERGY PREDICTED BY IDOCK:   -3.74 KCAL/MOL
REMARK 923 INTER-LIGAND FREE ENERGY PREDICTED BY IDOCK:   -3.29 KCAL/MOL
REMARK 924 INTRA-LIGAND FREE ENERGY PREDICTED BY IDOCK:   -0.45 KCAL/MOL
REMARK 927      BINDING AFFINITY PREDICTED BY RF-SCORE:    0.00 PKD
ROOT
HETATM    1  N   UNL     1     -12.235  15.123  68.661  1.00  0.00    -0.597 NA 
HETATM    2  C   UNL     1     -11.300  14.180  68.057  1.00  0.00    -0.299 C  
HETATM    3  H1  UNL     1     -12.024  15.281  69.646  1.00  0.00     0.000 HD 
HETATM    4  H2  UNL     1     -13.201  14.826  68.528  1.00  0.00     0.000 HD 
ENDROOT
BRANCH   2   5
HETATM    5  C   UNL     1     -11.615  13.944  66.578  1.00  0.00    -0.385 C  
BRANCH   5   6
HETATM    6  C   UNL     1     -10.519  14.391  65.600  1.00  0.00    -0.347 C  
BRANCH   6   7
HETATM    7  C   UNL     1     -10.422  15.913  65.470  1.00  0.00    -0.425 C  
BRANCH   7   8
HETATM    8  C   UNL     1      -9.174  16.461  66.156  1.00  0.00    -0.365 C  
HETATM    9  C   UNL     1      -9.530  17.429  67.262  1.00  0.00    -0.251 C  
HETATM   10  O   UNL     1     -10.661  17.717  67.616  1.00  0.00    -0.383 OA 
HETATM   11  O   UNL     1      -8.434  17.962  67.849  1.00  0.00    -0.241 OA 
ENDBRANCH   7   8
ENDBRANCH   6   7
ENDBRANCH   5   6
ENDBRANCH   2   5
TORSDOF 4
ENDMDL
MODEL       76
REMARK 921   NORMALIZED FREE ENERGY PREDICTED BY IDOCK:   -2.96 KCAL/MOL
REMARK 922        TOTAL FREE ENERGY PREDICTED BY IDOCK:   -3.73 KCAL/MOL
REMARK 923 INTER-LIGAND FREE ENERGY PREDICTED BY IDOCK:   -3.68 KCAL/MOL
REMARK 924 INTRA-LIGAND FREE ENERGY PREDICTED BY IDOCK:   -0.05 KCAL/MOL
REMARK 927      BINDING AFFINITY PREDICTED BY RF-SCORE:    0.00 PKD
ROOT
HETATM    1  N   UNL     1     -11.487   4.539  65.083  1.00  0.00    -1.109 NA 
HETATM    2  C   UNL     1     -10.455   4.831  66.071  1.00  0.00    -0.292 C  
HETATM    3  H1  UNL     1     -11.192   3.805  64.438  1.00  0.00     0.000 HD 
HETATM    4  H2  UNL     1     -11.774   5.381  64.584  1.00  0.00     0.000 HD 
ENDROOT
BRANCH   2   5
HETATM    5  C   UNL     1     -10.897   5.931  67.039  1.00  0.00    -0.379 C  
BRANCH   5   6
HETATM    6  C   UNL     1     -10.191   5.921  68.401  1.00  0.00    -0.236 C  
BRANCH   6   7
HETATM    7  C   UNL     1     -11.121   6.290  69.558  1.00  0.00    -0.476 C  
BRANCH   7   8
HETATM    8  C   UNL     1     -10.782   5.511  70.827  1.00  0.00    -0.294 C  
HETATM    9  C   UNL     1     -11.501   6.075  72.031  1.00  0.00    -0.287 C  
HETATM   10  O   UNL     1     -12.295   7.001  72.015  1.00  0.00    -0.310 OA 
HETATM   11  O   UNL     1     -11.174   5.428  73.173  1.00  0.00    -0.296 OA 
ENDBRANCH   7   8
ENDBRANCH   6   7
ENDBRANCH   5   6
ENDBRANCH   2   5
TORSDOF 4
ENDMDL
MODEL       77
REMARK 921   NORMALIZED FREE ENERGY PREDICTED BY IDOCK:   -2.96 KCAL/MOL
REMARK 922        TOTAL FREE ENERGY PREDICTED BY IDOCK:   -3.73 KCAL/MOL
REMARK 923 INTER-LIGAND FREE ENERGY PREDICTED BY IDOCK:   -3.59 KCAL/MOL
REMARK 924 INTRA-LIGAND FREE ENERGY PREDICTED BY IDOCK:   -0.14 KCAL/MOL
REMARK 927      BINDING AFFINITY PREDICTED BY RF-SCORE:    0.00 PKD
ROOT
HETATM    1  N   UNL     1      -9.144  16.599  65.853  1.00  0.00    -0.511 NA 
HETATM    2  C   UNL     1     -10.032  15.442  65.816  1.00  0.00    -0.362 C  
HETATM    3  H1  UNL     1      -8.649  16.721  64.970  1.00  0.00     0.000 HD 
HETATM    4  H2  UNL     1      -8.497  16.548  66.640  1.00  0.00     0.000 HD 
ENDROOT
BRANCH   2   5
HETATM    5  C   UNL     1     -10.775  15.260  67.142  1.00  0.00    -0.316 C  
BRANCH   5   6
HETATM    6  C   UNL     1     -11.877  14.193  67.127  1.00  0.00    -0.454 C  
BRANCH   6   7
HETATM    7  C   UNL     1     -12.049  13.532  65.758  1.00  0.00    -0.473 C  
BRANCH   7   8
HETATM    8  C   UNL     1     -11.541  12.093  65.756  1.00  0.00    -0.414 C  
HETATM    9  C   UNL     1     -10.841  11.755  64.460  1.00  0.00    -0.321 C  
HETATM   10  O   UNL     1     -10.647  12.526  63.535  1.00  0.00    -0.432 OA 
HETATM   11  O   UNL     1     -10.426  10.467  64.421  1.00  0.00    -0.304 OA 
ENDBRANCH   7   8
ENDBRANCH   6   7
ENDBRANCH   5   6
ENDBRANCH   2   5
TORSDOF 4
ENDMDL
MODEL       78
REMARK 921   NORMALIZED FREE ENERGY PREDICTED BY IDOCK:   -2.95 KCAL/MOL
REMARK 922        TOTAL FREE ENERGY PREDICTED BY IDOCK:   -3.72 KCAL/MOL
REMARK 923 INTER-LIGAND FREE ENERGY PREDICTED BY IDOCK:   -3.64 KCAL/MOL
REMARK 924 INTRA-LIGAND FREE ENERGY PREDICTED BY IDOCK:   -0.09 KCAL/MOL
REMARK 927      BINDING AFFINITY PREDICTED BY RF-SCORE:    0.00 PKD
ROOT
HETATM    1  N   UNL     1     -13.597  15.990  73.580  1.00  0.00    -0.844 NA 
HETATM    2  C   UNL     1     -12.220  15.642  73.247  1.00  0.00    -0.506 C  
HETATM    3  H1  UNL     1     -13.642  16.617  74.383  1.00  0.00     0.000 HD 
HETATM    4  H2  UNL     1     -14.167  15.156  73.725  1.00  0.00     0.000 HD 
ENDROOT
BRANCH   2   5
HETATM    5  C   UNL     1     -12.152  14.702  72.042  1.00  0.00    -0.346 C  
BRANCH   5   6
HETATM    6  C   UNL     1     -12.200  15.395  70.673  1.00  0.00    -0.431 C  
BRANCH   6   7
HETATM    7  C   UNL     1     -10.871  16.049  70.291  1.00  0.00    -0.327 C  
BRANCH   7   8
HETATM    8  C   UNL     1     -10.411  15.624  68.899  1.00  0.00    -0.218 C  
HETATM    9  C   UNL     1     -10.436  16.783  67.929  1.00  0.00    -0.335 C  
HETATM   10  O   UNL     1     -10.733  17.933  68.204  1.00  0.00    -0.367 OA 
HETATM   11  O   UNL     1     -10.078  16.413  66.677  1.00  0.00    -0.263 OA 
ENDBRANCH   7   8
ENDBRANCH   6   7
ENDBRANCH   5   6
ENDBRANCH   2   5
TORSDOF 4
ENDMDL
MODEL       79
REMARK 921   NORMALIZED FREE ENERGY PREDICTED BY IDOCK:   -2.94 KCAL/MOL
REMARK 922        TOTAL FREE ENERGY PREDICTED BY IDOCK:   -3.72 KCAL/MOL
REMARK 923 INTER-LIGAND FREE ENERGY PREDICTED BY IDOCK:   -3.63 KCAL/MOL
REMARK 924 INTRA-LIGAND FREE ENERGY PREDICTED BY IDOCK:   -0.09 KCAL/MOL
REMARK 927      BINDING AFFINITY PREDICTED BY RF-SCORE:    0.00 PKD
ROOT
HETATM    1  N   UNL     1      -9.227  14.162  66.372  1.00  0.00    -0.457 NA 
HETATM    2  C   UNL     1      -9.631  14.196  67.774  1.00  0.00    -0.219 C  
HETATM    3  H1  UNL     1      -8.252  13.883  66.270  1.00  0.00     0.000 HD 
HETATM    4  H2  UNL     1      -9.410  15.053  65.910  1.00  0.00     0.000 HD 
ENDROOT
BRANCH   2   5
HETATM    5  C   UNL     1     -11.095  14.615  67.927  1.00  0.00    -0.301 C  
BRANCH   5   6
HETATM    6  C   UNL     1     -12.054  13.488  68.335  1.00  0.00    -0.293 C  
BRANCH   6   7
HETATM    7  C   UNL     1     -11.765  12.938  69.733  1.00  0.00    -0.351 C  
BRANCH   7   8
HETATM    8  C   UNL     1     -12.457  13.760  70.818  1.00  0.00    -0.441 C  
HETATM    9  C   UNL     1     -13.219  12.876  71.779  1.00  0.00    -0.384 C  
HETATM   10  O   UNL     1     -13.256  11.658  71.748  1.00  0.00    -0.453 OA 
HETATM   11  O   UNL     1     -13.879  13.591  72.720  1.00  0.00    -0.730 OA 
ENDBRANCH   7   8
ENDBRANCH   6   7
ENDBRANCH   5   6
ENDBRANCH   2   5
TORSDOF 4
ENDMDL
MODEL       80
REMARK 921   NORMALIZED FREE ENERGY PREDICTED BY IDOCK:   -2.94 KCAL/MOL
REMARK 922        TOTAL FREE ENERGY PREDICTED BY IDOCK:   -3.71 KCAL/MOL
REMARK 923 INTER-LIGAND FREE ENERGY PREDICTED BY IDOCK:   -3.72 KCAL/MOL
REMARK 924 INTRA-LIGAND FREE ENERGY PREDICTED BY IDOCK:    0.01 KCAL/MOL
REMARK 927      BINDING AFFINITY PREDICTED BY RF-SCORE:    0.00 PKD
ROOT
HETATM    1  N   UNL     1      -6.455  21.113  65.400  1.00  0.00    -0.480 NA 
HETATM    2  C   UNL     1      -6.557  20.204  66.537  1.00  0.00    -0.212 C  
HETATM    3  H1  UNL     1      -5.550  21.034  64.937  1.00  0.00     0.000 HD 
HETATM    4  H2  UNL     1      -6.652  22.075  65.674  1.00  0.00     0.000 HD 
ENDROOT
BRANCH   2   5
HETATM    5  C   UNL     1      -7.916  20.321  67.231  1.00  0.00    -0.378 C  
BRANCH   5   6
HETATM    6  C   UNL     1      -8.086  19.443  68.478  1.00  0.00    -0.396 C  
BRANCH   6   7
HETATM    7  C   UNL     1      -9.344  18.575  68.428  1.00  0.00    -0.359 C  
BRANCH   7   8
HETATM    8  C   UNL     1     -10.292  19.016  67.316  1.00  0.00    -0.505 C  
HETATM    9  C   UNL     1     -10.158  18.136  66.094  1.00  0.00    -0.336 C  
HETATM   10  O   UNL     1      -9.432  17.161  65.996  1.00  0.00    -0.450 OA 
HETATM   11  O   UNL     1     -10.956  18.543  65.079  1.00  0.00    -0.602 OA 
ENDBRANCH   7   8
ENDBRANCH   6   7
ENDBRANCH   5   6
ENDBRANCH   2   5
TORSDOF 4
ENDMDL
MODEL       81
REMARK 921   NORMALIZED FREE ENERGY PREDICTED BY IDOCK:   -2.93 KCAL/MOL
REMARK 922        TOTAL FREE ENERGY PREDICTED BY IDOCK:   -3.71 KCAL/MOL
REMARK 923 INTER-LIGAND FREE ENERGY PREDICTED BY IDOCK:   -3.59 KCAL/MOL
REMARK 924 INTRA-LIGAND FREE ENERGY PREDICTED BY IDOCK:   -0.12 KCAL/MOL
REMARK 927      BINDING AFFINITY PREDICTED BY RF-SCORE:    0.00 PKD
ROOT
HETATM    1  N   UNL     1      -9.315  12.131  68.790  1.00  0.00    -0.399 NA 
HETATM    2  C   UNL     1     -10.324  13.096  68.367  1.00  0.00    -0.253 C  
HETATM    3  H1  UNL     1      -8.423  12.291  68.322  1.00  0.00     0.000 HD 
HETATM    4  H2  UNL     1      -9.637  11.172  68.659  1.00  0.00     0.000 HD 
ENDROOT
BRANCH   2   5
HETATM    5  C   UNL     1     -11.662  12.855  69.070  1.00  0.00    -0.375 C  
BRANCH   5   6
HETATM    6  C   UNL     1     -12.022  11.380  69.293  1.00  0.00    -0.400 C  
BRANCH   6   7
HETATM    7  C   UNL     1     -12.314  11.053  70.759  1.00  0.00    -0.496 C  
BRANCH   7   8
HETATM    8  C   UNL     1     -11.601   9.780  71.207  1.00  0.00    -0.465 C  
HETATM    9  C   UNL     1     -12.471   8.953  72.126  1.00  0.00    -0.389 C  
HETATM   10  O   UNL     1     -13.617   9.217  72.448  1.00  0.00    -0.458 OA 
HETATM   11  O   UNL     1     -11.836   7.845  72.573  1.00  0.00    -0.354 OA 
ENDBRANCH   7   8
ENDBRANCH   6   7
ENDBRANCH   5   6
ENDBRANCH   2   5
TORSDOF 4
ENDMDL
MODEL       82
REMARK 921   NORMALIZED FREE ENERGY PREDICTED BY IDOCK:   -2.93 KCAL/MOL
REMARK 922        TOTAL FREE ENERGY PREDICTED BY IDOCK:   -3.70 KCAL/MOL
REMARK 923 INTER-LIGAND FREE ENERGY PREDICTED BY IDOCK:   -3.63 KCAL/MOL
REMARK 924 INTRA-LIGAND FREE ENERGY PREDICTED BY IDOCK:   -0.07 KCAL/MOL
REMARK 927      BINDING AFFINITY PREDICTED BY RF-SCORE:    0.00 PKD
ROOT
HETATM    1  N   UNL     1      -8.663   6.943  65.427  1.00  0.00    -0.347 NA 
HETATM    2  C   UNL     1      -9.414   7.188  66.654  1.00  0.00    -0.170 C  
HETATM    3  H1  UNL     1      -8.302   5.989  65.393  1.00  0.00     0.000 HD 
HETATM    4  H2  UNL     1      -7.919   7.629  65.302  1.00  0.00     0.000 HD 
ENDROOT
BRANCH   2   5
HETATM    5  C   UNL     1      -9.957   8.618  66.704  1.00  0.00    -0.357 C  
BRANCH   5   6
HETATM    6  C   UNL     1      -9.658   9.471  65.463  1.00  0.00    -0.349 C  
BRANCH   6   7
HETATM    7  C   UNL     1     -10.148  10.914  65.599  1.00  0.00    -0.318 C  
BRANCH   7   8
HETATM    8  C   UNL     1     -10.755  11.429  64.297  1.00  0.00    -0.420 C  
HETATM    9  C   UNL     1     -12.035  12.194  64.548  1.00  0.00    -0.337 C  
HETATM   10  O   UNL     1     -12.520  12.429  65.642  1.00  0.00    -0.640 OA 
HETATM   11  O   UNL     1     -12.614  12.617  63.400  1.00  0.00    -0.695 OA 
ENDBRANCH   7   8
ENDBRANCH   6   7
ENDBRANCH   5   6
ENDBRANCH   2   5
TORSDOF 4
ENDMDL
MODEL       83
REMARK 921   NORMALIZED FREE ENERGY PREDICTED BY IDOCK:   -2.93 KCAL/MOL
REMARK 922        TOTAL FREE ENERGY PREDICTED BY IDOCK:   -3.70 KCAL/MOL
REMARK 923 INTER-LIGAND FREE ENERGY PREDICTED BY IDOCK:   -3.54 KCAL/MOL
REMARK 924 INTRA-LIGAND FREE ENERGY PREDICTED BY IDOCK:   -0.16 KCAL/MOL
REMARK 927      BINDING AFFINITY PREDICTED BY RF-SCORE:    0.00 PKD
ROOT
HETATM    1  N   UNL     1      -9.520  16.754  67.289  1.00  0.00    -0.228 NA 
HETATM    2  C   UNL     1     -10.710  17.202  68.005  1.00  0.00    -0.372 C  
HETATM    3  H1  UNL     1      -9.560  17.004  66.301  1.00  0.00     0.000 HD 
HETATM    4  H2  UNL     1      -9.364  15.754  67.414  1.00  0.00     0.000 HD 
ENDROOT
BRANCH   2   5
HETATM    5  C   UNL     1     -10.649  16.827  69.487  1.00  0.00    -0.283 C  
BRANCH   5   6
HETATM    6  C   UNL     1     -10.654  15.320  69.777  1.00  0.00    -0.293 C  
BRANCH   6   7
HETATM    7  C   UNL     1     -12.001  14.660  69.476  1.00  0.00    -0.361 C  
BRANCH   7   8
HETATM    8  C   UNL     1     -12.513  13.853  70.667  1.00  0.00    -0.436 C  
HETATM    9  C   UNL     1     -13.482  14.656  71.504  1.00  0.00    -0.388 C  
HETATM   10  O   UNL     1     -13.863  15.788  71.259  1.00  0.00    -0.547 OA 
HETATM   11  O   UNL     1     -13.908  13.974  72.592  1.00  0.00    -0.636 OA 
ENDBRANCH   7   8
ENDBRANCH   6   7
ENDBRANCH   5   6
ENDBRANCH   2   5
TORSDOF 4
ENDMDL
MODEL       84
REMARK 921   NORMALIZED FREE ENERGY PREDICTED BY IDOCK:   -2.93 KCAL/MOL
REMARK 922        TOTAL FREE ENERGY PREDICTED BY IDOCK:   -3.69 KCAL/MOL
REMARK 923 INTER-LIGAND FREE ENERGY PREDICTED BY IDOCK:   -3.62 KCAL/MOL
REMARK 924 INTRA-LIGAND FREE ENERGY PREDICTED BY IDOCK:   -0.07 KCAL/MOL
REMARK 927      BINDING AFFINITY PREDICTED BY RF-SCORE:    0.00 PKD
ROOT
HETATM    1  N   UNL     1     -11.836   5.262  73.123  1.00  0.00    -0.524 NA 
HETATM    2  C   UNL     1     -10.566   5.891  73.470  1.00  0.00    -0.268 C  
HETATM    3  H1  UNL     1     -11.799   4.250  73.245  1.00  0.00     0.000 HD 
HETATM    4  H2  UNL     1     -12.130   5.513  72.179  1.00  0.00     0.000 HD 
ENDROOT
BRANCH   2   5
HETATM    5  C   UNL     1     -10.621   7.409  73.287  1.00  0.00    -0.442 C  
BRANCH   5   6
HETATM    6  C   UNL     1     -11.307   7.883  71.998  1.00  0.00    -0.343 C  
BRANCH   6   7
HETATM    7  C   UNL     1     -10.935   9.318  71.618  1.00  0.00    -0.433 C  
BRANCH   7   8
HETATM    8  C   UNL     1     -11.185   9.593  70.138  1.00  0.00    -0.302 C  
HETATM    9  C   UNL     1     -11.985  10.861  69.939  1.00  0.00    -0.353 C  
HETATM   10  O   UNL     1     -12.354  11.615  70.823  1.00  0.00    -0.376 OA 
HETATM   11  O   UNL     1     -12.258  11.096  68.634  1.00  0.00    -0.582 OA 
ENDBRANCH   7   8
ENDBRANCH   6   7
ENDBRANCH   5   6
ENDBRANCH   2   5
TORSDOF 4
ENDMDL
MODEL       85
REMARK 921   NORMALIZED FREE ENERGY PREDICTED BY IDOCK:   -2.91 KCAL/MOL
REMARK 922        TOTAL FREE ENERGY PREDICTED BY IDOCK:   -3.68 KCAL/MOL
REMARK 923 INTER-LIGAND FREE ENERGY PREDICTED BY IDOCK:   -3.60 KCAL/MOL
REMARK 924 INTRA-LIGAND FREE ENERGY PREDICTED BY IDOCK:   -0.08 KCAL/MOL
REMARK 927      BINDING AFFINITY PREDICTED BY RF-SCORE:    0.00 PKD
ROOT
HETATM    1  N   UNL     1     -12.821  15.321  70.299  1.00  0.00    -0.646 NA 
HETATM    2  C   UNL     1     -12.051  15.052  69.090  1.00  0.00    -0.225 C  
HETATM    3  H1  UNL     1     -13.027  16.315  70.399  1.00  0.00     0.000 HD 
HETATM    4  H2  UNL     1     -12.355  14.952  71.128  1.00  0.00     0.000 HD 
ENDROOT
BRANCH   2   5
HETATM    5  C   UNL     1     -11.742  13.561  68.940  1.00  0.00    -0.379 C  
BRANCH   5   6
HETATM    6  C   UNL     1     -12.014  12.712  70.189  1.00  0.00    -0.375 C  
BRANCH   6   7
HETATM    7  C   UNL     1     -12.000  11.209  69.903  1.00  0.00    -0.439 C  
BRANCH   7   8
HETATM    8  C   UNL     1     -12.405  10.396  71.130  1.00  0.00    -0.505 C  
HETATM    9  C   UNL     1     -11.329   9.409  71.519  1.00  0.00    -0.394 C  
HETATM   10  O   UNL     1     -10.245   9.288  70.974  1.00  0.00    -0.271 OA 
HETATM   11  O   UNL     1     -11.691   8.645  72.576  1.00  0.00    -0.361 OA 
ENDBRANCH   7   8
ENDBRANCH   6   7
ENDBRANCH   5   6
ENDBRANCH   2   5
TORSDOF 4
ENDMDL
MODEL       86
REMARK 921   NORMALIZED FREE ENERGY PREDICTED BY IDOCK:   -2.91 KCAL/MOL
REMARK 922        TOTAL FREE ENERGY PREDICTED BY IDOCK:   -3.68 KCAL/MOL
REMARK 923 INTER-LIGAND FREE ENERGY PREDICTED BY IDOCK:   -3.58 KCAL/MOL
REMARK 924 INTRA-LIGAND FREE ENERGY PREDICTED BY IDOCK:   -0.10 KCAL/MOL
REMARK 927      BINDING AFFINITY PREDICTED BY RF-SCORE:    0.00 PKD
ROOT
HETATM    1  N   UNL     1      -7.502  18.666  68.875  1.00  0.00    -0.296 NA 
HETATM    2  C   UNL     1      -6.920  17.339  68.709  1.00  0.00    -0.230 C  
HETATM    3  H1  UNL     1      -7.130  19.140  69.697  1.00  0.00     0.000 HD 
HETATM    4  H2  UNL     1      -8.521  18.626  68.897  1.00  0.00     0.000 HD 
ENDROOT
BRANCH   2   5
HETATM    5  C   UNL     1      -7.479  16.629  67.475  1.00  0.00    -0.176 C  
BRANCH   5   6
HETATM    6  C   UNL     1      -8.175  17.544  66.458  1.00  0.00    -0.311 C  
BRANCH   6   7
HETATM    7  C   UNL     1      -9.690  17.339  66.412  1.00  0.00    -0.303 C  
BRANCH   7   8
HETATM    8  C   UNL     1     -10.056  15.917  65.993  1.00  0.00    -0.359 C  
HETATM    9  C   UNL     1     -10.952  15.913  64.775  1.00  0.00    -0.375 C  
HETATM   10  O   UNL     1     -11.314  16.898  64.155  1.00  0.00    -1.208 OA 
HETATM   11  O   UNL     1     -11.326  14.662  64.419  1.00  0.00    -0.323 OA 
ENDBRANCH   7   8
ENDBRANCH   6   7
ENDBRANCH   5   6
ENDBRANCH   2   5
TORSDOF 4
ENDMDL
MODEL       87
REMARK 921   NORMALIZED FREE ENERGY PREDICTED BY IDOCK:   -2.90 KCAL/MOL
REMARK 922        TOTAL FREE ENERGY PREDICTED BY IDOCK:   -3.67 KCAL/MOL
REMARK 923 INTER-LIGAND FREE ENERGY PREDICTED BY IDOCK:   -3.53 KCAL/MOL
REMARK 924 INTRA-LIGAND FREE ENERGY PREDICTED BY IDOCK:   -0.14 KCAL/MOL
REMARK 927      BINDING AFFINITY PREDICTED BY RF-SCORE:    0.00 PKD
ROOT
HETATM    1  N   UNL     1     -12.360  10.729  69.106  1.00  0.00    -0.736 NA 
HETATM    2  C   UNL     1     -11.605  11.692  68.312  1.00  0.00    -0.310 C  
HETATM    3  H1  UNL     1     -11.997   9.783  68.993  1.00  0.00     0.000 HD 
HETATM    4  H2  UNL     1     -13.357  10.773  68.897  1.00  0.00     0.000 HD 
ENDROOT
BRANCH   2   5
HETATM    5  C   UNL     1     -12.150  13.112  68.482  1.00  0.00    -0.217 C  
BRANCH   5   6
HETATM    6  C   UNL     1     -11.244  14.065  69.273  1.00  0.00    -0.304 C  
BRANCH   6   7
HETATM    7  C   UNL     1     -12.026  15.136  70.035  1.00  0.00    -0.374 C  
BRANCH   7   8
HETATM    8  C   UNL     1     -11.811  15.028  71.542  1.00  0.00    -0.429 C  
HETATM    9  C   UNL     1     -12.943  14.282  72.210  1.00  0.00    -0.376 C  
HETATM   10  O   UNL     1     -13.894  13.775  71.640  1.00  0.00    -0.329 OA 
HETATM   11  O   UNL     1     -12.793  14.219  73.554  1.00  0.00    -0.453 OA 
ENDBRANCH   7   8
ENDBRANCH   6   7
ENDBRANCH   5   6
ENDBRANCH   2   5
TORSDOF 4
ENDMDL
MODEL       88
REMARK 921   NORMALIZED FREE ENERGY PREDICTED BY IDOCK:   -2.90 KCAL/MOL
REMARK 922        TOTAL FREE ENERGY PREDICTED BY IDOCK:   -3.66 KCAL/MOL
REMARK 923 INTER-LIGAND FREE ENERGY PREDICTED BY IDOCK:   -3.59 KCAL/MOL
REMARK 924 INTRA-LIGAND FREE ENERGY PREDICTED BY IDOCK:   -0.07 KCAL/MOL
REMARK 927      BINDING AFFINITY PREDICTED BY RF-SCORE:    0.00 PKD
ROOT
HETATM    1  N   UNL     1     -11.433   4.623  65.259  1.00  0.00    -1.096 NA 
HETATM    2  C   UNL     1     -10.452   5.017  66.265  1.00  0.00    -0.303 C  
HETATM    3  H1  UNL     1     -11.156   3.765  64.782  1.00  0.00     0.000 HD 
HETATM    4  H2  UNL     1     -11.612   5.377  64.597  1.00  0.00     0.000 HD 
ENDROOT
BRANCH   2   5
HETATM    5  C   UNL     1     -10.868   6.304  66.982  1.00  0.00    -0.458 C  
BRANCH   5   6
HETATM    6  C   UNL     1     -11.140   6.151  68.485  1.00  0.00    -0.352 C  
BRANCH   6   7
HETATM    7  C   UNL     1     -10.438   7.217  69.328  1.00  0.00    -0.220 C  
BRANCH   7   8
HETATM    8  C   UNL     1     -11.167   7.465  70.646  1.00  0.00    -0.292 C  
HETATM    9  C   UNL     1     -11.570   8.915  70.791  1.00  0.00    -0.259 C  
HETATM   10  O   UNL     1     -11.394   9.788  69.958  1.00  0.00    -0.242 OA 
HETATM   11  O   UNL     1     -12.175   9.164  71.976  1.00  0.00    -0.367 OA 
ENDBRANCH   7   8
ENDBRANCH   6   7
ENDBRANCH   5   6
ENDBRANCH   2   5
TORSDOF 4
ENDMDL
MODEL       89
REMARK 921   NORMALIZED FREE ENERGY PREDICTED BY IDOCK:   -2.90 KCAL/MOL
REMARK 922        TOTAL FREE ENERGY PREDICTED BY IDOCK:   -3.66 KCAL/MOL
REMARK 923 INTER-LIGAND FREE ENERGY PREDICTED BY IDOCK:   -3.50 KCAL/MOL
REMARK 924 INTRA-LIGAND FREE ENERGY PREDICTED BY IDOCK:   -0.15 KCAL/MOL
REMARK 927      BINDING AFFINITY PREDICTED BY RF-SCORE:    0.00 PKD
ROOT
HETATM    1  N   UNL     1     -10.447  16.937  65.454  1.00  0.00    -0.642 NA 
HETATM    2  C   UNL     1     -10.295  16.357  66.784  1.00  0.00    -0.293 C  
HETATM    3  H1  UNL     1     -10.135  16.294  64.726  1.00  0.00     0.000 HD 
HETATM    4  H2  UNL     1      -9.973  17.838  65.383  1.00  0.00     0.000 HD 
ENDROOT
BRANCH   2   5
HETATM    5  C   UNL     1     -10.763  17.323  67.875  1.00  0.00    -0.351 C  
BRANCH   5   6
HETATM    6  C   UNL     1     -10.738  18.807  67.484  1.00  0.00    -0.474 C  
BRANCH   6   7
HETATM    7  C   UNL     1      -9.927  19.665  68.456  1.00  0.00    -0.542 C  
BRANCH   7   8
HETATM    8  C   UNL     1      -8.521  19.110  68.663  1.00  0.00    -0.397 C  
HETATM    9  C   UNL     1      -7.522  19.777  67.745  1.00  0.00    -0.286 C  
HETATM   10  O   UNL     1      -7.768  20.681  66.964  1.00  0.00    -0.313 OA 
HETATM   11  O   UNL     1      -6.277  19.263  67.879  1.00  0.00    -0.204 OA 
ENDBRANCH   7   8
ENDBRANCH   6   7
ENDBRANCH   5   6
ENDBRANCH   2   5
TORSDOF 4
ENDMDL
MODEL       90
REMARK 921   NORMALIZED FREE ENERGY PREDICTED BY IDOCK:   -2.89 KCAL/MOL
REMARK 922        TOTAL FREE ENERGY PREDICTED BY IDOCK:   -3.66 KCAL/MOL
REMARK 923 INTER-LIGAND FREE ENERGY PREDICTED BY IDOCK:   -3.58 KCAL/MOL
REMARK 924 INTRA-LIGAND FREE ENERGY PREDICTED BY IDOCK:   -0.08 KCAL/MOL
REMARK 927      BINDING AFFINITY PREDICTED BY RF-SCORE:    0.00 PKD
ROOT
HETATM    1  N   UNL     1      -7.441   9.025  66.963  1.00  0.00    -0.087 NA 
HETATM    2  C   UNL     1      -8.397  10.121  67.078  1.00  0.00    -0.125 C  
HETATM    3  H1  UNL     1      -6.708   9.091  67.669  1.00  0.00     0.000 HD 
HETATM    4  H2  UNL     1      -7.051   8.968  66.023  1.00  0.00     0.000 HD 
ENDROOT
BRANCH   2   5
HETATM    5  C   UNL     1      -9.498  10.021  66.020  1.00  0.00    -0.251 C  
BRANCH   5   6
HETATM    6  C   UNL     1      -9.439  11.088  64.918  1.00  0.00    -0.270 C  
BRANCH   6   7
HETATM    7  C   UNL     1     -10.635  11.028  63.966  1.00  0.00    -0.395 C  
BRANCH   7   8
HETATM    8  C   UNL     1     -10.936  12.391  63.350  1.00  0.00    -0.442 C  
HETATM    9  C   UNL     1     -12.261  12.936  63.835  1.00  0.00    -0.449 C  
HETATM   10  O   UNL     1     -12.993  12.403  64.650  1.00  0.00    -0.793 OA 
HETATM   11  O   UNL     1     -12.568  14.123  63.261  1.00  0.00    -0.766 OA 
ENDBRANCH   7   8
ENDBRANCH   6   7
ENDBRANCH   5   6
ENDBRANCH   2   5
TORSDOF 4
ENDMDL
MODEL       91
REMARK 921   NORMALIZED FREE ENERGY PREDICTED BY IDOCK:   -2.89 KCAL/MOL
REMARK 922        TOTAL FREE ENERGY PREDICTED BY IDOCK:   -3.65 KCAL/MOL
REMARK 923 INTER-LIGAND FREE ENERGY PREDICTED BY IDOCK:   -3.54 KCAL/MOL
REMARK 924 INTRA-LIGAND FREE ENERGY PREDICTED BY IDOCK:   -0.11 KCAL/MOL
REMARK 927      BINDING AFFINITY PREDICTED BY RF-SCORE:    0.00 PKD
ROOT
HETATM    1  N   UNL     1     -12.476  14.275  63.218  1.00  0.00    -1.068 NA 
HETATM    2  C   UNL     1     -12.209  14.429  64.644  1.00  0.00    -0.464 C  
HETATM    3  H1  UNL     1     -13.473  14.334  63.014  1.00  0.00     0.000 HD 
HETATM    4  H2  UNL     1     -12.071  13.412  62.855  1.00  0.00     0.000 HD 
ENDROOT
BRANCH   2   5
HETATM    5  C   UNL     1     -10.713  14.341  64.950  1.00  0.00    -0.448 C  
BRANCH   5   6
HETATM    6  C   UNL     1     -10.108  15.592  65.603  1.00  0.00    -0.406 C  
BRANCH   6   7
HETATM    7  C   UNL     1     -10.708  15.896  66.977  1.00  0.00    -0.292 C  
BRANCH   7   8
HETATM    8  C   UNL     1      -9.627  16.208  68.009  1.00  0.00    -0.220 C  
HETATM    9  C   UNL     1      -9.164  14.957  68.720  1.00  0.00    -0.193 C  
HETATM   10  O   UNL     1      -9.548  13.823  68.487  1.00  0.00    -0.216 OA 
HETATM   11  O   UNL     1      -8.240  15.221  69.674  1.00  0.00    -0.234 OA 
ENDBRANCH   7   8
ENDBRANCH   6   7
ENDBRANCH   5   6
ENDBRANCH   2   5
TORSDOF 4
ENDMDL
MODEL       92
REMARK 921   NORMALIZED FREE ENERGY PREDICTED BY IDOCK:   -2.88 KCAL/MOL
REMARK 922        TOTAL FREE ENERGY PREDICTED BY IDOCK:   -3.64 KCAL/MOL
REMARK 923 INTER-LIGAND FREE ENERGY PREDICTED BY IDOCK:   -3.52 KCAL/MOL
REMARK 924 INTRA-LIGAND FREE ENERGY PREDICTED BY IDOCK:   -0.12 KCAL/MOL
REMARK 927      BINDING AFFINITY PREDICTED BY RF-SCORE:    0.00 PKD
ROOT
HETATM    1  N   UNL     1      -7.703  12.839  66.732  1.00  0.00    -0.376 NA 
HETATM    2  C   UNL     1      -8.810  11.898  66.610  1.00  0.00    -0.191 C  
HETATM    3  H1  UNL     1      -6.902  12.418  67.202  1.00  0.00     0.000 HD 
HETATM    4  H2  UNL     1      -7.995  13.701  67.193  1.00  0.00     0.000 HD 
ENDROOT
BRANCH   2   5
HETATM    5  C   UNL     1     -10.011  12.530  65.903  1.00  0.00    -0.269 C  
BRANCH   5   6
HETATM    6  C   UNL     1     -11.189  12.890  66.820  1.00  0.00    -0.337 C  
BRANCH   6   7
HETATM    7  C   UNL     1     -11.499  14.388  66.831  1.00  0.00    -0.379 C  
BRANCH   7   8
HETATM    8  C   UNL     1     -11.845  14.904  65.437  1.00  0.00    -0.188 C  
HETATM    9  C   UNL     1     -11.065  16.154  65.100  1.00  0.00    -0.249 C  
HETATM   10  O   UNL     1     -10.223  16.679  65.808  1.00  0.00    -0.424 OA 
HETATM   11  O   UNL     1     -11.396  16.654  63.886  1.00  0.00    -1.104 OA 
ENDBRANCH   7   8
ENDBRANCH   6   7
ENDBRANCH   5   6
ENDBRANCH   2   5
TORSDOF 4
ENDMDL
MODEL       93
REMARK 921   NORMALIZED FREE ENERGY PREDICTED BY IDOCK:   -2.87 KCAL/MOL
REMARK 922        TOTAL FREE ENERGY PREDICTED BY IDOCK:   -3.63 KCAL/MOL
REMARK 923 INTER-LIGAND FREE ENERGY PREDICTED BY IDOCK:   -3.55 KCAL/MOL
REMARK 924 INTRA-LIGAND FREE ENERGY PREDICTED BY IDOCK:   -0.08 KCAL/MOL
REMARK 927      BINDING AFFINITY PREDICTED BY RF-SCORE:    0.00 PKD
ROOT
HETATM    1  N   UNL     1     -12.035  11.158  67.882  1.00  0.00    -0.680 NA 
HETATM    2  C   UNL     1     -11.241  11.790  66.833  1.00  0.00    -0.327 C  
HETATM    3  H1  UNL     1     -11.547  10.363  68.294  1.00  0.00     0.000 HD 
HETATM    4  H2  UNL     1     -12.959  10.892  67.541  1.00  0.00     0.000 HD 
ENDROOT
BRANCH   2   5
HETATM    5  C   UNL     1     -11.973  12.983  66.215  1.00  0.00    -0.477 C  
BRANCH   5   6
HETATM    6  C   UNL     1     -11.829  14.303  66.985  1.00  0.00    -0.455 C  
BRANCH   6   7
HETATM    7  C   UNL     1     -10.703  14.270  68.019  1.00  0.00    -0.242 C  
BRANCH   7   8
HETATM    8  C   UNL     1     -11.237  14.409  69.442  1.00  0.00    -0.317 C  
HETATM    9  C   UNL     1     -11.062  15.817  69.963  1.00  0.00    -0.344 C  
HETATM   10  O   UNL     1     -10.603  16.756  69.335  1.00  0.00    -0.324 OA 
HETATM   11  O   UNL     1     -11.486  15.947  71.242  1.00  0.00    -0.387 OA 
ENDBRANCH   7   8
ENDBRANCH   6   7
ENDBRANCH   5   6
ENDBRANCH   2   5
TORSDOF 4
ENDMDL
MODEL       94
REMARK 921   NORMALIZED FREE ENERGY PREDICTED BY IDOCK:   -2.87 KCAL/MOL
REMARK 922        TOTAL FREE ENERGY PREDICTED BY IDOCK:   -3.62 KCAL/MOL
REMARK 923 INTER-LIGAND FREE ENERGY PREDICTED BY IDOCK:   -3.54 KCAL/MOL
REMARK 924 INTRA-LIGAND FREE ENERGY PREDICTED BY IDOCK:   -0.08 KCAL/MOL
REMARK 927      BINDING AFFINITY PREDICTED BY RF-SCORE:    0.00 PKD
ROOT
HETATM    1  N   UNL     1      -8.659  16.238  68.550  1.00  0.00    -0.200 NA 
HETATM    2  C   UNL     1      -9.230  15.516  69.682  1.00  0.00    -0.203 C  
HETATM    3  H1  UNL     1      -7.645  16.134  68.511  1.00  0.00     0.000 HD 
HETATM    4  H2  UNL     1      -8.933  17.220  68.558  1.00  0.00     0.000 HD 
ENDROOT
BRANCH   2   5
HETATM    5  C   UNL     1     -10.751  15.672  69.739  1.00  0.00    -0.309 C  
BRANCH   5   6
HETATM    6  C   UNL     1     -11.328  15.907  71.142  1.00  0.00    -0.435 C  
BRANCH   6   7
HETATM    7  C   UNL     1     -12.609  15.112  71.401  1.00  0.00    -0.424 C  
BRANCH   7   8
HETATM    8  C   UNL     1     -12.381  13.610  71.252  1.00  0.00    -0.359 C  
HETATM    9  C   UNL     1     -13.440  12.815  71.983  1.00  0.00    -0.444 C  
HETATM   10  O   UNL     1     -14.393  13.284  72.581  1.00  0.00    -0.679 OA 
HETATM   11  O   UNL     1     -13.226  11.481  71.903  1.00  0.00    -0.485 OA 
ENDBRANCH   7   8
ENDBRANCH   6   7
ENDBRANCH   5   6
ENDBRANCH   2   5
TORSDOF 4
ENDMDL
MODEL       95
REMARK 921   NORMALIZED FREE ENERGY PREDICTED BY IDOCK:   -2.85 KCAL/MOL
REMARK 922        TOTAL FREE ENERGY PREDICTED BY IDOCK:   -3.60 KCAL/MOL
REMARK 923 INTER-LIGAND FREE ENERGY PREDICTED BY IDOCK:   -3.39 KCAL/MOL
REMARK 924 INTRA-LIGAND FREE ENERGY PREDICTED BY IDOCK:   -0.20 KCAL/MOL
REMARK 927      BINDING AFFINITY PREDICTED BY RF-SCORE:    0.00 PKD
ROOT
HETATM    1  N   UNL     1     -11.990  11.793  67.755  1.00  0.00    -0.600 NA 
HETATM    2  C   UNL     1     -11.440  12.520  66.617  1.00  0.00    -0.359 C  
HETATM    3  H1  UNL     1     -11.253  11.398  68.340  1.00  0.00     0.000 HD 
HETATM    4  H2  UNL     1     -12.652  11.077  67.456  1.00  0.00     0.000 HD 
ENDROOT
BRANCH   2   5
HETATM    5  C   UNL     1     -12.546  13.113  65.740  1.00  0.00    -0.351 C  
BRANCH   5   6
HETATM    6  C   UNL     1     -12.180  14.423  65.030  1.00  0.00    -0.418 C  
BRANCH   6   7
HETATM    7  C   UNL     1     -10.730  14.847  65.271  1.00  0.00    -0.409 C  
BRANCH   7   8
HETATM    8  C   UNL     1     -10.622  16.333  65.602  1.00  0.00    -0.360 C  
HETATM    9  C   UNL     1     -10.450  16.558  67.087  1.00  0.00    -0.300 C  
HETATM   10  O   UNL     1     -10.356  15.685  67.932  1.00  0.00    -0.249 OA 
HETATM   11  O   UNL     1     -10.403  17.873  67.404  1.00  0.00    -0.348 OA 
ENDBRANCH   7   8
ENDBRANCH   6   7
ENDBRANCH   5   6
ENDBRANCH   2   5
TORSDOF 4
ENDMDL
MODEL       96
REMARK 921   NORMALIZED FREE ENERGY PREDICTED BY IDOCK:   -2.84 KCAL/MOL
REMARK 922        TOTAL FREE ENERGY PREDICTED BY IDOCK:   -3.59 KCAL/MOL
REMARK 923 INTER-LIGAND FREE ENERGY PREDICTED BY IDOCK:   -3.48 KCAL/MOL
REMARK 924 INTRA-LIGAND FREE ENERGY PREDICTED BY IDOCK:   -0.12 KCAL/MOL
REMARK 927      BINDING AFFINITY PREDICTED BY RF-SCORE:    0.00 PKD
ROOT
HETATM    1  N   UNL     1      -9.276  14.188  66.320  1.00  0.00    -0.486 NA 
HETATM    2  C   UNL     1      -9.648  14.389  67.717  1.00  0.00    -0.216 C  
HETATM    3  H1  UNL     1      -8.324  13.834  66.233  1.00  0.00     0.000 HD 
HETATM    4  H2  UNL     1      -9.409  15.038  65.773  1.00  0.00     0.000 HD 
ENDROOT
BRANCH   2   5
HETATM    5  C   UNL     1     -11.078  14.920  67.847  1.00  0.00    -0.304 C  
BRANCH   5   6
HETATM    6  C   UNL     1     -11.230  16.164  68.734  1.00  0.00    -0.365 C  
BRANCH   6   7
HETATM    7  C   UNL     1     -10.170  17.230  68.452  1.00  0.00    -0.358 C  
BRANCH   7   8
HETATM    8  C   UNL     1     -10.341  17.843  67.064  1.00  0.00    -0.366 C  
HETATM    9  C   UNL     1     -10.459  19.349  67.136  1.00  0.00    -0.466 C  
HETATM   10  O   UNL     1     -10.382  20.020  68.151  1.00  0.00    -0.421 OA 
HETATM   11  O   UNL     1     -10.661  19.906  65.919  1.00  0.00    -0.496 OA 
ENDBRANCH   7   8
ENDBRANCH   6   7
ENDBRANCH   5   6
ENDBRANCH   2   5
TORSDOF 4
ENDMDL
MODEL       97
REMARK 921   NORMALIZED FREE ENERGY PREDICTED BY IDOCK:   -2.84 KCAL/MOL
REMARK 922        TOTAL FREE ENERGY PREDICTED BY IDOCK:   -3.59 KCAL/MOL
REMARK 923 INTER-LIGAND FREE ENERGY PREDICTED BY IDOCK:   -3.45 KCAL/MOL
REMARK 924 INTRA-LIGAND FREE ENERGY PREDICTED BY IDOCK:   -0.15 KCAL/MOL
REMARK 927      BINDING AFFINITY PREDICTED BY RF-SCORE:    0.00 PKD
ROOT
HETATM    1  N   UNL     1     -12.431  11.592  62.960  1.00  0.00    -0.937 NA 
HETATM    2  C   UNL     1     -11.511  12.455  63.693  1.00  0.00    -0.489 C  
HETATM    3  H1  UNL     1     -11.995  10.705  62.709  1.00  0.00     0.000 HD 
HETATM    4  H2  UNL     1     -12.814  12.065  62.141  1.00  0.00     0.000 HD 
ENDROOT
BRANCH   2   5
HETATM    5  C   UNL     1     -12.166  13.785  64.070  1.00  0.00    -0.429 C  
BRANCH   5   6
HETATM    6  C   UNL     1     -11.207  14.846  64.630  1.00  0.00    -0.349 C  
BRANCH   6   7
HETATM    7  C   UNL     1     -11.011  14.732  66.143  1.00  0.00    -0.332 C  
BRANCH   7   8
HETATM    8  C   UNL     1      -9.533  14.739  66.523  1.00  0.00    -0.316 C  
HETATM    9  C   UNL     1      -9.104  13.410  67.102  1.00  0.00    -0.235 C  
HETATM   10  O   UNL     1      -9.811  12.424  67.217  1.00  0.00    -0.203 OA 
HETATM   11  O   UNL     1      -7.807  13.414  67.490  1.00  0.00    -0.157 OA 
ENDBRANCH   7   8
ENDBRANCH   6   7
ENDBRANCH   5   6
ENDBRANCH   2   5
TORSDOF 4
ENDMDL
MODEL       98
REMARK 921   NORMALIZED FREE ENERGY PREDICTED BY IDOCK:   -2.84 KCAL/MOL
REMARK 922        TOTAL FREE ENERGY PREDICTED BY IDOCK:   -3.59 KCAL/MOL
REMARK 923 INTER-LIGAND FREE ENERGY PREDICTED BY IDOCK:   -3.53 KCAL/MOL
REMARK 924 INTRA-LIGAND FREE ENERGY PREDICTED BY IDOCK:   -0.05 KCAL/MOL
REMARK 927      BINDING AFFINITY PREDICTED BY RF-SCORE:    0.00 PKD
ROOT
HETATM    1  N   UNL     1      -9.467  13.469  66.192  1.00  0.00    -0.463 NA 
HETATM    2  C   UNL     1     -10.717  13.520  66.942  1.00  0.00    -0.274 C  
HETATM    3  H1  UNL     1      -9.259  12.523  65.873  1.00  0.00     0.000 HD 
HETATM    4  H2  UNL     1      -8.693  13.859  66.730  1.00  0.00     0.000 HD 
ENDROOT
BRANCH   2   5
HETATM    5  C   UNL     1     -11.028  14.941  67.420  1.00  0.00    -0.314 C  
BRANCH   5   6
HETATM    6  C   UNL     1     -10.677  15.225  68.886  1.00  0.00    -0.245 C  
BRANCH   6   7
HETATM    7  C   UNL     1     -11.911  15.347  69.782  1.00  0.00    -0.367 C  
BRANCH   7   8
HETATM    8  C   UNL     1     -11.549  15.854  71.176  1.00  0.00    -0.481 C  
HETATM    9  C   UNL     1     -12.748  15.840  72.097  1.00  0.00    -0.447 C  
HETATM   10  O   UNL     1     -13.861  15.435  71.809  1.00  0.00    -0.465 OA 
HETATM   11  O   UNL     1     -12.458  16.332  73.324  1.00  0.00    -0.478 OA 
ENDBRANCH   7   8
ENDBRANCH   6   7
ENDBRANCH   5   6
ENDBRANCH   2   5
TORSDOF 4
ENDMDL
MODEL       99
REMARK 921   NORMALIZED FREE ENERGY PREDICTED BY IDOCK:   -2.83 KCAL/MOL
REMARK 922        TOTAL FREE ENERGY PREDICTED BY IDOCK:   -3.58 KCAL/MOL
REMARK 923 INTER-LIGAND FREE ENERGY PREDICTED BY IDOCK:   -3.45 KCAL/MOL
REMARK 924 INTRA-LIGAND FREE ENERGY PREDICTED BY IDOCK:   -0.12 KCAL/MOL
REMARK 927      BINDING AFFINITY PREDICTED BY RF-SCORE:    0.00 PKD
ROOT
HETATM    1  N   UNL     1     -12.167  15.782  63.983  1.00  0.00    -0.957 NA 
HETATM    2  C   UNL     1     -12.142  14.355  64.284  1.00  0.00    -0.436 C  
HETATM    3  H1  UNL     1     -11.884  15.968  63.022  1.00  0.00     0.000 HD 
HETATM    4  H2  UNL     1     -11.604  16.313  64.648  1.00  0.00     0.000 HD 
ENDROOT
BRANCH   2   5
HETATM    5  C   UNL     1     -12.568  14.076  65.727  1.00  0.00    -0.512 C  
BRANCH   5   6
HETATM    6  C   UNL     1     -12.025  12.770  66.324  1.00  0.00    -0.460 C  
BRANCH   6   7
HETATM    7  C   UNL     1     -11.305  12.979  67.658  1.00  0.00    -0.342 C  
BRANCH   7   8
HETATM    8  C   UNL     1     -10.249  14.077  67.564  1.00  0.00    -0.244 C  
HETATM    9  C   UNL     1      -8.852  13.512  67.685  1.00  0.00    -0.202 C  
HETATM   10  O   UNL     1      -8.570  12.330  67.795  1.00  0.00    -0.151 OA 
HETATM   11  O   UNL     1      -7.904  14.477  67.654  1.00  0.00    -0.148 OA 
ENDBRANCH   7   8
ENDBRANCH   6   7
ENDBRANCH   5   6
ENDBRANCH   2   5
TORSDOF 4
ENDMDL
MODEL      100
REMARK 921   NORMALIZED FREE ENERGY PREDICTED BY IDOCK:   -2.82 KCAL/MOL
REMARK 922        TOTAL FREE ENERGY PREDICTED BY IDOCK:   -3.57 KCAL/MOL
REMARK 923 INTER-LIGAND FREE ENERGY PREDICTED BY IDOCK:   -3.51 KCAL/MOL
REMARK 924 INTRA-LIGAND FREE ENERGY PREDICTED BY IDOCK:   -0.06 KCAL/MOL
REMARK 927      BINDING AFFINITY PREDICTED BY RF-SCORE:    0.00 PKD
ROOT
HETATM    1  N   UNL     1     -10.210   5.436  69.717  1.00  0.00    -0.254 NA 
HETATM    2  C   UNL     1     -11.198   6.327  70.315  1.00  0.00    -0.388 C  
HETATM    3  H1  UNL     1     -10.362   5.324  68.715  1.00  0.00     0.000 HD 
HETATM    4  H2  UNL     1     -10.185   4.534  70.194  1.00  0.00     0.000 HD 
ENDROOT
BRANCH   2   5
HETATM    5  C   UNL     1     -10.968   6.495  71.819  1.00  0.00    -0.287 C  
BRANCH   5   6
HETATM    6  C   UNL     1     -11.649   7.719  72.448  1.00  0.00    -0.410 C  
BRANCH   6   7
HETATM    7  C   UNL     1     -12.915   8.144  71.702  1.00  0.00    -0.352 C  
BRANCH   7   8
HETATM    8  C   UNL     1     -13.484   9.449  72.253  1.00  0.00    -0.539 C  
HETATM    9  C   UNL     1     -12.822  10.652  71.621  1.00  0.00    -0.465 C  
HETATM   10  O   UNL     1     -11.975  10.618  70.745  1.00  0.00    -0.320 OA 
HETATM   11  O   UNL     1     -13.280  11.818  72.134  1.00  0.00    -0.498 OA 
ENDBRANCH   7   8
ENDBRANCH   6   7
ENDBRANCH   5   6
ENDBRANCH   2   5
TORSDOF 4
ENDMDL
MODEL      101
REMARK 921   NORMALIZED FREE ENERGY PREDICTED BY IDOCK:   -2.81 KCAL/MOL
REMARK 922        TOTAL FREE ENERGY PREDICTED BY IDOCK:   -3.56 KCAL/MOL
REMARK 923 INTER-LIGAND FREE ENERGY PREDICTED BY IDOCK:   -3.50 KCAL/MOL
REMARK 924 INTRA-LIGAND FREE ENERGY PREDICTED BY IDOCK:   -0.06 KCAL/MOL
REMARK 927      BINDING AFFINITY PREDICTED BY RF-SCORE:    0.00 PKD
ROOT
HETATM    1  N   UNL     1      -9.134  17.365  66.068  1.00  0.00    -0.516 NA 
HETATM    2  C   UNL     1     -10.314  17.185  66.906  1.00  0.00    -0.308 C  
HETATM    3  H1  UNL     1      -9.318  18.002  65.293  1.00  0.00     0.000 HD 
HETATM    4  H2  UNL     1      -8.773  16.470  65.737  1.00  0.00     0.000 HD 
ENDROOT
BRANCH   2   5
HETATM    5  C   UNL     1     -10.038  16.230  68.069  1.00  0.00    -0.245 C  
BRANCH   5   6
HETATM    6  C   UNL     1     -11.277  15.529  68.643  1.00  0.00    -0.326 C  
BRANCH   6   7
HETATM    7  C   UNL     1     -11.792  14.401  67.746  1.00  0.00    -0.402 C  
BRANCH   7   8
HETATM    8  C   UNL     1     -11.588  13.031  68.388  1.00  0.00    -0.370 C  
HETATM    9  C   UNL     1     -11.742  11.918  67.376  1.00  0.00    -0.256 C  
HETATM   10  O   UNL     1     -11.953  12.065  66.184  1.00  0.00    -0.581 OA 
HETATM   11  O   UNL     1     -11.612  10.693  67.937  1.00  0.00    -0.491 OA 
ENDBRANCH   7   8
ENDBRANCH   6   7
ENDBRANCH   5   6
ENDBRANCH   2   5
TORSDOF 4
ENDMDL
MODEL      102
REMARK 921   NORMALIZED FREE ENERGY PREDICTED BY IDOCK:   -2.78 KCAL/MOL
REMARK 922        TOTAL FREE ENERGY PREDICTED BY IDOCK:   -3.52 KCAL/MOL
REMARK 923 INTER-LIGAND FREE ENERGY PREDICTED BY IDOCK:   -3.46 KCAL/MOL
REMARK 924 INTRA-LIGAND FREE ENERGY PREDICTED BY IDOCK:   -0.05 KCAL/MOL
REMARK 927      BINDING AFFINITY PREDICTED BY RF-SCORE:    0.00 PKD
ROOT
HETATM    1  N   UNL     1     -10.848   8.759  68.158  1.00  0.00    -0.466 NA 
HETATM    2  C   UNL     1     -11.025  10.202  68.043  1.00  0.00    -0.270 C  
HETATM    3  H1  UNL     1     -10.937   8.296  67.253  1.00  0.00     0.000 HD 
HETATM    4  H2  UNL     1     -11.486   8.358  68.845  1.00  0.00     0.000 HD 
ENDROOT
BRANCH   2   5
HETATM    5  C   UNL     1     -10.890  10.895  69.401  1.00  0.00    -0.286 C  
BRANCH   5   6
HETATM    6  C   UNL     1     -12.201  11.437  69.987  1.00  0.00    -0.377 C  
BRANCH   6   7
HETATM    7  C   UNL     1     -12.092  12.891  70.448  1.00  0.00    -0.385 C  
BRANCH   7   8
HETATM    8  C   UNL     1     -13.054  13.194  71.594  1.00  0.00    -0.444 C  
HETATM    9  C   UNL     1     -13.407  14.663  71.646  1.00  0.00    -0.355 C  
HETATM   10  O   UNL     1     -13.027  15.513  70.859  1.00  0.00    -0.463 OA 
HETATM   11  O   UNL     1     -14.220  14.959  72.686  1.00  0.00    -0.418 OA 
ENDBRANCH   7   8
ENDBRANCH   6   7
ENDBRANCH   5   6
ENDBRANCH   2   5
TORSDOF 4
ENDMDL
MODEL      103
REMARK 921   NORMALIZED FREE ENERGY PREDICTED BY IDOCK:   -2.77 KCAL/MOL
REMARK 922        TOTAL FREE ENERGY PREDICTED BY IDOCK:   -3.50 KCAL/MOL
REMARK 923 INTER-LIGAND FREE ENERGY PREDICTED BY IDOCK:   -3.41 KCAL/MOL
REMARK 924 INTRA-LIGAND FREE ENERGY PREDICTED BY IDOCK:   -0.09 KCAL/MOL
REMARK 927      BINDING AFFINITY PREDICTED BY RF-SCORE:    0.00 PKD
ROOT
HETATM    1  N   UNL     1      -8.479  20.836  66.897  1.00  0.00    -0.571 NA 
HETATM    2  C   UNL     1      -9.797  20.346  67.288  1.00  0.00    -0.456 C  
HETATM    3  H1  UNL     1      -8.009  21.306  67.670  1.00  0.00     0.000 HD 
HETATM    4  H2  UNL     1      -8.534  21.436  66.074  1.00  0.00     0.000 HD 
ENDROOT
BRANCH   2   5
HETATM    5  C   UNL     1     -10.502  19.640  66.128  1.00  0.00    -0.624 C  
BRANCH   5   6
HETATM    6  C   UNL     1     -10.387  18.109  66.133  1.00  0.00    -0.394 C  
BRANCH   6   7
HETATM    7  C   UNL     1     -10.423  17.514  67.542  1.00  0.00    -0.355 C  
BRANCH   7   8
HETATM    8  C   UNL     1     -10.771  16.028  67.519  1.00  0.00    -0.314 C  
HETATM    9  C   UNL     1      -9.942  15.251  68.517  1.00  0.00    -0.222 C  
HETATM   10  O   UNL     1      -9.128  15.727  69.289  1.00  0.00    -0.238 OA 
HETATM   11  O   UNL     1     -10.203  13.923  68.476  1.00  0.00    -0.234 OA 
ENDBRANCH   7   8
ENDBRANCH   6   7
ENDBRANCH   5   6
ENDBRANCH   2   5
TORSDOF 4
ENDMDL
MODEL      104
REMARK 921   NORMALIZED FREE ENERGY PREDICTED BY IDOCK:   -2.77 KCAL/MOL
REMARK 922        TOTAL FREE ENERGY PREDICTED BY IDOCK:   -3.50 KCAL/MOL
REMARK 923 INTER-LIGAND FREE ENERGY PREDICTED BY IDOCK:   -3.46 KCAL/MOL
REMARK 924 INTRA-LIGAND FREE ENERGY PREDICTED BY IDOCK:   -0.04 KCAL/MOL
REMARK 927      BINDING AFFINITY PREDICTED BY RF-SCORE:    0.00 PKD
ROOT
HETATM    1  N   UNL     1      -7.939  17.050  65.958  1.00  0.00    -0.470 NA 
HETATM    2  C   UNL     1      -7.340  18.318  66.360  1.00  0.00    -0.248 C  
HETATM    3  H1  UNL     1      -7.295  16.270  66.095  1.00  0.00     0.000 HD 
HETATM    4  H2  UNL     1      -8.280  17.087  64.997  1.00  0.00     0.000 HD 
ENDROOT
BRANCH   2   5
HETATM    5  C   UNL     1      -8.306  19.487  66.155  1.00  0.00    -0.333 C  
BRANCH   5   6
HETATM    6  C   UNL     1      -8.704  20.233  67.435  1.00  0.00    -0.428 C  
BRANCH   6   7
HETATM    7  C   UNL     1     -10.144  19.947  67.868  1.00  0.00    -0.571 C  
BRANCH   7   8
HETATM    8  C   UNL     1     -10.719  18.730  67.148  1.00  0.00    -0.469 C  
HETATM    9  C   UNL     1     -10.561  17.473  67.972  1.00  0.00    -0.384 C  
HETATM   10  O   UNL     1     -10.084  17.414  69.093  1.00  0.00    -0.305 OA 
HETATM   11  O   UNL     1     -11.021  16.375  67.328  1.00  0.00    -0.249 OA 
ENDBRANCH   7   8
ENDBRANCH   6   7
ENDBRANCH   5   6
ENDBRANCH   2   5
TORSDOF 4
ENDMDL
MODEL      105
REMARK 921   NORMALIZED FREE ENERGY PREDICTED BY IDOCK:   -2.77 KCAL/MOL
REMARK 922        TOTAL FREE ENERGY PREDICTED BY IDOCK:   -3.50 KCAL/MOL
REMARK 923 INTER-LIGAND FREE ENERGY PREDICTED BY IDOCK:   -3.38 KCAL/MOL
REMARK 924 INTRA-LIGAND FREE ENERGY PREDICTED BY IDOCK:   -0.12 KCAL/MOL
REMARK 927      BINDING AFFINITY PREDICTED BY RF-SCORE:    0.00 PKD
ROOT
HETATM    1  N   UNL     1      -7.294  21.330  66.752  1.00  0.00    -0.755 NA 
HETATM    2  C   UNL     1      -6.304  20.967  67.760  1.00  0.00    -0.343 C  
HETATM    3  H1  UNL     1      -6.958  22.082  66.150  1.00  0.00     0.000 HD 
HETATM    4  H2  UNL     1      -8.191  21.565  67.178  1.00  0.00     0.000 HD 
ENDROOT
BRANCH   2   5
HETATM    5  C   UNL     1      -6.808  19.838  68.662  1.00  0.00    -0.357 C  
BRANCH   5   6
HETATM    6  C   UNL     1      -7.801  18.872  68.001  1.00  0.00    -0.305 C  
BRANCH   6   7
HETATM    7  C   UNL     1      -9.171  18.869  68.682  1.00  0.00    -0.399 C  
BRANCH   7   8
HETATM    8  C   UNL     1     -10.208  18.105  67.862  1.00  0.00    -0.391 C  
HETATM    9  C   UNL     1     -10.447  16.722  68.423  1.00  0.00    -0.339 C  
HETATM   10  O   UNL     1      -9.931  16.263  69.428  1.00  0.00    -0.248 OA 
HETATM   11  O   UNL     1     -11.327  16.012  67.679  1.00  0.00    -0.244 OA 
ENDBRANCH   7   8
ENDBRANCH   6   7
ENDBRANCH   5   6
ENDBRANCH   2   5
TORSDOF 4
ENDMDL
MODEL      106
REMARK 921   NORMALIZED FREE ENERGY PREDICTED BY IDOCK:   -2.76 KCAL/MOL
REMARK 922        TOTAL FREE ENERGY PREDICTED BY IDOCK:   -3.50 KCAL/MOL
REMARK 923 INTER-LIGAND FREE ENERGY PREDICTED BY IDOCK:   -3.41 KCAL/MOL
REMARK 924 INTRA-LIGAND FREE ENERGY PREDICTED BY IDOCK:   -0.09 KCAL/MOL
REMARK 927      BINDING AFFINITY PREDICTED BY RF-SCORE:    0.00 PKD
ROOT
HETATM    1  N   UNL     1     -11.201  11.370  63.267  1.00  0.00    -0.838 NA 
HETATM    2  C   UNL     1     -10.604  12.163  64.337  1.00  0.00    -0.323 C  
HETATM    3  H1  UNL     1     -10.613  11.361  62.434  1.00  0.00     0.000 HD 
HETATM    4  H2  UNL     1     -12.147  11.686  63.053  1.00  0.00     0.000 HD 
ENDROOT
BRANCH   2   5
HETATM    5  C   UNL     1     -11.485  12.175  65.587  1.00  0.00    -0.408 C  
BRANCH   5   6
HETATM    6  C   UNL     1     -11.022  11.247  66.718  1.00  0.00    -0.339 C  
BRANCH   6   7
HETATM    7  C   UNL     1     -11.013  11.933  68.086  1.00  0.00    -0.272 C  
BRANCH   7   8
HETATM    8  C   UNL     1     -11.933  11.227  69.078  1.00  0.00    -0.393 C  
HETATM    9  C   UNL     1     -11.158  10.306  69.993  1.00  0.00    -0.311 C  
HETATM   10  O   UNL     1      -9.947  10.161  69.996  1.00  0.00    -0.240 OA 
HETATM   11  O   UNL     1     -11.964   9.635  70.848  1.00  0.00    -0.285 OA 
ENDBRANCH   7   8
ENDBRANCH   6   7
ENDBRANCH   5   6
ENDBRANCH   2   5
TORSDOF 4
ENDMDL
MODEL      107
REMARK 921   NORMALIZED FREE ENERGY PREDICTED BY IDOCK:   -2.76 KCAL/MOL
REMARK 922        TOTAL FREE ENERGY PREDICTED BY IDOCK:   -3.49 KCAL/MOL
REMARK 923 INTER-LIGAND FREE ENERGY PREDICTED BY IDOCK:   -3.15 KCAL/MOL
REMARK 924 INTRA-LIGAND FREE ENERGY PREDICTED BY IDOCK:   -0.34 KCAL/MOL
REMARK 927      BINDING AFFINITY PREDICTED BY RF-SCORE:    0.00 PKD
ROOT
HETATM    1  N   UNL     1      -8.692  17.229  66.973  1.00  0.00    -0.224 NA 
HETATM    2  C   UNL     1      -9.856  17.707  67.711  1.00  0.00    -0.292 C  
HETATM    3  H1  UNL     1      -8.405  17.892  66.253  1.00  0.00     0.000 HD 
HETATM    4  H2  UNL     1      -8.853  16.300  66.583  1.00  0.00     0.000 HD 
ENDROOT
BRANCH   2   5
HETATM    5  C   UNL     1     -10.285  16.712  68.792  1.00  0.00    -0.288 C  
BRANCH   5   6
HETATM    6  C   UNL     1     -11.583  15.950  68.495  1.00  0.00    -0.351 C  
BRANCH   6   7
HETATM    7  C   UNL     1     -11.336  14.557  67.912  1.00  0.00    -0.329 C  
BRANCH   7   8
HETATM    8  C   UNL     1     -12.229  14.283  66.705  1.00  0.00    -0.411 C  
HETATM    9  C   UNL     1     -11.643  14.867  65.439  1.00  0.00    -0.280 C  
HETATM   10  O   UNL     1     -10.573  15.445  65.353  1.00  0.00    -0.350 OA 
HETATM   11  O   UNL     1     -12.446  14.677  64.366  1.00  0.00    -0.624 OA 
ENDBRANCH   7   8
ENDBRANCH   6   7
ENDBRANCH   5   6
ENDBRANCH   2   5
TORSDOF 4
ENDMDL
MODEL      108
REMARK 921   NORMALIZED FREE ENERGY PREDICTED BY IDOCK:   -2.76 KCAL/MOL
REMARK 922        TOTAL FREE ENERGY PREDICTED BY IDOCK:   -3.49 KCAL/MOL
REMARK 923 INTER-LIGAND FREE ENERGY PREDICTED BY IDOCK:   -3.36 KCAL/MOL
REMARK 924 INTRA-LIGAND FREE ENERGY PREDICTED BY IDOCK:   -0.13 KCAL/MOL
REMARK 927      BINDING AFFINITY PREDICTED BY RF-SCORE:    0.00 PKD
ROOT
HETATM    1  N   UNL     1     -10.354  13.170  69.028  1.00  0.00    -0.436 NA 
HETATM    2  C   UNL     1     -11.704  13.720  69.078  1.00  0.00    -0.331 C  
HETATM    3  H1  UNL     1     -10.302  12.260  69.485  1.00  0.00     0.000 HD 
HETATM    4  H2  UNL     1      -9.671  13.821  69.415  1.00  0.00     0.000 HD 
ENDROOT
BRANCH   2   5
HETATM    5  C   UNL     1     -11.781  15.086  68.391  1.00  0.00    -0.341 C  
BRANCH   5   6
HETATM    6  C   UNL     1     -11.189  15.135  66.976  1.00  0.00    -0.308 C  
BRANCH   6   7
HETATM    7  C   UNL     1     -10.459  16.447  66.682  1.00  0.00    -0.274 C  
BRANCH   7   8
HETATM    8  C   UNL     1     -10.550  17.420  67.855  1.00  0.00    -0.383 C  
HETATM    9  C   UNL     1     -10.476  18.856  67.389  1.00  0.00    -0.449 C  
HETATM   10  O   UNL     1     -10.402  19.224  66.228  1.00  0.00    -0.411 OA 
HETATM   11  O   UNL     1     -10.505  19.733  68.420  1.00  0.00    -0.431 OA 
ENDBRANCH   7   8
ENDBRANCH   6   7
ENDBRANCH   5   6
ENDBRANCH   2   5
TORSDOF 4
ENDMDL
MODEL      109
REMARK 921   NORMALIZED FREE ENERGY PREDICTED BY IDOCK:   -2.74 KCAL/MOL
REMARK 922        TOTAL FREE ENERGY PREDICTED BY IDOCK:   -3.47 KCAL/MOL
REMARK 923 INTER-LIGAND FREE ENERGY PREDICTED BY IDOCK:   -3.08 KCAL/MOL
REMARK 924 INTRA-LIGAND FREE ENERGY PREDICTED BY IDOCK:   -0.38 KCAL/MOL
REMARK 927      BINDING AFFINITY PREDICTED BY RF-SCORE:    0.00 PKD
ROOT
HETATM    1  N   UNL     1     -11.158  15.052  71.290  1.00  0.00    -0.568 NA 
HETATM    2  C   UNL     1     -12.306  14.474  70.600  1.00  0.00    -0.339 C  
HETATM    3  H1  UNL     1     -11.398  15.933  71.745  1.00  0.00     0.000 HD 
HETATM    4  H2  UNL     1     -10.361  15.160  70.663  1.00  0.00     0.000 HD 
ENDROOT
BRANCH   2   5
HETATM    5  C   UNL     1     -11.946  13.151  69.919  1.00  0.00    -0.387 C  
BRANCH   5   6
HETATM    6  C   UNL     1     -11.805  13.224  68.393  1.00  0.00    -0.395 C  
BRANCH   6   7
HETATM    7  C   UNL     1     -11.693  14.658  67.872  1.00  0.00    -0.379 C  
BRANCH   7   8
HETATM    8  C   UNL     1     -10.240  15.061  67.634  1.00  0.00    -0.236 C  
HETATM    9  C   UNL     1      -9.925  16.396  68.271  1.00  0.00    -0.243 C  
HETATM   10  O   UNL     1     -10.697  17.065  68.937  1.00  0.00    -0.335 OA 
HETATM   11  O   UNL     1      -8.654  16.793  68.028  1.00  0.00    -0.201 OA 
ENDBRANCH   7   8
ENDBRANCH   6   7
ENDBRANCH   5   6
ENDBRANCH   2   5
TORSDOF 4
ENDMDL
MODEL      110
REMARK 921   NORMALIZED FREE ENERGY PREDICTED BY IDOCK:   -2.73 KCAL/MOL
REMARK 922        TOTAL FREE ENERGY PREDICTED BY IDOCK:   -3.46 KCAL/MOL
REMARK 923 INTER-LIGAND FREE ENERGY PREDICTED BY IDOCK:   -3.27 KCAL/MOL
REMARK 924 INTRA-LIGAND FREE ENERGY PREDICTED BY IDOCK:   -0.18 KCAL/MOL
REMARK 927      BINDING AFFINITY PREDICTED BY RF-SCORE:    0.00 PKD
ROOT
HETATM    1  N   UNL     1      -9.148  17.432  65.786  1.00  0.00    -0.489 NA 
HETATM    2  C   UNL     1     -10.390  17.837  66.436  1.00  0.00    -0.351 C  
HETATM    3  H1  UNL     1      -9.047  16.418  65.768  1.00  0.00     0.000 HD 
HETATM    4  H2  UNL     1      -8.339  17.880  66.217  1.00  0.00     0.000 HD 
ENDROOT
BRANCH   2   5
HETATM    5  C   UNL     1     -10.540  19.360  66.463  1.00  0.00    -0.554 C  
BRANCH   5   6
HETATM    6  C   UNL     1      -9.757  20.071  67.575  1.00  0.00    -0.539 C  
BRANCH   6   7
HETATM    7  C   UNL     1      -9.095  19.098  68.553  1.00  0.00    -0.416 C  
BRANCH   7   8
HETATM    8  C   UNL     1      -7.573  19.206  68.514  1.00  0.00    -0.369 C  
HETATM    9  C   UNL     1      -6.927  17.850  68.344  1.00  0.00    -0.234 C  
HETATM   10  O   UNL     1      -7.519  16.793  68.204  1.00  0.00    -0.162 OA 
HETATM   11  O   UNL     1      -5.575  17.920  68.358  1.00  0.00    -0.160 OA 
ENDBRANCH   7   8
ENDBRANCH   6   7
ENDBRANCH   5   6
ENDBRANCH   2   5
TORSDOF 4
ENDMDL
MODEL      111
REMARK 921   NORMALIZED FREE ENERGY PREDICTED BY IDOCK:   -2.73 KCAL/MOL
REMARK 922        TOTAL FREE ENERGY PREDICTED BY IDOCK:   -3.45 KCAL/MOL
REMARK 923 INTER-LIGAND FREE ENERGY PREDICTED BY IDOCK:   -3.35 KCAL/MOL
REMARK 924 INTRA-LIGAND FREE ENERGY PREDICTED BY IDOCK:   -0.10 KCAL/MOL
REMARK 927      BINDING AFFINITY PREDICTED BY RF-SCORE:    0.00 PKD
ROOT
HETATM    1  N   UNL     1      -7.785   6.730  74.149  1.00  0.00    -0.103 NA 
HETATM    2  C   UNL     1      -8.353   8.072  74.072  1.00  0.00    -0.265 C  
HETATM    3  H1  UNL     1      -7.084   6.661  74.887  1.00  0.00     0.000 HD 
HETATM    4  H2  UNL     1      -7.410   6.432  73.249  1.00  0.00     0.000 HD 
ENDROOT
BRANCH   2   5
HETATM    5  C   UNL     1      -9.405   8.175  72.966  1.00  0.00    -0.335 C  
BRANCH   5   6
HETATM    6  C   UNL     1     -10.616   7.248  73.133  1.00  0.00    -0.400 C  
BRANCH   6   7
HETATM    7  C   UNL     1     -11.792   7.636  72.235  1.00  0.00    -0.354 C  
BRANCH   7   8
HETATM    8  C   UNL     1     -11.825   9.138  71.965  1.00  0.00    -0.407 C  
HETATM    9  C   UNL     1     -13.206   9.710  72.191  1.00  0.00    -0.444 C  
HETATM   10  O   UNL     1     -14.177   9.088  72.587  1.00  0.00    -0.574 OA 
HETATM   11  O   UNL     1     -13.266  11.033  71.909  1.00  0.00    -0.473 OA 
ENDBRANCH   7   8
ENDBRANCH   6   7
ENDBRANCH   5   6
ENDBRANCH   2   5
TORSDOF 4
ENDMDL
MODEL      112
REMARK 921   NORMALIZED FREE ENERGY PREDICTED BY IDOCK:   -2.71 KCAL/MOL
REMARK 922        TOTAL FREE ENERGY PREDICTED BY IDOCK:   -3.43 KCAL/MOL
REMARK 923 INTER-LIGAND FREE ENERGY PREDICTED BY IDOCK:   -3.32 KCAL/MOL
REMARK 924 INTRA-LIGAND FREE ENERGY PREDICTED BY IDOCK:   -0.11 KCAL/MOL
REMARK 927      BINDING AFFINITY PREDICTED BY RF-SCORE:    0.00 PKD
ROOT
HETATM    1  N   UNL     1     -11.467   4.699  65.251  1.00  0.00    -1.096 NA 
HETATM    2  C   UNL     1     -10.521   5.063  66.301  1.00  0.00    -0.303 C  
HETATM    3  H1  UNL     1     -11.199   3.829  64.791  1.00  0.00     0.000 HD 
HETATM    4  H2  UNL     1     -11.586   5.456  64.578  1.00  0.00     0.000 HD 
ENDROOT
BRANCH   2   5
HETATM    5  C   UNL     1     -10.923   6.367  66.993  1.00  0.00    -0.463 C  
BRANCH   5   6
HETATM    6  C   UNL     1     -10.090   6.731  68.230  1.00  0.00    -0.173 C  
BRANCH   6   7
HETATM    7  C   UNL     1      -9.366   8.070  68.087  1.00  0.00    -0.145 C  
BRANCH   7   8
HETATM    8  C   UNL     1     -10.320   9.250  68.260  1.00  0.00    -0.257 C  
HETATM    9  C   UNL     1     -10.538   9.980  66.954  1.00  0.00    -0.192 C  
HETATM   10  O   UNL     1     -10.067   9.663  65.875  1.00  0.00    -0.288 OA 
HETATM   11  O   UNL     1     -11.342  11.059  67.098  1.00  0.00    -0.399 OA 
ENDBRANCH   7   8
ENDBRANCH   6   7
ENDBRANCH   5   6
ENDBRANCH   2   5
TORSDOF 4
ENDMDL
MODEL      113
REMARK 921   NORMALIZED FREE ENERGY PREDICTED BY IDOCK:   -2.70 KCAL/MOL
REMARK 922        TOTAL FREE ENERGY PREDICTED BY IDOCK:   -3.42 KCAL/MOL
REMARK 923 INTER-LIGAND FREE ENERGY PREDICTED BY IDOCK:   -3.34 KCAL/MOL
REMARK 924 INTRA-LIGAND FREE ENERGY PREDICTED BY IDOCK:   -0.08 KCAL/MOL
REMARK 927      BINDING AFFINITY PREDICTED BY RF-SCORE:    0.00 PKD
ROOT
HETATM    1  N   UNL     1     -12.419  14.901  69.739  1.00  0.00    -0.549 NA 
HETATM    2  C   UNL     1     -11.820  15.818  68.775  1.00  0.00    -0.309 C  
HETATM    3  H1  UNL     1     -13.301  14.520  69.397  1.00  0.00     0.000 HD 
HETATM    4  H2  UNL     1     -12.533  15.343  70.652  1.00  0.00     0.000 HD 
ENDROOT
BRANCH   2   5
HETATM    5  C   UNL     1     -10.497  16.389  69.289  1.00  0.00    -0.303 C  
BRANCH   5   6
HETATM    6  C   UNL     1     -10.095  17.741  68.685  1.00  0.00    -0.384 C  
BRANCH   6   7
HETATM    7  C   UNL     1      -8.594  17.848  68.409  1.00  0.00    -0.296 C  
BRANCH   7   8
HETATM    8  C   UNL     1      -8.085  19.275  68.593  1.00  0.00    -0.405 C  
HETATM    9  C   UNL     1      -7.958  19.992  67.267  1.00  0.00    -0.313 C  
HETATM   10  O   UNL     1      -8.261  19.533  66.179  1.00  0.00    -0.328 OA 
HETATM   11  O   UNL     1      -7.461  21.243  67.407  1.00  0.00    -0.450 OA 
ENDBRANCH   7   8
ENDBRANCH   6   7
ENDBRANCH   5   6
ENDBRANCH   2   5
TORSDOF 4
ENDMDL
MODEL      114
REMARK 921   NORMALIZED FREE ENERGY PREDICTED BY IDOCK:   -2.68 KCAL/MOL
REMARK 922        TOTAL FREE ENERGY PREDICTED BY IDOCK:   -3.40 KCAL/MOL
REMARK 923 INTER-LIGAND FREE ENERGY PREDICTED BY IDOCK:   -3.06 KCAL/MOL
REMARK 924 INTRA-LIGAND FREE ENERGY PREDICTED BY IDOCK:   -0.34 KCAL/MOL
REMARK 927      BINDING AFFINITY PREDICTED BY RF-SCORE:    0.00 PKD
ROOT
HETATM    1  N   UNL     1     -10.771  17.013  69.229  1.00  0.00    -0.341 NA 
HETATM    2  C   UNL     1     -10.989  16.213  68.029  1.00  0.00    -0.338 C  
HETATM    3  H1  UNL     1     -11.427  16.766  69.969  1.00  0.00     0.000 HD 
HETATM    4  H2  UNL     1     -10.801  18.012  69.021  1.00  0.00     0.000 HD 
ENDROOT
BRANCH   2   5
HETATM    5  C   UNL     1     -10.004  16.583  66.918  1.00  0.00    -0.273 C  
BRANCH   5   6
HETATM    6  C   UNL     1     -10.518  17.624  65.914  1.00  0.00    -0.247 C  
BRANCH   6   7
HETATM    7  C   UNL     1     -10.056  19.046  66.242  1.00  0.00    -0.479 C  
BRANCH   7   8
HETATM    8  C   UNL     1      -8.664  19.058  66.869  1.00  0.00    -0.316 C  
HETATM    9  C   UNL     1      -8.711  19.515  68.309  1.00  0.00    -0.336 C  
HETATM   10  O   UNL     1      -9.719  19.798  68.933  1.00  0.00    -0.375 OA 
HETATM   11  O   UNL     1      -7.479  19.579  68.867  1.00  0.00    -0.353 OA 
ENDBRANCH   7   8
ENDBRANCH   6   7
ENDBRANCH   5   6
ENDBRANCH   2   5
TORSDOF 4
ENDMDL
MODEL      115
REMARK 921   NORMALIZED FREE ENERGY PREDICTED BY IDOCK:   -2.66 KCAL/MOL
REMARK 922        TOTAL FREE ENERGY PREDICTED BY IDOCK:   -3.36 KCAL/MOL
REMARK 923 INTER-LIGAND FREE ENERGY PREDICTED BY IDOCK:   -3.26 KCAL/MOL
REMARK 924 INTRA-LIGAND FREE ENERGY PREDICTED BY IDOCK:   -0.10 KCAL/MOL
REMARK 927      BINDING AFFINITY PREDICTED BY RF-SCORE:    0.00 PKD
ROOT
HETATM    1  N   UNL     1     -13.360  15.697  70.558  1.00  0.00    -0.788 NA 
HETATM    2  C   UNL     1     -13.384  14.371  71.165  1.00  0.00    -0.331 C  
HETATM    3  H1  UNL     1     -14.091  16.298  70.940  1.00  0.00     0.000 HD 
HETATM    4  H2  UNL     1     -13.416  15.643  69.541  1.00  0.00     0.000 HD 
ENDROOT
BRANCH   2   5
HETATM    5  C   UNL     1     -12.287  13.470  70.593  1.00  0.00    -0.432 C  
BRANCH   5   6
HETATM    6  C   UNL     1     -12.124  13.534  69.068  1.00  0.00    -0.330 C  
BRANCH   6   7
HETATM    7  C   UNL     1     -11.198  12.446  68.521  1.00  0.00    -0.321 C  
BRANCH   7   8
HETATM    8  C   UNL     1     -11.663  11.051  68.930  1.00  0.00    -0.400 C  
HETATM    9  C   UNL     1     -10.500  10.178  69.342  1.00  0.00    -0.233 C  
HETATM   10  O   UNL     1      -9.333  10.529  69.399  1.00  0.00    -0.190 OA 
HETATM   11  O   UNL     1     -10.888   8.921  69.660  1.00  0.00    -0.233 OA 
ENDBRANCH   7   8
ENDBRANCH   6   7
ENDBRANCH   5   6
ENDBRANCH   2   5
TORSDOF 4
ENDMDL
MODEL      116
REMARK 921   NORMALIZED FREE ENERGY PREDICTED BY IDOCK:   -2.65 KCAL/MOL
REMARK 922        TOTAL FREE ENERGY PREDICTED BY IDOCK:   -3.36 KCAL/MOL
REMARK 923 INTER-LIGAND FREE ENERGY PREDICTED BY IDOCK:   -3.26 KCAL/MOL
REMARK 924 INTRA-LIGAND FREE ENERGY PREDICTED BY IDOCK:   -0.10 KCAL/MOL
REMARK 927      BINDING AFFINITY PREDICTED BY RF-SCORE:    0.00 PKD
ROOT
HETATM    1  N   UNL     1     -13.007  15.452  70.931  1.00  0.00    -0.487 NA 
HETATM    2  C   UNL     1     -11.713  15.833  70.374  1.00  0.00    -0.370 C  
HETATM    3  H1  UNL     1     -13.002  15.488  71.950  1.00  0.00     0.000 HD 
HETATM    4  H2  UNL     1     -13.304  14.537  70.591  1.00  0.00     0.000 HD 
ENDROOT
BRANCH   2   5
HETATM    5  C   UNL     1     -11.721  15.779  68.845  1.00  0.00    -0.404 C  
BRANCH   5   6
HETATM    6  C   UNL     1     -10.355  15.516  68.197  1.00  0.00    -0.237 C  
BRANCH   6   7
HETATM    7  C   UNL     1      -9.809  16.730  67.444  1.00  0.00    -0.252 C  
BRANCH   7   8
HETATM    8  C   UNL     1     -10.597  17.997  67.766  1.00  0.00    -0.409 C  
HETATM    9  C   UNL     1      -9.740  19.015  68.482  1.00  0.00    -0.400 C  
HETATM   10  O   UNL     1      -8.554  18.890  68.740  1.00  0.00    -0.345 OA 
HETATM   11  O   UNL     1     -10.436  20.125  68.820  1.00  0.00    -0.353 OA 
ENDBRANCH   7   8
ENDBRANCH   6   7
ENDBRANCH   5   6
ENDBRANCH   2   5
TORSDOF 4
ENDMDL
MODEL      117
REMARK 921   NORMALIZED FREE ENERGY PREDICTED BY IDOCK:   -2.65 KCAL/MOL
REMARK 922        TOTAL FREE ENERGY PREDICTED BY IDOCK:   -3.35 KCAL/MOL
REMARK 923 INTER-LIGAND FREE ENERGY PREDICTED BY IDOCK:   -3.23 KCAL/MOL
REMARK 924 INTRA-LIGAND FREE ENERGY PREDICTED BY IDOCK:   -0.12 KCAL/MOL
REMARK 927      BINDING AFFINITY PREDICTED BY RF-SCORE:    0.00 PKD
ROOT
HETATM    1  N   UNL     1      -9.409  13.845  66.066  1.00  0.00    -0.507 NA 
HETATM    2  C   UNL     1     -10.788  14.149  65.702  1.00  0.00    -0.305 C  
HETATM    3  H1  UNL     1      -8.795  13.849  65.251  1.00  0.00     0.000 HD 
HETATM    4  H2  UNL     1      -9.344  12.964  66.577  1.00  0.00     0.000 HD 
ENDROOT
BRANCH   2   5
HETATM    5  C   UNL     1     -11.707  14.144  66.925  1.00  0.00    -0.437 C  
BRANCH   5   6
HETATM    6  C   UNL     1     -11.193  13.331  68.121  1.00  0.00    -0.302 C  
BRANCH   6   7
HETATM    7  C   UNL     1     -11.882  11.972  68.258  1.00  0.00    -0.351 C  
BRANCH   7   8
HETATM    8  C   UNL     1     -11.039  10.989  69.067  1.00  0.00    -0.301 C  
HETATM    9  C   UNL     1     -11.683  10.672  70.397  1.00  0.00    -0.353 C  
HETATM   10  O   UNL     1     -12.761  11.092  70.783  1.00  0.00    -0.330 OA 
HETATM   11  O   UNL     1     -10.925   9.841  71.149  1.00  0.00    -0.348 OA 
ENDBRANCH   7   8
ENDBRANCH   6   7
ENDBRANCH   5   6
ENDBRANCH   2   5
TORSDOF 4
ENDMDL
MODEL      118
REMARK 921   NORMALIZED FREE ENERGY PREDICTED BY IDOCK:   -2.64 KCAL/MOL
REMARK 922        TOTAL FREE ENERGY PREDICTED BY IDOCK:   -3.34 KCAL/MOL
REMARK 923 INTER-LIGAND FREE ENERGY PREDICTED BY IDOCK:   -2.96 KCAL/MOL
REMARK 924 INTRA-LIGAND FREE ENERGY PREDICTED BY IDOCK:   -0.39 KCAL/MOL
REMARK 927      BINDING AFFINITY PREDICTED BY RF-SCORE:    0.00 PKD
ROOT
HETATM    1  N   UNL     1     -13.417   9.801  70.827  1.00  0.00    -0.588 NA 
HETATM    2  C   UNL     1     -13.440   8.905  71.977  1.00  0.00    -0.433 C  
HETATM    3  H1  UNL     1     -14.357  10.094  70.561  1.00  0.00     0.000 HD 
HETATM    4  H2  UNL     1     -12.919   9.386  70.040  1.00  0.00     0.000 HD 
ENDROOT
BRANCH   2   5
HETATM    5  C   UNL     1     -12.029   8.467  72.377  1.00  0.00    -0.451 C  
BRANCH   5   6
HETATM    6  C   UNL     1     -11.713   6.985  72.128  1.00  0.00    -0.321 C  
BRANCH   6   7
HETATM    7  C   UNL     1     -11.577   6.647  70.642  1.00  0.00    -0.439 C  
BRANCH   7   8
HETATM    8  C   UNL     1     -10.145   6.835  70.148  1.00  0.00    -0.195 C  
HETATM    9  C   UNL     1      -9.987   8.134  69.390  1.00  0.00    -0.188 C  
HETATM   10  O   UNL     1     -10.859   8.969  69.222  1.00  0.00    -0.206 OA 
HETATM   11  O   UNL     1      -8.735   8.294  68.902  1.00  0.00    -0.135 OA 
ENDBRANCH   7   8
ENDBRANCH   6   7
ENDBRANCH   5   6
ENDBRANCH   2   5
TORSDOF 4
ENDMDL
MODEL      119
REMARK 921   NORMALIZED FREE ENERGY PREDICTED BY IDOCK:   -2.63 KCAL/MOL
REMARK 922        TOTAL FREE ENERGY PREDICTED BY IDOCK:   -3.33 KCAL/MOL
REMARK 923 INTER-LIGAND FREE ENERGY PREDICTED BY IDOCK:   -3.24 KCAL/MOL
REMARK 924 INTRA-LIGAND FREE ENERGY PREDICTED BY IDOCK:   -0.09 KCAL/MOL
REMARK 927      BINDING AFFINITY PREDICTED BY RF-SCORE:    0.00 PKD
ROOT
HETATM    1  N   UNL     1     -11.517   5.574  73.103  1.00  0.00    -0.509 NA 
HETATM    2  C   UNL     1     -11.009   5.826  71.758  1.00  0.00    -0.256 C  
HETATM    3  H1  UNL     1     -12.242   4.858  73.101  1.00  0.00     0.000 HD 
HETATM    4  H2  UNL     1     -11.842   6.434  73.545  1.00  0.00     0.000 HD 
ENDROOT
BRANCH   2   5
HETATM    5  C   UNL     1      -9.919   6.901  71.761  1.00  0.00    -0.183 C  
BRANCH   5   6
HETATM    6  C   UNL     1     -10.216   8.128  70.888  1.00  0.00    -0.216 C  
BRANCH   6   7
HETATM    7  C   UNL     1     -11.693   8.526  70.901  1.00  0.00    -0.274 C  
BRANCH   7   8
HETATM    8  C   UNL     1     -11.870  10.041  70.962  1.00  0.00    -0.476 C  
HETATM    9  C   UNL     1     -13.030  10.426  71.852  1.00  0.00    -0.450 C  
HETATM   10  O   UNL     1     -13.722   9.653  72.492  1.00  0.00    -0.392 OA 
HETATM   11  O   UNL     1     -13.233  11.764  71.879  1.00  0.00    -0.482 OA 
ENDBRANCH   7   8
ENDBRANCH   6   7
ENDBRANCH   5   6
ENDBRANCH   2   5
TORSDOF 4
ENDMDL
MODEL      120
REMARK 921   NORMALIZED FREE ENERGY PREDICTED BY IDOCK:   -2.62 KCAL/MOL
REMARK 922        TOTAL FREE ENERGY PREDICTED BY IDOCK:   -3.32 KCAL/MOL
REMARK 923 INTER-LIGAND FREE ENERGY PREDICTED BY IDOCK:   -3.18 KCAL/MOL
REMARK 924 INTRA-LIGAND FREE ENERGY PREDICTED BY IDOCK:   -0.14 KCAL/MOL
REMARK 927      BINDING AFFINITY PREDICTED BY RF-SCORE:    0.00 PKD
ROOT
HETATM    1  N   UNL     1     -10.866  19.351  66.974  1.00  0.00    -0.473 NA 
HETATM    2  C   UNL     1      -9.679  19.142  67.796  1.00  0.00    -0.321 C  
HETATM    3  H1  UNL     1     -10.949  20.322  66.674  1.00  0.00     0.000 HD 
HETATM    4  H2  UNL     1     -11.711  19.035  67.451  1.00  0.00     0.000 HD 
ENDROOT
BRANCH   2   5
HETATM    5  C   UNL     1      -9.556  17.684  68.246  1.00  0.00    -0.306 C  
BRANCH   5   6
HETATM    6  C   UNL     1     -10.492  16.702  67.528  1.00  0.00    -0.317 C  
BRANCH   6   7
HETATM    7  C   UNL     1     -11.032  15.610  68.454  1.00  0.00    -0.308 C  
BRANCH   7   8
HETATM    8  C   UNL     1     -10.807  15.954  69.924  1.00  0.00    -0.333 C  
HETATM    9  C   UNL     1     -12.100  15.911  70.706  1.00  0.00    -0.355 C  
HETATM   10  O   UNL     1     -13.191  15.597  70.260  1.00  0.00    -0.267 OA 
HETATM   11  O   UNL     1     -11.928  16.261  72.002  1.00  0.00    -0.500 OA 
ENDBRANCH   7   8
ENDBRANCH   6   7
ENDBRANCH   5   6
ENDBRANCH   2   5
TORSDOF 4
ENDMDL
MODEL      121
REMARK 921   NORMALIZED FREE ENERGY PREDICTED BY IDOCK:   -2.60 KCAL/MOL
REMARK 922        TOTAL FREE ENERGY PREDICTED BY IDOCK:   -3.29 KCAL/MOL
REMARK 923 INTER-LIGAND FREE ENERGY PREDICTED BY IDOCK:   -3.26 KCAL/MOL
REMARK 924 INTRA-LIGAND FREE ENERGY PREDICTED BY IDOCK:   -0.03 KCAL/MOL
REMARK 927      BINDING AFFINITY PREDICTED BY RF-SCORE:    0.00 PKD
ROOT
HETATM    1  N   UNL     1     -11.401   4.554  65.126  1.00  0.00    -1.113 NA 
HETATM    2  C   UNL     1     -10.566   4.849  66.285  1.00  0.00    -0.255 C  
HETATM    3  H1  UNL     1     -11.214   3.621  64.756  1.00  0.00     0.000 HD 
HETATM    4  H2  UNL     1     -11.302   5.268  64.404  1.00  0.00     0.000 HD 
ENDROOT
BRANCH   2   5
HETATM    5  C   UNL     1     -10.847   6.248  66.839  1.00  0.00    -0.428 C  
BRANCH   5   6
HETATM    6  C   UNL     1     -11.069   6.313  68.356  1.00  0.00    -0.371 C  
BRANCH   6   7
HETATM    7  C   UNL     1     -10.139   5.381  69.135  1.00  0.00    -0.293 C  
BRANCH   7   8
HETATM    8  C   UNL     1     -10.351   5.500  70.642  1.00  0.00    -0.332 C  
HETATM    9  C   UNL     1      -9.558   6.649  71.223  1.00  0.00    -0.169 C  
HETATM   10  O   UNL     1      -8.868   7.428  70.589  1.00  0.00    -0.148 OA 
HETATM   11  O   UNL     1      -9.696   6.739  72.567  1.00  0.00    -0.154 OA 
ENDBRANCH   7   8
ENDBRANCH   6   7
ENDBRANCH   5   6
ENDBRANCH   2   5
TORSDOF 4
ENDMDL
MODEL      122
REMARK 921   NORMALIZED FREE ENERGY PREDICTED BY IDOCK:   -2.59 KCAL/MOL
REMARK 922        TOTAL FREE ENERGY PREDICTED BY IDOCK:   -3.27 KCAL/MOL
REMARK 923 INTER-LIGAND FREE ENERGY PREDICTED BY IDOCK:   -3.21 KCAL/MOL
REMARK 924 INTRA-LIGAND FREE ENERGY PREDICTED BY IDOCK:   -0.07 KCAL/MOL
REMARK 927      BINDING AFFINITY PREDICTED BY RF-SCORE:    0.00 PKD
ROOT
HETATM    1  N   UNL     1     -11.943  13.288  63.982  1.00  0.00    -0.440 NA 
HETATM    2  C   UNL     1     -11.148  13.472  65.191  1.00  0.00    -0.316 C  
HETATM    3  H1  UNL     1     -12.485  12.424  64.017  1.00  0.00     0.000 HD 
HETATM    4  H2  UNL     1     -11.362  13.330  63.144  1.00  0.00     0.000 HD 
ENDROOT
BRANCH   2   5
HETATM    5  C   UNL     1     -10.336  14.768  65.138  1.00  0.00    -0.439 C  
BRANCH   5   6
HETATM    6  C   UNL     1     -10.682  15.797  66.224  1.00  0.00    -0.282 C  
BRANCH   6   7
HETATM    7  C   UNL     1      -9.705  16.973  66.262  1.00  0.00    -0.302 C  
BRANCH   7   8
HETATM    8  C   UNL     1     -10.336  18.212  66.894  1.00  0.00    -0.386 C  
HETATM    9  C   UNL     1      -9.523  18.709  68.067  1.00  0.00    -0.315 C  
HETATM   10  O   UNL     1      -8.469  18.235  68.454  1.00  0.00    -0.291 OA 
HETATM   11  O   UNL     1     -10.095  19.778  68.671  1.00  0.00    -0.438 OA 
ENDBRANCH   7   8
ENDBRANCH   6   7
ENDBRANCH   5   6
ENDBRANCH   2   5
TORSDOF 4
ENDMDL
MODEL      123
REMARK 921   NORMALIZED FREE ENERGY PREDICTED BY IDOCK:   -2.58 KCAL/MOL
REMARK 922        TOTAL FREE ENERGY PREDICTED BY IDOCK:   -3.27 KCAL/MOL
REMARK 923 INTER-LIGAND FREE ENERGY PREDICTED BY IDOCK:   -3.17 KCAL/MOL
REMARK 924 INTRA-LIGAND FREE ENERGY PREDICTED BY IDOCK:   -0.10 KCAL/MOL
REMARK 927      BINDING AFFINITY PREDICTED BY RF-SCORE:    0.00 PKD
ROOT
HETATM    1  N   UNL     1      -7.832   7.292  71.429  1.00  0.00    -0.095 NA 
HETATM    2  C   UNL     1      -8.492   8.303  72.248  1.00  0.00    -0.187 C  
HETATM    3  H1  UNL     1      -6.992   6.931  71.882  1.00  0.00     0.000 HD 
HETATM    4  H2  UNL     1      -7.628   7.646  70.494  1.00  0.00     0.000 HD 
ENDROOT
BRANCH   2   5
HETATM    5  C   UNL     1      -9.752   8.844  71.568  1.00  0.00    -0.372 C  
BRANCH   5   6
HETATM    6  C   UNL     1     -11.076   8.352  72.168  1.00  0.00    -0.415 C  
BRANCH   6   7
HETATM    7  C   UNL     1     -12.263   9.247  71.806  1.00  0.00    -0.457 C  
BRANCH   7   8
HETATM    8  C   UNL     1     -11.861  10.352  70.832  1.00  0.00    -0.475 C  
HETATM    9  C   UNL     1     -12.566  11.651  71.148  1.00  0.00    -0.335 C  
HETATM   10  O   UNL     1     -13.325  11.839  72.083  1.00  0.00    -0.497 OA 
HETATM   11  O   UNL     1     -12.259  12.630  70.265  1.00  0.00    -0.331 OA 
ENDBRANCH   7   8
ENDBRANCH   6   7
ENDBRANCH   5   6
ENDBRANCH   2   5
TORSDOF 4
ENDMDL
MODEL      124
REMARK 921   NORMALIZED FREE ENERGY PREDICTED BY IDOCK:   -2.58 KCAL/MOL
REMARK 922        TOTAL FREE ENERGY PREDICTED BY IDOCK:   -3.27 KCAL/MOL
REMARK 923 INTER-LIGAND FREE ENERGY PREDICTED BY IDOCK:   -3.15 KCAL/MOL
REMARK 924 INTRA-LIGAND FREE ENERGY PREDICTED BY IDOCK:   -0.11 KCAL/MOL
REMARK 927      BINDING AFFINITY PREDICTED BY RF-SCORE:    0.00 PKD
ROOT
HETATM    1  N   UNL     1     -11.147  13.348  69.427  1.00  0.00    -0.434 NA 
HETATM    2  C   UNL     1     -12.232  13.252  70.398  1.00  0.00    -0.332 C  
HETATM    3  H1  UNL     1     -10.945  14.318  69.184  1.00  0.00     0.000 HD 
HETATM    4  H2  UNL     1     -11.339  12.787  68.597  1.00  0.00     0.000 HD 
ENDROOT
BRANCH   2   5
HETATM    5  C   UNL     1     -12.534  11.797  70.763  1.00  0.00    -0.405 C  
BRANCH   5   6
HETATM    6  C   UNL     1     -11.682  10.753  70.029  1.00  0.00    -0.417 C  
BRANCH   6   7
HETATM    7  C   UNL     1     -10.976   9.785  70.980  1.00  0.00    -0.402 C  
BRANCH   7   8
HETATM    8  C   UNL     1     -11.657   8.419  71.005  1.00  0.00    -0.307 C  
HETATM    9  C   UNL     1     -10.963   7.438  70.088  1.00  0.00    -0.255 C  
HETATM   10  O   UNL     1      -9.956   7.663  69.437  1.00  0.00    -0.173 OA 
HETATM   11  O   UNL     1     -11.583   6.235  70.060  1.00  0.00    -0.425 OA 
ENDBRANCH   7   8
ENDBRANCH   6   7
ENDBRANCH   5   6
ENDBRANCH   2   5
TORSDOF 4
ENDMDL
MODEL      125
REMARK 921   NORMALIZED FREE ENERGY PREDICTED BY IDOCK:   -2.58 KCAL/MOL
REMARK 922        TOTAL FREE ENERGY PREDICTED BY IDOCK:   -3.27 KCAL/MOL
REMARK 923 INTER-LIGAND FREE ENERGY PREDICTED BY IDOCK:   -3.21 KCAL/MOL
REMARK 924 INTRA-LIGAND FREE ENERGY PREDICTED BY IDOCK:   -0.06 KCAL/MOL
REMARK 927      BINDING AFFINITY PREDICTED BY RF-SCORE:    0.00 PKD
ROOT
HETATM    1  N   UNL     1      -9.081  20.777  66.963  1.00  0.00    -0.619 NA 
HETATM    2  C   UNL     1     -10.074  19.835  66.460  1.00  0.00    -0.476 C  
HETATM    3  H1  UNL     1      -9.464  21.718  67.045  1.00  0.00     0.000 HD 
HETATM    4  H2  UNL     1      -8.235  20.766  66.394  1.00  0.00     0.000 HD 
ENDROOT
BRANCH   2   5
HETATM    5  C   UNL     1      -9.499  18.422  66.339  1.00  0.00    -0.297 C  
BRANCH   5   6
HETATM    6  C   UNL     1     -10.517  17.288  66.528  1.00  0.00    -0.260 C  
BRANCH   6   7
HETATM    7  C   UNL     1     -10.225  16.073  65.645  1.00  0.00    -0.412 C  
BRANCH   7   8
HETATM    8  C   UNL     1     -10.095  14.794  66.469  1.00  0.00    -0.281 C  
HETATM    9  C   UNL     1     -10.672  13.604  65.737  1.00  0.00    -0.280 C  
HETATM   10  O   UNL     1     -11.143  13.621  64.613  1.00  0.00    -0.347 OA 
HETATM   11  O   UNL     1     -10.611  12.470  66.473  1.00  0.00    -0.238 OA 
ENDBRANCH   7   8
ENDBRANCH   6   7
ENDBRANCH   5   6
ENDBRANCH   2   5
TORSDOF 4
ENDMDL
MODEL      126
REMARK 921   NORMALIZED FREE ENERGY PREDICTED BY IDOCK:   -2.57 KCAL/MOL
REMARK 922        TOTAL FREE ENERGY PREDICTED BY IDOCK:   -3.26 KCAL/MOL
REMARK 923 INTER-LIGAND FREE ENERGY PREDICTED BY IDOCK:   -3.12 KCAL/MOL
REMARK 924 INTRA-LIGAND FREE ENERGY PREDICTED BY IDOCK:   -0.14 KCAL/MOL
REMARK 927      BINDING AFFINITY PREDICTED BY RF-SCORE:    0.00 PKD
ROOT
HETATM    1  N   UNL     1     -12.392  10.711  68.952  1.00  0.00    -0.790 NA 
HETATM    2  C   UNL     1     -11.454  11.359  68.042  1.00  0.00    -0.307 C  
HETATM    3  H1  UNL     1     -12.184   9.719  69.061  1.00  0.00     0.000 HD 
HETATM    4  H2  UNL     1     -13.358  10.860  68.660  1.00  0.00     0.000 HD 
ENDROOT
BRANCH   2   5
HETATM    5  C   UNL     1     -11.766  12.849  67.880  1.00  0.00    -0.405 C  
BRANCH   5   6
HETATM    6  C   UNL     1     -11.599  13.396  66.455  1.00  0.00    -0.394 C  
BRANCH   6   7
HETATM    7  C   UNL     1     -11.206  14.875  66.428  1.00  0.00    -0.331 C  
BRANCH   7   8
HETATM    8  C   UNL     1      -9.804  15.077  65.860  1.00  0.00    -0.369 C  
HETATM    9  C   UNL     1      -8.802  15.374  66.953  1.00  0.00    -0.253 C  
HETATM   10  O   UNL     1      -9.043  15.406  68.148  1.00  0.00    -0.180 OA 
HETATM   11  O   UNL     1      -7.562  15.605  66.464  1.00  0.00    -0.091 OA 
ENDBRANCH   7   8
ENDBRANCH   6   7
ENDBRANCH   5   6
ENDBRANCH   2   5
TORSDOF 4
ENDMDL
MODEL      127
REMARK 921   NORMALIZED FREE ENERGY PREDICTED BY IDOCK:   -2.55 KCAL/MOL
REMARK 922        TOTAL FREE ENERGY PREDICTED BY IDOCK:   -3.24 KCAL/MOL
REMARK 923 INTER-LIGAND FREE ENERGY PREDICTED BY IDOCK:   -3.13 KCAL/MOL
REMARK 924 INTRA-LIGAND FREE ENERGY PREDICTED BY IDOCK:   -0.10 KCAL/MOL
REMARK 927      BINDING AFFINITY PREDICTED BY RF-SCORE:    0.00 PKD
ROOT
HETATM    1  N   UNL     1     -10.582  10.733  70.050  1.00  0.00    -0.459 NA 
HETATM    2  C   UNL     1     -11.876  11.380  69.865  1.00  0.00    -0.359 C  
HETATM    3  H1  UNL     1     -10.653   9.918  70.659  1.00  0.00     0.000 HD 
HETATM    4  H2  UNL     1      -9.881  11.392  70.389  1.00  0.00     0.000 HD 
ENDROOT
BRANCH   2   5
HETATM    5  C   UNL     1     -11.769  12.603  68.951  1.00  0.00    -0.370 C  
BRANCH   5   6
HETATM    6  C   UNL     1     -10.801  12.448  67.770  1.00  0.00    -0.257 C  
BRANCH   6   7
HETATM    7  C   UNL     1     -11.421  11.704  66.585  1.00  0.00    -0.280 C  
BRANCH   7   8
HETATM    8  C   UNL     1     -10.355  11.169  65.633  1.00  0.00    -0.311 C  
HETATM    9  C   UNL     1     -10.719  11.433  64.190  1.00  0.00    -0.371 C  
HETATM   10  O   UNL     1     -11.706  12.038  63.805  1.00  0.00    -0.417 OA 
HETATM   11  O   UNL     1      -9.809  10.922  63.329  1.00  0.00    -0.309 OA 
ENDBRANCH   7   8
ENDBRANCH   6   7
ENDBRANCH   5   6
ENDBRANCH   2   5
TORSDOF 4
ENDMDL
MODEL      128
REMARK 921   NORMALIZED FREE ENERGY PREDICTED BY IDOCK:   -2.55 KCAL/MOL
REMARK 922        TOTAL FREE ENERGY PREDICTED BY IDOCK:   -3.24 KCAL/MOL
REMARK 923 INTER-LIGAND FREE ENERGY PREDICTED BY IDOCK:   -3.16 KCAL/MOL
REMARK 924 INTRA-LIGAND FREE ENERGY PREDICTED BY IDOCK:   -0.08 KCAL/MOL
REMARK 927      BINDING AFFINITY PREDICTED BY RF-SCORE:    0.00 PKD
ROOT
HETATM    1  N   UNL     1     -11.347  15.977  63.931  1.00  0.00    -1.142 NA 
HETATM    2  C   UNL     1     -10.944  16.566  65.203  1.00  0.00    -0.191 C  
HETATM    3  H1  UNL     1     -12.203  16.403  63.575  1.00  0.00     0.000 HD 
HETATM    4  H2  UNL     1     -11.436  14.964  64.001  1.00  0.00     0.000 HD 
ENDROOT
BRANCH   2   5
HETATM    5  C   UNL     1      -9.660  15.928  65.737  1.00  0.00    -0.339 C  
BRANCH   5   6
HETATM    6  C   UNL     1      -9.015  16.659  66.923  1.00  0.00    -0.244 C  
BRANCH   6   7
HETATM    7  C   UNL     1      -8.562  18.078  66.573  1.00  0.00    -0.280 C  
BRANCH   7   8
HETATM    8  C   UNL     1      -7.160  18.090  65.969  1.00  0.00    -0.330 C  
HETATM    9  C   UNL     1      -6.649  19.502  65.786  1.00  0.00    -0.242 C  
HETATM   10  O   UNL     1      -7.237  20.518  66.115  1.00  0.00    -0.232 OA 
HETATM   11  O   UNL     1      -5.427  19.534  65.206  1.00  0.00    -0.158 OA 
ENDBRANCH   7   8
ENDBRANCH   6   7
ENDBRANCH   5   6
ENDBRANCH   2   5
TORSDOF 4
ENDMDL
MODEL      129
REMARK 921   NORMALIZED FREE ENERGY PREDICTED BY IDOCK:   -2.54 KCAL/MOL
REMARK 922        TOTAL FREE ENERGY PREDICTED BY IDOCK:   -3.22 KCAL/MOL
REMARK 923 INTER-LIGAND FREE ENERGY PREDICTED BY IDOCK:   -3.11 KCAL/MOL
REMARK 924 INTRA-LIGAND FREE ENERGY PREDICTED BY IDOCK:   -0.10 KCAL/MOL
REMARK 927      BINDING AFFINITY PREDICTED BY RF-SCORE:    0.00 PKD
ROOT
HETATM    1  N   UNL     1      -8.788  11.849  67.700  1.00  0.00    -0.162 NA 
HETATM    2  C   UNL     1      -9.886  11.286  66.922  1.00  0.00    -0.193 C  
HETATM    3  H1  UNL     1      -8.187  12.441  67.127  1.00  0.00     0.000 HD 
HETATM    4  H2  UNL     1      -8.252  11.119  68.170  1.00  0.00     0.000 HD 
ENDROOT
BRANCH   2   5
HETATM    5  C   UNL     1     -10.788  10.397  67.782  1.00  0.00    -0.351 C  
BRANCH   5   6
HETATM    6  C   UNL     1     -11.829  11.149  68.623  1.00  0.00    -0.357 C  
BRANCH   6   7
HETATM    7  C   UNL     1     -11.592  11.009  70.128  1.00  0.00    -0.421 C  
BRANCH   7   8
HETATM    8  C   UNL     1     -12.897  10.784  70.887  1.00  0.00    -0.443 C  
HETATM    9  C   UNL     1     -12.843   9.523  71.720  1.00  0.00    -0.406 C  
HETATM   10  O   UNL     1     -11.878   8.786  71.831  1.00  0.00    -0.319 OA 
HETATM   11  O   UNL     1     -14.010   9.282  72.361  1.00  0.00    -0.460 OA 
ENDBRANCH   7   8
ENDBRANCH   6   7
ENDBRANCH   5   6
ENDBRANCH   2   5
TORSDOF 4
ENDMDL
MODEL      130
REMARK 921   NORMALIZED FREE ENERGY PREDICTED BY IDOCK:   -2.54 KCAL/MOL
REMARK 922        TOTAL FREE ENERGY PREDICTED BY IDOCK:   -3.22 KCAL/MOL
REMARK 923 INTER-LIGAND FREE ENERGY PREDICTED BY IDOCK:   -3.05 KCAL/MOL
REMARK 924 INTRA-LIGAND FREE ENERGY PREDICTED BY IDOCK:   -0.16 KCAL/MOL
REMARK 927      BINDING AFFINITY PREDICTED BY RF-SCORE:    0.00 PKD
ROOT
HETATM    1  N   UNL     1      -8.755  17.474  65.955  1.00  0.00    -0.529 NA 
HETATM    2  C   UNL     1      -9.155  18.247  67.126  1.00  0.00    -0.264 C  
HETATM    3  H1  UNL     1      -7.815  17.721  65.645  1.00  0.00     0.000 HD 
HETATM    4  H2  UNL     1      -9.433  17.567  65.198  1.00  0.00     0.000 HD 
ENDROOT
BRANCH   2   5
HETATM    5  C   UNL     1     -10.565  17.876  67.590  1.00  0.00    -0.398 C  
BRANCH   5   6
HETATM    6  C   UNL     1     -10.624  16.907  68.778  1.00  0.00    -0.355 C  
BRANCH   6   7
HETATM    7  C   UNL     1     -11.504  15.685  68.508  1.00  0.00    -0.380 C  
BRANCH   7   8
HETATM    8  C   UNL     1     -11.189  15.050  67.156  1.00  0.00    -0.336 C  
HETATM    9  C   UNL     1     -10.552  13.688  67.321  1.00  0.00    -0.267 C  
HETATM   10  O   UNL     1     -10.350  13.122  68.381  1.00  0.00    -0.245 OA 
HETATM   11  O   UNL     1     -10.220  13.130  66.133  1.00  0.00    -0.278 OA 
ENDBRANCH   7   8
ENDBRANCH   6   7
ENDBRANCH   5   6
ENDBRANCH   2   5
TORSDOF 4
ENDMDL
MODEL      131
REMARK 921   NORMALIZED FREE ENERGY PREDICTED BY IDOCK:   -2.54 KCAL/MOL
REMARK 922        TOTAL FREE ENERGY PREDICTED BY IDOCK:   -3.21 KCAL/MOL
REMARK 923 INTER-LIGAND FREE ENERGY PREDICTED BY IDOCK:   -3.14 KCAL/MOL
REMARK 924 INTRA-LIGAND FREE ENERGY PREDICTED BY IDOCK:   -0.08 KCAL/MOL
REMARK 927      BINDING AFFINITY PREDICTED BY RF-SCORE:    0.00 PKD
ROOT
HETATM    1  N   UNL     1      -8.112  16.685  67.634  1.00  0.00    -0.169 NA 
HETATM    2  C   UNL     1      -8.973  15.679  67.022  1.00  0.00    -0.222 C  
HETATM    3  H1  UNL     1      -8.047  17.524  67.058  1.00  0.00     0.000 HD 
HETATM    4  H2  UNL     1      -7.189  16.306  67.847  1.00  0.00     0.000 HD 
ENDROOT
BRANCH   2   5
HETATM    5  C   UNL     1      -9.072  14.420  67.887  1.00  0.00    -0.187 C  
BRANCH   5   6
HETATM    6  C   UNL     1      -9.296  13.115  67.111  1.00  0.00    -0.235 C  
BRANCH   6   7
HETATM    7  C   UNL     1     -10.547  12.360  67.565  1.00  0.00    -0.240 C  
BRANCH   7   8
HETATM    8  C   UNL     1     -11.438  11.983  66.384  1.00  0.00    -0.417 C  
HETATM    9  C   UNL     1     -12.301  13.146  65.949  1.00  0.00    -0.398 C  
HETATM   10  O   UNL     1     -12.275  14.268  66.426  1.00  0.00    -0.436 OA 
HETATM   11  O   UNL     1     -13.134  12.815  64.934  1.00  0.00    -0.833 OA 
ENDBRANCH   7   8
ENDBRANCH   6   7
ENDBRANCH   5   6
ENDBRANCH   2   5
TORSDOF 4
ENDMDL
MODEL      132
REMARK 921   NORMALIZED FREE ENERGY PREDICTED BY IDOCK:   -2.53 KCAL/MOL
REMARK 922        TOTAL FREE ENERGY PREDICTED BY IDOCK:   -3.21 KCAL/MOL
REMARK 923 INTER-LIGAND FREE ENERGY PREDICTED BY IDOCK:   -3.07 KCAL/MOL
REMARK 924 INTRA-LIGAND FREE ENERGY PREDICTED BY IDOCK:   -0.13 KCAL/MOL
REMARK 927      BINDING AFFINITY PREDICTED BY RF-SCORE:    0.00 PKD
ROOT
HETATM    1  N   UNL     1     -10.449  10.925  62.772  1.00  0.00    -0.781 NA 
HETATM    2  C   UNL     1      -9.880  11.652  63.902  1.00  0.00    -0.281 C  
HETATM    3  H1  UNL     1     -10.227  11.376  61.885  1.00  0.00     0.000 HD 
HETATM    4  H2  UNL     1     -11.455  10.793  62.882  1.00  0.00     0.000 HD 
ENDROOT
BRANCH   2   5
HETATM    5  C   UNL     1     -10.213  10.973  65.233  1.00  0.00    -0.344 C  
BRANCH   5   6
HETATM    6  C   UNL     1      -9.017  10.764  66.172  1.00  0.00    -0.192 C  
BRANCH   6   7
HETATM    7  C   UNL     1      -9.435  10.544  67.627  1.00  0.00    -0.164 C  
BRANCH   7   8
HETATM    8  C   UNL     1      -9.795  11.857  68.317  1.00  0.00    -0.199 C  
HETATM    9  C   UNL     1     -11.268  11.918  68.656  1.00  0.00    -0.257 C  
HETATM   10  O   UNL     1     -12.079  11.029  68.461  1.00  0.00    -0.573 OA 
HETATM   11  O   UNL     1     -11.615  13.096  69.224  1.00  0.00    -0.281 OA 
ENDBRANCH   7   8
ENDBRANCH   6   7
ENDBRANCH   5   6
ENDBRANCH   2   5
TORSDOF 4
ENDMDL
MODEL      133
REMARK 921   NORMALIZED FREE ENERGY PREDICTED BY IDOCK:   -2.53 KCAL/MOL
REMARK 922        TOTAL FREE ENERGY PREDICTED BY IDOCK:   -3.20 KCAL/MOL
REMARK 923 INTER-LIGAND FREE ENERGY PREDICTED BY IDOCK:   -3.15 KCAL/MOL
REMARK 924 INTRA-LIGAND FREE ENERGY PREDICTED BY IDOCK:   -0.05 KCAL/MOL
REMARK 927      BINDING AFFINITY PREDICTED BY RF-SCORE:    0.00 PKD
ROOT
HETATM    1  N   UNL     1      -8.039   8.806  66.193  1.00  0.00    -0.105 NA 
HETATM    2  C   UNL     1      -9.015   9.601  65.455  1.00  0.00    -0.190 C  
HETATM    3  H1  UNL     1      -7.915   7.883  65.776  1.00  0.00     0.000 HD 
HETATM    4  H2  UNL     1      -8.283   8.739  67.181  1.00  0.00     0.000 HD 
ENDROOT
BRANCH   2   5
HETATM    5  C   UNL     1      -9.200  10.985  66.079  1.00  0.00    -0.213 C  
BRANCH   5   6
HETATM    6  C   UNL     1     -10.274  11.859  65.416  1.00  0.00    -0.300 C  
BRANCH   6   7
HETATM    7  C   UNL     1     -10.275  13.298  65.934  1.00  0.00    -0.295 C  
BRANCH   7   8
HETATM    8  C   UNL     1     -10.788  14.277  64.882  1.00  0.00    -0.429 C  
HETATM    9  C   UNL     1     -10.540  15.711  65.293  1.00  0.00    -0.426 C  
HETATM   10  O   UNL     1      -9.962  16.071  66.304  1.00  0.00    -0.271 OA 
HETATM   11  O   UNL     1     -11.033  16.595  64.394  1.00  0.00    -0.924 OA 
ENDBRANCH   7   8
ENDBRANCH   6   7
ENDBRANCH   5   6
ENDBRANCH   2   5
TORSDOF 4
ENDMDL
MODEL      134
REMARK 921   NORMALIZED FREE ENERGY PREDICTED BY IDOCK:   -2.52 KCAL/MOL
REMARK 922        TOTAL FREE ENERGY PREDICTED BY IDOCK:   -3.20 KCAL/MOL
REMARK 923 INTER-LIGAND FREE ENERGY PREDICTED BY IDOCK:   -3.03 KCAL/MOL
REMARK 924 INTRA-LIGAND FREE ENERGY PREDICTED BY IDOCK:   -0.17 KCAL/MOL
REMARK 927      BINDING AFFINITY PREDICTED BY RF-SCORE:    0.00 PKD
ROOT
HETATM    1  N   UNL     1      -8.838  15.839  66.016  1.00  0.00    -0.349 NA 
HETATM    2  C   UNL     1     -10.270  15.949  65.764  1.00  0.00    -0.365 C  
HETATM    3  H1  UNL     1      -8.506  16.586  66.626  1.00  0.00     0.000 HD 
HETATM    4  H2  UNL     1      -8.308  15.805  65.145  1.00  0.00     0.000 HD 
ENDROOT
BRANCH   2   5
HETATM    5  C   UNL     1     -10.769  14.828  64.849  1.00  0.00    -0.438 C  
BRANCH   5   6
HETATM    6  C   UNL     1     -12.160  14.279  65.193  1.00  0.00    -0.410 C  
BRANCH   6   7
HETATM    7  C   UNL     1     -12.146  12.786  65.524  1.00  0.00    -0.517 C  
BRANCH   7   8
HETATM    8  C   UNL     1     -10.756  12.312  65.938  1.00  0.00    -0.294 C  
HETATM    9  C   UNL     1     -10.608  12.278  67.442  1.00  0.00    -0.222 C  
HETATM   10  O   UNL     1     -11.483  12.542  68.249  1.00  0.00    -0.262 OA 
HETATM   11  O   UNL     1      -9.364  11.907  67.827  1.00  0.00    -0.173 OA 
ENDBRANCH   7   8
ENDBRANCH   6   7
ENDBRANCH   5   6
ENDBRANCH   2   5
TORSDOF 4
ENDMDL
MODEL      135
REMARK 921   NORMALIZED FREE ENERGY PREDICTED BY IDOCK:   -2.50 KCAL/MOL
REMARK 922        TOTAL FREE ENERGY PREDICTED BY IDOCK:   -3.17 KCAL/MOL
REMARK 923 INTER-LIGAND FREE ENERGY PREDICTED BY IDOCK:   -2.98 KCAL/MOL
REMARK 924 INTRA-LIGAND FREE ENERGY PREDICTED BY IDOCK:   -0.19 KCAL/MOL
REMARK 927      BINDING AFFINITY PREDICTED BY RF-SCORE:    0.00 PKD
ROOT
HETATM    1  N   UNL     1     -10.008   4.760  70.452  1.00  0.00    -0.237 NA 
HETATM    2  C   UNL     1     -10.691   5.625  69.497  1.00  0.00    -0.310 C  
HETATM    3  H1  UNL     1      -9.455   4.043  69.981  1.00  0.00     0.000 HD 
HETATM    4  H2  UNL     1     -10.663   4.348  71.117  1.00  0.00     0.000 HD 
ENDROOT
BRANCH   2   5
HETATM    5  C   UNL     1     -11.519   6.700  70.204  1.00  0.00    -0.444 C  
BRANCH   5   6
HETATM    6  C   UNL     1     -10.843   8.073  70.315  1.00  0.00    -0.241 C  
BRANCH   6   7
HETATM    7  C   UNL     1     -10.975   8.691  71.709  1.00  0.00    -0.396 C  
BRANCH   7   8
HETATM    8  C   UNL     1     -11.253   7.632  72.772  1.00  0.00    -0.431 C  
HETATM    9  C   UNL     1     -10.039   7.388  73.641  1.00  0.00    -0.325 C  
HETATM   10  O   UNL     1      -8.977   7.981  73.559  1.00  0.00    -0.253 OA 
HETATM   11  O   UNL     1     -10.252   6.417  74.558  1.00  0.00    -0.342 OA 
ENDBRANCH   7   8
ENDBRANCH   6   7
ENDBRANCH   5   6
ENDBRANCH   2   5
TORSDOF 4
ENDMDL
MODEL      136
REMARK 921   NORMALIZED FREE ENERGY PREDICTED BY IDOCK:   -2.49 KCAL/MOL
REMARK 922        TOTAL FREE ENERGY PREDICTED BY IDOCK:   -3.16 KCAL/MOL
REMARK 923 INTER-LIGAND FREE ENERGY PREDICTED BY IDOCK:   -3.03 KCAL/MOL
REMARK 924 INTRA-LIGAND FREE ENERGY PREDICTED BY IDOCK:   -0.13 KCAL/MOL
REMARK 927      BINDING AFFINITY PREDICTED BY RF-SCORE:    0.00 PKD
ROOT
HETATM    1  N   UNL     1     -11.578  16.250  70.748  1.00  0.00    -0.543 NA 
HETATM    2  C   UNL     1     -11.825  14.827  70.545  1.00  0.00    -0.302 C  
HETATM    3  H1  UNL     1     -12.067  16.602  71.571  1.00  0.00     0.000 HD 
HETATM    4  H2  UNL     1     -11.813  16.791  69.916  1.00  0.00     0.000 HD 
ENDROOT
BRANCH   2   5
HETATM    5  C   UNL     1     -11.092  14.299  69.310  1.00  0.00    -0.297 C  
BRANCH   5   6
HETATM    6  C   UNL     1     -11.597  14.851  67.970  1.00  0.00    -0.363 C  
BRANCH   6   7
HETATM    7  C   UNL     1     -11.554  13.815  66.845  1.00  0.00    -0.394 C  
BRANCH   7   8
HETATM    8  C   UNL     1     -11.909  12.419  67.349  1.00  0.00    -0.360 C  
HETATM    9  C   UNL     1     -10.829  11.417  67.010  1.00  0.00    -0.282 C  
HETATM   10  O   UNL     1      -9.775  11.670  66.452  1.00  0.00    -0.203 OA 
HETATM   11  O   UNL     1     -11.149  10.163  67.406  1.00  0.00    -0.283 OA 
ENDBRANCH   7   8
ENDBRANCH   6   7
ENDBRANCH   5   6
ENDBRANCH   2   5
TORSDOF 4
ENDMDL
MODEL      137
REMARK 921   NORMALIZED FREE ENERGY PREDICTED BY IDOCK:   -2.49 KCAL/MOL
REMARK 922        TOTAL FREE ENERGY PREDICTED BY IDOCK:   -3.15 KCAL/MOL
REMARK 923 INTER-LIGAND FREE ENERGY PREDICTED BY IDOCK:   -3.01 KCAL/MOL
REMARK 924 INTRA-LIGAND FREE ENERGY PREDICTED BY IDOCK:   -0.15 KCAL/MOL
REMARK 927      BINDING AFFINITY PREDICTED BY RF-SCORE:    0.00 PKD
ROOT
HETATM    1  N   UNL     1      -6.161  17.027  66.325  1.00  0.00    -0.266 NA 
HETATM    2  C   UNL     1      -6.425  17.022  67.760  1.00  0.00    -0.142 C  
HETATM    3  H1  UNL     1      -5.279  17.491  66.107  1.00  0.00     0.000 HD 
HETATM    4  H2  UNL     1      -6.937  17.437  65.805  1.00  0.00     0.000 HD 
ENDROOT
BRANCH   2   5
HETATM    5  C   UNL     1      -7.748  16.324  68.086  1.00  0.00    -0.159 C  
BRANCH   5   6
HETATM    6  C   UNL     1      -8.669  16.083  66.882  1.00  0.00    -0.259 C  
BRANCH   6   7
HETATM    7  C   UNL     1     -10.085  16.620  67.098  1.00  0.00    -0.276 C  
BRANCH   7   8
HETATM    8  C   UNL     1     -10.111  18.146  67.132  1.00  0.00    -0.358 C  
HETATM    9  C   UNL     1     -10.657  18.719  65.844  1.00  0.00    -0.352 C  
HETATM   10  O   UNL     1     -11.077  18.072  64.900  1.00  0.00    -0.738 OA 
HETATM   11  O   UNL     1     -10.641  20.073  65.837  1.00  0.00    -0.456 OA 
ENDBRANCH   7   8
ENDBRANCH   6   7
ENDBRANCH   5   6
ENDBRANCH   2   5
TORSDOF 4
ENDMDL
MODEL      138
REMARK 921   NORMALIZED FREE ENERGY PREDICTED BY IDOCK:   -2.49 KCAL/MOL
REMARK 922        TOTAL FREE ENERGY PREDICTED BY IDOCK:   -3.15 KCAL/MOL
REMARK 923 INTER-LIGAND FREE ENERGY PREDICTED BY IDOCK:   -3.05 KCAL/MOL
REMARK 924 INTRA-LIGAND FREE ENERGY PREDICTED BY IDOCK:   -0.10 KCAL/MOL
REMARK 927      BINDING AFFINITY PREDICTED BY RF-SCORE:    0.00 PKD
ROOT
HETATM    1  N   UNL     1      -5.955  14.321  67.410  1.00  0.00    -0.313 NA 
HETATM    2  C   UNL     1      -7.331  14.014  67.785  1.00  0.00    -0.167 C  
HETATM    3  H1  UNL     1      -5.287  13.776  67.955  1.00  0.00     0.000 HD 
HETATM    4  H2  UNL     1      -5.764  15.321  67.479  1.00  0.00     0.000 HD 
ENDROOT
BRANCH   2   5
HETATM    5  C   UNL     1      -8.332  14.832  66.966  1.00  0.00    -0.228 C  
BRANCH   5   6
HETATM    6  C   UNL     1      -9.559  15.326  67.746  1.00  0.00    -0.206 C  
BRANCH   6   7
HETATM    7  C   UNL     1     -10.855  14.636  67.317  1.00  0.00    -0.305 C  
BRANCH   7   8
HETATM    8  C   UNL     1     -11.095  13.348  68.099  1.00  0.00    -0.284 C  
HETATM    9  C   UNL     1     -11.769  12.299  67.244  1.00  0.00    -0.324 C  
HETATM   10  O   UNL     1     -12.051  12.418  66.064  1.00  0.00    -0.600 OA 
HETATM   11  O   UNL     1     -12.034  11.166  67.936  1.00  0.00    -0.624 OA 
ENDBRANCH   7   8
ENDBRANCH   6   7
ENDBRANCH   5   6
ENDBRANCH   2   5
TORSDOF 4
ENDMDL
MODEL      139
REMARK 921   NORMALIZED FREE ENERGY PREDICTED BY IDOCK:   -2.48 KCAL/MOL
REMARK 922        TOTAL FREE ENERGY PREDICTED BY IDOCK:   -3.14 KCAL/MOL
REMARK 923 INTER-LIGAND FREE ENERGY PREDICTED BY IDOCK:   -3.02 KCAL/MOL
REMARK 924 INTRA-LIGAND FREE ENERGY PREDICTED BY IDOCK:   -0.12 KCAL/MOL
REMARK 927      BINDING AFFINITY PREDICTED BY RF-SCORE:    0.00 PKD
ROOT
HETATM    1  N   UNL     1      -8.810  10.191  69.850  1.00  0.00    -0.373 NA 
HETATM    2  C   UNL     1     -10.231   9.889  69.719  1.00  0.00    -0.246 C  
HETATM    3  H1  UNL     1      -8.274   9.366  70.118  1.00  0.00     0.000 HD 
HETATM    4  H2  UNL     1      -8.652  10.965  70.495  1.00  0.00     0.000 HD 
ENDROOT
BRANCH   2   5
HETATM    5  C   UNL     1     -11.035  11.127  69.315  1.00  0.00    -0.300 C  
BRANCH   5   6
HETATM    6  C   UNL     1     -11.527  11.136  67.861  1.00  0.00    -0.359 C  
BRANCH   6   7
HETATM    7  C   UNL     1     -10.545  11.815  66.904  1.00  0.00    -0.270 C  
BRANCH   7   8
HETATM    8  C   UNL     1     -11.267  12.660  65.858  1.00  0.00    -0.350 C  
HETATM    9  C   UNL     1     -11.266  11.984  64.505  1.00  0.00    -0.332 C  
HETATM   10  O   UNL     1     -10.801  10.885  64.260  1.00  0.00    -0.309 OA 
HETATM   11  O   UNL     1     -11.860  12.742  63.554  1.00  0.00    -0.485 OA 
ENDBRANCH   7   8
ENDBRANCH   6   7
ENDBRANCH   5   6
ENDBRANCH   2   5
TORSDOF 4
ENDMDL
MODEL      140
REMARK 921   NORMALIZED FREE ENERGY PREDICTED BY IDOCK:   -2.45 KCAL/MOL
REMARK 922        TOTAL FREE ENERGY PREDICTED BY IDOCK:   -3.11 KCAL/MOL
REMARK 923 INTER-LIGAND FREE ENERGY PREDICTED BY IDOCK:   -2.94 KCAL/MOL
REMARK 924 INTRA-LIGAND FREE ENERGY PREDICTED BY IDOCK:   -0.17 KCAL/MOL
REMARK 927      BINDING AFFINITY PREDICTED BY RF-SCORE:    0.00 PKD
ROOT
HETATM    1  N   UNL     1      -9.823  17.117  68.140  1.00  0.00    -0.269 NA 
HETATM    2  C   UNL     1     -10.467  18.042  67.214  1.00  0.00    -0.380 C  
HETATM    3  H1  UNL     1     -10.140  16.159  67.995  1.00  0.00     0.000 HD 
HETATM    4  H2  UNL     1      -9.950  17.410  69.108  1.00  0.00     0.000 HD 
ENDROOT
BRANCH   2   5
HETATM    5  C   UNL     1      -9.990  19.480  67.431  1.00  0.00    -0.498 C  
BRANCH   5   6
HETATM    6  C   UNL     1      -8.702  19.619  68.254  1.00  0.00    -0.361 C  
BRANCH   6   7
HETATM    7  C   UNL     1      -7.558  20.262  67.467  1.00  0.00    -0.341 C  
BRANCH   7   8
HETATM    8  C   UNL     1      -6.851  19.249  66.569  1.00  0.00    -0.209 C  
HETATM    9  C   UNL     1      -6.621  19.806  65.182  1.00  0.00    -0.280 C  
HETATM   10  O   UNL     1      -6.907  20.931  64.812  1.00  0.00    -0.160 OA 
HETATM   11  O   UNL     1      -6.039  18.904  64.358  1.00  0.00    -0.445 OA 
ENDBRANCH   7   8
ENDBRANCH   6   7
ENDBRANCH   5   6
ENDBRANCH   2   5
TORSDOF 4
ENDMDL
MODEL      141
REMARK 921   NORMALIZED FREE ENERGY PREDICTED BY IDOCK:   -2.45 KCAL/MOL
REMARK 922        TOTAL FREE ENERGY PREDICTED BY IDOCK:   -3.11 KCAL/MOL
REMARK 923 INTER-LIGAND FREE ENERGY PREDICTED BY IDOCK:   -3.02 KCAL/MOL
REMARK 924 INTRA-LIGAND FREE ENERGY PREDICTED BY IDOCK:   -0.09 KCAL/MOL
REMARK 927      BINDING AFFINITY PREDICTED BY RF-SCORE:    0.00 PKD
ROOT
HETATM    1  N   UNL     1      -7.949   5.386  71.878  1.00  0.00    -0.111 NA 
HETATM    2  C   UNL     1      -8.979   6.214  71.261  1.00  0.00    -0.139 C  
HETATM    3  H1  UNL     1      -7.046   5.860  71.894  1.00  0.00     0.000 HD 
HETATM    4  H2  UNL     1      -7.883   4.474  71.425  1.00  0.00     0.000 HD 
ENDROOT
BRANCH   2   5
HETATM    5  C   UNL     1     -10.334   5.503  71.238  1.00  0.00    -0.297 C  
BRANCH   5   6
HETATM    6  C   UNL     1     -11.508   6.358  70.744  1.00  0.00    -0.415 C  
BRANCH   6   7
HETATM    7  C   UNL     1     -12.182   7.150  71.866  1.00  0.00    -0.358 C  
BRANCH   7   8
HETATM    8  C   UNL     1     -12.105   8.654  71.622  1.00  0.00    -0.385 C  
HETATM    9  C   UNL     1     -13.249   9.382  72.290  1.00  0.00    -0.446 C  
HETATM   10  O   UNL     1     -14.111   8.868  72.983  1.00  0.00    -0.396 OA 
HETATM   11  O   UNL     1     -13.225  10.713  72.043  1.00  0.00    -0.473 OA 
ENDBRANCH   7   8
ENDBRANCH   6   7
ENDBRANCH   5   6
ENDBRANCH   2   5
TORSDOF 4
ENDMDL
MODEL      142
REMARK 921   NORMALIZED FREE ENERGY PREDICTED BY IDOCK:   -2.43 KCAL/MOL
REMARK 922        TOTAL FREE ENERGY PREDICTED BY IDOCK:   -3.08 KCAL/MOL
REMARK 923 INTER-LIGAND FREE ENERGY PREDICTED BY IDOCK:   -3.02 KCAL/MOL
REMARK 924 INTRA-LIGAND FREE ENERGY PREDICTED BY IDOCK:   -0.07 KCAL/MOL
REMARK 927      BINDING AFFINITY PREDICTED BY RF-SCORE:    0.00 PKD
ROOT
HETATM    1  N   UNL     1     -13.349  15.707  70.545  1.00  0.00    -0.788 NA 
HETATM    2  C   UNL     1     -13.272  14.344  71.060  1.00  0.00    -0.333 C  
HETATM    3  H1  UNL     1     -14.072  16.248  71.020  1.00  0.00     0.000 HD 
HETATM    4  H2  UNL     1     -13.482  15.716  69.533  1.00  0.00     0.000 HD 
ENDROOT
BRANCH   2   5
HETATM    5  C   UNL     1     -12.188  13.534  70.347  1.00  0.00    -0.426 C  
BRANCH   5   6
HETATM    6  C   UNL     1     -12.153  13.696  68.821  1.00  0.00    -0.332 C  
BRANCH   6   7
HETATM    7  C   UNL     1     -11.236  12.682  68.135  1.00  0.00    -0.311 C  
BRANCH   7   8
HETATM    8  C   UNL     1      -9.763  13.033  68.324  1.00  0.00    -0.221 C  
HETATM    9  C   UNL     1      -8.966  12.776  67.065  1.00  0.00    -0.221 C  
HETATM   10  O   UNL     1      -9.422  12.387  66.003  1.00  0.00    -0.232 OA 
HETATM   11  O   UNL     1      -7.648  13.036  67.230  1.00  0.00    -0.152 OA 
ENDBRANCH   7   8
ENDBRANCH   6   7
ENDBRANCH   5   6
ENDBRANCH   2   5
TORSDOF 4
ENDMDL
MODEL      143
REMARK 921   NORMALIZED FREE ENERGY PREDICTED BY IDOCK:   -2.42 KCAL/MOL
REMARK 922        TOTAL FREE ENERGY PREDICTED BY IDOCK:   -3.07 KCAL/MOL
REMARK 923 INTER-LIGAND FREE ENERGY PREDICTED BY IDOCK:   -2.99 KCAL/MOL
REMARK 924 INTRA-LIGAND FREE ENERGY PREDICTED BY IDOCK:   -0.09 KCAL/MOL
REMARK 927      BINDING AFFINITY PREDICTED BY RF-SCORE:    0.00 PKD
ROOT
HETATM    1  N   UNL     1      -6.761  18.574  65.200  1.00  0.00    -0.510 NA 
HETATM    2  C   UNL     1      -7.510  18.407  66.442  1.00  0.00    -0.247 C  
HETATM    3  H1  UNL     1      -6.179  19.411  65.224  1.00  0.00     0.000 HD 
HETATM    4  H2  UNL     1      -7.380  18.573  64.389  1.00  0.00     0.000 HD 
ENDROOT
BRANCH   2   5
HETATM    5  C   UNL     1      -8.384  17.151  66.407  1.00  0.00    -0.315 C  
BRANCH   5   6
HETATM    6  C   UNL     1      -9.866  17.382  66.731  1.00  0.00    -0.297 C  
BRANCH   6   7
HETATM    7  C   UNL     1     -10.656  16.079  66.867  1.00  0.00    -0.300 C  
BRANCH   7   8
HETATM    8  C   UNL     1     -10.798  15.361  65.527  1.00  0.00    -0.384 C  
HETATM    9  C   UNL     1     -10.630  13.867  65.679  1.00  0.00    -0.301 C  
HETATM   10  O   UNL     1     -10.453  13.275  66.731  1.00  0.00    -0.266 OA 
HETATM   11  O   UNL     1     -10.704  13.219  64.493  1.00  0.00    -0.368 OA 
ENDBRANCH   7   8
ENDBRANCH   6   7
ENDBRANCH   5   6
ENDBRANCH   2   5
TORSDOF 4
ENDMDL
MODEL      144
REMARK 921   NORMALIZED FREE ENERGY PREDICTED BY IDOCK:   -2.41 KCAL/MOL
REMARK 922        TOTAL FREE ENERGY PREDICTED BY IDOCK:   -3.06 KCAL/MOL
REMARK 923 INTER-LIGAND FREE ENERGY PREDICTED BY IDOCK:   -2.86 KCAL/MOL
REMARK 924 INTRA-LIGAND FREE ENERGY PREDICTED BY IDOCK:   -0.20 KCAL/MOL
REMARK 927      BINDING AFFINITY PREDICTED BY RF-SCORE:    0.00 PKD
ROOT
HETATM    1  N   UNL     1     -11.533  14.505  66.180  1.00  0.00    -0.353 NA 
HETATM    2  C   UNL     1     -10.692  14.157  67.321  1.00  0.00    -0.279 C  
HETATM    3  H1  UNL     1     -12.468  14.787  66.475  1.00  0.00     0.000 HD 
HETATM    4  H2  UNL     1     -11.570  13.746  65.499  1.00  0.00     0.000 HD 
ENDROOT
BRANCH   2   5
HETATM    5  C   UNL     1      -9.290  13.735  66.878  1.00  0.00    -0.267 C  
BRANCH   5   6
HETATM    6  C   UNL     1      -8.196  14.791  67.087  1.00  0.00    -0.239 C  
BRANCH   6   7
HETATM    7  C   UNL     1      -8.737  16.104  67.657  1.00  0.00    -0.184 C  
BRANCH   7   8
HETATM    8  C   UNL     1      -8.968  17.143  66.563  1.00  0.00    -0.300 C  
HETATM    9  C   UNL     1     -10.258  17.900  66.782  1.00  0.00    -0.360 C  
HETATM   10  O   UNL     1     -11.014  17.757  67.727  1.00  0.00    -0.308 OA 
HETATM   11  O   UNL     1     -10.503  18.792  65.794  1.00  0.00    -0.571 OA 
ENDBRANCH   7   8
ENDBRANCH   6   7
ENDBRANCH   5   6
ENDBRANCH   2   5
TORSDOF 4
ENDMDL
MODEL      145
REMARK 921   NORMALIZED FREE ENERGY PREDICTED BY IDOCK:   -2.41 KCAL/MOL
REMARK 922        TOTAL FREE ENERGY PREDICTED BY IDOCK:   -3.06 KCAL/MOL
REMARK 923 INTER-LIGAND FREE ENERGY PREDICTED BY IDOCK:   -2.92 KCAL/MOL
REMARK 924 INTRA-LIGAND FREE ENERGY PREDICTED BY IDOCK:   -0.13 KCAL/MOL
REMARK 927      BINDING AFFINITY PREDICTED BY RF-SCORE:    0.00 PKD
ROOT
HETATM    1  N   UNL     1     -11.932   7.629  70.420  1.00  0.00    -0.491 NA 
HETATM    2  C   UNL     1     -11.032   6.639  69.839  1.00  0.00    -0.319 C  
HETATM    3  H1  UNL     1     -11.931   7.585  71.439  1.00  0.00     0.000 HD 
HETATM    4  H2  UNL     1     -12.876   7.542  70.044  1.00  0.00     0.000 HD 
ENDROOT
BRANCH   2   5
HETATM    5  C   UNL     1     -11.034   6.707  68.310  1.00  0.00    -0.321 C  
BRANCH   5   6
HETATM    6  C   UNL     1      -9.994   7.658  67.701  1.00  0.00    -0.225 C  
BRANCH   6   7
HETATM    7  C   UNL     1     -10.617   8.930  67.123  1.00  0.00    -0.301 C  
BRANCH   7   8
HETATM    8  C   UNL     1      -9.993  10.187  67.724  1.00  0.00    -0.198 C  
HETATM    9  C   UNL     1     -11.051  11.176  68.158  1.00  0.00    -0.264 C  
HETATM   10  O   UNL     1     -12.256  11.000  68.097  1.00  0.00    -0.578 OA 
HETATM   11  O   UNL     1     -10.515  12.318  68.648  1.00  0.00    -0.227 OA 
ENDBRANCH   7   8
ENDBRANCH   6   7
ENDBRANCH   5   6
ENDBRANCH   2   5
TORSDOF 4
ENDMDL
MODEL      146
REMARK 921   NORMALIZED FREE ENERGY PREDICTED BY IDOCK:   -2.39 KCAL/MOL
REMARK 922        TOTAL FREE ENERGY PREDICTED BY IDOCK:   -3.04 KCAL/MOL
REMARK 923 INTER-LIGAND FREE ENERGY PREDICTED BY IDOCK:   -2.71 KCAL/MOL
REMARK 924 INTRA-LIGAND FREE ENERGY PREDICTED BY IDOCK:   -0.33 KCAL/MOL
REMARK 927      BINDING AFFINITY PREDICTED BY RF-SCORE:    0.00 PKD
ROOT
HETATM    1  N   UNL     1      -9.660   4.998  72.357  1.00  0.00    -0.143 NA 
HETATM    2  C   UNL     1     -10.188   4.975  70.997  1.00  0.00    -0.213 C  
HETATM    3  H1  UNL     1      -9.165   4.135  72.582  1.00  0.00     0.000 HD 
HETATM    4  H2  UNL     1     -10.393   5.196  73.038  1.00  0.00     0.000 HD 
ENDROOT
BRANCH   2   5
HETATM    5  C   UNL     1     -10.931   6.270  70.660  1.00  0.00    -0.370 C  
BRANCH   5   6
HETATM    6  C   UNL     1     -11.933   6.740  71.723  1.00  0.00    -0.382 C  
BRANCH   6   7
HETATM    7  C   UNL     1     -11.458   7.980  72.482  1.00  0.00    -0.471 C  
BRANCH   7   8
HETATM    8  C   UNL     1     -10.366   8.726  71.720  1.00  0.00    -0.413 C  
HETATM    9  C   UNL     1      -9.009   8.515  72.351  1.00  0.00    -0.214 C  
HETATM   10  O   UNL     1      -8.776   7.806  73.315  1.00  0.00    -0.161 OA 
HETATM   11  O   UNL     1      -8.035   9.209  71.718  1.00  0.00    -0.340 OA 
ENDBRANCH   7   8
ENDBRANCH   6   7
ENDBRANCH   5   6
ENDBRANCH   2   5
TORSDOF 4
ENDMDL
MODEL      147
REMARK 921   NORMALIZED FREE ENERGY PREDICTED BY IDOCK:   -2.39 KCAL/MOL
REMARK 922        TOTAL FREE ENERGY PREDICTED BY IDOCK:   -3.04 KCAL/MOL
REMARK 923 INTER-LIGAND FREE ENERGY PREDICTED BY IDOCK:   -2.70 KCAL/MOL
REMARK 924 INTRA-LIGAND FREE ENERGY PREDICTED BY IDOCK:   -0.34 KCAL/MOL
REMARK 927      BINDING AFFINITY PREDICTED BY RF-SCORE:    0.00 PKD
ROOT
HETATM    1  N   UNL     1      -9.352  13.463  67.511  1.00  0.00    -0.209 NA 
HETATM    2  C   UNL     1     -10.592  13.338  66.752  1.00  0.00    -0.276 C  
HETATM    3  H1  UNL     1      -8.534  13.424  66.903  1.00  0.00     0.000 HD 
HETATM    4  H2  UNL     1      -9.298  12.767  68.254  1.00  0.00     0.000 HD 
ENDROOT
BRANCH   2   5
HETATM    5  C   UNL     1     -11.819  13.397  67.665  1.00  0.00    -0.394 C  
BRANCH   5   6
HETATM    6  C   UNL     1     -11.516  13.685  69.142  1.00  0.00    -0.346 C  
BRANCH   6   7
HETATM    7  C   UNL     1     -11.913  15.101  69.567  1.00  0.00    -0.351 C  
BRANCH   7   8
HETATM    8  C   UNL     1     -10.692  15.998  69.751  1.00  0.00    -0.331 C  
HETATM    9  C   UNL     1     -10.410  16.811  68.508  1.00  0.00    -0.316 C  
HETATM   10  O   UNL     1     -11.082  16.810  67.490  1.00  0.00    -0.196 OA 
HETATM   11  O   UNL     1      -9.301  17.577  68.635  1.00  0.00    -0.280 OA 
ENDBRANCH   7   8
ENDBRANCH   6   7
ENDBRANCH   5   6
ENDBRANCH   2   5
TORSDOF 4
ENDMDL
MODEL      148
REMARK 921   NORMALIZED FREE ENERGY PREDICTED BY IDOCK:   -2.39 KCAL/MOL
REMARK 922        TOTAL FREE ENERGY PREDICTED BY IDOCK:   -3.03 KCAL/MOL
REMARK 923 INTER-LIGAND FREE ENERGY PREDICTED BY IDOCK:   -2.90 KCAL/MOL
REMARK 924 INTRA-LIGAND FREE ENERGY PREDICTED BY IDOCK:   -0.13 KCAL/MOL
REMARK 927      BINDING AFFINITY PREDICTED BY RF-SCORE:    0.00 PKD
ROOT
HETATM    1  N   UNL     1      -9.739  14.137  69.095  1.00  0.00    -0.422 NA 
HETATM    2  C   UNL     1     -10.974  14.905  68.975  1.00  0.00    -0.245 C  
HETATM    3  H1  UNL     1      -9.067  14.600  69.706  1.00  0.00     0.000 HD 
HETATM    4  H2  UNL     1      -9.335  13.935  68.181  1.00  0.00     0.000 HD 
ENDROOT
BRANCH   2   5
HETATM    5  C   UNL     1     -11.983  14.209  68.059  1.00  0.00    -0.372 C  
BRANCH   5   6
HETATM    6  C   UNL     1     -11.402  13.671  66.744  1.00  0.00    -0.346 C  
BRANCH   6   7
HETATM    7  C   UNL     1     -11.689  12.184  66.531  1.00  0.00    -0.392 C  
BRANCH   7   8
HETATM    8  C   UNL     1     -10.413  11.398  66.242  1.00  0.00    -0.301 C  
HETATM    9  C   UNL     1     -10.182  11.244  64.756  1.00  0.00    -0.292 C  
HETATM   10  O   UNL     1     -10.880  11.717  63.876  1.00  0.00    -0.334 OA 
HETATM   11  O   UNL     1      -9.080  10.507  64.481  1.00  0.00    -0.194 OA 
ENDBRANCH   7   8
ENDBRANCH   6   7
ENDBRANCH   5   6
ENDBRANCH   2   5
TORSDOF 4
ENDMDL
MODEL      149
REMARK 921   NORMALIZED FREE ENERGY PREDICTED BY IDOCK:   -2.36 KCAL/MOL
REMARK 922        TOTAL FREE ENERGY PREDICTED BY IDOCK:   -3.00 KCAL/MOL
REMARK 923 INTER-LIGAND FREE ENERGY PREDICTED BY IDOCK:   -2.88 KCAL/MOL
REMARK 924 INTRA-LIGAND FREE ENERGY PREDICTED BY IDOCK:   -0.12 KCAL/MOL
REMARK 927      BINDING AFFINITY PREDICTED BY RF-SCORE:    0.00 PKD
ROOT
HETATM    1  N   UNL     1      -6.692  12.657  66.870  1.00  0.00    -0.440 NA 
HETATM    2  C   UNL     1      -7.982  11.989  67.006  1.00  0.00    -0.150 C  
HETATM    3  H1  UNL     1      -5.932  11.987  66.755  1.00  0.00     0.000 HD 
HETATM    4  H2  UNL     1      -6.516  13.289  67.652  1.00  0.00     0.000 HD 
ENDROOT
BRANCH   2   5
HETATM    5  C   UNL     1      -9.121  12.996  67.178  1.00  0.00    -0.225 C  
BRANCH   5   6
HETATM    6  C   UNL     1     -10.378  12.705  66.346  1.00  0.00    -0.264 C  
BRANCH   6   7
HETATM    7  C   UNL     1     -11.661  12.726  67.177  1.00  0.00    -0.443 C  
BRANCH   7   8
HETATM    8  C   UNL     1     -11.990  14.132  67.674  1.00  0.00    -0.405 C  
HETATM    9  C   UNL     1     -11.962  14.205  69.184  1.00  0.00    -0.349 C  
HETATM   10  O   UNL     1     -11.669  13.290  69.935  1.00  0.00    -0.297 OA 
HETATM   11  O   UNL     1     -12.299  15.432  69.644  1.00  0.00    -0.304 OA 
ENDBRANCH   7   8
ENDBRANCH   6   7
ENDBRANCH   5   6
ENDBRANCH   2   5
TORSDOF 4
ENDMDL
MODEL      150
REMARK 921   NORMALIZED FREE ENERGY PREDICTED BY IDOCK:   -2.36 KCAL/MOL
REMARK 922        TOTAL FREE ENERGY PREDICTED BY IDOCK:   -3.00 KCAL/MOL
REMARK 923 INTER-LIGAND FREE ENERGY PREDICTED BY IDOCK:   -2.87 KCAL/MOL
REMARK 924 INTRA-LIGAND FREE ENERGY PREDICTED BY IDOCK:   -0.13 KCAL/MOL
REMARK 927      BINDING AFFINITY PREDICTED BY RF-SCORE:    0.00 PKD
ROOT
HETATM    1  N   UNL     1      -9.026  14.519  69.331  1.00  0.00    -0.388 NA 
HETATM    2  C   UNL     1     -10.143  14.640  68.400  1.00  0.00    -0.237 C  
HETATM    3  H1  UNL     1      -8.186  14.173  68.867  1.00  0.00     0.000 HD 
HETATM    4  H2  UNL     1      -9.273  13.943  70.136  1.00  0.00     0.000 HD 
ENDROOT
BRANCH   2   5
HETATM    5  C   UNL     1     -11.403  15.160  69.096  1.00  0.00    -0.311 C  
BRANCH   5   6
HETATM    6  C   UNL     1     -11.678  14.553  70.478  1.00  0.00    -0.338 C  
BRANCH   6   7
HETATM    7  C   UNL     1     -12.908  13.643  70.495  1.00  0.00    -0.167 C  
BRANCH   7   8
HETATM    8  C   UNL     1     -12.715  12.448  71.425  1.00  0.00    -0.346 C  
HETATM    9  C   UNL     1     -12.226  11.233  70.669  1.00  0.00    -0.393 C  
HETATM   10  O   UNL     1     -11.963  11.194  69.479  1.00  0.00    -0.311 OA 
HETATM   11  O   UNL     1     -12.096  10.149  71.469  1.00  0.00    -0.377 OA 
ENDBRANCH   7   8
ENDBRANCH   6   7
ENDBRANCH   5   6
ENDBRANCH   2   5
TORSDOF 4
ENDMDL
MODEL      151
REMARK 921   NORMALIZED FREE ENERGY PREDICTED BY IDOCK:   -2.35 KCAL/MOL
REMARK 922        TOTAL FREE ENERGY PREDICTED BY IDOCK:   -2.98 KCAL/MOL
REMARK 923 INTER-LIGAND FREE ENERGY PREDICTED BY IDOCK:   -2.88 KCAL/MOL
REMARK 924 INTRA-LIGAND FREE ENERGY PREDICTED BY IDOCK:   -0.11 KCAL/MOL
REMARK 927      BINDING AFFINITY PREDICTED BY RF-SCORE:    0.00 PKD
ROOT
HETATM    1  N   UNL     1     -10.786  11.060  62.982  1.00  0.00    -0.787 NA 
HETATM    2  C   UNL     1     -11.099  12.429  63.376  1.00  0.00    -0.402 C  
HETATM    3  H1  UNL     1     -10.715  10.967  61.969  1.00  0.00     0.000 HD 
HETATM    4  H2  UNL     1     -11.458  10.397  63.371  1.00  0.00     0.000 HD 
ENDROOT
BRANCH   2   5
HETATM    5  C   UNL     1     -11.205  12.567  64.896  1.00  0.00    -0.344 C  
BRANCH   5   6
HETATM    6  C   UNL     1     -10.150  11.790  65.695  1.00  0.00    -0.278 C  
BRANCH   6   7
HETATM    7  C   UNL     1     -10.755  10.941  66.814  1.00  0.00    -0.309 C  
BRANCH   7   8
HETATM    8  C   UNL     1      -9.935   9.679  67.073  1.00  0.00    -0.263 C  
HETATM    9  C   UNL     1      -9.481   9.602  68.513  1.00  0.00    -0.141 C  
HETATM   10  O   UNL     1      -9.758  10.402  69.390  1.00  0.00    -0.217 OA 
HETATM   11  O   UNL     1      -8.711   8.514  68.749  1.00  0.00    -0.136 OA 
ENDBRANCH   7   8
ENDBRANCH   6   7
ENDBRANCH   5   6
ENDBRANCH   2   5
TORSDOF 4
ENDMDL
MODEL      152
REMARK 921   NORMALIZED FREE ENERGY PREDICTED BY IDOCK:   -2.34 KCAL/MOL
REMARK 922        TOTAL FREE ENERGY PREDICTED BY IDOCK:   -2.98 KCAL/MOL
REMARK 923 INTER-LIGAND FREE ENERGY PREDICTED BY IDOCK:   -2.61 KCAL/MOL
REMARK 924 INTRA-LIGAND FREE ENERGY PREDICTED BY IDOCK:   -0.37 KCAL/MOL
REMARK 927      BINDING AFFINITY PREDICTED BY RF-SCORE:    0.00 PKD
ROOT
HETATM    1  N   UNL     1     -11.079   6.163  72.188  1.00  0.00    -0.260 NA 
HETATM    2  C   UNL     1     -12.163   7.022  71.725  1.00  0.00    -0.351 C  
HETATM    3  H1  UNL     1     -11.046   5.286  71.668  1.00  0.00     0.000 HD 
HETATM    4  H2  UNL     1     -11.137   5.998  73.193  1.00  0.00     0.000 HD 
ENDROOT
BRANCH   2   5
HETATM    5  C   UNL     1     -12.211   8.338  72.505  1.00  0.00    -0.367 C  
BRANCH   5   6
HETATM    6  C   UNL     1     -11.861   9.590  71.689  1.00  0.00    -0.468 C  
BRANCH   6   7
HETATM    7  C   UNL     1     -11.265   9.262  70.320  1.00  0.00    -0.267 C  
BRANCH   7   8
HETATM    8  C   UNL     1      -9.981  10.046  70.060  1.00  0.00    -0.273 C  
HETATM    9  C   UNL     1      -8.780   9.359  70.669  1.00  0.00    -0.211 C  
HETATM   10  O   UNL     1      -8.795   8.290  71.256  1.00  0.00    -0.134 OA 
HETATM   11  O   UNL     1      -7.639  10.065  70.491  1.00  0.00    -0.276 OA 
ENDBRANCH   7   8
ENDBRANCH   6   7
ENDBRANCH   5   6
ENDBRANCH   2   5
TORSDOF 4
ENDMDL
MODEL      153
REMARK 921   NORMALIZED FREE ENERGY PREDICTED BY IDOCK:   -2.33 KCAL/MOL
REMARK 922        TOTAL FREE ENERGY PREDICTED BY IDOCK:   -2.96 KCAL/MOL
REMARK 923 INTER-LIGAND FREE ENERGY PREDICTED BY IDOCK:   -2.77 KCAL/MOL
REMARK 924 INTRA-LIGAND FREE ENERGY PREDICTED BY IDOCK:   -0.19 KCAL/MOL
REMARK 927      BINDING AFFINITY PREDICTED BY RF-SCORE:    0.00 PKD
ROOT
HETATM    1  N   UNL     1     -12.712  15.293  69.943  1.00  0.00    -0.625 NA 
HETATM    2  C   UNL     1     -12.145  14.077  69.369  1.00  0.00    -0.340 C  
HETATM    3  H1  UNL     1     -12.943  15.170  70.929  1.00  0.00     0.000 HD 
HETATM    4  H2  UNL     1     -13.519  15.616  69.409  1.00  0.00     0.000 HD 
ENDROOT
BRANCH   2   5
HETATM    5  C   UNL     1     -11.799  14.261  67.890  1.00  0.00    -0.393 C  
BRANCH   5   6
HETATM    6  C   UNL     1     -12.016  13.021  67.012  1.00  0.00    -0.409 C  
BRANCH   6   7
HETATM    7  C   UNL     1     -10.736  12.550  66.320  1.00  0.00    -0.288 C  
BRANCH   7   8
HETATM    8  C   UNL     1     -10.286  11.185  66.834  1.00  0.00    -0.260 C  
HETATM    9  C   UNL     1      -9.238  11.320  67.916  1.00  0.00    -0.157 C  
HETATM   10  O   UNL     1      -8.822  12.370  68.375  1.00  0.00    -0.182 OA 
HETATM   11  O   UNL     1      -8.790  10.118  68.350  1.00  0.00    -0.118 OA 
ENDBRANCH   7   8
ENDBRANCH   6   7
ENDBRANCH   5   6
ENDBRANCH   2   5
TORSDOF 4
ENDMDL
MODEL      154
REMARK 921   NORMALIZED FREE ENERGY PREDICTED BY IDOCK:   -2.33 KCAL/MOL
REMARK 922        TOTAL FREE ENERGY PREDICTED BY IDOCK:   -2.96 KCAL/MOL
REMARK 923 INTER-LIGAND FREE ENERGY PREDICTED BY IDOCK:   -2.75 KCAL/MOL
REMARK 924 INTRA-LIGAND FREE ENERGY PREDICTED BY IDOCK:   -0.21 KCAL/MOL
REMARK 927      BINDING AFFINITY PREDICTED BY RF-SCORE:    0.00 PKD
ROOT
HETATM    1  N   UNL     1     -12.816   6.641  72.219  1.00  0.00    -0.546 NA 
HETATM    2  C   UNL     1     -11.538   7.321  72.038  1.00  0.00    -0.274 C  
HETATM    3  H1  UNL     1     -12.686   5.664  72.482  1.00  0.00     0.000 HD 
HETATM    4  H2  UNL     1     -13.406   6.730  71.392  1.00  0.00     0.000 HD 
ENDROOT
BRANCH   2   5
HETATM    5  C   UNL     1     -11.733   8.787  71.644  1.00  0.00    -0.402 C  
BRANCH   5   6
HETATM    6  C   UNL     1     -10.496   9.468  71.043  1.00  0.00    -0.377 C  
BRANCH   6   7
HETATM    7  C   UNL     1      -9.681   8.537  70.144  1.00  0.00    -0.175 C  
BRANCH   7   8
HETATM    8  C   UNL     1     -10.225   8.510  68.718  1.00  0.00    -0.217 C  
HETATM    9  C   UNL     1     -10.542   7.100  68.273  1.00  0.00    -0.188 C  
HETATM   10  O   UNL     1     -10.435   6.098  68.959  1.00  0.00    -0.197 OA 
HETATM   11  O   UNL     1     -10.980   7.052  66.993  1.00  0.00    -0.375 OA 
ENDBRANCH   7   8
ENDBRANCH   6   7
ENDBRANCH   5   6
ENDBRANCH   2   5
TORSDOF 4
ENDMDL
MODEL      155
REMARK 921   NORMALIZED FREE ENERGY PREDICTED BY IDOCK:   -2.32 KCAL/MOL
REMARK 922        TOTAL FREE ENERGY PREDICTED BY IDOCK:   -2.95 KCAL/MOL
REMARK 923 INTER-LIGAND FREE ENERGY PREDICTED BY IDOCK:   -2.82 KCAL/MOL
REMARK 924 INTRA-LIGAND FREE ENERGY PREDICTED BY IDOCK:   -0.13 KCAL/MOL
REMARK 927      BINDING AFFINITY PREDICTED BY RF-SCORE:    0.00 PKD
ROOT
HETATM    1  N   UNL     1      -9.353   7.434  66.934  1.00  0.00    -0.149 NA 
HETATM    2  C   UNL     1     -10.728   7.578  67.399  1.00  0.00    -0.261 C  
HETATM    3  H1  UNL     1      -9.080   8.207  66.327  1.00  0.00     0.000 HD 
HETATM    4  H2  UNL     1      -9.206   6.533  66.479  1.00  0.00     0.000 HD 
ENDROOT
BRANCH   2   5
HETATM    5  C   UNL     1     -11.137   6.419  68.311  1.00  0.00    -0.359 C  
BRANCH   5   6
HETATM    6  C   UNL     1     -10.262   6.232  69.557  1.00  0.00    -0.239 C  
BRANCH   6   7
HETATM    7  C   UNL     1     -11.078   6.074  70.841  1.00  0.00    -0.352 C  
BRANCH   7   8
HETATM    8  C   UNL     1     -12.267   7.031  70.876  1.00  0.00    -0.388 C  
HETATM    9  C   UNL     1     -12.120   8.055  71.978  1.00  0.00    -0.331 C  
HETATM   10  O   UNL     1     -11.164   8.160  72.728  1.00  0.00    -0.389 OA 
HETATM   11  O   UNL     1     -13.189   8.882  72.056  1.00  0.00    -0.351 OA 
ENDBRANCH   7   8
ENDBRANCH   6   7
ENDBRANCH   5   6
ENDBRANCH   2   5
TORSDOF 4
ENDMDL
MODEL      156
REMARK 921   NORMALIZED FREE ENERGY PREDICTED BY IDOCK:   -2.31 KCAL/MOL
REMARK 922        TOTAL FREE ENERGY PREDICTED BY IDOCK:   -2.94 KCAL/MOL
REMARK 923 INTER-LIGAND FREE ENERGY PREDICTED BY IDOCK:   -2.83 KCAL/MOL
REMARK 924 INTRA-LIGAND FREE ENERGY PREDICTED BY IDOCK:   -0.11 KCAL/MOL
REMARK 927      BINDING AFFINITY PREDICTED BY RF-SCORE:    0.00 PKD
ROOT
HETATM    1  N   UNL     1      -9.598  16.732  67.260  1.00  0.00    -0.231 NA 
HETATM    2  C   UNL     1     -10.893  16.932  67.901  1.00  0.00    -0.310 C  
HETATM    3  H1  UNL     1      -9.573  17.147  66.328  1.00  0.00     0.000 HD 
HETATM    4  H2  UNL     1      -9.342  15.745  67.236  1.00  0.00     0.000 HD 
ENDROOT
BRANCH   2   5
HETATM    5  C   UNL     1     -10.930  16.311  69.299  1.00  0.00    -0.317 C  
BRANCH   5   6
HETATM    6  C   UNL     1     -10.695  14.794  69.343  1.00  0.00    -0.250 C  
BRANCH   6   7
HETATM    7  C   UNL     1     -11.870  13.993  68.778  1.00  0.00    -0.396 C  
BRANCH   7   8
HETATM    8  C   UNL     1     -11.496  12.532  68.541  1.00  0.00    -0.346 C  
HETATM    9  C   UNL     1     -11.842  11.672  69.736  1.00  0.00    -0.357 C  
HETATM   10  O   UNL     1     -12.394  12.057  70.752  1.00  0.00    -0.375 OA 
HETATM   11  O   UNL     1     -11.472  10.382  69.563  1.00  0.00    -0.246 OA 
ENDBRANCH   7   8
ENDBRANCH   6   7
ENDBRANCH   5   6
ENDBRANCH   2   5
TORSDOF 4
ENDMDL
MODEL      157
REMARK 921   NORMALIZED FREE ENERGY PREDICTED BY IDOCK:   -2.31 KCAL/MOL
REMARK 922        TOTAL FREE ENERGY PREDICTED BY IDOCK:   -2.93 KCAL/MOL
REMARK 923 INTER-LIGAND FREE ENERGY PREDICTED BY IDOCK:   -2.77 KCAL/MOL
REMARK 924 INTRA-LIGAND FREE ENERGY PREDICTED BY IDOCK:   -0.16 KCAL/MOL
REMARK 927      BINDING AFFINITY PREDICTED BY RF-SCORE:    0.00 PKD
ROOT
HETATM    1  N   UNL     1     -10.953   7.865  67.157  1.00  0.00    -0.475 NA 
HETATM    2  C   UNL     1     -10.215   9.000  66.614  1.00  0.00    -0.263 C  
HETATM    3  H1  UNL     1     -11.344   7.282  66.417  1.00  0.00     0.000 HD 
HETATM    4  H2  UNL     1     -11.673   8.168  67.813  1.00  0.00     0.000 HD 
ENDROOT
BRANCH   2   5
HETATM    5  C   UNL     1      -9.628   9.873  67.724  1.00  0.00    -0.163 C  
BRANCH   5   6
HETATM    6  C   UNL     1      -9.963  11.368  67.622  1.00  0.00    -0.196 C  
BRANCH   6   7
HETATM    7  C   UNL     1     -11.465  11.647  67.690  1.00  0.00    -0.373 C  
BRANCH   7   8
HETATM    8  C   UNL     1     -12.005  11.491  69.109  1.00  0.00    -0.386 C  
HETATM    9  C   UNL     1     -12.008  12.811  69.848  1.00  0.00    -0.298 C  
HETATM   10  O   UNL     1     -11.676  13.887  69.381  1.00  0.00    -0.273 OA 
HETATM   11  O   UNL     1     -12.438  12.683  71.125  1.00  0.00    -0.348 OA 
ENDBRANCH   7   8
ENDBRANCH   6   7
ENDBRANCH   5   6
ENDBRANCH   2   5
TORSDOF 4
ENDMDL
MODEL      158
REMARK 921   NORMALIZED FREE ENERGY PREDICTED BY IDOCK:   -2.29 KCAL/MOL
REMARK 922        TOTAL FREE ENERGY PREDICTED BY IDOCK:   -2.91 KCAL/MOL
REMARK 923 INTER-LIGAND FREE ENERGY PREDICTED BY IDOCK:   -2.80 KCAL/MOL
REMARK 924 INTRA-LIGAND FREE ENERGY PREDICTED BY IDOCK:   -0.12 KCAL/MOL
REMARK 927      BINDING AFFINITY PREDICTED BY RF-SCORE:    0.00 PKD
ROOT
HETATM    1  N   UNL     1     -11.737   5.871  72.907  1.00  0.00    -0.520 NA 
HETATM    2  C   UNL     1     -10.609   5.187  72.282  1.00  0.00    -0.218 C  
HETATM    3  H1  UNL     1     -11.868   5.572  73.873  1.00  0.00     0.000 HD 
HETATM    4  H2  UNL     1     -12.591   5.755  72.362  1.00  0.00     0.000 HD 
ENDROOT
BRANCH   2   5
HETATM    5  C   UNL     1     -10.412   5.636  70.832  1.00  0.00    -0.323 C  
BRANCH   5   6
HETATM    6  C   UNL     1     -11.241   6.857  70.412  1.00  0.00    -0.359 C  
BRANCH   6   7
HETATM    7  C   UNL     1     -10.419   8.147  70.364  1.00  0.00    -0.217 C  
BRANCH   7   8
HETATM    8  C   UNL     1     -11.252   9.363  70.758  1.00  0.00    -0.367 C  
HETATM    9  C   UNL     1     -11.068  10.500  69.779  1.00  0.00    -0.295 C  
HETATM   10  O   UNL     1     -10.388  10.465  68.768  1.00  0.00    -0.176 OA 
HETATM   11  O   UNL     1     -11.762  11.605  70.140  1.00  0.00    -0.323 OA 
ENDBRANCH   7   8
ENDBRANCH   6   7
ENDBRANCH   5   6
ENDBRANCH   2   5
TORSDOF 4
ENDMDL
MODEL      159
REMARK 921   NORMALIZED FREE ENERGY PREDICTED BY IDOCK:   -2.29 KCAL/MOL
REMARK 922        TOTAL FREE ENERGY PREDICTED BY IDOCK:   -2.91 KCAL/MOL
REMARK 923 INTER-LIGAND FREE ENERGY PREDICTED BY IDOCK:   -2.80 KCAL/MOL
REMARK 924 INTRA-LIGAND FREE ENERGY PREDICTED BY IDOCK:   -0.11 KCAL/MOL
REMARK 927      BINDING AFFINITY PREDICTED BY RF-SCORE:    0.00 PKD
ROOT
HETATM    1  N   UNL     1     -12.610  15.171  69.649  1.00  0.00    -0.610 NA 
HETATM    2  C   UNL     1     -11.199  14.805  69.713  1.00  0.00    -0.273 C  
HETATM    3  H1  UNL     1     -12.864  15.819  70.394  1.00  0.00     0.000 HD 
HETATM    4  H2  UNL     1     -13.210  14.346  69.651  1.00  0.00     0.000 HD 
ENDROOT
BRANCH   2   5
HETATM    5  C   UNL     1     -10.818  13.833  68.594  1.00  0.00    -0.280 C  
BRANCH   5   6
HETATM    6  C   UNL     1      -9.938  14.430  67.487  1.00  0.00    -0.224 C  
BRANCH   6   7
HETATM    7  C   UNL     1      -9.345  15.789  67.866  1.00  0.00    -0.200 C  
BRANCH   7   8
HETATM    8  C   UNL     1      -9.412  16.778  66.704  1.00  0.00    -0.275 C  
HETATM    9  C   UNL     1      -8.469  17.941  66.913  1.00  0.00    -0.244 C  
HETATM   10  O   UNL     1      -7.704  18.076  67.853  1.00  0.00    -0.220 OA 
HETATM   11  O   UNL     1      -8.551  18.853  65.917  1.00  0.00    -0.471 OA 
ENDBRANCH   7   8
ENDBRANCH   6   7
ENDBRANCH   5   6
ENDBRANCH   2   5
TORSDOF 4
ENDMDL
MODEL      160
REMARK 921   NORMALIZED FREE ENERGY PREDICTED BY IDOCK:   -2.29 KCAL/MOL
REMARK 922        TOTAL FREE ENERGY PREDICTED BY IDOCK:   -2.91 KCAL/MOL
REMARK 923 INTER-LIGAND FREE ENERGY PREDICTED BY IDOCK:   -2.79 KCAL/MOL
REMARK 924 INTRA-LIGAND FREE ENERGY PREDICTED BY IDOCK:   -0.12 KCAL/MOL
REMARK 927      BINDING AFFINITY PREDICTED BY RF-SCORE:    0.00 PKD
ROOT
HETATM    1  N   UNL     1      -6.950  15.291  67.010  1.00  0.00    -0.290 NA 
HETATM    2  C   UNL     1      -7.961  14.364  67.507  1.00  0.00    -0.192 C  
HETATM    3  H1  UNL     1      -6.007  14.964  67.218  1.00  0.00     0.000 HD 
HETATM    4  H2  UNL     1      -7.104  16.235  67.365  1.00  0.00     0.000 HD 
ENDROOT
BRANCH   2   5
HETATM    5  C   UNL     1      -9.377  14.854  67.195  1.00  0.00    -0.227 C  
BRANCH   5   6
HETATM    6  C   UNL     1      -9.470  15.901  66.077  1.00  0.00    -0.389 C  
BRANCH   6   7
HETATM    7  C   UNL     1     -10.167  17.188  66.522  1.00  0.00    -0.322 C  
BRANCH   7   8
HETATM    8  C   UNL     1      -9.241  18.398  66.418  1.00  0.00    -0.280 C  
HETATM    9  C   UNL     1      -9.775  19.572  67.206  1.00  0.00    -0.343 C  
HETATM   10  O   UNL     1     -10.786  19.570  67.888  1.00  0.00    -0.416 OA 
HETATM   11  O   UNL     1      -8.992  20.669  67.085  1.00  0.00    -0.328 OA 
ENDBRANCH   7   8
ENDBRANCH   6   7
ENDBRANCH   5   6
ENDBRANCH   2   5
TORSDOF 4
ENDMDL
MODEL      161
REMARK 921   NORMALIZED FREE ENERGY PREDICTED BY IDOCK:   -2.27 KCAL/MOL
REMARK 922        TOTAL FREE ENERGY PREDICTED BY IDOCK:   -2.89 KCAL/MOL
REMARK 923 INTER-LIGAND FREE ENERGY PREDICTED BY IDOCK:   -2.84 KCAL/MOL
REMARK 924 INTRA-LIGAND FREE ENERGY PREDICTED BY IDOCK:   -0.05 KCAL/MOL
REMARK 927      BINDING AFFINITY PREDICTED BY RF-SCORE:    0.00 PKD
ROOT
HETATM    1  N   UNL     1      -9.170  11.460  68.973  1.00  0.00    -0.400 NA 
HETATM    2  C   UNL     1     -10.163  10.423  69.232  1.00  0.00    -0.230 C  
HETATM    3  H1  UNL     1      -8.772  11.823  69.839  1.00  0.00     0.000 HD 
HETATM    4  H2  UNL     1      -9.554  12.209  68.396  1.00  0.00     0.000 HD 
ENDROOT
BRANCH   2   5
HETATM    5  C   UNL     1     -10.760   9.878  67.933  1.00  0.00    -0.316 C  
BRANCH   5   6
HETATM    6  C   UNL     1     -10.732  10.851  66.746  1.00  0.00    -0.309 C  
BRANCH   6   7
HETATM    7  C   UNL     1     -11.742  11.991  66.887  1.00  0.00    -0.342 C  
BRANCH   7   8
HETATM    8  C   UNL     1     -11.403  13.164  65.971  1.00  0.00    -0.337 C  
HETATM    9  C   UNL     1     -11.125  14.421  66.762  1.00  0.00    -0.323 C  
HETATM   10  O   UNL     1     -11.117  14.508  67.978  1.00  0.00    -0.259 OA 
HETATM   11  O   UNL     1     -10.870  15.484  65.964  1.00  0.00    -0.322 OA 
ENDBRANCH   7   8
ENDBRANCH   6   7
ENDBRANCH   5   6
ENDBRANCH   2   5
TORSDOF 4
ENDMDL
MODEL      162
REMARK 921   NORMALIZED FREE ENERGY PREDICTED BY IDOCK:   -2.26 KCAL/MOL
REMARK 922        TOTAL FREE ENERGY PREDICTED BY IDOCK:   -2.88 KCAL/MOL
REMARK 923 INTER-LIGAND FREE ENERGY PREDICTED BY IDOCK:   -3.10 KCAL/MOL
REMARK 924 INTRA-LIGAND FREE ENERGY PREDICTED BY IDOCK:    0.22 KCAL/MOL
REMARK 927      BINDING AFFINITY PREDICTED BY RF-SCORE:    0.00 PKD
ROOT
HETATM    1  N   UNL     1     -12.796  12.804  64.224  1.00  0.00    -0.720 NA 
HETATM    2  C   UNL     1     -12.875  13.853  65.235  1.00  0.00    -0.398 C  
HETATM    3  H1  UNL     1     -13.320  13.052  63.385  1.00  0.00     0.000 HD 
HETATM    4  H2  UNL     1     -13.094  11.903  64.597  1.00  0.00     0.000 HD 
ENDROOT
BRANCH   2   5
HETATM    5  C   UNL     1     -12.088  13.481  66.494  1.00  0.00    -0.460 C  
BRANCH   5   6
HETATM    6  C   UNL     1     -11.770  11.987  66.644  1.00  0.00    -0.331 C  
BRANCH   6   7
HETATM    7  C   UNL     1     -10.427  11.729  67.330  1.00  0.00    -0.238 C  
BRANCH   7   8
HETATM    8  C   UNL     1      -9.895  10.331  67.025  1.00  0.00    -0.238 C  
HETATM    9  C   UNL     1      -9.688  10.130  65.541  1.00  0.00    -0.281 C  
HETATM   10  O   UNL     1      -9.866  10.973  64.678  1.00  0.00    -0.241 OA 
HETATM   11  O   UNL     1      -9.263   8.879  65.248  1.00  0.00    -0.189 OA 
ENDBRANCH   7   8
ENDBRANCH   6   7
ENDBRANCH   5   6
ENDBRANCH   2   5
TORSDOF 4
ENDMDL
MODEL      163
REMARK 921   NORMALIZED FREE ENERGY PREDICTED BY IDOCK:   -2.26 KCAL/MOL
REMARK 922        TOTAL FREE ENERGY PREDICTED BY IDOCK:   -2.88 KCAL/MOL
REMARK 923 INTER-LIGAND FREE ENERGY PREDICTED BY IDOCK:   -2.70 KCAL/MOL
REMARK 924 INTRA-LIGAND FREE ENERGY PREDICTED BY IDOCK:   -0.18 KCAL/MOL
REMARK 927      BINDING AFFINITY PREDICTED BY RF-SCORE:    0.00 PKD
ROOT
HETATM    1  N   UNL     1     -12.429  14.731  68.911  1.00  0.00    -0.569 NA 
HETATM    2  C   UNL     1     -11.872  13.536  68.288  1.00  0.00    -0.366 C  
HETATM    3  H1  UNL     1     -12.846  14.522  69.818  1.00  0.00     0.000 HD 
HETATM    4  H2  UNL     1     -13.094  15.197  68.294  1.00  0.00     0.000 HD 
ENDROOT
BRANCH   2   5
HETATM    5  C   UNL     1     -11.246  13.850  66.927  1.00  0.00    -0.324 C  
BRANCH   5   6
HETATM    6  C   UNL     1     -11.096  15.345  66.611  1.00  0.00    -0.236 C  
BRANCH   6   7
HETATM    7  C   UNL     1      -9.644  15.757  66.357  1.00  0.00    -0.311 C  
BRANCH   7   8
HETATM    8  C   UNL     1      -8.726  15.322  67.497  1.00  0.00    -0.189 C  
HETATM    9  C   UNL     1      -8.588  16.407  68.540  1.00  0.00    -0.223 C  
HETATM   10  O   UNL     1      -9.162  17.482  68.528  1.00  0.00    -0.268 OA 
HETATM   11  O   UNL     1      -7.738  16.058  69.534  1.00  0.00    -0.217 OA 
ENDBRANCH   7   8
ENDBRANCH   6   7
ENDBRANCH   5   6
ENDBRANCH   2   5
TORSDOF 4
ENDMDL
MODEL      164
REMARK 921   NORMALIZED FREE ENERGY PREDICTED BY IDOCK:   -2.23 KCAL/MOL
REMARK 922        TOTAL FREE ENERGY PREDICTED BY IDOCK:   -2.84 KCAL/MOL
REMARK 923 INTER-LIGAND FREE ENERGY PREDICTED BY IDOCK:   -2.73 KCAL/MOL
REMARK 924 INTRA-LIGAND FREE ENERGY PREDICTED BY IDOCK:   -0.11 KCAL/MOL
REMARK 927      BINDING AFFINITY PREDICTED BY RF-SCORE:    0.00 PKD
ROOT
HETATM    1  N   UNL     1     -13.657  15.714  70.718  1.00  0.00    -0.809 NA 
HETATM    2  C   UNL     1     -12.995  14.414  70.722  1.00  0.00    -0.326 C  
HETATM    3  H1  UNL     1     -14.629  15.641  71.017  1.00  0.00     0.000 HD 
HETATM    4  H2  UNL     1     -13.580  16.169  69.808  1.00  0.00     0.000 HD 
ENDROOT
BRANCH   2   5
HETATM    5  C   UNL     1     -11.536  14.525  70.274  1.00  0.00    -0.281 C  
BRANCH   5   6
HETATM    6  C   UNL     1     -11.184  15.813  69.519  1.00  0.00    -0.317 C  
BRANCH   6   7
HETATM    7  C   UNL     1     -10.673  15.552  68.101  1.00  0.00    -0.282 C  
BRANCH   7   8
HETATM    8  C   UNL     1      -9.256  14.982  68.106  1.00  0.00    -0.183 C  
HETATM    9  C   UNL     1      -8.270  15.948  67.489  1.00  0.00    -0.159 C  
HETATM   10  O   UNL     1      -8.532  17.065  67.076  1.00  0.00    -0.194 OA 
HETATM   11  O   UNL     1      -7.017  15.439  67.440  1.00  0.00    -0.182 OA 
ENDBRANCH   7   8
ENDBRANCH   6   7
ENDBRANCH   5   6
ENDBRANCH   2   5
TORSDOF 4
ENDMDL
MODEL      165
REMARK 921   NORMALIZED FREE ENERGY PREDICTED BY IDOCK:   -2.22 KCAL/MOL
REMARK 922        TOTAL FREE ENERGY PREDICTED BY IDOCK:   -2.83 KCAL/MOL
REMARK 923 INTER-LIGAND FREE ENERGY PREDICTED BY IDOCK:   -2.54 KCAL/MOL
REMARK 924 INTRA-LIGAND FREE ENERGY PREDICTED BY IDOCK:   -0.29 KCAL/MOL
REMARK 927      BINDING AFFINITY PREDICTED BY RF-SCORE:    0.00 PKD
ROOT
HETATM    1  N   UNL     1      -9.035  17.254  65.858  1.00  0.00    -0.531 NA 
HETATM    2  C   UNL     1     -10.256  17.815  66.427  1.00  0.00    -0.365 C  
HETATM    3  H1  UNL     1      -8.787  17.708  64.979  1.00  0.00     0.000 HD 
HETATM    4  H2  UNL     1      -9.106  16.242  65.748  1.00  0.00     0.000 HD 
ENDROOT
BRANCH   2   5
HETATM    5  C   UNL     1     -10.627  17.134  67.746  1.00  0.00    -0.360 C  
BRANCH   5   6
HETATM    6  C   UNL     1     -10.950  15.637  67.636  1.00  0.00    -0.315 C  
BRANCH   6   7
HETATM    7  C   UNL     1     -10.081  14.772  68.550  1.00  0.00    -0.230 C  
BRANCH   7   8
HETATM    8  C   UNL     1      -8.912  14.147  67.792  1.00  0.00    -0.187 C  
HETATM    9  C   UNL     1      -7.605  14.824  68.135  1.00  0.00    -0.119 C  
HETATM   10  O   UNL     1      -7.462  15.724  68.945  1.00  0.00    -0.148 OA 
HETATM   11  O   UNL     1      -6.564  14.316  67.435  1.00  0.00    -0.284 OA 
ENDBRANCH   7   8
ENDBRANCH   6   7
ENDBRANCH   5   6
ENDBRANCH   2   5
TORSDOF 4
ENDMDL
MODEL      166
REMARK 921   NORMALIZED FREE ENERGY PREDICTED BY IDOCK:   -2.22 KCAL/MOL
REMARK 922        TOTAL FREE ENERGY PREDICTED BY IDOCK:   -2.83 KCAL/MOL
REMARK 923 INTER-LIGAND FREE ENERGY PREDICTED BY IDOCK:   -2.67 KCAL/MOL
REMARK 924 INTRA-LIGAND FREE ENERGY PREDICTED BY IDOCK:   -0.15 KCAL/MOL
REMARK 927      BINDING AFFINITY PREDICTED BY RF-SCORE:    0.00 PKD
ROOT
HETATM    1  N   UNL     1      -9.729   9.752  68.521  1.00  0.00    -0.151 NA 
HETATM    2  C   UNL     1     -10.720   9.730  67.450  1.00  0.00    -0.249 C  
HETATM    3  H1  UNL     1      -9.903   9.019  69.209  1.00  0.00     0.000 HD 
HETATM    4  H2  UNL     1      -9.676  10.671  68.961  1.00  0.00     0.000 HD 
ENDROOT
BRANCH   2   5
HETATM    5  C   UNL     1     -10.458  10.829  66.419  1.00  0.00    -0.293 C  
BRANCH   5   6
HETATM    6  C   UNL     1     -11.321  12.088  66.577  1.00  0.00    -0.413 C  
BRANCH   6   7
HETATM    7  C   UNL     1     -10.653  13.165  67.435  1.00  0.00    -0.247 C  
BRANCH   7   8
HETATM    8  C   UNL     1     -11.400  13.386  68.748  1.00  0.00    -0.332 C  
HETATM    9  C   UNL     1     -11.736  14.845  68.954  1.00  0.00    -0.315 C  
HETATM   10  O   UNL     1     -11.500  15.747  68.168  1.00  0.00    -0.352 OA 
HETATM   11  O   UNL     1     -12.355  15.067  70.137  1.00  0.00    -0.323 OA 
ENDBRANCH   7   8
ENDBRANCH   6   7
ENDBRANCH   5   6
ENDBRANCH   2   5
TORSDOF 4
ENDMDL
MODEL      167
REMARK 921   NORMALIZED FREE ENERGY PREDICTED BY IDOCK:   -2.22 KCAL/MOL
REMARK 922        TOTAL FREE ENERGY PREDICTED BY IDOCK:   -2.82 KCAL/MOL
REMARK 923 INTER-LIGAND FREE ENERGY PREDICTED BY IDOCK:   -2.76 KCAL/MOL
REMARK 924 INTRA-LIGAND FREE ENERGY PREDICTED BY IDOCK:   -0.06 KCAL/MOL
REMARK 927      BINDING AFFINITY PREDICTED BY RF-SCORE:    0.00 PKD
ROOT
HETATM    1  N   UNL     1      -9.468   7.536  65.845  1.00  0.00    -0.404 NA 
HETATM    2  C   UNL     1     -10.189   8.167  66.945  1.00  0.00    -0.316 C  
HETATM    3  H1  UNL     1      -9.300   6.546  66.025  1.00  0.00     0.000 HD 
HETATM    4  H2  UNL     1      -8.600   8.030  65.636  1.00  0.00     0.000 HD 
ENDROOT
BRANCH   2   5
HETATM    5  C   UNL     1     -10.441   9.652  66.673  1.00  0.00    -0.233 C  
BRANCH   5   6
HETATM    6  C   UNL     1     -11.140  10.411  67.810  1.00  0.00    -0.365 C  
BRANCH   6   7
HETATM    7  C   UNL     1     -11.664  11.781  67.378  1.00  0.00    -0.304 C  
BRANCH   7   8
HETATM    8  C   UNL     1     -11.286  12.872  68.377  1.00  0.00    -0.329 C  
HETATM    9  C   UNL     1     -10.994  14.182  67.682  1.00  0.00    -0.267 C  
HETATM   10  O   UNL     1     -11.087  14.387  66.483  1.00  0.00    -0.317 OA 
HETATM   11  O   UNL     1     -10.609  15.148  68.548  1.00  0.00    -0.228 OA 
ENDBRANCH   7   8
ENDBRANCH   6   7
ENDBRANCH   5   6
ENDBRANCH   2   5
TORSDOF 4
ENDMDL
MODEL      168
REMARK 921   NORMALIZED FREE ENERGY PREDICTED BY IDOCK:   -2.21 KCAL/MOL
REMARK 922        TOTAL FREE ENERGY PREDICTED BY IDOCK:   -2.82 KCAL/MOL
REMARK 923 INTER-LIGAND FREE ENERGY PREDICTED BY IDOCK:   -2.71 KCAL/MOL
REMARK 924 INTRA-LIGAND FREE ENERGY PREDICTED BY IDOCK:   -0.10 KCAL/MOL
REMARK 927      BINDING AFFINITY PREDICTED BY RF-SCORE:    0.00 PKD
ROOT
HETATM    1  N   UNL     1     -10.721   8.167  68.312  1.00  0.00    -0.422 NA 
HETATM    2  C   UNL     1     -10.766   9.585  67.971  1.00  0.00    -0.212 C  
HETATM    3  H1  UNL     1     -10.728   7.581  67.478  1.00  0.00     0.000 HD 
HETATM    4  H2  UNL     1     -11.474   7.914  68.952  1.00  0.00     0.000 HD 
ENDROOT
BRANCH   2   5
HETATM    5  C   UNL     1     -10.755  10.465  69.223  1.00  0.00    -0.270 C  
BRANCH   5   6
HETATM    6  C   UNL     1     -12.003  11.337  69.416  1.00  0.00    -0.410 C  
BRANCH   6   7
HETATM    7  C   UNL     1     -11.683  12.832  69.471  1.00  0.00    -0.383 C  
BRANCH   7   8
HETATM    8  C   UNL     1     -11.346  13.389  68.090  1.00  0.00    -0.321 C  
HETATM    9  C   UNL     1     -10.338  14.512  68.178  1.00  0.00    -0.232 C  
HETATM   10  O   UNL     1      -9.806  14.912  69.200  1.00  0.00    -0.220 OA 
HETATM   11  O   UNL     1     -10.065  15.051  66.967  1.00  0.00    -0.240 OA 
ENDBRANCH   7   8
ENDBRANCH   6   7
ENDBRANCH   5   6
ENDBRANCH   2   5
TORSDOF 4
ENDMDL
MODEL      169
REMARK 921   NORMALIZED FREE ENERGY PREDICTED BY IDOCK:   -2.21 KCAL/MOL
REMARK 922        TOTAL FREE ENERGY PREDICTED BY IDOCK:   -2.81 KCAL/MOL
REMARK 923 INTER-LIGAND FREE ENERGY PREDICTED BY IDOCK:   -2.62 KCAL/MOL
REMARK 924 INTRA-LIGAND FREE ENERGY PREDICTED BY IDOCK:   -0.19 KCAL/MOL
REMARK 927      BINDING AFFINITY PREDICTED BY RF-SCORE:    0.00 PKD
ROOT
HETATM    1  N   UNL     1     -10.703  17.528  69.513  1.00  0.00    -0.273 NA 
HETATM    2  C   UNL     1     -10.072  16.708  68.484  1.00  0.00    -0.266 C  
HETATM    3  H1  UNL     1     -11.561  17.101  69.860  1.00  0.00     0.000 HD 
HETATM    4  H2  UNL     1     -10.866  18.479  69.183  1.00  0.00     0.000 HD 
ENDROOT
BRANCH   2   5
HETATM    5  C   UNL     1      -8.784  17.350  67.964  1.00  0.00    -0.241 C  
BRANCH   5   6
HETATM    6  C   UNL     1      -8.969  18.320  66.789  1.00  0.00    -0.289 C  
BRANCH   6   7
HETATM    7  C   UNL     1      -8.891  19.788  67.211  1.00  0.00    -0.394 C  
BRANCH   7   8
HETATM    8  C   UNL     1      -7.807  20.018  68.261  1.00  0.00    -0.234 C  
HETATM    9  C   UNL     1      -6.626  20.763  67.682  1.00  0.00    -0.339 C  
HETATM   10  O   UNL     1      -6.541  21.184  66.541  1.00  0.00    -0.279 OA 
HETATM   11  O   UNL     1      -5.633  20.933  68.587  1.00  0.00    -0.310 OA 
ENDBRANCH   7   8
ENDBRANCH   6   7
ENDBRANCH   5   6
ENDBRANCH   2   5
TORSDOF 4
ENDMDL
MODEL      170
REMARK 921   NORMALIZED FREE ENERGY PREDICTED BY IDOCK:   -2.20 KCAL/MOL
REMARK 922        TOTAL FREE ENERGY PREDICTED BY IDOCK:   -2.80 KCAL/MOL
REMARK 923 INTER-LIGAND FREE ENERGY PREDICTED BY IDOCK:   -2.72 KCAL/MOL
REMARK 924 INTRA-LIGAND FREE ENERGY PREDICTED BY IDOCK:   -0.08 KCAL/MOL
REMARK 927      BINDING AFFINITY PREDICTED BY RF-SCORE:    0.00 PKD
ROOT
HETATM    1  N   UNL     1     -11.406   6.075  73.198  1.00  0.00    -0.477 NA 
HETATM    2  C   UNL     1     -10.864   5.740  71.885  1.00  0.00    -0.252 C  
HETATM    3  H1  UNL     1     -11.260   5.320  73.868  1.00  0.00     0.000 HD 
HETATM    4  H2  UNL     1     -12.391   6.336  73.139  1.00  0.00     0.000 HD 
ENDROOT
BRANCH   2   5
HETATM    5  C   UNL     1     -11.084   6.872  70.880  1.00  0.00    -0.313 C  
BRANCH   5   6
HETATM    6  C   UNL     1     -11.454   6.419  69.461  1.00  0.00    -0.412 C  
BRANCH   6   7
HETATM    7  C   UNL     1     -10.281   6.505  68.483  1.00  0.00    -0.190 C  
BRANCH   7   8
HETATM    8  C   UNL     1     -10.687   6.081  67.074  1.00  0.00    -0.412 C  
HETATM    9  C   UNL     1     -10.127   4.722  66.722  1.00  0.00    -0.229 C  
HETATM   10  O   UNL     1      -9.473   4.009  67.464  1.00  0.00    -0.169 OA 
HETATM   11  O   UNL     1     -10.436   4.351  65.458  1.00  0.00    -0.265 OA 
ENDBRANCH   7   8
ENDBRANCH   6   7
ENDBRANCH   5   6
ENDBRANCH   2   5
TORSDOF 4
ENDMDL
MODEL      171
REMARK 921   NORMALIZED FREE ENERGY PREDICTED BY IDOCK:   -2.18 KCAL/MOL
REMARK 922        TOTAL FREE ENERGY PREDICTED BY IDOCK:   -2.77 KCAL/MOL
REMARK 923 INTER-LIGAND FREE ENERGY PREDICTED BY IDOCK:   -2.63 KCAL/MOL
REMARK 924 INTRA-LIGAND FREE ENERGY PREDICTED BY IDOCK:   -0.14 KCAL/MOL
REMARK 927      BINDING AFFINITY PREDICTED BY RF-SCORE:    0.00 PKD
ROOT
HETATM    1  N   UNL     1     -12.686  14.646  69.899  1.00  0.00    -0.569 NA 
HETATM    2  C   UNL     1     -12.124  13.870  68.799  1.00  0.00    -0.309 C  
HETATM    3  H1  UNL     1     -13.182  15.471  69.561  1.00  0.00     0.000 HD 
HETATM    4  H2  UNL     1     -11.971  14.896  70.583  1.00  0.00     0.000 HD 
ENDROOT
BRANCH   2   5
HETATM    5  C   UNL     1     -11.379  12.633  69.307  1.00  0.00    -0.306 C  
BRANCH   5   6
HETATM    6  C   UNL     1     -12.027  11.290  68.943  1.00  0.00    -0.378 C  
BRANCH   6   7
HETATM    7  C   UNL     1     -11.006  10.229  68.528  1.00  0.00    -0.294 C  
BRANCH   7   8
HETATM    8  C   UNL     1      -9.667  10.853  68.144  1.00  0.00    -0.174 C  
HETATM    9  C   UNL     1      -9.511  10.944  66.643  1.00  0.00    -0.179 C  
HETATM   10  O   UNL     1     -10.348  10.616  65.819  1.00  0.00    -0.254 OA 
HETATM   11  O   UNL     1      -8.308  11.450  66.282  1.00  0.00    -0.168 OA 
ENDBRANCH   7   8
ENDBRANCH   6   7
ENDBRANCH   5   6
ENDBRANCH   2   5
TORSDOF 4
ENDMDL
MODEL      172
REMARK 921   NORMALIZED FREE ENERGY PREDICTED BY IDOCK:   -2.17 KCAL/MOL
REMARK 922        TOTAL FREE ENERGY PREDICTED BY IDOCK:   -2.77 KCAL/MOL
REMARK 923 INTER-LIGAND FREE ENERGY PREDICTED BY IDOCK:   -2.72 KCAL/MOL
REMARK 924 INTRA-LIGAND FREE ENERGY PREDICTED BY IDOCK:   -0.05 KCAL/MOL
REMARK 927      BINDING AFFINITY PREDICTED BY RF-SCORE:    0.00 PKD
ROOT
HETATM    1  N   UNL     1      -9.570  16.841  68.088  1.00  0.00    -0.236 NA 
HETATM    2  C   UNL     1      -9.743  17.667  66.898  1.00  0.00    -0.292 C  
HETATM    3  H1  UNL     1      -9.861  15.878  67.922  1.00  0.00     0.000 HD 
HETATM    4  H2  UNL     1     -10.051  17.242  68.893  1.00  0.00     0.000 HD 
ENDROOT
BRANCH   2   5
HETATM    5  C   UNL     1      -9.306  19.112  67.147  1.00  0.00    -0.358 C  
BRANCH   5   6
HETATM    6  C   UNL     1      -8.701  19.378  68.533  1.00  0.00    -0.407 C  
BRANCH   6   7
HETATM    7  C   UNL     1      -7.173  19.311  68.538  1.00  0.00    -0.349 C  
BRANCH   7   8
HETATM    8  C   UNL     1      -6.587  19.881  69.827  1.00  0.00    -0.353 C  
HETATM    9  C   UNL     1      -5.648  18.899  70.490  1.00  0.00    -0.207 C  
HETATM   10  O   UNL     1      -5.340  17.804  70.051  1.00  0.00    -0.194 OA 
HETATM   11  O   UNL     1      -5.157  19.368  71.661  1.00  0.00    -0.327 OA 
ENDBRANCH   7   8
ENDBRANCH   6   7
ENDBRANCH   5   6
ENDBRANCH   2   5
TORSDOF 4
ENDMDL
MODEL      173
REMARK 921   NORMALIZED FREE ENERGY PREDICTED BY IDOCK:   -2.17 KCAL/MOL
REMARK 922        TOTAL FREE ENERGY PREDICTED BY IDOCK:   -2.77 KCAL/MOL
REMARK 923 INTER-LIGAND FREE ENERGY PREDICTED BY IDOCK:   -2.70 KCAL/MOL
REMARK 924 INTRA-LIGAND FREE ENERGY PREDICTED BY IDOCK:   -0.06 KCAL/MOL
REMARK 927      BINDING AFFINITY PREDICTED BY RF-SCORE:    0.00 PKD
ROOT
HETATM    1  N   UNL     1     -12.232  12.432  65.947  1.00  0.00    -0.632 NA 
HETATM    2  C   UNL     1     -11.332  11.814  66.914  1.00  0.00    -0.320 C  
HETATM    3  H1  UNL     1     -12.811  13.152  66.379  1.00  0.00     0.000 HD 
HETATM    4  H2  UNL     1     -12.801  11.734  65.468  1.00  0.00     0.000 HD 
ENDROOT
BRANCH   2   5
HETATM    5  C   UNL     1     -10.463  10.734  66.264  1.00  0.00    -0.287 C  
BRANCH   5   6
HETATM    6  C   UNL     1      -9.614   9.909  67.240  1.00  0.00    -0.195 C  
BRANCH   6   7
HETATM    7  C   UNL     1     -10.458   9.104  68.230  1.00  0.00    -0.254 C  
BRANCH   7   8
HETATM    8  C   UNL     1     -10.299   7.601  68.017  1.00  0.00    -0.257 C  
HETATM    9  C   UNL     1     -10.819   6.816  69.200  1.00  0.00    -0.258 C  
HETATM   10  O   UNL     1     -11.349   7.291  70.190  1.00  0.00    -0.266 OA 
HETATM   11  O   UNL     1     -10.641   5.483  69.049  1.00  0.00    -0.236 OA 
ENDBRANCH   7   8
ENDBRANCH   6   7
ENDBRANCH   5   6
ENDBRANCH   2   5
TORSDOF 4
ENDMDL
MODEL      174
REMARK 921   NORMALIZED FREE ENERGY PREDICTED BY IDOCK:   -2.17 KCAL/MOL
REMARK 922        TOTAL FREE ENERGY PREDICTED BY IDOCK:   -2.77 KCAL/MOL
REMARK 923 INTER-LIGAND FREE ENERGY PREDICTED BY IDOCK:   -3.06 KCAL/MOL
REMARK 924 INTRA-LIGAND FREE ENERGY PREDICTED BY IDOCK:    0.30 KCAL/MOL
REMARK 927      BINDING AFFINITY PREDICTED BY RF-SCORE:    0.00 PKD
ROOT
HETATM    1  N   UNL     1     -12.612   7.949  70.761  1.00  0.00    -0.507 NA 
HETATM    2  C   UNL     1     -11.648   8.991  71.100  1.00  0.00    -0.306 C  
HETATM    3  H1  UNL     1     -13.321   7.843  71.487  1.00  0.00     0.000 HD 
HETATM    4  H2  UNL     1     -12.148   7.063  70.560  1.00  0.00     0.000 HD 
ENDROOT
BRANCH   2   5
HETATM    5  C   UNL     1     -10.585   9.150  70.011  1.00  0.00    -0.250 C  
BRANCH   5   6
HETATM    6  C   UNL     1     -10.495  10.552  69.391  1.00  0.00    -0.264 C  
BRANCH   6   7
HETATM    7  C   UNL     1     -11.861  11.224  69.237  1.00  0.00    -0.423 C  
BRANCH   7   8
HETATM    8  C   UNL     1     -12.283  11.945  70.514  1.00  0.00    -0.426 C  
HETATM    9  C   UNL     1     -11.996  13.427  70.433  1.00  0.00    -0.285 C  
HETATM   10  O   UNL     1     -11.534  14.010  69.467  1.00  0.00    -0.259 OA 
HETATM   11  O   UNL     1     -12.319  14.076  71.576  1.00  0.00    -0.340 OA 
ENDBRANCH   7   8
ENDBRANCH   6   7
ENDBRANCH   5   6
ENDBRANCH   2   5
TORSDOF 4
ENDMDL
MODEL      175
REMARK 921   NORMALIZED FREE ENERGY PREDICTED BY IDOCK:   -2.16 KCAL/MOL
REMARK 922        TOTAL FREE ENERGY PREDICTED BY IDOCK:   -2.75 KCAL/MOL
REMARK 923 INTER-LIGAND FREE ENERGY PREDICTED BY IDOCK:   -2.68 KCAL/MOL
REMARK 924 INTRA-LIGAND FREE ENERGY PREDICTED BY IDOCK:   -0.07 KCAL/MOL
REMARK 927      BINDING AFFINITY PREDICTED BY RF-SCORE:    0.00 PKD
ROOT
HETATM    1  N   UNL     1      -8.763  11.891  68.971  1.00  0.00    -0.352 NA 
HETATM    2  C   UNL     1     -10.213  11.929  68.823  1.00  0.00    -0.143 C  
HETATM    3  H1  UNL     1      -8.340  12.794  68.756  1.00  0.00     0.000 HD 
HETATM    4  H2  UNL     1      -8.350  11.144  68.412  1.00  0.00     0.000 HD 
ENDROOT
BRANCH   2   5
HETATM    5  C   UNL     1     -10.848  10.574  69.146  1.00  0.00    -0.277 C  
BRANCH   5   6
HETATM    6  C   UNL     1     -12.059  10.632  70.086  1.00  0.00    -0.414 C  
BRANCH   6   7
HETATM    7  C   UNL     1     -11.994   9.592  71.207  1.00  0.00    -0.462 C  
BRANCH   7   8
HETATM    8  C   UNL     1     -10.565   9.116  71.453  1.00  0.00    -0.412 C  
HETATM    9  C   UNL     1     -10.367   7.694  70.980  1.00  0.00    -0.202 C  
HETATM   10  O   UNL     1     -11.206   7.006  70.425  1.00  0.00    -0.272 OA 
HETATM   11  O   UNL     1      -9.118   7.238  71.236  1.00  0.00    -0.146 OA 
ENDBRANCH   7   8
ENDBRANCH   6   7
ENDBRANCH   5   6
ENDBRANCH   2   5
TORSDOF 4
ENDMDL
MODEL      176
REMARK 921   NORMALIZED FREE ENERGY PREDICTED BY IDOCK:   -2.16 KCAL/MOL
REMARK 922        TOTAL FREE ENERGY PREDICTED BY IDOCK:   -2.74 KCAL/MOL
REMARK 923 INTER-LIGAND FREE ENERGY PREDICTED BY IDOCK:   -2.27 KCAL/MOL
REMARK 924 INTRA-LIGAND FREE ENERGY PREDICTED BY IDOCK:   -0.48 KCAL/MOL
REMARK 927      BINDING AFFINITY PREDICTED BY RF-SCORE:    0.00 PKD
ROOT
HETATM    1  N   UNL     1      -8.513   6.394  67.795  1.00  0.00    -0.117 NA 
HETATM    2  C   UNL     1      -8.430   5.597  69.014  1.00  0.00    -0.102 C  
HETATM    3  H1  UNL     1      -7.647   6.903  67.619  1.00  0.00     0.000 HD 
HETATM    4  H2  UNL     1      -9.317   7.022  67.815  1.00  0.00     0.000 HD 
ENDROOT
BRANCH   2   5
HETATM    5  C   UNL     1      -9.729   4.833  69.277  1.00  0.00    -0.266 C  
BRANCH   5   6
HETATM    6  C   UNL     1     -10.558   5.349  70.461  1.00  0.00    -0.312 C  
BRANCH   6   7
HETATM    7  C   UNL     1     -11.590   6.402  70.051  1.00  0.00    -0.446 C  
BRANCH   7   8
HETATM    8  C   UNL     1     -11.436   7.688  70.860  1.00  0.00    -0.299 C  
HETATM    9  C   UNL     1     -10.720   8.758  70.067  1.00  0.00    -0.228 C  
HETATM   10  O   UNL     1     -10.345   8.654  68.911  1.00  0.00    -0.208 OA 
HETATM   11  O   UNL     1     -10.531   9.889  70.786  1.00  0.00    -0.290 OA 
ENDBRANCH   7   8
ENDBRANCH   6   7
ENDBRANCH   5   6
ENDBRANCH   2   5
TORSDOF 4
ENDMDL
MODEL      177
REMARK 921   NORMALIZED FREE ENERGY PREDICTED BY IDOCK:   -2.15 KCAL/MOL
REMARK 922        TOTAL FREE ENERGY PREDICTED BY IDOCK:   -2.74 KCAL/MOL
REMARK 923 INTER-LIGAND FREE ENERGY PREDICTED BY IDOCK:   -2.32 KCAL/MOL
REMARK 924 INTRA-LIGAND FREE ENERGY PREDICTED BY IDOCK:   -0.42 KCAL/MOL
REMARK 927      BINDING AFFINITY PREDICTED BY RF-SCORE:    0.00 PKD
ROOT
HETATM    1  N   UNL     1     -10.151   7.481  66.425  1.00  0.00    -0.476 NA 
HETATM    2  C   UNL     1     -11.061   6.485  66.981  1.00  0.00    -0.339 C  
HETATM    3  H1  UNL     1     -10.557   7.948  65.614  1.00  0.00     0.000 HD 
HETATM    4  H2  UNL     1      -9.242   7.073  66.205  1.00  0.00     0.000 HD 
ENDROOT
BRANCH   2   5
HETATM    5  C   UNL     1     -10.453   5.785  68.198  1.00  0.00    -0.277 C  
BRANCH   5   6
HETATM    6  C   UNL     1     -11.136   6.097  69.536  1.00  0.00    -0.490 C  
BRANCH   6   7
HETATM    7  C   UNL     1     -10.752   7.468  70.096  1.00  0.00    -0.248 C  
BRANCH   7   8
HETATM    8  C   UNL     1      -9.244   7.592  70.300  1.00  0.00    -0.157 C  
HETATM    9  C   UNL     1      -8.640   8.607  69.356  1.00  0.00    -0.127 C  
HETATM   10  O   UNL     1      -9.258   9.290  68.557  1.00  0.00    -0.135 OA 
HETATM   11  O   UNL     1      -7.296   8.695  69.490  1.00  0.00    -0.065 OA 
ENDBRANCH   7   8
ENDBRANCH   6   7
ENDBRANCH   5   6
ENDBRANCH   2   5
TORSDOF 4
ENDMDL
MODEL      178
REMARK 921   NORMALIZED FREE ENERGY PREDICTED BY IDOCK:   -2.14 KCAL/MOL
REMARK 922        TOTAL FREE ENERGY PREDICTED BY IDOCK:   -2.73 KCAL/MOL
REMARK 923 INTER-LIGAND FREE ENERGY PREDICTED BY IDOCK:   -2.68 KCAL/MOL
REMARK 924 INTRA-LIGAND FREE ENERGY PREDICTED BY IDOCK:   -0.05 KCAL/MOL
REMARK 927      BINDING AFFINITY PREDICTED BY RF-SCORE:    0.00 PKD
ROOT
HETATM    1  N   UNL     1     -11.054  11.371  62.923  1.00  0.00    -0.739 NA 
HETATM    2  C   UNL     1      -9.957  11.282  63.881  1.00  0.00    -0.321 C  
HETATM    3  H1  UNL     1     -10.736  11.190  61.971  1.00  0.00     0.000 HD 
HETATM    4  H2  UNL     1     -11.537  12.267  62.991  1.00  0.00     0.000 HD 
ENDROOT
BRANCH   2   5
HETATM    5  C   UNL     1     -10.435  11.553  65.310  1.00  0.00    -0.336 C  
BRANCH   5   6
HETATM    6  C   UNL     1     -10.363  13.021  65.752  1.00  0.00    -0.296 C  
BRANCH   6   7
HETATM    7  C   UNL     1      -9.245  13.285  66.761  1.00  0.00    -0.237 C  
BRANCH   7   8
HETATM    8  C   UNL     1      -9.634  14.366  67.767  1.00  0.00    -0.216 C  
HETATM    9  C   UNL     1      -8.447  14.806  68.593  1.00  0.00    -0.167 C  
HETATM   10  O   UNL     1      -7.303  14.404  68.464  1.00  0.00    -0.107 OA 
HETATM   11  O   UNL     1      -8.784  15.729  69.524  1.00  0.00    -0.259 OA 
ENDBRANCH   7   8
ENDBRANCH   6   7
ENDBRANCH   5   6
ENDBRANCH   2   5
TORSDOF 4
ENDMDL
MODEL      179
REMARK 921   NORMALIZED FREE ENERGY PREDICTED BY IDOCK:   -2.13 KCAL/MOL
REMARK 922        TOTAL FREE ENERGY PREDICTED BY IDOCK:   -2.72 KCAL/MOL
REMARK 923 INTER-LIGAND FREE ENERGY PREDICTED BY IDOCK:   -2.57 KCAL/MOL
REMARK 924 INTRA-LIGAND FREE ENERGY PREDICTED BY IDOCK:   -0.14 KCAL/MOL
REMARK 927      BINDING AFFINITY PREDICTED BY RF-SCORE:    0.00 PKD
ROOT
HETATM    1  N   UNL     1      -9.796  14.171  69.079  1.00  0.00    -0.413 NA 
HETATM    2  C   UNL     1     -11.191  14.575  68.939  1.00  0.00    -0.262 C  
HETATM    3  H1  UNL     1      -9.266  14.838  69.640  1.00  0.00     0.000 HD 
HETATM    4  H2  UNL     1      -9.359  14.019  68.170  1.00  0.00     0.000 HD 
ENDROOT
BRANCH   2   5
HETATM    5  C   UNL     1     -11.985  13.573  68.097  1.00  0.00    -0.376 C  
BRANCH   5   6
HETATM    6  C   UNL     1     -11.269  12.243  67.824  1.00  0.00    -0.331 C  
BRANCH   6   7
HETATM    7  C   UNL     1     -11.903  11.063  68.562  1.00  0.00    -0.286 C  
BRANCH   7   8
HETATM    8  C   UNL     1     -10.871  10.281  69.371  1.00  0.00    -0.282 C  
HETATM    9  C   UNL     1     -10.407   9.048  68.630  1.00  0.00    -0.209 C  
HETATM   10  O   UNL     1     -10.755   8.719  67.508  1.00  0.00    -0.253 OA 
HETATM   11  O   UNL     1      -9.527   8.316  69.353  1.00  0.00    -0.158 OA 
ENDBRANCH   7   8
ENDBRANCH   6   7
ENDBRANCH   5   6
ENDBRANCH   2   5
TORSDOF 4
ENDMDL
MODEL      180
REMARK 921   NORMALIZED FREE ENERGY PREDICTED BY IDOCK:   -2.13 KCAL/MOL
REMARK 922        TOTAL FREE ENERGY PREDICTED BY IDOCK:   -2.71 KCAL/MOL
REMARK 923 INTER-LIGAND FREE ENERGY PREDICTED BY IDOCK:   -2.58 KCAL/MOL
REMARK 924 INTRA-LIGAND FREE ENERGY PREDICTED BY IDOCK:   -0.13 KCAL/MOL
REMARK 927      BINDING AFFINITY PREDICTED BY RF-SCORE:    0.00 PKD
ROOT
HETATM    1  N   UNL     1      -8.441  10.473  69.683  1.00  0.00    -0.375 NA 
HETATM    2  C   UNL     1      -9.578   9.692  69.207  1.00  0.00    -0.185 C  
HETATM    3  H1  UNL     1      -7.932   9.984  70.420  1.00  0.00     0.000 HD 
HETATM    4  H2  UNL     1      -8.727  11.405  69.982  1.00  0.00     0.000 HD 
ENDROOT
BRANCH   2   5
HETATM    5  C   UNL     1     -10.340  10.426  68.101  1.00  0.00    -0.202 C  
BRANCH   5   6
HETATM    6  C   UNL     1     -11.824  10.682  68.395  1.00  0.00    -0.043 C  
BRANCH   6   7
HETATM    7  C   UNL     1     -12.044  11.551  69.635  1.00  0.00    -0.363 C  
BRANCH   7   8
HETATM    8  C   UNL     1     -11.709  13.016  69.366  1.00  0.00    -0.386 C  
HETATM    9  C   UNL     1     -12.291  13.920  70.428  1.00  0.00    -0.363 C  
HETATM   10  O   UNL     1     -12.910  13.554  71.413  1.00  0.00    -0.350 OA 
HETATM   11  O   UNL     1     -12.045  15.228  70.179  1.00  0.00    -0.314 OA 
ENDBRANCH   7   8
ENDBRANCH   6   7
ENDBRANCH   5   6
ENDBRANCH   2   5
TORSDOF 4
ENDMDL
MODEL      181
REMARK 921   NORMALIZED FREE ENERGY PREDICTED BY IDOCK:   -2.12 KCAL/MOL
REMARK 922        TOTAL FREE ENERGY PREDICTED BY IDOCK:   -2.70 KCAL/MOL
REMARK 923 INTER-LIGAND FREE ENERGY PREDICTED BY IDOCK:   -2.65 KCAL/MOL
REMARK 924 INTRA-LIGAND FREE ENERGY PREDICTED BY IDOCK:   -0.05 KCAL/MOL
REMARK 927      BINDING AFFINITY PREDICTED BY RF-SCORE:    0.00 PKD
ROOT
HETATM    1  N   UNL     1      -6.493   8.714  67.195  1.00  0.00    -0.057 NA 
HETATM    2  C   UNL     1      -7.600   9.146  68.041  1.00  0.00    -0.085 C  
HETATM    3  H1  UNL     1      -5.631   8.608  67.730  1.00  0.00     0.000 HD 
HETATM    4  H2  UNL     1      -6.365   9.341  66.401  1.00  0.00     0.000 HD 
ENDROOT
BRANCH   2   5
HETATM    5  C   UNL     1      -8.893   9.304  67.239  1.00  0.00    -0.132 C  
BRANCH   5   6
HETATM    6  C   UNL     1      -9.375  10.750  67.060  1.00  0.00    -0.174 C  
BRANCH   6   7
HETATM    7  C   UNL     1     -10.201  10.950  65.789  1.00  0.00    -0.318 C  
BRANCH   7   8
HETATM    8  C   UNL     1     -11.276  12.018  65.975  1.00  0.00    -0.385 C  
HETATM    9  C   UNL     1     -12.035  12.270  64.692  1.00  0.00    -0.366 C  
HETATM   10  O   UNL     1     -11.867  11.678  63.640  1.00  0.00    -0.420 OA 
HETATM   11  O   UNL     1     -12.959  13.249  64.826  1.00  0.00    -0.710 OA 
ENDBRANCH   7   8
ENDBRANCH   6   7
ENDBRANCH   5   6
ENDBRANCH   2   5
TORSDOF 4
ENDMDL
MODEL      182
REMARK 921   NORMALIZED FREE ENERGY PREDICTED BY IDOCK:   -2.12 KCAL/MOL
REMARK 922        TOTAL FREE ENERGY PREDICTED BY IDOCK:   -2.70 KCAL/MOL
REMARK 923 INTER-LIGAND FREE ENERGY PREDICTED BY IDOCK:   -2.61 KCAL/MOL
REMARK 924 INTRA-LIGAND FREE ENERGY PREDICTED BY IDOCK:   -0.09 KCAL/MOL
REMARK 927      BINDING AFFINITY PREDICTED BY RF-SCORE:    0.00 PKD
ROOT
HETATM    1  N   UNL     1     -12.428   6.571  72.562  1.00  0.00    -0.507 NA 
HETATM    2  C   UNL     1     -11.478   5.470  72.676  1.00  0.00    -0.272 C  
HETATM    3  H1  UNL     1     -13.122   6.547  73.308  1.00  0.00     0.000 HD 
HETATM    4  H2  UNL     1     -12.869   6.589  71.642  1.00  0.00     0.000 HD 
ENDROOT
BRANCH   2   5
HETATM    5  C   UNL     1     -10.436   5.507  71.556  1.00  0.00    -0.298 C  
BRANCH   5   6
HETATM    6  C   UNL     1     -10.554   6.700  70.598  1.00  0.00    -0.268 C  
BRANCH   6   7
HETATM    7  C   UNL     1      -9.667   6.560  69.359  1.00  0.00    -0.155 C  
BRANCH   7   8
HETATM    8  C   UNL     1      -9.669   7.832  68.516  1.00  0.00    -0.165 C  
HETATM    9  C   UNL     1     -10.458   7.648  67.239  1.00  0.00    -0.326 C  
HETATM   10  O   UNL     1     -11.067   6.642  66.919  1.00  0.00    -0.400 OA 
HETATM   11  O   UNL     1     -10.429   8.751  66.455  1.00  0.00    -0.216 OA 
ENDBRANCH   7   8
ENDBRANCH   6   7
ENDBRANCH   5   6
ENDBRANCH   2   5
TORSDOF 4
ENDMDL
MODEL      183
REMARK 921   NORMALIZED FREE ENERGY PREDICTED BY IDOCK:   -2.11 KCAL/MOL
REMARK 922        TOTAL FREE ENERGY PREDICTED BY IDOCK:   -2.69 KCAL/MOL
REMARK 923 INTER-LIGAND FREE ENERGY PREDICTED BY IDOCK:   -2.47 KCAL/MOL
REMARK 924 INTRA-LIGAND FREE ENERGY PREDICTED BY IDOCK:   -0.22 KCAL/MOL
REMARK 927      BINDING AFFINITY PREDICTED BY RF-SCORE:    0.00 PKD
ROOT
HETATM    1  N   UNL     1     -11.290   4.364  65.063  1.00  0.00    -1.102 NA 
HETATM    2  C   UNL     1     -10.530   5.079  66.082  1.00  0.00    -0.286 C  
HETATM    3  H1  UNL     1     -11.887   4.995  64.527  1.00  0.00     0.000 HD 
HETATM    4  H2  UNL     1     -11.828   3.597  65.468  1.00  0.00     0.000 HD 
ENDROOT
BRANCH   2   5
HETATM    5  C   UNL     1      -9.635   4.132  66.884  1.00  0.00    -0.232 C  
BRANCH   5   6
HETATM    6  C   UNL     1      -8.197   4.623  67.099  1.00  0.00    -0.105 C  
BRANCH   6   7
HETATM    7  C   UNL     1      -8.131   6.024  67.709  1.00  0.00    -0.109 C  
BRANCH   7   8
HETATM    8  C   UNL     1      -8.368   5.996  69.217  1.00  0.00    -0.115 C  
HETATM    9  C   UNL     1      -9.620   6.756  69.594  1.00  0.00    -0.148 C  
HETATM   10  O   UNL     1     -10.388   7.291  68.813  1.00  0.00    -0.191 OA 
HETATM   11  O   UNL     1      -9.819   6.783  70.932  1.00  0.00    -0.185 OA 
ENDBRANCH   7   8
ENDBRANCH   6   7
ENDBRANCH   5   6
ENDBRANCH   2   5
TORSDOF 4
ENDMDL
MODEL      184
REMARK 921   NORMALIZED FREE ENERGY PREDICTED BY IDOCK:   -2.09 KCAL/MOL
REMARK 922        TOTAL FREE ENERGY PREDICTED BY IDOCK:   -2.66 KCAL/MOL
REMARK 923 INTER-LIGAND FREE ENERGY PREDICTED BY IDOCK:   -2.23 KCAL/MOL
REMARK 924 INTRA-LIGAND FREE ENERGY PREDICTED BY IDOCK:   -0.43 KCAL/MOL
REMARK 927      BINDING AFFINITY PREDICTED BY RF-SCORE:    0.00 PKD
ROOT
HETATM    1  N   UNL     1      -8.252  15.251  66.517  1.00  0.00    -0.367 NA 
HETATM    2  C   UNL     1      -9.707  15.355  66.518  1.00  0.00    -0.272 C  
HETATM    3  H1  UNL     1      -7.826  15.942  67.136  1.00  0.00     0.000 HD 
HETATM    4  H2  UNL     1      -7.874  15.315  65.572  1.00  0.00     0.000 HD 
ENDROOT
BRANCH   2   5
HETATM    5  C   UNL     1     -10.345  14.319  65.589  1.00  0.00    -0.352 C  
BRANCH   5   6
HETATM    6  C   UNL     1     -11.193  13.251  66.293  1.00  0.00    -0.321 C  
BRANCH   6   7
HETATM    7  C   UNL     1     -10.918  13.167  67.796  1.00  0.00    -0.272 C  
BRANCH   7   8
HETATM    8  C   UNL     1     -10.319  11.818  68.186  1.00  0.00    -0.213 C  
HETATM    9  C   UNL     1      -8.814  11.896  68.306  1.00  0.00    -0.174 C  
HETATM   10  O   UNL     1      -8.141  12.902  68.165  1.00  0.00    -0.141 OA 
HETATM   11  O   UNL     1      -8.260  10.697  68.604  1.00  0.00    -0.119 OA 
ENDBRANCH   7   8
ENDBRANCH   6   7
ENDBRANCH   5   6
ENDBRANCH   2   5
TORSDOF 4
ENDMDL
MODEL      185
REMARK 921   NORMALIZED FREE ENERGY PREDICTED BY IDOCK:   -2.09 KCAL/MOL
REMARK 922        TOTAL FREE ENERGY PREDICTED BY IDOCK:   -2.66 KCAL/MOL
REMARK 923 INTER-LIGAND FREE ENERGY PREDICTED BY IDOCK:   -2.53 KCAL/MOL
REMARK 924 INTRA-LIGAND FREE ENERGY PREDICTED BY IDOCK:   -0.12 KCAL/MOL
REMARK 927      BINDING AFFINITY PREDICTED BY RF-SCORE:    0.00 PKD
ROOT
HETATM    1  N   UNL     1      -7.929  12.670  68.788  1.00  0.00    -0.323 NA 
HETATM    2  C   UNL     1      -8.129  11.237  68.604  1.00  0.00    -0.145 C  
HETATM    3  H1  UNL     1      -7.364  12.867  69.614  1.00  0.00     0.000 HD 
HETATM    4  H2  UNL     1      -8.818  13.170  68.817  1.00  0.00     0.000 HD 
ENDROOT
BRANCH   2   5
HETATM    5  C   UNL     1      -8.977  10.941  67.365  1.00  0.00    -0.136 C  
BRANCH   5   6
HETATM    6  C   UNL     1      -9.929  12.070  66.945  1.00  0.00    -0.218 C  
BRANCH   6   7
HETATM    7  C   UNL     1     -11.400  11.734  67.199  1.00  0.00    -0.387 C  
BRANCH   7   8
HETATM    8  C   UNL     1     -11.632  11.263  68.632  1.00  0.00    -0.384 C  
HETATM    9  C   UNL     1     -11.981  12.417  69.545  1.00  0.00    -0.261 C  
HETATM   10  O   UNL     1     -12.115  13.579  69.201  1.00  0.00    -0.329 OA 
HETATM   11  O   UNL     1     -12.142  12.024  70.830  1.00  0.00    -0.349 OA 
ENDBRANCH   7   8
ENDBRANCH   6   7
ENDBRANCH   5   6
ENDBRANCH   2   5
TORSDOF 4
ENDMDL
MODEL      186
REMARK 921   NORMALIZED FREE ENERGY PREDICTED BY IDOCK:   -2.07 KCAL/MOL
REMARK 922        TOTAL FREE ENERGY PREDICTED BY IDOCK:   -2.64 KCAL/MOL
REMARK 923 INTER-LIGAND FREE ENERGY PREDICTED BY IDOCK:   -2.49 KCAL/MOL
REMARK 924 INTRA-LIGAND FREE ENERGY PREDICTED BY IDOCK:   -0.15 KCAL/MOL
REMARK 927      BINDING AFFINITY PREDICTED BY RF-SCORE:    0.00 PKD
ROOT
HETATM    1  N   UNL     1      -9.435  14.855  65.896  1.00  0.00    -0.455 NA 
HETATM    2  C   UNL     1      -8.617  14.401  67.016  1.00  0.00    -0.203 C  
HETATM    3  H1  UNL     1      -9.959  14.086  65.479  1.00  0.00     0.000 HD 
HETATM    4  H2  UNL     1      -8.874  15.345  65.199  1.00  0.00     0.000 HD 
ENDROOT
BRANCH   2   5
HETATM    5  C   UNL     1      -7.830  15.555  67.642  1.00  0.00    -0.174 C  
BRANCH   5   6
HETATM    6  C   UNL     1      -8.609  16.391  68.667  1.00  0.00    -0.237 C  
BRANCH   6   7
HETATM    7  C   UNL     1      -8.648  17.879  68.315  1.00  0.00    -0.277 C  
BRANCH   7   8
HETATM    8  C   UNL     1      -8.427  18.113  66.823  1.00  0.00    -0.273 C  
HETATM    9  C   UNL     1      -7.484  19.269  66.579  1.00  0.00    -0.245 C  
HETATM   10  O   UNL     1      -6.918  19.919  67.441  1.00  0.00    -0.216 OA 
HETATM   11  O   UNL     1      -7.315  19.523  65.260  1.00  0.00    -0.410 OA 
ENDBRANCH   7   8
ENDBRANCH   6   7
ENDBRANCH   5   6
ENDBRANCH   2   5
TORSDOF 4
ENDMDL
MODEL      187
REMARK 921   NORMALIZED FREE ENERGY PREDICTED BY IDOCK:   -2.06 KCAL/MOL
REMARK 922        TOTAL FREE ENERGY PREDICTED BY IDOCK:   -2.63 KCAL/MOL
REMARK 923 INTER-LIGAND FREE ENERGY PREDICTED BY IDOCK:   -2.47 KCAL/MOL
REMARK 924 INTRA-LIGAND FREE ENERGY PREDICTED BY IDOCK:   -0.16 KCAL/MOL
REMARK 927      BINDING AFFINITY PREDICTED BY RF-SCORE:    0.00 PKD
ROOT
HETATM    1  N   UNL     1     -11.289   7.485  70.603  1.00  0.00    -0.282 NA 
HETATM    2  C   UNL     1     -10.619   6.217  70.338  1.00  0.00    -0.257 C  
HETATM    3  H1  UNL     1     -11.256   7.728  71.593  1.00  0.00     0.000 HD 
HETATM    4  H2  UNL     1     -12.246   7.482  70.252  1.00  0.00     0.000 HD 
ENDROOT
BRANCH   2   5
HETATM    5  C   UNL     1     -10.668   5.854  68.852  1.00  0.00    -0.370 C  
BRANCH   5   6
HETATM    6  C   UNL     1      -9.810   6.740  67.939  1.00  0.00    -0.146 C  
BRANCH   6   7
HETATM    7  C   UNL     1     -10.645   7.600  66.988  1.00  0.00    -0.406 C  
BRANCH   7   8
HETATM    8  C   UNL     1     -10.467   9.089  67.268  1.00  0.00    -0.343 C  
HETATM    9  C   UNL     1      -9.671   9.767  66.176  1.00  0.00    -0.246 C  
HETATM   10  O   UNL     1      -9.253   9.230  65.164  1.00  0.00    -0.234 OA 
HETATM   11  O   UNL     1      -9.461  11.079  66.433  1.00  0.00    -0.184 OA 
ENDBRANCH   7   8
ENDBRANCH   6   7
ENDBRANCH   5   6
ENDBRANCH   2   5
TORSDOF 4
ENDMDL
MODEL      188
REMARK 921   NORMALIZED FREE ENERGY PREDICTED BY IDOCK:   -2.06 KCAL/MOL
REMARK 922        TOTAL FREE ENERGY PREDICTED BY IDOCK:   -2.63 KCAL/MOL
REMARK 923 INTER-LIGAND FREE ENERGY PREDICTED BY IDOCK:   -2.43 KCAL/MOL
REMARK 924 INTRA-LIGAND FREE ENERGY PREDICTED BY IDOCK:   -0.19 KCAL/MOL
REMARK 927      BINDING AFFINITY PREDICTED BY RF-SCORE:    0.00 PKD
ROOT
HETATM    1  N   UNL     1      -8.144  11.594  69.071  1.00  0.00    -0.363 NA 
HETATM    2  C   UNL     1      -7.639  10.229  68.967  1.00  0.00    -0.102 C  
HETATM    3  H1  UNL     1      -7.947  11.997  69.987  1.00  0.00     0.000 HD 
HETATM    4  H2  UNL     1      -9.138  11.642  68.849  1.00  0.00     0.000 HD 
ENDROOT
BRANCH   2   5
HETATM    5  C   UNL     1      -7.934   9.624  67.592  1.00  0.00    -0.106 C  
BRANCH   5   6
HETATM    6  C   UNL     1      -9.212   8.778  67.516  1.00  0.00    -0.154 C  
BRANCH   6   7
HETATM    7  C   UNL     1     -10.358   9.494  66.797  1.00  0.00    -0.298 C  
BRANCH   7   8
HETATM    8  C   UNL     1      -9.843  10.572  65.847  1.00  0.00    -0.291 C  
HETATM    9  C   UNL     1     -10.726  11.799  65.872  1.00  0.00    -0.282 C  
HETATM   10  O   UNL     1     -11.702  11.958  66.586  1.00  0.00    -0.546 OA 
HETATM   11  O   UNL     1     -10.312  12.747  64.999  1.00  0.00    -0.293 OA 
ENDBRANCH   7   8
ENDBRANCH   6   7
ENDBRANCH   5   6
ENDBRANCH   2   5
TORSDOF 4
ENDMDL
MODEL      189
REMARK 921   NORMALIZED FREE ENERGY PREDICTED BY IDOCK:   -2.06 KCAL/MOL
REMARK 922        TOTAL FREE ENERGY PREDICTED BY IDOCK:   -2.63 KCAL/MOL
REMARK 923 INTER-LIGAND FREE ENERGY PREDICTED BY IDOCK:   -2.51 KCAL/MOL
REMARK 924 INTRA-LIGAND FREE ENERGY PREDICTED BY IDOCK:   -0.11 KCAL/MOL
REMARK 927      BINDING AFFINITY PREDICTED BY RF-SCORE:    0.00 PKD
ROOT
HETATM    1  N   UNL     1     -12.447  12.701  65.650  1.00  0.00    -0.620 NA 
HETATM    2  C   UNL     1     -11.359  11.780  65.961  1.00  0.00    -0.273 C  
HETATM    3  H1  UNL     1     -12.365  13.073  64.704  1.00  0.00     0.000 HD 
HETATM    4  H2  UNL     1     -12.511  13.449  66.341  1.00  0.00     0.000 HD 
ENDROOT
BRANCH   2   5
HETATM    5  C   UNL     1     -11.483  11.221  67.380  1.00  0.00    -0.300 C  
BRANCH   5   6
HETATM    6  C   UNL     1     -10.491  11.802  68.396  1.00  0.00    -0.231 C  
BRANCH   6   7
HETATM    7  C   UNL     1      -9.870  10.734  69.299  1.00  0.00    -0.160 C  
BRANCH   7   8
HETATM    8  C   UNL     1     -10.885  10.173  70.292  1.00  0.00    -0.370 C  
HETATM    9  C   UNL     1     -11.191   8.720  70.007  1.00  0.00    -0.106 C  
HETATM   10  O   UNL     1     -10.674   8.042  69.136  1.00  0.00    -0.199 OA 
HETATM   11  O   UNL     1     -12.127   8.219  70.847  1.00  0.00    -0.253 OA 
ENDBRANCH   7   8
ENDBRANCH   6   7
ENDBRANCH   5   6
ENDBRANCH   2   5
TORSDOF 4
ENDMDL
MODEL      190
REMARK 921   NORMALIZED FREE ENERGY PREDICTED BY IDOCK:   -2.05 KCAL/MOL
REMARK 922        TOTAL FREE ENERGY PREDICTED BY IDOCK:   -2.62 KCAL/MOL
REMARK 923 INTER-LIGAND FREE ENERGY PREDICTED BY IDOCK:   -2.54 KCAL/MOL
REMARK 924 INTRA-LIGAND FREE ENERGY PREDICTED BY IDOCK:   -0.08 KCAL/MOL
REMARK 927      BINDING AFFINITY PREDICTED BY RF-SCORE:    0.00 PKD
ROOT
HETATM    1  N   UNL     1      -6.426  16.242  66.638  1.00  0.00    -0.234 NA 
HETATM    2  C   UNL     1      -6.183  16.519  68.049  1.00  0.00    -0.128 C  
HETATM    3  H1  UNL     1      -6.804  15.305  66.499  1.00  0.00     0.000 HD 
HETATM    4  H2  UNL     1      -5.587  16.392  66.078  1.00  0.00     0.000 HD 
ENDROOT
BRANCH   2   5
HETATM    5  C   UNL     1      -5.617  17.925  68.257  1.00  0.00    -0.159 C  
BRANCH   5   6
HETATM    6  C   UNL     1      -6.146  18.662  69.496  1.00  0.00    -0.280 C  
BRANCH   6   7
HETATM    7  C   UNL     1      -7.344  19.561  69.188  1.00  0.00    -0.364 C  
BRANCH   7   8
HETATM    8  C   UNL     1      -7.706  19.533  67.705  1.00  0.00    -0.321 C  
HETATM    9  C   UNL     1      -9.118  19.037  67.490  1.00  0.00    -0.288 C  
HETATM   10  O   UNL     1      -9.908  18.738  68.369  1.00  0.00    -0.340 OA 
HETATM   11  O   UNL     1      -9.439  18.959  66.178  1.00  0.00    -0.424 OA 
ENDBRANCH   7   8
ENDBRANCH   6   7
ENDBRANCH   5   6
ENDBRANCH   2   5
TORSDOF 4
ENDMDL
MODEL      191
REMARK 921   NORMALIZED FREE ENERGY PREDICTED BY IDOCK:   -2.04 KCAL/MOL
REMARK 922        TOTAL FREE ENERGY PREDICTED BY IDOCK:   -2.60 KCAL/MOL
REMARK 923 INTER-LIGAND FREE ENERGY PREDICTED BY IDOCK:   -2.49 KCAL/MOL
REMARK 924 INTRA-LIGAND FREE ENERGY PREDICTED BY IDOCK:   -0.11 KCAL/MOL
REMARK 927      BINDING AFFINITY PREDICTED BY RF-SCORE:    0.00 PKD
ROOT
HETATM    1  N   UNL     1      -9.932  15.046  67.787  1.00  0.00    -0.228 NA 
HETATM    2  C   UNL     1     -10.876  15.624  66.837  1.00  0.00    -0.282 C  
HETATM    3  H1  UNL     1      -9.567  15.750  68.429  1.00  0.00     0.000 HD 
HETATM    4  H2  UNL     1      -9.179  14.551  67.309  1.00  0.00     0.000 HD 
ENDROOT
BRANCH   2   5
HETATM    5  C   UNL     1     -11.424  14.568  65.874  1.00  0.00    -0.345 C  
BRANCH   5   6
HETATM    6  C   UNL     1     -10.488  13.380  65.613  1.00  0.00    -0.293 C  
BRANCH   6   7
HETATM    7  C   UNL     1     -11.202  12.030  65.692  1.00  0.00    -0.377 C  
BRANCH   7   8
HETATM    8  C   UNL     1     -10.734  11.077  64.595  1.00  0.00    -0.318 C  
HETATM    9  C   UNL     1      -9.617  10.181  65.081  1.00  0.00    -0.292 C  
HETATM   10  O   UNL     1      -9.161  10.163  66.211  1.00  0.00    -0.150 OA 
HETATM   11  O   UNL     1      -9.156   9.363  64.107  1.00  0.00    -0.206 OA 
ENDBRANCH   7   8
ENDBRANCH   6   7
ENDBRANCH   5   6
ENDBRANCH   2   5
TORSDOF 4
ENDMDL
MODEL      192
REMARK 921   NORMALIZED FREE ENERGY PREDICTED BY IDOCK:   -2.03 KCAL/MOL
REMARK 922        TOTAL FREE ENERGY PREDICTED BY IDOCK:   -2.58 KCAL/MOL
REMARK 923 INTER-LIGAND FREE ENERGY PREDICTED BY IDOCK:   -2.33 KCAL/MOL
REMARK 924 INTRA-LIGAND FREE ENERGY PREDICTED BY IDOCK:   -0.26 KCAL/MOL
REMARK 927      BINDING AFFINITY PREDICTED BY RF-SCORE:    0.00 PKD
ROOT
HETATM    1  N   UNL     1      -9.962   4.225  71.846  1.00  0.00    -0.182 NA 
HETATM    2  C   UNL     1      -9.723   5.395  72.684  1.00  0.00    -0.151 C  
HETATM    3  H1  UNL     1      -9.109   3.684  71.705  1.00  0.00     0.000 HD 
HETATM    4  H2  UNL     1     -10.390   4.484  70.957  1.00  0.00     0.000 HD 
ENDROOT
BRANCH   2   5
HETATM    5  C   UNL     1     -11.003   6.206  72.896  1.00  0.00    -0.294 C  
BRANCH   5   6
HETATM    6  C   UNL     1     -10.788   7.704  73.153  1.00  0.00    -0.440 C  
BRANCH   6   7
HETATM    7  C   UNL     1     -11.062   8.565  71.919  1.00  0.00    -0.395 C  
BRANCH   7   8
HETATM    8  C   UNL     1      -9.781   8.877  71.151  1.00  0.00    -0.344 C  
HETATM    9  C   UNL     1      -9.675   8.048  69.892  1.00  0.00    -0.180 C  
HETATM   10  O   UNL     1     -10.513   7.259  69.488  1.00  0.00    -0.218 OA 
HETATM   11  O   UNL     1      -8.521   8.275  69.223  1.00  0.00    -0.124 OA 
ENDBRANCH   7   8
ENDBRANCH   6   7
ENDBRANCH   5   6
ENDBRANCH   2   5
TORSDOF 4
ENDMDL
MODEL      193
REMARK 921   NORMALIZED FREE ENERGY PREDICTED BY IDOCK:   -2.02 KCAL/MOL
REMARK 922        TOTAL FREE ENERGY PREDICTED BY IDOCK:   -2.58 KCAL/MOL
REMARK 923 INTER-LIGAND FREE ENERGY PREDICTED BY IDOCK:   -2.49 KCAL/MOL
REMARK 924 INTRA-LIGAND FREE ENERGY PREDICTED BY IDOCK:   -0.10 KCAL/MOL
REMARK 927      BINDING AFFINITY PREDICTED BY RF-SCORE:    0.00 PKD
ROOT
HETATM    1  N   UNL     1      -5.615  17.482  69.923  1.00  0.00    -0.229 NA 
HETATM    2  C   UNL     1      -6.793  16.842  69.349  1.00  0.00    -0.202 C  
HETATM    3  H1  UNL     1      -5.315  17.017  70.781  1.00  0.00     0.000 HD 
HETATM    4  H2  UNL     1      -5.768  18.479  70.074  1.00  0.00     0.000 HD 
ENDROOT
BRANCH   2   5
HETATM    5  C   UNL     1      -7.241  17.539  68.063  1.00  0.00    -0.206 C  
BRANCH   5   6
HETATM    6  C   UNL     1      -8.082  18.807  68.270  1.00  0.00    -0.353 C  
BRANCH   6   7
HETATM    7  C   UNL     1      -9.584  18.555  68.129  1.00  0.00    -0.353 C  
BRANCH   7   8
HETATM    8  C   UNL     1      -9.874  17.164  67.570  1.00  0.00    -0.266 C  
HETATM    9  C   UNL     1     -10.551  16.285  68.597  1.00  0.00    -0.297 C  
HETATM   10  O   UNL     1     -10.882  16.629  69.719  1.00  0.00    -0.333 OA 
HETATM   11  O   UNL     1     -10.772  15.032  68.135  1.00  0.00    -0.246 OA 
ENDBRANCH   7   8
ENDBRANCH   6   7
ENDBRANCH   5   6
ENDBRANCH   2   5
TORSDOF 4
ENDMDL
MODEL      194
REMARK 921   NORMALIZED FREE ENERGY PREDICTED BY IDOCK:   -2.01 KCAL/MOL
REMARK 922        TOTAL FREE ENERGY PREDICTED BY IDOCK:   -2.56 KCAL/MOL
REMARK 923 INTER-LIGAND FREE ENERGY PREDICTED BY IDOCK:   -2.42 KCAL/MOL
REMARK 924 INTRA-LIGAND FREE ENERGY PREDICTED BY IDOCK:   -0.15 KCAL/MOL
REMARK 927      BINDING AFFINITY PREDICTED BY RF-SCORE:    0.00 PKD
ROOT
HETATM    1  N   UNL     1      -9.208   6.283  67.465  1.00  0.00    -0.110 NA 
HETATM    2  C   UNL     1      -9.465   7.503  66.708  1.00  0.00    -0.179 C  
HETATM    3  H1  UNL     1      -8.899   5.523  66.859  1.00  0.00     0.000 HD 
HETATM    4  H2  UNL     1     -10.021   6.010  68.019  1.00  0.00     0.000 HD 
ENDROOT
BRANCH   2   5
HETATM    5  C   UNL     1      -9.929   8.643  67.618  1.00  0.00    -0.248 C  
BRANCH   5   6
HETATM    6  C   UNL     1      -9.970   8.303  69.114  1.00  0.00    -0.196 C  
BRANCH   6   7
HETATM    7  C   UNL     1      -9.676   9.510  70.007  1.00  0.00    -0.271 C  
BRANCH   7   8
HETATM    8  C   UNL     1     -10.813   9.777  70.990  1.00  0.00    -0.378 C  
HETATM    9  C   UNL     1     -11.776  10.812  70.454  1.00  0.00    -0.351 C  
HETATM   10  O   UNL     1     -11.708  11.346  69.360  1.00  0.00    -0.277 OA 
HETATM   11  O   UNL     1     -12.764  11.098  71.333  1.00  0.00    -0.405 OA 
ENDBRANCH   7   8
ENDBRANCH   6   7
ENDBRANCH   5   6
ENDBRANCH   2   5
TORSDOF 4
ENDMDL
MODEL      195
REMARK 921   NORMALIZED FREE ENERGY PREDICTED BY IDOCK:   -2.00 KCAL/MOL
REMARK 922        TOTAL FREE ENERGY PREDICTED BY IDOCK:   -2.56 KCAL/MOL
REMARK 923 INTER-LIGAND FREE ENERGY PREDICTED BY IDOCK:   -2.47 KCAL/MOL
REMARK 924 INTRA-LIGAND FREE ENERGY PREDICTED BY IDOCK:   -0.08 KCAL/MOL
REMARK 927      BINDING AFFINITY PREDICTED BY RF-SCORE:    0.00 PKD
ROOT
HETATM    1  N   UNL     1      -6.960   9.010  67.230  1.00  0.00    -0.078 NA 
HETATM    2  C   UNL     1      -8.248   8.404  67.547  1.00  0.00    -0.125 C  
HETATM    3  H1  UNL     1      -6.248   8.760  67.916  1.00  0.00     0.000 HD 
HETATM    4  H2  UNL     1      -7.040  10.022  67.128  1.00  0.00     0.000 HD 
ENDROOT
BRANCH   2   5
HETATM    5  C   UNL     1      -9.316   8.780  66.518  1.00  0.00    -0.260 C  
BRANCH   5   6
HETATM    6  C   UNL     1     -10.454   9.659  67.054  1.00  0.00    -0.302 C  
BRANCH   6   7
HETATM    7  C   UNL     1     -10.222  11.151  66.804  1.00  0.00    -0.272 C  
BRANCH   7   8
HETATM    8  C   UNL     1     -11.522  11.876  66.467  1.00  0.00    -0.381 C  
HETATM    9  C   UNL     1     -11.287  13.350  66.224  1.00  0.00    -0.306 C  
HETATM   10  O   UNL     1     -10.203  13.908  66.238  1.00  0.00    -0.282 OA 
HETATM   11  O   UNL     1     -12.436  14.018  65.972  1.00  0.00    -0.468 OA 
ENDBRANCH   7   8
ENDBRANCH   6   7
ENDBRANCH   5   6
ENDBRANCH   2   5
TORSDOF 4
ENDMDL
MODEL      196
REMARK 921   NORMALIZED FREE ENERGY PREDICTED BY IDOCK:   -1.98 KCAL/MOL
REMARK 922        TOTAL FREE ENERGY PREDICTED BY IDOCK:   -2.53 KCAL/MOL
REMARK 923 INTER-LIGAND FREE ENERGY PREDICTED BY IDOCK:   -2.44 KCAL/MOL
REMARK 924 INTRA-LIGAND FREE ENERGY PREDICTED BY IDOCK:   -0.09 KCAL/MOL
REMARK 927      BINDING AFFINITY PREDICTED BY RF-SCORE:    0.00 PKD
ROOT
HETATM    1  N   UNL     1     -12.915   6.976  72.142  1.00  0.00    -0.544 NA 
HETATM    2  C   UNL     1     -11.666   6.378  71.683  1.00  0.00    -0.313 C  
HETATM    3  H1  UNL     1     -13.036   6.867  73.148  1.00  0.00     0.000 HD 
HETATM    4  H2  UNL     1     -13.715   6.608  71.627  1.00  0.00     0.000 HD 
ENDROOT
BRANCH   2   5
HETATM    5  C   UNL     1     -11.483   6.543  70.173  1.00  0.00    -0.477 C  
BRANCH   5   6
HETATM    6  C   UNL     1     -10.904   7.894  69.732  1.00  0.00    -0.202 C  
BRANCH   6   7
HETATM    7  C   UNL     1      -9.993   7.782  68.509  1.00  0.00    -0.193 C  
BRANCH   7   8
HETATM    8  C   UNL     1     -10.196   8.947  67.544  1.00  0.00    -0.309 C  
HETATM    9  C   UNL     1      -9.144  10.015  67.737  1.00  0.00    -0.131 C  
HETATM   10  O   UNL     1      -8.212   9.961  68.521  1.00  0.00    -0.103 OA 
HETATM   11  O   UNL     1      -9.338  11.079  66.923  1.00  0.00    -0.170 OA 
ENDBRANCH   7   8
ENDBRANCH   6   7
ENDBRANCH   5   6
ENDBRANCH   2   5
TORSDOF 4
ENDMDL
MODEL      197
REMARK 921   NORMALIZED FREE ENERGY PREDICTED BY IDOCK:   -1.97 KCAL/MOL
REMARK 922        TOTAL FREE ENERGY PREDICTED BY IDOCK:   -2.52 KCAL/MOL
REMARK 923 INTER-LIGAND FREE ENERGY PREDICTED BY IDOCK:   -2.45 KCAL/MOL
REMARK 924 INTRA-LIGAND FREE ENERGY PREDICTED BY IDOCK:   -0.08 KCAL/MOL
REMARK 927      BINDING AFFINITY PREDICTED BY RF-SCORE:    0.00 PKD
ROOT
HETATM    1  N   UNL     1     -11.146   4.180  64.775  1.00  0.00    -0.838 NA 
HETATM    2  C   UNL     1     -10.004   4.805  65.433  1.00  0.00    -0.093 C  
HETATM    3  H1  UNL     1     -10.899   3.828  63.850  1.00  0.00     0.000 HD 
HETATM    4  H2  UNL     1     -11.944   4.814  64.732  1.00  0.00     0.000 HD 
ENDROOT
BRANCH   2   5
HETATM    5  C   UNL     1     -10.374   5.334  66.820  1.00  0.00    -0.320 C  
BRANCH   5   6
HETATM    6  C   UNL     1     -10.980   6.743  66.839  1.00  0.00    -0.370 C  
BRANCH   6   7
HETATM    7  C   UNL     1     -10.126   7.749  67.612  1.00  0.00    -0.254 C  
BRANCH   7   8
HETATM    8  C   UNL     1      -9.397   8.710  66.676  1.00  0.00    -0.246 C  
HETATM    9  C   UNL     1      -8.234   9.382  67.370  1.00  0.00    -0.121 C  
HETATM   10  O   UNL     1      -7.869   9.168  68.513  1.00  0.00    -0.098 OA 
HETATM   11  O   UNL     1      -7.606  10.275  66.570  1.00  0.00    -0.105 OA 
ENDBRANCH   7   8
ENDBRANCH   6   7
ENDBRANCH   5   6
ENDBRANCH   2   5
TORSDOF 4
ENDMDL
MODEL      198
REMARK 921   NORMALIZED FREE ENERGY PREDICTED BY IDOCK:   -1.95 KCAL/MOL
REMARK 922        TOTAL FREE ENERGY PREDICTED BY IDOCK:   -2.49 KCAL/MOL
REMARK 923 INTER-LIGAND FREE ENERGY PREDICTED BY IDOCK:   -2.40 KCAL/MOL
REMARK 924 INTRA-LIGAND FREE ENERGY PREDICTED BY IDOCK:   -0.09 KCAL/MOL
REMARK 927      BINDING AFFINITY PREDICTED BY RF-SCORE:    0.00 PKD
ROOT
HETATM    1  N   UNL     1      -9.617  14.547  65.603  1.00  0.00    -0.530 NA 
HETATM    2  C   UNL     1      -9.355  13.805  66.831  1.00  0.00    -0.261 C  
HETATM    3  H1  UNL     1     -10.293  14.065  65.010  1.00  0.00     0.000 HD 
HETATM    4  H2  UNL     1      -8.755  14.749  65.097  1.00  0.00     0.000 HD 
ENDROOT
BRANCH   2   5
HETATM    5  C   UNL     1      -8.341  14.530  67.720  1.00  0.00    -0.173 C  
BRANCH   5   6
HETATM    6  C   UNL     1      -8.871  15.791  68.415  1.00  0.00    -0.185 C  
BRANCH   6   7
HETATM    7  C   UNL     1      -8.162  17.066  67.957  1.00  0.00    -0.206 C  
BRANCH   7   8
HETATM    8  C   UNL     1      -7.047  17.470  68.919  1.00  0.00    -0.253 C  
HETATM    9  C   UNL     1      -6.758  18.951  68.841  1.00  0.00    -0.284 C  
HETATM   10  O   UNL     1      -7.354  19.756  68.145  1.00  0.00    -0.289 OA 
HETATM   11  O   UNL     1      -5.738  19.319  69.651  1.00  0.00    -0.221 OA 
ENDBRANCH   7   8
ENDBRANCH   6   7
ENDBRANCH   5   6
ENDBRANCH   2   5
TORSDOF 4
ENDMDL
MODEL      199
REMARK 921   NORMALIZED FREE ENERGY PREDICTED BY IDOCK:   -1.95 KCAL/MOL
REMARK 922        TOTAL FREE ENERGY PREDICTED BY IDOCK:   -2.49 KCAL/MOL
REMARK 923 INTER-LIGAND FREE ENERGY PREDICTED BY IDOCK:   -2.36 KCAL/MOL
REMARK 924 INTRA-LIGAND FREE ENERGY PREDICTED BY IDOCK:   -0.12 KCAL/MOL
REMARK 927      BINDING AFFINITY PREDICTED BY RF-SCORE:    0.00 PKD
ROOT
HETATM    1  N   UNL     1      -7.696   6.901  67.955  1.00  0.00    -0.110 NA 
HETATM    2  C   UNL     1      -9.076   6.935  68.428  1.00  0.00    -0.126 C  
HETATM    3  H1  UNL     1      -7.394   5.950  67.747  1.00  0.00     0.000 HD 
HETATM    4  H2  UNL     1      -7.065   7.357  68.614  1.00  0.00     0.000 HD 
ENDROOT
BRANCH   2   5
HETATM    5  C   UNL     1      -9.530   8.362  68.739  1.00  0.00    -0.147 C  
BRANCH   5   6
HETATM    6  C   UNL     1      -9.182   9.403  67.666  1.00  0.00    -0.142 C  
BRANCH   6   7
HETATM    7  C   UNL     1     -10.261   9.532  66.590  1.00  0.00    -0.310 C  
BRANCH   7   8
HETATM    8  C   UNL     1     -10.282  10.929  65.975  1.00  0.00    -0.311 C  
HETATM    9  C   UNL     1     -11.365  11.788  66.588  1.00  0.00    -0.316 C  
HETATM   10  O   UNL     1     -12.109  11.453  67.494  1.00  0.00    -0.592 OA 
HETATM   11  O   UNL     1     -11.430  13.015  66.020  1.00  0.00    -0.310 OA 
ENDBRANCH   7   8
ENDBRANCH   6   7
ENDBRANCH   5   6
ENDBRANCH   2   5
TORSDOF 4
ENDMDL
MODEL      200
REMARK 921   NORMALIZED FREE ENERGY PREDICTED BY IDOCK:   -1.94 KCAL/MOL
REMARK 922        TOTAL FREE ENERGY PREDICTED BY IDOCK:   -2.48 KCAL/MOL
REMARK 923 INTER-LIGAND FREE ENERGY PREDICTED BY IDOCK:   -2.49 KCAL/MOL
REMARK 924 INTRA-LIGAND FREE ENERGY PREDICTED BY IDOCK:    0.01 KCAL/MOL
REMARK 927      BINDING AFFINITY PREDICTED BY RF-SCORE:    0.00 PKD
ROOT
HETATM    1  N   UNL     1      -6.751  12.061  66.717  1.00  0.00    -0.362 NA 
HETATM    2  C   UNL     1      -7.709  12.914  67.413  1.00  0.00    -0.159 C  
HETATM    3  H1  UNL     1      -7.114  11.116  66.589  1.00  0.00     0.000 HD 
HETATM    4  H2  UNL     1      -5.847  12.052  67.191  1.00  0.00     0.000 HD 
ENDROOT
BRANCH   2   5
HETATM    5  C   UNL     1      -7.164  14.331  67.605  1.00  0.00    -0.200 C  
BRANCH   5   6
HETATM    6  C   UNL     1      -8.185  15.356  68.117  1.00  0.00    -0.144 C  
BRANCH   6   7
HETATM    7  C   UNL     1      -9.598  15.106  67.585  1.00  0.00    -0.206 C  
BRANCH   7   8
HETATM    8  C   UNL     1      -9.833  15.814  66.254  1.00  0.00    -0.320 C  
HETATM    9  C   UNL     1     -10.087  17.292  66.450  1.00  0.00    -0.316 C  
HETATM   10  O   UNL     1     -10.064  17.881  67.517  1.00  0.00    -0.313 OA 
HETATM   11  O   UNL     1     -10.347  17.927  65.283  1.00  0.00    -0.470 OA 
ENDBRANCH   7   8
ENDBRANCH   6   7
ENDBRANCH   5   6
ENDBRANCH   2   5
TORSDOF 4
ENDMDL
MODEL      201
REMARK 921   NORMALIZED FREE ENERGY PREDICTED BY IDOCK:   -1.94 KCAL/MOL
REMARK 922        TOTAL FREE ENERGY PREDICTED BY IDOCK:   -2.47 KCAL/MOL
REMARK 923 INTER-LIGAND FREE ENERGY PREDICTED BY IDOCK:   -2.28 KCAL/MOL
REMARK 924 INTRA-LIGAND FREE ENERGY PREDICTED BY IDOCK:   -0.20 KCAL/MOL
REMARK 927      BINDING AFFINITY PREDICTED BY RF-SCORE:    0.00 PKD
ROOT
HETATM    1  N   UNL     1     -12.565   7.008  72.057  1.00  0.00    -0.504 NA 
HETATM    2  C   UNL     1     -11.277   6.738  71.426  1.00  0.00    -0.268 C  
HETATM    3  H1  UNL     1     -12.451   7.344  73.013  1.00  0.00     0.000 HD 
HETATM    4  H2  UNL     1     -13.177   6.192  72.018  1.00  0.00     0.000 HD 
ENDROOT
BRANCH   2   5
HETATM    5  C   UNL     1     -11.448   6.234  69.991  1.00  0.00    -0.460 C  
BRANCH   5   6
HETATM    6  C   UNL     1     -10.251   5.455  69.429  1.00  0.00    -0.334 C  
BRANCH   6   7
HETATM    7  C   UNL     1      -9.404   4.797  70.520  1.00  0.00    -0.219 C  
BRANCH   7   8
HETATM    8  C   UNL     1      -9.836   3.355  70.778  1.00  0.00    -0.086 C  
HETATM    9  C   UNL     1     -10.075   3.104  72.249  1.00  0.00    -0.146 C  
HETATM   10  O   UNL     1      -9.992   3.938  73.135  1.00  0.00    -0.122 OA 
HETATM   11  O   UNL     1     -10.411   1.818  72.502  1.00  0.00    -0.138 OA 
ENDBRANCH   7   8
ENDBRANCH   6   7
ENDBRANCH   5   6
ENDBRANCH   2   5
TORSDOF 4
ENDMDL
MODEL      202
REMARK 921   NORMALIZED FREE ENERGY PREDICTED BY IDOCK:   -1.93 KCAL/MOL
REMARK 922        TOTAL FREE ENERGY PREDICTED BY IDOCK:   -2.47 KCAL/MOL
REMARK 923 INTER-LIGAND FREE ENERGY PREDICTED BY IDOCK:   -2.28 KCAL/MOL
REMARK 924 INTRA-LIGAND FREE ENERGY PREDICTED BY IDOCK:   -0.19 KCAL/MOL
REMARK 927      BINDING AFFINITY PREDICTED BY RF-SCORE:    0.00 PKD
ROOT
HETATM    1  N   UNL     1      -8.382  17.289  65.849  1.00  0.00    -0.542 NA 
HETATM    2  C   UNL     1      -9.362  17.235  66.928  1.00  0.00    -0.255 C  
HETATM    3  H1  UNL     1      -7.760  18.091  65.946  1.00  0.00     0.000 HD 
HETATM    4  H2  UNL     1      -8.833  17.275  64.934  1.00  0.00     0.000 HD 
ENDROOT
BRANCH   2   5
HETATM    5  C   UNL     1     -10.294  16.030  66.781  1.00  0.00    -0.300 C  
BRANCH   5   6
HETATM    6  C   UNL     1     -10.206  14.999  67.915  1.00  0.00    -0.228 C  
BRANCH   6   7
HETATM    7  C   UNL     1      -9.133  13.937  67.673  1.00  0.00    -0.197 C  
BRANCH   7   8
HETATM    8  C   UNL     1      -9.180  13.402  66.244  1.00  0.00    -0.068 C  
HETATM    9  C   UNL     1     -10.017  12.146  66.150  1.00  0.00    -0.233 C  
HETATM   10  O   UNL     1     -10.629  11.630  67.069  1.00  0.00    -0.218 OA 
HETATM   11  O   UNL     1     -10.029  11.630  64.899  1.00  0.00    -0.243 OA 
ENDBRANCH   7   8
ENDBRANCH   6   7
ENDBRANCH   5   6
ENDBRANCH   2   5
TORSDOF 4
ENDMDL
MODEL      203
REMARK 921   NORMALIZED FREE ENERGY PREDICTED BY IDOCK:   -1.93 KCAL/MOL
REMARK 922        TOTAL FREE ENERGY PREDICTED BY IDOCK:   -2.47 KCAL/MOL
REMARK 923 INTER-LIGAND FREE ENERGY PREDICTED BY IDOCK:   -2.40 KCAL/MOL
REMARK 924 INTRA-LIGAND FREE ENERGY PREDICTED BY IDOCK:   -0.06 KCAL/MOL
REMARK 927      BINDING AFFINITY PREDICTED BY RF-SCORE:    0.00 PKD
ROOT
HETATM    1  N   UNL     1     -10.483  10.544  67.209  1.00  0.00    -0.235 NA 
HETATM    2  C   UNL     1      -9.872  11.144  68.390  1.00  0.00    -0.185 C  
HETATM    3  H1  UNL     1      -9.854  10.569  66.407  1.00  0.00     0.000 HD 
HETATM    4  H2  UNL     1     -11.380  10.979  66.992  1.00  0.00     0.000 HD 
ENDROOT
BRANCH   2   5
HETATM    5  C   UNL     1     -10.816  11.106  69.593  1.00  0.00    -0.200 C  
BRANCH   5   6
HETATM    6  C   UNL     1     -11.432   9.732  69.893  1.00  0.00    -0.190 C  
BRANCH   6   7
HETATM    7  C   UNL     1     -10.983   9.159  71.239  1.00  0.00    -0.400 C  
BRANCH   7   8
HETATM    8  C   UNL     1     -11.494   7.736  71.447  1.00  0.00    -0.289 C  
HETATM    9  C   UNL     1     -10.917   7.119  72.701  1.00  0.00    -0.288 C  
HETATM   10  O   UNL     1     -10.177   7.677  73.492  1.00  0.00    -0.334 OA 
HETATM   11  O   UNL     1     -11.321   5.838  72.874  1.00  0.00    -0.283 OA 
ENDBRANCH   7   8
ENDBRANCH   6   7
ENDBRANCH   5   6
ENDBRANCH   2   5
TORSDOF 4
ENDMDL
MODEL      204
REMARK 921   NORMALIZED FREE ENERGY PREDICTED BY IDOCK:   -1.93 KCAL/MOL
REMARK 922        TOTAL FREE ENERGY PREDICTED BY IDOCK:   -2.46 KCAL/MOL
REMARK 923 INTER-LIGAND FREE ENERGY PREDICTED BY IDOCK:   -2.31 KCAL/MOL
REMARK 924 INTRA-LIGAND FREE ENERGY PREDICTED BY IDOCK:   -0.15 KCAL/MOL
REMARK 927      BINDING AFFINITY PREDICTED BY RF-SCORE:    0.00 PKD
ROOT
HETATM    1  N   UNL     1      -9.537   3.003  66.900  1.00  0.00    -0.410 NA 
HETATM    2  C   UNL     1      -8.642   4.145  66.746  1.00  0.00    -0.108 C  
HETATM    3  H1  UNL     1      -9.079   2.230  67.383  1.00  0.00     0.000 HD 
HETATM    4  H2  UNL     1      -9.920   2.707  66.002  1.00  0.00     0.000 HD 
ENDROOT
BRANCH   2   5
HETATM    5  C   UNL     1      -9.328   5.305  66.021  1.00  0.00    -0.167 C  
BRANCH   5   6
HETATM    6  C   UNL     1      -8.848   6.703  66.432  1.00  0.00    -0.151 C  
BRANCH   6   7
HETATM    7  C   UNL     1      -9.982   7.599  66.933  1.00  0.00    -0.325 C  
BRANCH   7   8
HETATM    8  C   UNL     1     -11.006   6.813  67.747  1.00  0.00    -0.321 C  
HETATM    9  C   UNL     1     -10.671   6.831  69.221  1.00  0.00    -0.253 C  
HETATM   10  O   UNL     1      -9.739   7.428  69.732  1.00  0.00    -0.169 OA 
HETATM   11  O   UNL     1     -11.541   6.097  69.954  1.00  0.00    -0.404 OA 
ENDBRANCH   7   8
ENDBRANCH   6   7
ENDBRANCH   5   6
ENDBRANCH   2   5
TORSDOF 4
ENDMDL
MODEL      205
REMARK 921   NORMALIZED FREE ENERGY PREDICTED BY IDOCK:   -1.91 KCAL/MOL
REMARK 922        TOTAL FREE ENERGY PREDICTED BY IDOCK:   -2.44 KCAL/MOL
REMARK 923 INTER-LIGAND FREE ENERGY PREDICTED BY IDOCK:   -2.31 KCAL/MOL
REMARK 924 INTRA-LIGAND FREE ENERGY PREDICTED BY IDOCK:   -0.13 KCAL/MOL
REMARK 927      BINDING AFFINITY PREDICTED BY RF-SCORE:    0.00 PKD
ROOT
HETATM    1  N   UNL     1      -7.552  18.502  67.172  1.00  0.00    -0.221 NA 
HETATM    2  C   UNL     1      -8.349  17.465  66.526  1.00  0.00    -0.273 C  
HETATM    3  H1  UNL     1      -7.403  19.300  66.554  1.00  0.00     0.000 HD 
HETATM    4  H2  UNL     1      -6.669  18.131  67.521  1.00  0.00     0.000 HD 
ENDROOT
BRANCH   2   5
HETATM    5  C   UNL     1      -8.573  16.268  67.453  1.00  0.00    -0.194 C  
BRANCH   5   6
HETATM    6  C   UNL     1      -7.876  14.971  67.020  1.00  0.00    -0.164 C  
BRANCH   6   7
HETATM    7  C   UNL     1      -8.848  13.803  66.844  1.00  0.00    -0.203 C  
BRANCH   7   8
HETATM    8  C   UNL     1     -10.260  14.170  67.294  1.00  0.00    -0.256 C  
HETATM    9  C   UNL     1     -11.262  13.985  66.177  1.00  0.00    -0.318 C  
HETATM   10  O   UNL     1     -11.014  13.553  65.064  1.00  0.00    -0.307 OA 
HETATM   11  O   UNL     1     -12.512  14.353  66.544  1.00  0.00    -0.376 OA 
ENDBRANCH   7   8
ENDBRANCH   6   7
ENDBRANCH   5   6
ENDBRANCH   2   5
TORSDOF 4
ENDMDL
MODEL      206
REMARK 921   NORMALIZED FREE ENERGY PREDICTED BY IDOCK:   -1.91 KCAL/MOL
REMARK 922        TOTAL FREE ENERGY PREDICTED BY IDOCK:   -2.44 KCAL/MOL
REMARK 923 INTER-LIGAND FREE ENERGY PREDICTED BY IDOCK:   -2.35 KCAL/MOL
REMARK 924 INTRA-LIGAND FREE ENERGY PREDICTED BY IDOCK:   -0.09 KCAL/MOL
REMARK 927      BINDING AFFINITY PREDICTED BY RF-SCORE:    0.00 PKD
ROOT
HETATM    1  N   UNL     1      -7.555   6.875  74.241  1.00  0.00    -0.106 NA 
HETATM    2  C   UNL     1      -8.147   8.199  74.089  1.00  0.00    -0.253 C  
HETATM    3  H1  UNL     1      -6.851   6.861  74.979  1.00  0.00     0.000 HD 
HETATM    4  H2  UNL     1      -7.177   6.531  73.358  1.00  0.00     0.000 HD 
ENDROOT
BRANCH   2   5
HETATM    5  C   UNL     1      -9.204   8.219  72.982  1.00  0.00    -0.316 C  
BRANCH   5   6
HETATM    6  C   UNL     1     -10.441   7.350  73.249  1.00  0.00    -0.424 C  
BRANCH   6   7
HETATM    7  C   UNL     1     -11.604   7.663  72.306  1.00  0.00    -0.370 C  
BRANCH   7   8
HETATM    8  C   UNL     1     -11.456   9.040  71.664  1.00  0.00    -0.431 C  
HETATM    9  C   UNL     1     -11.268   8.935  70.168  1.00  0.00    -0.160 C  
HETATM   10  O   UNL     1     -11.278   7.901  69.521  1.00  0.00    -0.052 OA 
HETATM   11  O   UNL     1     -11.085  10.144  69.587  1.00  0.00    -0.236 OA 
ENDBRANCH   7   8
ENDBRANCH   6   7
ENDBRANCH   5   6
ENDBRANCH   2   5
TORSDOF 4
ENDMDL
MODEL      207
REMARK 921   NORMALIZED FREE ENERGY PREDICTED BY IDOCK:   -1.89 KCAL/MOL
REMARK 922        TOTAL FREE ENERGY PREDICTED BY IDOCK:   -2.42 KCAL/MOL
REMARK 923 INTER-LIGAND FREE ENERGY PREDICTED BY IDOCK:   -2.32 KCAL/MOL
REMARK 924 INTRA-LIGAND FREE ENERGY PREDICTED BY IDOCK:   -0.09 KCAL/MOL
REMARK 927      BINDING AFFINITY PREDICTED BY RF-SCORE:    0.00 PKD
ROOT
HETATM    1  N   UNL     1      -9.196   7.442  66.816  1.00  0.00    -0.149 NA 
HETATM    2  C   UNL     1     -10.551   7.225  67.311  1.00  0.00    -0.325 C  
HETATM    3  H1  UNL     1      -9.116   8.328  66.317  1.00  0.00     0.000 HD 
HETATM    4  H2  UNL     1      -8.880   6.661  66.242  1.00  0.00     0.000 HD 
ENDROOT
BRANCH   2   5
HETATM    5  C   UNL     1     -10.671   5.896  68.060  1.00  0.00    -0.332 C  
BRANCH   5   6
HETATM    6  C   UNL     1      -9.715   5.733  69.250  1.00  0.00    -0.188 C  
BRANCH   6   7
HETATM    7  C   UNL     1     -10.390   5.117  70.476  1.00  0.00    -0.314 C  
BRANCH   7   8
HETATM    8  C   UNL     1     -10.934   6.187  71.419  1.00  0.00    -0.334 C  
HETATM    9  C   UNL     1     -10.246   6.141  72.764  1.00  0.00    -0.185 C  
HETATM   10  O   UNL     1      -9.335   5.390  73.071  1.00  0.00    -0.137 OA 
HETATM   11  O   UNL     1     -10.749   7.051  73.630  1.00  0.00    -0.362 OA 
ENDBRANCH   7   8
ENDBRANCH   6   7
ENDBRANCH   5   6
ENDBRANCH   2   5
TORSDOF 4
ENDMDL
MODEL      208
REMARK 921   NORMALIZED FREE ENERGY PREDICTED BY IDOCK:   -1.89 KCAL/MOL
REMARK 922        TOTAL FREE ENERGY PREDICTED BY IDOCK:   -2.41 KCAL/MOL
REMARK 923 INTER-LIGAND FREE ENERGY PREDICTED BY IDOCK:   -2.24 KCAL/MOL
REMARK 924 INTRA-LIGAND FREE ENERGY PREDICTED BY IDOCK:   -0.17 KCAL/MOL
REMARK 927      BINDING AFFINITY PREDICTED BY RF-SCORE:    0.00 PKD
ROOT
HETATM    1  N   UNL     1      -8.480   6.469  70.609  1.00  0.00    -0.133 NA 
HETATM    2  C   UNL     1      -9.666   7.305  70.453  1.00  0.00    -0.172 C  
HETATM    3  H1  UNL     1      -7.701   6.815  70.049  1.00  0.00     0.000 HD 
HETATM    4  H2  UNL     1      -8.683   5.491  70.402  1.00  0.00     0.000 HD 
ENDROOT
BRANCH   2   5
HETATM    5  C   UNL     1     -10.834   6.786  71.294  1.00  0.00    -0.266 C  
BRANCH   5   6
HETATM    6  C   UNL     1     -11.826   7.860  71.761  1.00  0.00    -0.333 C  
BRANCH   6   7
HETATM    7  C   UNL     1     -11.406   9.275  71.356  1.00  0.00    -0.434 C  
BRANCH   7   8
HETATM    8  C   UNL     1     -12.344   9.864  70.307  1.00  0.00    -0.073 C  
HETATM    9  C   UNL     1     -11.575  10.465  69.152  1.00  0.00    -0.164 C  
HETATM   10  O   UNL     1     -10.362  10.453  69.023  1.00  0.00    -0.189 OA 
HETATM   11  O   UNL     1     -12.389  11.037  68.235  1.00  0.00    -0.479 OA 
ENDBRANCH   7   8
ENDBRANCH   6   7
ENDBRANCH   5   6
ENDBRANCH   2   5
TORSDOF 4
ENDMDL
MODEL      209
REMARK 921   NORMALIZED FREE ENERGY PREDICTED BY IDOCK:   -1.89 KCAL/MOL
REMARK 922        TOTAL FREE ENERGY PREDICTED BY IDOCK:   -2.41 KCAL/MOL
REMARK 923 INTER-LIGAND FREE ENERGY PREDICTED BY IDOCK:   -2.23 KCAL/MOL
REMARK 924 INTRA-LIGAND FREE ENERGY PREDICTED BY IDOCK:   -0.18 KCAL/MOL
REMARK 927      BINDING AFFINITY PREDICTED BY RF-SCORE:    0.00 PKD
ROOT
HETATM    1  N   UNL     1     -10.458  11.031  69.723  1.00  0.00    -0.450 NA 
HETATM    2  C   UNL     1     -11.728  11.095  69.009  1.00  0.00    -0.339 C  
HETATM    3  H1  UNL     1     -10.301  10.109  70.128  1.00  0.00     0.000 HD 
HETATM    4  H2  UNL     1     -10.389  11.765  70.428  1.00  0.00     0.000 HD 
ENDROOT
BRANCH   2   5
HETATM    5  C   UNL     1     -11.963  12.479  68.401  1.00  0.00    -0.271 C  
BRANCH   5   6
HETATM    6  C   UNL     1     -10.882  13.521  68.719  1.00  0.00    -0.279 C  
BRANCH   6   7
HETATM    7  C   UNL     1     -10.155  14.026  67.472  1.00  0.00    -0.237 C  
BRANCH   7   8
HETATM    8  C   UNL     1      -9.085  13.042  67.004  1.00  0.00    -0.230 C  
HETATM    9  C   UNL     1      -7.719  13.421  67.528  1.00  0.00    -0.176 C  
HETATM   10  O   UNL     1      -7.477  14.357  68.271  1.00  0.00    -0.105 OA 
HETATM   11  O   UNL     1      -6.750  12.588  67.083  1.00  0.00    -0.144 OA 
ENDBRANCH   7   8
ENDBRANCH   6   7
ENDBRANCH   5   6
ENDBRANCH   2   5
TORSDOF 4
ENDMDL
MODEL      210
REMARK 921   NORMALIZED FREE ENERGY PREDICTED BY IDOCK:   -1.88 KCAL/MOL
REMARK 922        TOTAL FREE ENERGY PREDICTED BY IDOCK:   -2.40 KCAL/MOL
REMARK 923 INTER-LIGAND FREE ENERGY PREDICTED BY IDOCK:   -2.01 KCAL/MOL
REMARK 924 INTRA-LIGAND FREE ENERGY PREDICTED BY IDOCK:   -0.39 KCAL/MOL
REMARK 927      BINDING AFFINITY PREDICTED BY RF-SCORE:    0.00 PKD
ROOT
HETATM    1  N   UNL     1      -7.651   7.877  67.919  1.00  0.00    -0.107 NA 
HETATM    2  C   UNL     1      -7.746   9.020  68.820  1.00  0.00    -0.095 C  
HETATM    3  H1  UNL     1      -6.872   7.976  67.268  1.00  0.00     0.000 HD 
HETATM    4  H2  UNL     1      -8.530   7.716  67.427  1.00  0.00     0.000 HD 
ENDROOT
BRANCH   2   5
HETATM    5  C   UNL     1      -8.915   8.870  69.797  1.00  0.00    -0.149 C  
BRANCH   5   6
HETATM    6  C   UNL     1      -9.280   7.423  70.157  1.00  0.00    -0.151 C  
BRANCH   6   7
HETATM    7  C   UNL     1     -10.744   7.088  69.866  1.00  0.00    -0.265 C  
BRANCH   7   8
HETATM    8  C   UNL     1     -10.874   5.959  68.847  1.00  0.00    -0.373 C  
HETATM    9  C   UNL     1     -10.959   6.495  67.435  1.00  0.00    -0.378 C  
HETATM   10  O   UNL     1     -10.886   7.669  67.115  1.00  0.00    -0.317 OA 
HETATM   11  O   UNL     1     -11.124   5.510  66.522  1.00  0.00    -0.179 OA 
ENDBRANCH   7   8
ENDBRANCH   6   7
ENDBRANCH   5   6
ENDBRANCH   2   5
TORSDOF 4
ENDMDL
MODEL      211
REMARK 921   NORMALIZED FREE ENERGY PREDICTED BY IDOCK:   -1.86 KCAL/MOL
REMARK 922        TOTAL FREE ENERGY PREDICTED BY IDOCK:   -2.38 KCAL/MOL
REMARK 923 INTER-LIGAND FREE ENERGY PREDICTED BY IDOCK:   -2.32 KCAL/MOL
REMARK 924 INTRA-LIGAND FREE ENERGY PREDICTED BY IDOCK:   -0.07 KCAL/MOL
REMARK 927      BINDING AFFINITY PREDICTED BY RF-SCORE:    0.00 PKD
ROOT
HETATM    1  N   UNL     1     -11.656   7.620  71.564  1.00  0.00    -0.266 NA 
HETATM    2  C   UNL     1     -11.188   9.001  71.593  1.00  0.00    -0.361 C  
HETATM    3  H1  UNL     1     -11.266   7.075  72.332  1.00  0.00     0.000 HD 
HETATM    4  H2  UNL     1     -11.468   7.182  70.662  1.00  0.00     0.000 HD 
ENDROOT
BRANCH   2   5
HETATM    5  C   UNL     1     -11.776   9.819  70.441  1.00  0.00    -0.301 C  
BRANCH   5   6
HETATM    6  C   UNL     1     -10.741  10.501  69.534  1.00  0.00    -0.291 C  
BRANCH   6   7
HETATM    7  C   UNL     1     -10.871  10.087  68.067  1.00  0.00    -0.311 C  
BRANCH   7   8
HETATM    8  C   UNL     1      -9.523  10.118  67.351  1.00  0.00    -0.175 C  
HETATM    9  C   UNL     1      -9.660  10.639  65.938  1.00  0.00    -0.205 C  
HETATM   10  O   UNL     1     -10.692  11.038  65.425  1.00  0.00    -0.236 OA 
HETATM   11  O   UNL     1      -8.483  10.628  65.270  1.00  0.00    -0.169 OA 
ENDBRANCH   7   8
ENDBRANCH   6   7
ENDBRANCH   5   6
ENDBRANCH   2   5
TORSDOF 4
ENDMDL
MODEL      212
REMARK 921   NORMALIZED FREE ENERGY PREDICTED BY IDOCK:   -1.84 KCAL/MOL
REMARK 922        TOTAL FREE ENERGY PREDICTED BY IDOCK:   -2.35 KCAL/MOL
REMARK 923 INTER-LIGAND FREE ENERGY PREDICTED BY IDOCK:   -2.26 KCAL/MOL
REMARK 924 INTRA-LIGAND FREE ENERGY PREDICTED BY IDOCK:   -0.09 KCAL/MOL
REMARK 927      BINDING AFFINITY PREDICTED BY RF-SCORE:    0.00 PKD
ROOT
HETATM    1  N   UNL     1      -7.724   7.665  67.484  1.00  0.00    -0.115 NA 
HETATM    2  C   UNL     1      -8.209   6.579  66.641  1.00  0.00    -0.112 C  
HETATM    3  H1  UNL     1      -6.726   7.829  67.349  1.00  0.00     0.000 HD 
HETATM    4  H2  UNL     1      -7.945   7.502  68.467  1.00  0.00     0.000 HD 
ENDROOT
BRANCH   2   5
HETATM    5  C   UNL     1      -9.706   6.335  66.843  1.00  0.00    -0.184 C  
BRANCH   5   6
HETATM    6  C   UNL     1     -10.053   5.175  67.787  1.00  0.00    -0.197 C  
BRANCH   6   7
HETATM    7  C   UNL     1     -10.069   5.590  69.260  1.00  0.00    -0.293 C  
BRANCH   7   8
HETATM    8  C   UNL     1     -11.327   6.379  69.611  1.00  0.00    -0.479 C  
HETATM    9  C   UNL     1     -11.424   6.632  71.099  1.00  0.00    -0.320 C  
HETATM   10  O   UNL     1     -10.595   6.304  71.931  1.00  0.00    -0.209 OA 
HETATM   11  O   UNL     1     -12.559   7.289  71.434  1.00  0.00    -0.355 OA 
ENDBRANCH   7   8
ENDBRANCH   6   7
ENDBRANCH   5   6
ENDBRANCH   2   5
TORSDOF 4
ENDMDL
MODEL      213
REMARK 921   NORMALIZED FREE ENERGY PREDICTED BY IDOCK:   -1.84 KCAL/MOL
REMARK 922        TOTAL FREE ENERGY PREDICTED BY IDOCK:   -2.35 KCAL/MOL
REMARK 923 INTER-LIGAND FREE ENERGY PREDICTED BY IDOCK:   -2.29 KCAL/MOL
REMARK 924 INTRA-LIGAND FREE ENERGY PREDICTED BY IDOCK:   -0.07 KCAL/MOL
REMARK 927      BINDING AFFINITY PREDICTED BY RF-SCORE:    0.00 PKD
ROOT
HETATM    1  N   UNL     1      -6.273  16.329  69.730  1.00  0.00    -0.200 NA 
HETATM    2  C   UNL     1      -7.103  15.152  69.502  1.00  0.00    -0.195 C  
HETATM    3  H1  UNL     1      -5.721  16.239  70.584  1.00  0.00     0.000 HD 
HETATM    4  H2  UNL     1      -6.830  17.184  69.735  1.00  0.00     0.000 HD 
ENDROOT
BRANCH   2   5
HETATM    5  C   UNL     1      -7.930  15.287  68.221  1.00  0.00    -0.132 C  
BRANCH   5   6
HETATM    6  C   UNL     1      -9.335  15.875  68.414  1.00  0.00    -0.201 C  
BRANCH   6   7
HETATM    7  C   UNL     1     -10.429  14.806  68.441  1.00  0.00    -0.243 C  
BRANCH   7   8
HETATM    8  C   UNL     1     -10.601  14.139  67.079  1.00  0.00    -0.276 C  
HETATM    9  C   UNL     1     -11.552  12.966  67.154  1.00  0.00    -0.363 C  
HETATM   10  O   UNL     1     -12.157  12.604  68.149  1.00  0.00    -0.278 OA 
HETATM   11  O   UNL     1     -11.678  12.331  65.965  1.00  0.00    -0.399 OA 
ENDBRANCH   7   8
ENDBRANCH   6   7
ENDBRANCH   5   6
ENDBRANCH   2   5
TORSDOF 4
ENDMDL
MODEL      214
REMARK 921   NORMALIZED FREE ENERGY PREDICTED BY IDOCK:   -1.82 KCAL/MOL
REMARK 922        TOTAL FREE ENERGY PREDICTED BY IDOCK:   -2.33 KCAL/MOL
REMARK 923 INTER-LIGAND FREE ENERGY PREDICTED BY IDOCK:   -2.24 KCAL/MOL
REMARK 924 INTRA-LIGAND FREE ENERGY PREDICTED BY IDOCK:   -0.09 KCAL/MOL
REMARK 927      BINDING AFFINITY PREDICTED BY RF-SCORE:    0.00 PKD
ROOT
HETATM    1  N   UNL     1     -11.232   6.879  69.131  1.00  0.00    -0.506 NA 
HETATM    2  C   UNL     1     -10.334   8.016  69.297  1.00  0.00    -0.220 C  
HETATM    3  H1  UNL     1     -10.716   6.010  68.994  1.00  0.00     0.000 HD 
HETATM    4  H2  UNL     1     -11.900   7.038  68.376  1.00  0.00     0.000 HD 
ENDROOT
BRANCH   2   5
HETATM    5  C   UNL     1     -11.109   9.320  69.503  1.00  0.00    -0.099 C  
BRANCH   5   6
HETATM    6  C   UNL     1     -11.404  10.110  68.220  1.00  0.00    -0.183 C  
BRANCH   6   7
HETATM    7  C   UNL     1     -10.147  10.402  67.399  1.00  0.00    -0.237 C  
BRANCH   7   8
HETATM    8  C   UNL     1     -10.475  11.151  66.110  1.00  0.00    -0.307 C  
HETATM    9  C   UNL     1      -9.664  12.420  65.985  1.00  0.00    -0.244 C  
HETATM   10  O   UNL     1      -8.813  12.800  66.771  1.00  0.00    -0.212 OA 
HETATM   11  O   UNL     1      -9.978  13.122  64.871  1.00  0.00    -0.233 OA 
ENDBRANCH   7   8
ENDBRANCH   6   7
ENDBRANCH   5   6
ENDBRANCH   2   5
TORSDOF 4
ENDMDL
MODEL      215
REMARK 921   NORMALIZED FREE ENERGY PREDICTED BY IDOCK:   -1.82 KCAL/MOL
REMARK 922        TOTAL FREE ENERGY PREDICTED BY IDOCK:   -2.33 KCAL/MOL
REMARK 923 INTER-LIGAND FREE ENERGY PREDICTED BY IDOCK:   -2.19 KCAL/MOL
REMARK 924 INTRA-LIGAND FREE ENERGY PREDICTED BY IDOCK:   -0.14 KCAL/MOL
REMARK 927      BINDING AFFINITY PREDICTED BY RF-SCORE:    0.00 PKD
ROOT
HETATM    1  N   UNL     1      -6.537  16.830  69.641  1.00  0.00    -0.209 NA 
HETATM    2  C   UNL     1      -6.431  15.401  69.370  1.00  0.00    -0.148 C  
HETATM    3  H1  UNL     1      -6.257  17.053  70.597  1.00  0.00     0.000 HD 
HETATM    4  H2  UNL     1      -7.473  17.181  69.436  1.00  0.00     0.000 HD 
ENDROOT
BRANCH   2   5
HETATM    5  C   UNL     1      -6.851  15.068  67.936  1.00  0.00    -0.172 C  
BRANCH   5   6
HETATM    6  C   UNL     1      -6.969  16.276  66.997  1.00  0.00    -0.250 C  
BRANCH   6   7
HETATM    7  C   UNL     1      -8.236  16.242  66.139  1.00  0.00    -0.204 C  
BRANCH   7   8
HETATM    8  C   UNL     1      -9.490  16.487  66.974  1.00  0.00    -0.249 C  
HETATM    9  C   UNL     1      -9.782  17.964  67.113  1.00  0.00    -0.289 C  
HETATM   10  O   UNL     1      -9.145  18.866  66.596  1.00  0.00    -0.308 OA 
HETATM   11  O   UNL     1     -10.863  18.202  67.891  1.00  0.00    -0.363 OA 
ENDBRANCH   7   8
ENDBRANCH   6   7
ENDBRANCH   5   6
ENDBRANCH   2   5
TORSDOF 4
ENDMDL
MODEL      216
REMARK 921   NORMALIZED FREE ENERGY PREDICTED BY IDOCK:   -1.81 KCAL/MOL
REMARK 922        TOTAL FREE ENERGY PREDICTED BY IDOCK:   -2.31 KCAL/MOL
REMARK 923 INTER-LIGAND FREE ENERGY PREDICTED BY IDOCK:   -2.23 KCAL/MOL
REMARK 924 INTRA-LIGAND FREE ENERGY PREDICTED BY IDOCK:   -0.08 KCAL/MOL
REMARK 927      BINDING AFFINITY PREDICTED BY RF-SCORE:    0.00 PKD
ROOT
HETATM    1  N   UNL     1      -5.501  17.389  70.172  1.00  0.00    -0.234 NA 
HETATM    2  C   UNL     1      -6.094  16.263  69.459  1.00  0.00    -0.179 C  
HETATM    3  H1  UNL     1      -5.527  17.250  71.182  1.00  0.00     0.000 HD 
HETATM    4  H2  UNL     1      -5.940  18.271  69.906  1.00  0.00     0.000 HD 
ENDROOT
BRANCH   2   5
HETATM    5  C   UNL     1      -6.054  16.472  67.944  1.00  0.00    -0.143 C  
BRANCH   5   6
HETATM    6  C   UNL     1      -7.196  17.326  67.376  1.00  0.00    -0.183 C  
BRANCH   6   7
HETATM    7  C   UNL     1      -8.285  16.490  66.700  1.00  0.00    -0.306 C  
BRANCH   7   8
HETATM    8  C   UNL     1      -9.349  16.036  67.697  1.00  0.00    -0.214 C  
HETATM    9  C   UNL     1     -10.615  15.602  66.994  1.00  0.00    -0.311 C  
HETATM   10  O   UNL     1     -10.780  15.561  65.787  1.00  0.00    -0.326 OA 
HETATM   11  O   UNL     1     -11.588  15.243  67.865  1.00  0.00    -0.339 OA 
ENDBRANCH   7   8
ENDBRANCH   6   7
ENDBRANCH   5   6
ENDBRANCH   2   5
TORSDOF 4
ENDMDL
MODEL      217
REMARK 921   NORMALIZED FREE ENERGY PREDICTED BY IDOCK:   -1.79 KCAL/MOL
REMARK 922        TOTAL FREE ENERGY PREDICTED BY IDOCK:   -2.30 KCAL/MOL
REMARK 923 INTER-LIGAND FREE ENERGY PREDICTED BY IDOCK:   -2.22 KCAL/MOL
REMARK 924 INTRA-LIGAND FREE ENERGY PREDICTED BY IDOCK:   -0.08 KCAL/MOL
REMARK 927      BINDING AFFINITY PREDICTED BY RF-SCORE:    0.00 PKD
ROOT
HETATM    1  N   UNL     1     -11.515  13.585  69.059  1.00  0.00    -0.282 NA 
HETATM    2  C   UNL     1     -12.167  13.331  70.339  1.00  0.00    -0.332 C  
HETATM    3  H1  UNL     1     -11.376  14.583  68.900  1.00  0.00     0.000 HD 
HETATM    4  H2  UNL     1     -12.024  13.151  68.289  1.00  0.00     0.000 HD 
ENDROOT
BRANCH   2   5
HETATM    5  C   UNL     1     -12.373  11.834  70.578  1.00  0.00    -0.387 C  
BRANCH   5   6
HETATM    6  C   UNL     1     -11.959  10.926  69.412  1.00  0.00    -0.393 C  
BRANCH   6   7
HETATM    7  C   UNL     1     -10.652  10.177  69.675  1.00  0.00    -0.286 C  
BRANCH   7   8
HETATM    8  C   UNL     1     -10.062   9.602  68.390  1.00  0.00    -0.199 C  
HETATM    9  C   UNL     1      -8.696   9.000  68.630  1.00  0.00    -0.133 C  
HETATM   10  O   UNL     1      -8.132   8.923  69.708  1.00  0.00    -0.100 OA 
HETATM   11  O   UNL     1      -8.135   8.529  67.491  1.00  0.00    -0.105 OA 
ENDBRANCH   7   8
ENDBRANCH   6   7
ENDBRANCH   5   6
ENDBRANCH   2   5
TORSDOF 4
ENDMDL
MODEL      218
REMARK 921   NORMALIZED FREE ENERGY PREDICTED BY IDOCK:   -1.74 KCAL/MOL
REMARK 922        TOTAL FREE ENERGY PREDICTED BY IDOCK:   -2.23 KCAL/MOL
REMARK 923 INTER-LIGAND FREE ENERGY PREDICTED BY IDOCK:   -2.13 KCAL/MOL
REMARK 924 INTRA-LIGAND FREE ENERGY PREDICTED BY IDOCK:   -0.10 KCAL/MOL
REMARK 927      BINDING AFFINITY PREDICTED BY RF-SCORE:    0.00 PKD
ROOT
HETATM    1  N   UNL     1      -6.929   5.052  71.366  1.00  0.00    -0.047 NA 
HETATM    2  C   UNL     1      -7.858   6.129  71.693  1.00  0.00    -0.102 C  
HETATM    3  H1  UNL     1      -5.992   5.409  71.177  1.00  0.00     0.000 HD 
HETATM    4  H2  UNL     1      -7.274   4.484  70.593  1.00  0.00     0.000 HD 
ENDROOT
BRANCH   2   5
HETATM    5  C   UNL     1      -9.263   5.593  71.977  1.00  0.00    -0.155 C  
BRANCH   5   6
HETATM    6  C   UNL     1     -10.312   6.663  72.306  1.00  0.00    -0.219 C  
BRANCH   6   7
HETATM    7  C   UNL     1     -11.168   7.049  71.098  1.00  0.00    -0.304 C  
BRANCH   7   8
HETATM    8  C   UNL     1     -10.845   8.457  70.604  1.00  0.00    -0.256 C  
HETATM    9  C   UNL     1     -11.742   9.489  71.249  1.00  0.00    -0.370 C  
HETATM   10  O   UNL     1     -12.591   9.264  72.095  1.00  0.00    -0.374 OA 
HETATM   11  O   UNL     1     -11.503  10.738  70.786  1.00  0.00    -0.306 OA 
ENDBRANCH   7   8
ENDBRANCH   6   7
ENDBRANCH   5   6
ENDBRANCH   2   5
TORSDOF 4
ENDMDL
MODEL      219
REMARK 921   NORMALIZED FREE ENERGY PREDICTED BY IDOCK:   -1.73 KCAL/MOL
REMARK 922        TOTAL FREE ENERGY PREDICTED BY IDOCK:   -2.22 KCAL/MOL
REMARK 923 INTER-LIGAND FREE ENERGY PREDICTED BY IDOCK:   -1.80 KCAL/MOL
REMARK 924 INTRA-LIGAND FREE ENERGY PREDICTED BY IDOCK:   -0.42 KCAL/MOL
REMARK 927      BINDING AFFINITY PREDICTED BY RF-SCORE:    0.00 PKD
ROOT
HETATM    1  N   UNL     1      -9.185   8.367  66.910  1.00  0.00    -0.148 NA 
HETATM    2  C   UNL     1      -9.194   7.958  68.311  1.00  0.00    -0.137 C  
HETATM    3  H1  UNL     1      -8.300   8.803  66.652  1.00  0.00     0.000 HD 
HETATM    4  H2  UNL     1      -9.977   8.973  66.694  1.00  0.00     0.000 HD 
ENDROOT
BRANCH   2   5
HETATM    5  C   UNL     1     -10.521   7.303  68.697  1.00  0.00    -0.214 C  
BRANCH   5   6
HETATM    6  C   UNL     1     -11.130   6.387  67.626  1.00  0.00    -0.388 C  
BRANCH   6   7
HETATM    7  C   UNL     1     -10.339   5.093  67.429  1.00  0.00    -0.209 C  
BRANCH   7   8
HETATM    8  C   UNL     1     -10.353   4.639  65.972  1.00  0.00    -0.318 C  
HETATM    9  C   UNL     1      -9.089   5.051  65.252  1.00  0.00    -0.139 C  
HETATM   10  O   UNL     1      -8.140   5.628  65.756  1.00  0.00    -0.105 OA 
HETATM   11  O   UNL     1      -9.104   4.699  63.945  1.00  0.00    -0.140 OA 
ENDBRANCH   7   8
ENDBRANCH   6   7
ENDBRANCH   5   6
ENDBRANCH   2   5
TORSDOF 4
ENDMDL
MODEL      220
REMARK 921   NORMALIZED FREE ENERGY PREDICTED BY IDOCK:   -1.73 KCAL/MOL
REMARK 922        TOTAL FREE ENERGY PREDICTED BY IDOCK:   -2.22 KCAL/MOL
REMARK 923 INTER-LIGAND FREE ENERGY PREDICTED BY IDOCK:   -2.07 KCAL/MOL
REMARK 924 INTRA-LIGAND FREE ENERGY PREDICTED BY IDOCK:   -0.14 KCAL/MOL
REMARK 927      BINDING AFFINITY PREDICTED BY RF-SCORE:    0.00 PKD
ROOT
HETATM    1  N   UNL     1     -12.346  12.497  65.720  1.00  0.00    -0.626 NA 
HETATM    2  C   UNL     1     -11.050  11.827  65.706  1.00  0.00    -0.297 C  
HETATM    3  H1  UNL     1     -12.599  12.844  64.794  1.00  0.00     0.000 HD 
HETATM    4  H2  UNL     1     -12.375  13.240  66.417  1.00  0.00     0.000 HD 
ENDROOT
BRANCH   2   5
HETATM    5  C   UNL     1     -10.672  11.306  67.094  1.00  0.00    -0.297 C  
BRANCH   5   6
HETATM    6  C   UNL     1      -9.865  12.285  67.958  1.00  0.00    -0.204 C  
BRANCH   6   7
HETATM    7  C   UNL     1      -8.602  11.656  68.550  1.00  0.00    -0.134 C  
BRANCH   7   8
HETATM    8  C   UNL     1      -7.897  10.751  67.543  1.00  0.00    -0.109 C  
HETATM    9  C   UNL     1      -6.689  11.431  66.940  1.00  0.00    -0.145 C  
HETATM   10  O   UNL     1      -6.276  12.539  67.234  1.00  0.00    -0.156 OA 
HETATM   11  O   UNL     1      -6.079  10.661  66.008  1.00  0.00    -0.106 OA 
ENDBRANCH   7   8
ENDBRANCH   6   7
ENDBRANCH   5   6
ENDBRANCH   2   5
TORSDOF 4
ENDMDL
MODEL      221
REMARK 921   NORMALIZED FREE ENERGY PREDICTED BY IDOCK:   -1.73 KCAL/MOL
REMARK 922        TOTAL FREE ENERGY PREDICTED BY IDOCK:   -2.22 KCAL/MOL
REMARK 923 INTER-LIGAND FREE ENERGY PREDICTED BY IDOCK:   -2.01 KCAL/MOL
REMARK 924 INTRA-LIGAND FREE ENERGY PREDICTED BY IDOCK:   -0.20 KCAL/MOL
REMARK 927      BINDING AFFINITY PREDICTED BY RF-SCORE:    0.00 PKD
ROOT
HETATM    1  N   UNL     1      -7.877   7.230  70.153  1.00  0.00    -0.098 NA 
HETATM    2  C   UNL     1      -9.220   7.786  70.030  1.00  0.00    -0.153 C  
HETATM    3  H1  UNL     1      -7.179   7.837  69.723  1.00  0.00     0.000 HD 
HETATM    4  H2  UNL     1      -7.829   6.283  69.778  1.00  0.00     0.000 HD 
ENDROOT
BRANCH   2   5
HETATM    5  C   UNL     1     -10.267   6.875  70.675  1.00  0.00    -0.212 C  
BRANCH   5   6
HETATM    6  C   UNL     1     -11.179   6.132  69.689  1.00  0.00    -0.488 C  
BRANCH   6   7
HETATM    7  C   UNL     1     -10.963   6.564  68.238  1.00  0.00    -0.362 C  
BRANCH   7   8
HETATM    8  C   UNL     1     -10.384   5.433  67.392  1.00  0.00    -0.258 C  
HETATM    9  C   UNL     1      -9.373   5.950  66.394  1.00  0.00    -0.157 C  
HETATM   10  O   UNL     1      -9.009   7.109  66.288  1.00  0.00    -0.153 OA 
HETATM   11  O   UNL     1      -8.885   4.968  65.602  1.00  0.00    -0.133 OA 
ENDBRANCH   7   8
ENDBRANCH   6   7
ENDBRANCH   5   6
ENDBRANCH   2   5
TORSDOF 4
ENDMDL
MODEL      222
REMARK 921   NORMALIZED FREE ENERGY PREDICTED BY IDOCK:   -1.72 KCAL/MOL
REMARK 922        TOTAL FREE ENERGY PREDICTED BY IDOCK:   -2.21 KCAL/MOL
REMARK 923 INTER-LIGAND FREE ENERGY PREDICTED BY IDOCK:   -2.08 KCAL/MOL
REMARK 924 INTRA-LIGAND FREE ENERGY PREDICTED BY IDOCK:   -0.13 KCAL/MOL
REMARK 927      BINDING AFFINITY PREDICTED BY RF-SCORE:    0.00 PKD
ROOT
HETATM    1  N   UNL     1     -12.973   6.895  72.164  1.00  0.00    -0.549 NA 
HETATM    2  C   UNL     1     -11.636   6.476  71.760  1.00  0.00    -0.312 C  
HETATM    3  H1  UNL     1     -13.155   6.675  73.144  1.00  0.00     0.000 HD 
HETATM    4  H2  UNL     1     -13.688   6.499  71.554  1.00  0.00     0.000 HD 
ENDROOT
BRANCH   2   5
HETATM    5  C   UNL     1     -11.363   6.807  70.291  1.00  0.00    -0.404 C  
BRANCH   5   6
HETATM    6  C   UNL     1     -10.983   8.268  70.013  1.00  0.00    -0.197 C  
BRANCH   6   7
HETATM    7  C   UNL     1     -10.189   8.441  68.717  1.00  0.00    -0.223 C  
BRANCH   7   8
HETATM    8  C   UNL     1      -8.871   9.173  68.956  1.00  0.00    -0.139 C  
HETATM    9  C   UNL     1      -7.741   8.206  69.225  1.00  0.00    -0.104 C  
HETATM   10  O   UNL     1      -7.828   6.990  69.211  1.00  0.00    -0.109 OA 
HETATM   11  O   UNL     1      -6.574   8.840  69.487  1.00  0.00    -0.043 OA 
ENDBRANCH   7   8
ENDBRANCH   6   7
ENDBRANCH   5   6
ENDBRANCH   2   5
TORSDOF 4
ENDMDL
MODEL      223
REMARK 921   NORMALIZED FREE ENERGY PREDICTED BY IDOCK:   -1.69 KCAL/MOL
REMARK 922        TOTAL FREE ENERGY PREDICTED BY IDOCK:   -2.17 KCAL/MOL
REMARK 923 INTER-LIGAND FREE ENERGY PREDICTED BY IDOCK:   -1.99 KCAL/MOL
REMARK 924 INTRA-LIGAND FREE ENERGY PREDICTED BY IDOCK:   -0.18 KCAL/MOL
REMARK 927      BINDING AFFINITY PREDICTED BY RF-SCORE:    0.00 PKD
ROOT
HETATM    1  N   UNL     1      -8.956   7.885  66.941  1.00  0.00    -0.131 NA 
HETATM    2  C   UNL     1      -9.057   8.864  68.017  1.00  0.00    -0.139 C  
HETATM    3  H1  UNL     1      -8.197   8.110  66.298  1.00  0.00     0.000 HD 
HETATM    4  H2  UNL     1      -9.843   7.781  66.448  1.00  0.00     0.000 HD 
ENDROOT
BRANCH   2   5
HETATM    5  C   UNL     1     -10.196   8.526  68.981  1.00  0.00    -0.218 C  
BRANCH   5   6
HETATM    6  C   UNL     1     -10.933   9.738  69.567  1.00  0.00    -0.256 C  
BRANCH   6   7
HETATM    7  C   UNL     1     -11.576  10.620  68.495  1.00  0.00    -0.279 C  
BRANCH   7   8
HETATM    8  C   UNL     1     -10.894  11.983  68.402  1.00  0.00    -0.266 C  
HETATM    9  C   UNL     1     -10.321  12.221  67.023  1.00  0.00    -0.219 C  
HETATM   10  O   UNL     1     -10.417  11.464  66.073  1.00  0.00    -0.241 OA 
HETATM   11  O   UNL     1      -9.669  13.405  66.936  1.00  0.00    -0.238 OA 
ENDBRANCH   7   8
ENDBRANCH   6   7
ENDBRANCH   5   6
ENDBRANCH   2   5
TORSDOF 4
ENDMDL
MODEL      224
REMARK 921   NORMALIZED FREE ENERGY PREDICTED BY IDOCK:   -1.67 KCAL/MOL
REMARK 922        TOTAL FREE ENERGY PREDICTED BY IDOCK:   -2.14 KCAL/MOL
REMARK 923 INTER-LIGAND FREE ENERGY PREDICTED BY IDOCK:   -2.13 KCAL/MOL
REMARK 924 INTRA-LIGAND FREE ENERGY PREDICTED BY IDOCK:   -0.02 KCAL/MOL
REMARK 927      BINDING AFFINITY PREDICTED BY RF-SCORE:    0.00 PKD
ROOT
HETATM    1  N   UNL     1      -8.918  13.603  67.612  1.00  0.00    -0.191 NA 
HETATM    2  C   UNL     1      -7.689  14.301  67.975  1.00  0.00    -0.141 C  
HETATM    3  H1  UNL     1      -9.105  12.821  68.239  1.00  0.00     0.000 HD 
HETATM    4  H2  UNL     1      -8.902  13.303  66.637  1.00  0.00     0.000 HD 
ENDROOT
BRANCH   2   5
HETATM    5  C   UNL     1      -7.409  15.474  67.033  1.00  0.00    -0.172 C  
BRANCH   5   6
HETATM    6  C   UNL     1      -6.961  16.769  67.724  1.00  0.00    -0.151 C  
BRANCH   6   7
HETATM    7  C   UNL     1      -8.109  17.757  67.941  1.00  0.00    -0.235 C  
BRANCH   7   8
HETATM    8  C   UNL     1      -9.248  17.133  68.742  1.00  0.00    -0.249 C  
HETATM    9  C   UNL     1     -10.493  16.970  67.900  1.00  0.00    -0.354 C  
HETATM   10  O   UNL     1     -10.591  17.246  66.716  1.00  0.00    -0.286 OA 
HETATM   11  O   UNL     1     -11.529  16.464  68.608  1.00  0.00    -0.349 OA 
ENDBRANCH   7   8
ENDBRANCH   6   7
ENDBRANCH   5   6
ENDBRANCH   2   5
TORSDOF 4
ENDMDL
MODEL      225
REMARK 921   NORMALIZED FREE ENERGY PREDICTED BY IDOCK:   -1.66 KCAL/MOL
REMARK 922        TOTAL FREE ENERGY PREDICTED BY IDOCK:   -2.14 KCAL/MOL
REMARK 923 INTER-LIGAND FREE ENERGY PREDICTED BY IDOCK:   -2.07 KCAL/MOL
REMARK 924 INTRA-LIGAND FREE ENERGY PREDICTED BY IDOCK:   -0.07 KCAL/MOL
REMARK 927      BINDING AFFINITY PREDICTED BY RF-SCORE:    0.00 PKD
ROOT
HETATM    1  N   UNL     1      -6.409   4.715  73.443  1.00  0.00    -0.047 NA 
HETATM    2  C   UNL     1      -7.460   5.719  73.563  1.00  0.00    -0.091 C  
HETATM    3  H1  UNL     1      -5.531   5.126  73.129  1.00  0.00     0.000 HD 
HETATM    4  H2  UNL     1      -6.697   3.944  72.840  1.00  0.00     0.000 HD 
ENDROOT
BRANCH   2   5
HETATM    5  C   UNL     1      -8.778   5.101  74.036  1.00  0.00    -0.117 C  
BRANCH   5   6
HETATM    6  C   UNL     1      -9.962   6.074  74.111  1.00  0.00    -0.257 C  
BRANCH   6   7
HETATM    7  C   UNL     1     -10.345   6.653  72.747  1.00  0.00    -0.226 C  
BRANCH   7   8
HETATM    8  C   UNL     1     -11.613   7.499  72.828  1.00  0.00    -0.299 C  
HETATM    9  C   UNL     1     -11.458   8.801  72.074  1.00  0.00    -0.371 C  
HETATM   10  O   UNL     1     -10.478   9.138  71.432  1.00  0.00    -0.295 OA 
HETATM   11  O   UNL     1     -12.556   9.586  72.176  1.00  0.00    -0.370 OA 
ENDBRANCH   7   8
ENDBRANCH   6   7
ENDBRANCH   5   6
ENDBRANCH   2   5
TORSDOF 4
ENDMDL
MODEL      226
REMARK 921   NORMALIZED FREE ENERGY PREDICTED BY IDOCK:   -1.62 KCAL/MOL
REMARK 922        TOTAL FREE ENERGY PREDICTED BY IDOCK:   -2.09 KCAL/MOL
REMARK 923 INTER-LIGAND FREE ENERGY PREDICTED BY IDOCK:   -1.96 KCAL/MOL
REMARK 924 INTRA-LIGAND FREE ENERGY PREDICTED BY IDOCK:   -0.13 KCAL/MOL
REMARK 927      BINDING AFFINITY PREDICTED BY RF-SCORE:    0.00 PKD
ROOT
HETATM    1  N   UNL     1     -10.463  15.069  70.087  1.00  0.00    -0.488 NA 
HETATM    2  C   UNL     1     -11.221  14.456  69.001  1.00  0.00    -0.264 C  
HETATM    3  H1  UNL     1     -10.856  14.834  70.998  1.00  0.00     0.000 HD 
HETATM    4  H2  UNL     1     -10.386  16.079  69.963  1.00  0.00     0.000 HD 
ENDROOT
BRANCH   2   5
HETATM    5  C   UNL     1     -10.631  14.809  67.634  1.00  0.00    -0.262 C  
BRANCH   5   6
HETATM    6  C   UNL     1      -9.793  13.700  66.982  1.00  0.00    -0.251 C  
BRANCH   6   7
HETATM    7  C   UNL     1      -9.775  12.408  67.801  1.00  0.00    -0.201 C  
BRANCH   7   8
HETATM    8  C   UNL     1      -8.367  12.058  68.274  1.00  0.00    -0.163 C  
HETATM    9  C   UNL     1      -7.655  11.169  67.280  1.00  0.00    -0.126 C  
HETATM   10  O   UNL     1      -8.102  10.802  66.207  1.00  0.00    -0.149 OA 
HETATM   11  O   UNL     1      -6.422  10.807  67.706  1.00  0.00    -0.058 OA 
ENDBRANCH   7   8
ENDBRANCH   6   7
ENDBRANCH   5   6
ENDBRANCH   2   5
TORSDOF 4
ENDMDL
MODEL      227
REMARK 921   NORMALIZED FREE ENERGY PREDICTED BY IDOCK:   -1.61 KCAL/MOL
REMARK 922        TOTAL FREE ENERGY PREDICTED BY IDOCK:   -2.08 KCAL/MOL
REMARK 923 INTER-LIGAND FREE ENERGY PREDICTED BY IDOCK:   -1.90 KCAL/MOL
REMARK 924 INTRA-LIGAND FREE ENERGY PREDICTED BY IDOCK:   -0.17 KCAL/MOL
REMARK 927      BINDING AFFINITY PREDICTED BY RF-SCORE:    0.00 PKD
ROOT
HETATM    1  N   UNL     1      -9.251  11.063  69.158  1.00  0.00    -0.389 NA 
HETATM    2  C   UNL     1      -9.489  12.073  68.133  1.00  0.00    -0.200 C  
HETATM    3  H1  UNL     1      -9.627  11.350  70.062  1.00  0.00     0.000 HD 
HETATM    4  H2  UNL     1      -8.261  10.825  69.225  1.00  0.00     0.000 HD 
ENDROOT
BRANCH   2   5
HETATM    5  C   UNL     1      -8.925  11.642  66.777  1.00  0.00    -0.189 C  
BRANCH   5   6
HETATM    6  C   UNL     1      -8.206  10.287  66.774  1.00  0.00    -0.124 C  
BRANCH   6   7
HETATM    7  C   UNL     1      -8.869   9.263  65.850  1.00  0.00    -0.199 C  
BRANCH   7   8
HETATM    8  C   UNL     1      -9.974   8.489  66.564  1.00  0.00    -0.350 C  
HETATM    9  C   UNL     1      -9.544   7.075  66.881  1.00  0.00    -0.168 C  
HETATM   10  O   UNL     1      -8.445   6.599  66.652  1.00  0.00    -0.113 OA 
HETATM   11  O   UNL     1     -10.529   6.359  67.470  1.00  0.00    -0.169 OA 
ENDBRANCH   7   8
ENDBRANCH   6   7
ENDBRANCH   5   6
ENDBRANCH   2   5
TORSDOF 4
ENDMDL
MODEL      228
REMARK 921   NORMALIZED FREE ENERGY PREDICTED BY IDOCK:   -1.61 KCAL/MOL
REMARK 922        TOTAL FREE ENERGY PREDICTED BY IDOCK:   -2.07 KCAL/MOL
REMARK 923 INTER-LIGAND FREE ENERGY PREDICTED BY IDOCK:   -2.00 KCAL/MOL
REMARK 924 INTRA-LIGAND FREE ENERGY PREDICTED BY IDOCK:   -0.08 KCAL/MOL
REMARK 927      BINDING AFFINITY PREDICTED BY RF-SCORE:    0.00 PKD
ROOT
HETATM    1  N   UNL     1     -11.248   4.150  64.817  1.00  0.00    -0.940 NA 
HETATM    2  C   UNL     1     -10.202   4.741  65.645  1.00  0.00    -0.188 C  
HETATM    3  H1  UNL     1     -10.878   3.815  63.928  1.00  0.00     0.000 HD 
HETATM    4  H2  UNL     1     -12.024   4.797  64.679  1.00  0.00     0.000 HD 
ENDROOT
BRANCH   2   5
HETATM    5  C   UNL     1     -10.757   5.243  66.980  1.00  0.00    -0.172 C  
BRANCH   5   6
HETATM    6  C   UNL     1      -9.705   5.787  67.957  1.00  0.00    -0.142 C  
BRANCH   6   7
HETATM    7  C   UNL     1      -9.642   4.996  69.265  1.00  0.00    -0.230 C  
BRANCH   7   8
HETATM    8  C   UNL     1      -8.401   4.109  69.329  1.00  0.00    -0.083 C  
HETATM    9  C   UNL     1      -8.554   3.020  70.366  1.00  0.00    -0.063 C  
HETATM   10  O   UNL     1      -9.546   2.818  71.045  1.00  0.00    -0.149 OA 
HETATM   11  O   UNL     1      -7.443   2.253  70.472  1.00  0.00    -0.033 OA 
ENDBRANCH   7   8
ENDBRANCH   6   7
ENDBRANCH   5   6
ENDBRANCH   2   5
TORSDOF 4
ENDMDL
MODEL      229
REMARK 921   NORMALIZED FREE ENERGY PREDICTED BY IDOCK:   -1.61 KCAL/MOL
REMARK 922        TOTAL FREE ENERGY PREDICTED BY IDOCK:   -2.07 KCAL/MOL
REMARK 923 INTER-LIGAND FREE ENERGY PREDICTED BY IDOCK:   -1.98 KCAL/MOL
REMARK 924 INTRA-LIGAND FREE ENERGY PREDICTED BY IDOCK:   -0.09 KCAL/MOL
REMARK 927      BINDING AFFINITY PREDICTED BY RF-SCORE:    0.00 PKD
ROOT
HETATM    1  N   UNL     1      -7.373   3.341  73.109  1.00  0.00    -0.049 NA 
HETATM    2  C   UNL     1      -7.840   4.713  73.275  1.00  0.00    -0.096 C  
HETATM    3  H1  UNL     1      -6.592   3.133  73.731  1.00  0.00     0.000 HD 
HETATM    4  H2  UNL     1      -7.138   3.143  72.136  1.00  0.00     0.000 HD 
ENDROOT
BRANCH   2   5
HETATM    5  C   UNL     1      -9.013   5.025  72.342  1.00  0.00    -0.139 C  
BRANCH   5   6
HETATM    6  C   UNL     1     -10.403   4.891  72.979  1.00  0.00    -0.234 C  
BRANCH   6   7
HETATM    7  C   UNL     1     -11.454   5.776  72.306  1.00  0.00    -0.320 C  
BRANCH   7   8
HETATM    8  C   UNL     1     -10.822   6.997  71.641  1.00  0.00    -0.249 C  
HETATM    9  C   UNL     1     -11.013   6.970  70.141  1.00  0.00    -0.272 C  
HETATM   10  O   UNL     1     -11.630   6.122  69.519  1.00  0.00    -0.396 OA 
HETATM   11  O   UNL     1     -10.417   8.020  69.529  1.00  0.00    -0.222 OA 
ENDBRANCH   7   8
ENDBRANCH   6   7
ENDBRANCH   5   6
ENDBRANCH   2   5
TORSDOF 4
ENDMDL
MODEL      230
REMARK 921   NORMALIZED FREE ENERGY PREDICTED BY IDOCK:   -1.60 KCAL/MOL
REMARK 922        TOTAL FREE ENERGY PREDICTED BY IDOCK:   -2.06 KCAL/MOL
REMARK 923 INTER-LIGAND FREE ENERGY PREDICTED BY IDOCK:   -1.90 KCAL/MOL
REMARK 924 INTRA-LIGAND FREE ENERGY PREDICTED BY IDOCK:   -0.16 KCAL/MOL
REMARK 927      BINDING AFFINITY PREDICTED BY RF-SCORE:    0.00 PKD
ROOT
HETATM    1  N   UNL     1      -7.553   7.107  67.609  1.00  0.00    -0.108 NA 
HETATM    2  C   UNL     1      -7.772   8.359  68.325  1.00  0.00    -0.106 C  
HETATM    3  H1  UNL     1      -7.036   7.256  66.743  1.00  0.00     0.000 HD 
HETATM    4  H2  UNL     1      -8.431   6.616  67.439  1.00  0.00     0.000 HD 
ENDROOT
BRANCH   2   5
HETATM    5  C   UNL     1      -8.549   8.135  69.625  1.00  0.00    -0.131 C  
BRANCH   5   6
HETATM    6  C   UNL     1      -8.586   6.682  70.118  1.00  0.00    -0.140 C  
BRANCH   6   7
HETATM    7  C   UNL     1      -9.999   6.097  70.140  1.00  0.00    -0.218 C  
BRANCH   7   8
HETATM    8  C   UNL     1     -11.048   7.163  70.445  1.00  0.00    -0.309 C  
HETATM    9  C   UNL     1     -11.681   6.945  71.800  1.00  0.00    -0.302 C  
HETATM   10  O   UNL     1     -11.380   6.069  72.593  1.00  0.00    -0.276 OA 
HETATM   11  O   UNL     1     -12.649   7.853  72.067  1.00  0.00    -0.312 OA 
ENDBRANCH   7   8
ENDBRANCH   6   7
ENDBRANCH   5   6
ENDBRANCH   2   5
TORSDOF 4
ENDMDL
MODEL      231
REMARK 921   NORMALIZED FREE ENERGY PREDICTED BY IDOCK:   -1.58 KCAL/MOL
REMARK 922        TOTAL FREE ENERGY PREDICTED BY IDOCK:   -2.04 KCAL/MOL
REMARK 923 INTER-LIGAND FREE ENERGY PREDICTED BY IDOCK:   -2.01 KCAL/MOL
REMARK 924 INTRA-LIGAND FREE ENERGY PREDICTED BY IDOCK:   -0.03 KCAL/MOL
REMARK 927      BINDING AFFINITY PREDICTED BY RF-SCORE:    0.00 PKD
ROOT
HETATM    1  N   UNL     1      -9.978   8.183  66.308  1.00  0.00    -0.469 NA 
HETATM    2  C   UNL     1      -9.856   7.477  67.578  1.00  0.00    -0.162 C  
HETATM    3  H1  UNL     1     -10.783   7.857  65.773  1.00  0.00     0.000 HD 
HETATM    4  H2  UNL     1      -9.118   8.121  65.762  1.00  0.00     0.000 HD 
ENDROOT
BRANCH   2   5
HETATM    5  C   UNL     1      -8.648   7.966  68.381  1.00  0.00    -0.128 C  
BRANCH   5   6
HETATM    6  C   UNL     1      -8.716   7.691  69.889  1.00  0.00    -0.139 C  
BRANCH   6   7
HETATM    7  C   UNL     1      -9.783   8.525  70.600  1.00  0.00    -0.207 C  
BRANCH   7   8
HETATM    8  C   UNL     1     -11.015   7.691  70.943  1.00  0.00    -0.261 C  
HETATM    9  C   UNL     1     -10.854   6.987  72.271  1.00  0.00    -0.230 C  
HETATM   10  O   UNL     1      -9.896   7.090  73.019  1.00  0.00    -0.166 OA 
HETATM   11  O   UNL     1     -11.917   6.204  72.569  1.00  0.00    -0.244 OA 
ENDBRANCH   7   8
ENDBRANCH   6   7
ENDBRANCH   5   6
ENDBRANCH   2   5
TORSDOF 4
ENDMDL
MODEL      232
REMARK 921   NORMALIZED FREE ENERGY PREDICTED BY IDOCK:   -1.58 KCAL/MOL
REMARK 922        TOTAL FREE ENERGY PREDICTED BY IDOCK:   -2.04 KCAL/MOL
REMARK 923 INTER-LIGAND FREE ENERGY PREDICTED BY IDOCK:   -1.86 KCAL/MOL
REMARK 924 INTRA-LIGAND FREE ENERGY PREDICTED BY IDOCK:   -0.17 KCAL/MOL
REMARK 927      BINDING AFFINITY PREDICTED BY RF-SCORE:    0.00 PKD
ROOT
HETATM    1  N   UNL     1     -11.446   4.276  64.927  1.00  0.00    -1.013 NA 
HETATM    2  C   UNL     1     -10.116   4.434  65.507  1.00  0.00    -0.236 C  
HETATM    3  H1  UNL     1     -11.445   4.474  63.927  1.00  0.00     0.000 HD 
HETATM    4  H2  UNL     1     -12.137   4.843  65.419  1.00  0.00     0.000 HD 
ENDROOT
BRANCH   2   5
HETATM    5  C   UNL     1     -10.118   4.137  67.008  1.00  0.00     0.004 C  
BRANCH   5   6
HETATM    6  C   UNL     1     -10.357   5.354  67.911  1.00  0.00    -0.222 C  
BRANCH   6   7
HETATM    7  C   UNL     1      -9.331   6.468  67.693  1.00  0.00    -0.118 C  
BRANCH   7   8
HETATM    8  C   UNL     1      -8.391   6.614  68.887  1.00  0.00    -0.120 C  
HETATM    9  C   UNL     1      -7.027   6.033  68.590  1.00  0.00    -0.076 C  
HETATM   10  O   UNL     1      -6.676   5.549  67.528  1.00  0.00    -0.055 OA 
HETATM   11  O   UNL     1      -6.195   6.109  69.655  1.00  0.00    -0.028 OA 
ENDBRANCH   7   8
ENDBRANCH   6   7
ENDBRANCH   5   6
ENDBRANCH   2   5
TORSDOF 4
ENDMDL
MODEL      233
REMARK 921   NORMALIZED FREE ENERGY PREDICTED BY IDOCK:   -1.57 KCAL/MOL
REMARK 922        TOTAL FREE ENERGY PREDICTED BY IDOCK:   -2.02 KCAL/MOL
REMARK 923 INTER-LIGAND FREE ENERGY PREDICTED BY IDOCK:   -1.83 KCAL/MOL
REMARK 924 INTRA-LIGAND FREE ENERGY PREDICTED BY IDOCK:   -0.19 KCAL/MOL
REMARK 927      BINDING AFFINITY PREDICTED BY RF-SCORE:    0.00 PKD
ROOT
HETATM    1  N   UNL     1     -10.907   6.614  72.953  1.00  0.00    -0.250 NA 
HETATM    2  C   UNL     1      -9.786   6.000  73.657  1.00  0.00    -0.178 C  
HETATM    3  H1  UNL     1     -11.371   7.317  73.528  1.00  0.00     0.000 HD 
HETATM    4  H2  UNL     1     -11.566   5.912  72.618  1.00  0.00     0.000 HD 
ENDROOT
BRANCH   2   5
HETATM    5  C   UNL     1      -9.089   4.946  72.793  1.00  0.00    -0.135 C  
BRANCH   5   6
HETATM    6  C   UNL     1     -10.030   4.054  71.972  1.00  0.00    -0.246 C  
BRANCH   6   7
HETATM    7  C   UNL     1      -9.777   4.149  70.466  1.00  0.00    -0.270 C  
BRANCH   7   8
HETATM    8  C   UNL     1     -10.573   5.285  69.829  1.00  0.00    -0.283 C  
HETATM    9  C   UNL     1      -9.668   6.404  69.367  1.00  0.00    -0.145 C  
HETATM   10  O   UNL     1      -8.451   6.407  69.434  1.00  0.00    -0.124 OA 
HETATM   11  O   UNL     1     -10.362   7.442  68.844  1.00  0.00    -0.198 OA 
ENDBRANCH   7   8
ENDBRANCH   6   7
ENDBRANCH   5   6
ENDBRANCH   2   5
TORSDOF 4
ENDMDL
MODEL      234
REMARK 921   NORMALIZED FREE ENERGY PREDICTED BY IDOCK:   -1.56 KCAL/MOL
REMARK 922        TOTAL FREE ENERGY PREDICTED BY IDOCK:   -2.01 KCAL/MOL
REMARK 923 INTER-LIGAND FREE ENERGY PREDICTED BY IDOCK:   -1.92 KCAL/MOL
REMARK 924 INTRA-LIGAND FREE ENERGY PREDICTED BY IDOCK:   -0.08 KCAL/MOL
REMARK 927      BINDING AFFINITY PREDICTED BY RF-SCORE:    0.00 PKD
ROOT
HETATM    1  N   UNL     1      -8.792  11.594  68.985  1.00  0.00    -0.373 NA 
HETATM    2  C   UNL     1      -8.066  10.345  69.190  1.00  0.00    -0.151 C  
HETATM    3  H1  UNL     1      -8.868  12.130  69.849  1.00  0.00     0.000 HD 
HETATM    4  H2  UNL     1      -9.709  11.428  68.569  1.00  0.00     0.000 HD 
ENDROOT
BRANCH   2   5
HETATM    5  C   UNL     1      -7.953   9.541  67.893  1.00  0.00    -0.098 C  
BRANCH   5   6
HETATM    6  C   UNL     1      -9.010   8.443  67.716  1.00  0.00    -0.140 C  
BRANCH   6   7
HETATM    7  C   UNL     1      -9.978   8.728  66.566  1.00  0.00    -0.360 C  
BRANCH   7   8
HETATM    8  C   UNL     1      -9.495   9.884  65.694  1.00  0.00    -0.295 C  
HETATM    9  C   UNL     1      -8.641   9.392  64.547  1.00  0.00    -0.198 C  
HETATM   10  O   UNL     1      -8.393   8.225  64.296  1.00  0.00    -0.147 OA 
HETATM   11  O   UNL     1      -8.163  10.408  63.791  1.00  0.00    -0.161 OA 
ENDBRANCH   7   8
ENDBRANCH   6   7
ENDBRANCH   5   6
ENDBRANCH   2   5
TORSDOF 4
ENDMDL
MODEL      235
REMARK 921   NORMALIZED FREE ENERGY PREDICTED BY IDOCK:   -1.54 KCAL/MOL
REMARK 922        TOTAL FREE ENERGY PREDICTED BY IDOCK:   -1.98 KCAL/MOL
REMARK 923 INTER-LIGAND FREE ENERGY PREDICTED BY IDOCK:   -1.92 KCAL/MOL
REMARK 924 INTRA-LIGAND FREE ENERGY PREDICTED BY IDOCK:   -0.06 KCAL/MOL
REMARK 927      BINDING AFFINITY PREDICTED BY RF-SCORE:    0.00 PKD
ROOT
HETATM    1  N   UNL     1     -11.518   6.647  68.405  1.00  0.00    -0.545 NA 
HETATM    2  C   UNL     1     -10.482   5.632  68.564  1.00  0.00    -0.203 C  
HETATM    3  H1  UNL     1     -12.111   6.455  67.597  1.00  0.00     0.000 HD 
HETATM    4  H2  UNL     1     -11.118   7.584  68.359  1.00  0.00     0.000 HD 
ENDROOT
BRANCH   2   5
HETATM    5  C   UNL     1      -9.593   5.920  69.776  1.00  0.00    -0.189 C  
BRANCH   5   6
HETATM    6  C   UNL     1      -8.367   6.796  69.488  1.00  0.00    -0.132 C  
BRANCH   6   7
HETATM    7  C   UNL     1      -8.664   8.293  69.600  1.00  0.00    -0.138 C  
BRANCH   7   8
HETATM    8  C   UNL     1      -7.631   9.011  70.464  1.00  0.00    -0.113 C  
HETATM    9  C   UNL     1      -7.267  10.360  69.885  1.00  0.00    -0.153 C  
HETATM   10  O   UNL     1      -7.755  10.859  68.886  1.00  0.00    -0.118 OA 
HETATM   11  O   UNL     1      -6.316  10.990  70.612  1.00  0.00    -0.333 OA 
ENDBRANCH   7   8
ENDBRANCH   6   7
ENDBRANCH   5   6
ENDBRANCH   2   5
TORSDOF 4
ENDMDL
MODEL      236
REMARK 921   NORMALIZED FREE ENERGY PREDICTED BY IDOCK:   -1.51 KCAL/MOL
REMARK 922        TOTAL FREE ENERGY PREDICTED BY IDOCK:   -1.95 KCAL/MOL
REMARK 923 INTER-LIGAND FREE ENERGY PREDICTED BY IDOCK:   -2.08 KCAL/MOL
REMARK 924 INTRA-LIGAND FREE ENERGY PREDICTED BY IDOCK:    0.13 KCAL/MOL
REMARK 927      BINDING AFFINITY PREDICTED BY RF-SCORE:    0.00 PKD
ROOT
HETATM    1  N   UNL     1     -11.668   6.625  69.131  1.00  0.00    -0.589 NA 
HETATM    2  C   UNL     1     -10.715   5.869  69.936  1.00  0.00    -0.336 C  
HETATM    3  H1  UNL     1     -11.500   6.499  68.133  1.00  0.00     0.000 HD 
HETATM    4  H2  UNL     1     -11.671   7.613  69.387  1.00  0.00     0.000 HD 
ENDROOT
BRANCH   2   5
HETATM    5  C   UNL     1     -10.968   6.058  71.433  1.00  0.00    -0.336 C  
BRANCH   5   6
HETATM    6  C   UNL     1     -10.187   7.208  72.084  1.00  0.00    -0.207 C  
BRANCH   6   7
HETATM    7  C   UNL     1      -9.712   8.253  71.073  1.00  0.00    -0.201 C  
BRANCH   7   8
HETATM    8  C   UNL     1      -8.239   8.069  70.718  1.00  0.00    -0.113 C  
HETATM    9  C   UNL     1      -7.980   8.365  69.259  1.00  0.00    -0.113 C  
HETATM   10  O   UNL     1      -8.810   8.753  68.454  1.00  0.00    -0.137 OA 
HETATM   11  O   UNL     1      -6.687   8.160  68.915  1.00  0.00    -0.047 OA 
ENDBRANCH   7   8
ENDBRANCH   6   7
ENDBRANCH   5   6
ENDBRANCH   2   5
TORSDOF 4
ENDMDL
MODEL      237
REMARK 921   NORMALIZED FREE ENERGY PREDICTED BY IDOCK:   -1.51 KCAL/MOL
REMARK 922        TOTAL FREE ENERGY PREDICTED BY IDOCK:   -1.94 KCAL/MOL
REMARK 923 INTER-LIGAND FREE ENERGY PREDICTED BY IDOCK:   -1.85 KCAL/MOL
REMARK 924 INTRA-LIGAND FREE ENERGY PREDICTED BY IDOCK:   -0.10 KCAL/MOL
REMARK 927      BINDING AFFINITY PREDICTED BY RF-SCORE:    0.00 PKD
ROOT
HETATM    1  N   UNL     1     -11.348   6.574  69.012  1.00  0.00    -0.585 NA 
HETATM    2  C   UNL     1     -10.188   5.985  69.673  1.00  0.00    -0.208 C  
HETATM    3  H1  UNL     1     -11.132   6.857  68.057  1.00  0.00     0.000 HD 
HETATM    4  H2  UNL     1     -11.732   7.349  69.554  1.00  0.00     0.000 HD 
ENDROOT
BRANCH   2   5
HETATM    5  C   UNL     1     -10.513   5.559  71.106  1.00  0.00    -0.304 C  
BRANCH   5   6
HETATM    6  C   UNL     1      -9.895   6.439  72.201  1.00  0.00    -0.170 C  
BRANCH   6   7
HETATM    7  C   UNL     1      -8.655   7.198  71.726  1.00  0.00    -0.119 C  
BRANCH   7   8
HETATM    8  C   UNL     1      -8.102   8.115  72.814  1.00  0.00    -0.221 C  
HETATM    9  C   UNL     1      -6.593   8.047  72.880  1.00  0.00    -0.081 C  
HETATM   10  O   UNL     1      -5.878   7.392  72.141  1.00  0.00    -0.037 OA 
HETATM   11  O   UNL     1      -6.088   8.817  73.872  1.00  0.00    -0.120 OA 
ENDBRANCH   7   8
ENDBRANCH   6   7
ENDBRANCH   5   6
ENDBRANCH   2   5
TORSDOF 4
ENDMDL
MODEL      238
REMARK 921   NORMALIZED FREE ENERGY PREDICTED BY IDOCK:   -1.50 KCAL/MOL
REMARK 922        TOTAL FREE ENERGY PREDICTED BY IDOCK:   -1.94 KCAL/MOL
REMARK 923 INTER-LIGAND FREE ENERGY PREDICTED BY IDOCK:   -1.72 KCAL/MOL
REMARK 924 INTRA-LIGAND FREE ENERGY PREDICTED BY IDOCK:   -0.21 KCAL/MOL
REMARK 927      BINDING AFFINITY PREDICTED BY RF-SCORE:    0.00 PKD
ROOT
HETATM    1  N   UNL     1     -11.231   6.878  69.130  1.00  0.00    -0.506 NA 
HETATM    2  C   UNL     1     -10.328   8.011  69.297  1.00  0.00    -0.220 C  
HETATM    3  H1  UNL     1     -10.719   6.006  68.998  1.00  0.00     0.000 HD 
HETATM    4  H2  UNL     1     -11.895   7.039  68.372  1.00  0.00     0.000 HD 
ENDROOT
BRANCH   2   5
HETATM    5  C   UNL     1     -11.097   9.320  69.496  1.00  0.00    -0.099 C  
BRANCH   5   6
HETATM    6  C   UNL     1     -11.378  10.110  68.210  1.00  0.00    -0.183 C  
BRANCH   6   7
HETATM    7  C   UNL     1     -10.114  10.393  67.397  1.00  0.00    -0.237 C  
BRANCH   7   8
HETATM    8  C   UNL     1      -9.191  11.378  68.110  1.00  0.00    -0.178 C  
HETATM    9  C   UNL     1      -7.792  10.823  68.251  1.00  0.00    -0.115 C  
HETATM   10  O   UNL     1      -7.406   9.751  67.818  1.00  0.00    -0.088 OA 
HETATM   11  O   UNL     1      -6.973  11.663  68.925  1.00  0.00    -0.094 OA 
ENDBRANCH   7   8
ENDBRANCH   6   7
ENDBRANCH   5   6
ENDBRANCH   2   5
TORSDOF 4
ENDMDL
MODEL      239
REMARK 921   NORMALIZED FREE ENERGY PREDICTED BY IDOCK:   -1.47 KCAL/MOL
REMARK 922        TOTAL FREE ENERGY PREDICTED BY IDOCK:   -1.90 KCAL/MOL
REMARK 923 INTER-LIGAND FREE ENERGY PREDICTED BY IDOCK:   -1.58 KCAL/MOL
REMARK 924 INTRA-LIGAND FREE ENERGY PREDICTED BY IDOCK:   -0.32 KCAL/MOL
REMARK 927      BINDING AFFINITY PREDICTED BY RF-SCORE:    0.00 PKD
ROOT
HETATM    1  N   UNL     1      -6.801   7.782  67.891  1.00  0.00    -0.067 NA 
HETATM    2  C   UNL     1      -7.181   6.499  67.310  1.00  0.00    -0.078 C  
HETATM    3  H1  UNL     1      -6.232   8.332  67.247  1.00  0.00     0.000 HD 
HETATM    4  H2  UNL     1      -6.335   7.660  68.790  1.00  0.00     0.000 HD 
ENDROOT
BRANCH   2   5
HETATM    5  C   UNL     1      -8.035   5.674  68.276  1.00  0.00    -0.100 C  
BRANCH   5   6
HETATM    6  C   UNL     1      -8.607   6.456  69.467  1.00  0.00    -0.133 C  
BRANCH   6   7
HETATM    7  C   UNL     1     -10.116   6.682  69.362  1.00  0.00    -0.192 C  
BRANCH   7   8
HETATM    8  C   UNL     1     -10.453   8.151  69.123  1.00  0.00    -0.217 C  
HETATM    9  C   UNL     1     -10.649   8.442  67.653  1.00  0.00    -0.195 C  
HETATM   10  O   UNL     1     -10.601   7.620  66.753  1.00  0.00    -0.325 OA 
HETATM   11  O   UNL     1     -10.900   9.751  67.417  1.00  0.00    -0.274 OA 
ENDBRANCH   7   8
ENDBRANCH   6   7
ENDBRANCH   5   6
ENDBRANCH   2   5
TORSDOF 4
ENDMDL
MODEL      240
REMARK 921   NORMALIZED FREE ENERGY PREDICTED BY IDOCK:   -1.44 KCAL/MOL
REMARK 922        TOTAL FREE ENERGY PREDICTED BY IDOCK:   -1.86 KCAL/MOL
REMARK 923 INTER-LIGAND FREE ENERGY PREDICTED BY IDOCK:   -1.70 KCAL/MOL
REMARK 924 INTRA-LIGAND FREE ENERGY PREDICTED BY IDOCK:   -0.16 KCAL/MOL
REMARK 927      BINDING AFFINITY PREDICTED BY RF-SCORE:    0.00 PKD
ROOT
HETATM    1  N   UNL     1      -9.030  10.964  69.360  1.00  0.00    -0.399 NA 
HETATM    2  C   UNL     1      -9.484  11.007  67.974  1.00  0.00    -0.166 C  
HETATM    3  H1  UNL     1      -9.701  10.484  69.960  1.00  0.00     0.000 HD 
HETATM    4  H2  UNL     1      -8.818  11.898  69.711  1.00  0.00     0.000 HD 
ENDROOT
BRANCH   2   5
HETATM    5  C   UNL     1      -8.477  11.728  67.074  1.00  0.00    -0.175 C  
BRANCH   5   6
HETATM    6  C   UNL     1      -8.683  13.244  66.953  1.00  0.00    -0.152 C  
BRANCH   6   7
HETATM    7  C   UNL     1      -7.770  14.045  67.883  1.00  0.00    -0.161 C  
BRANCH   7   8
HETATM    8  C   UNL     1      -8.571  14.919  68.845  1.00  0.00    -0.177 C  
HETATM    9  C   UNL     1      -8.577  16.365  68.405  1.00  0.00    -0.209 C  
HETATM   10  O   UNL     1      -8.060  16.801  67.390  1.00  0.00    -0.164 OA 
HETATM   11  O   UNL     1      -9.241  17.163  69.274  1.00  0.00    -0.097 OA 
ENDBRANCH   7   8
ENDBRANCH   6   7
ENDBRANCH   5   6
ENDBRANCH   2   5
TORSDOF 4
ENDMDL
MODEL      241
REMARK 921   NORMALIZED FREE ENERGY PREDICTED BY IDOCK:   -1.42 KCAL/MOL
REMARK 922        TOTAL FREE ENERGY PREDICTED BY IDOCK:   -1.84 KCAL/MOL
REMARK 923 INTER-LIGAND FREE ENERGY PREDICTED BY IDOCK:   -1.73 KCAL/MOL
REMARK 924 INTRA-LIGAND FREE ENERGY PREDICTED BY IDOCK:   -0.11 KCAL/MOL
REMARK 927      BINDING AFFINITY PREDICTED BY RF-SCORE:    0.00 PKD
ROOT
HETATM    1  N   UNL     1     -11.239   4.198  64.870  1.00  0.00    -0.956 NA 
HETATM    2  C   UNL     1      -9.823   4.277  64.526  1.00  0.00    -0.123 C  
HETATM    3  H1  UNL     1     -11.832   4.334  64.052  1.00  0.00     0.000 HD 
HETATM    4  H2  UNL     1     -11.478   4.851  65.617  1.00  0.00     0.000 HD 
ENDROOT
BRANCH   2   5
HETATM    5  C   UNL     1      -8.933   4.072  65.754  1.00  0.00    -0.131 C  
BRANCH   5   6
HETATM    6  C   UNL     1      -8.058   5.276  66.130  1.00  0.00    -0.109 C  
BRANCH   6   7
HETATM    7  C   UNL     1      -8.215   6.451  65.164  1.00  0.00    -0.134 C  
BRANCH   7   8
HETATM    8  C   UNL     1      -6.993   6.610  64.263  1.00  0.00    -0.051 C  
HETATM    9  C   UNL     1      -6.624   8.065  64.083  1.00  0.00    -0.065 C  
HETATM   10  O   UNL     1      -7.180   9.011  64.615  1.00  0.00    -0.094 OA 
HETATM   11  O   UNL     1      -5.572   8.228  63.247  1.00  0.00    -0.065 OA 
ENDBRANCH   7   8
ENDBRANCH   6   7
ENDBRANCH   5   6
ENDBRANCH   2   5
TORSDOF 4
ENDMDL
MODEL      242
REMARK 921   NORMALIZED FREE ENERGY PREDICTED BY IDOCK:   -1.40 KCAL/MOL
REMARK 922        TOTAL FREE ENERGY PREDICTED BY IDOCK:   -1.82 KCAL/MOL
REMARK 923 INTER-LIGAND FREE ENERGY PREDICTED BY IDOCK:   -1.64 KCAL/MOL
REMARK 924 INTRA-LIGAND FREE ENERGY PREDICTED BY IDOCK:   -0.18 KCAL/MOL
REMARK 927      BINDING AFFINITY PREDICTED BY RF-SCORE:    0.00 PKD
ROOT
HETATM    1  N   UNL     1     -10.287   6.554  70.184  1.00  0.00    -0.194 NA 
HETATM    2  C   UNL     1     -11.361   6.325  69.224  1.00  0.00    -0.341 C  
HETATM    3  H1  UNL     1     -10.637   6.574  71.142  1.00  0.00     0.000 HD 
HETATM    4  H2  UNL     1      -9.763   7.401  69.961  1.00  0.00     0.000 HD 
ENDROOT
BRANCH   2   5
HETATM    5  C   UNL     1     -10.835   6.295  67.787  1.00  0.00    -0.424 C  
BRANCH   5   6
HETATM    6  C   UNL     1      -9.575   7.136  67.539  1.00  0.00    -0.159 C  
BRANCH   6   7
HETATM    7  C   UNL     1      -8.346   6.284  67.215  1.00  0.00    -0.109 C  
BRANCH   7   8
HETATM    8  C   UNL     1      -8.712   4.816  67.013  1.00  0.00    -0.103 C  
HETATM    9  C   UNL     1      -8.410   4.360  65.604  1.00  0.00    -0.114 C  
HETATM   10  O   UNL     1      -7.895   5.038  64.732  1.00  0.00    -0.085 OA 
HETATM   11  O   UNL     1      -8.775   3.073  65.392  1.00  0.00    -0.111 OA 
ENDBRANCH   7   8
ENDBRANCH   6   7
ENDBRANCH   5   6
ENDBRANCH   2   5
TORSDOF 4
ENDMDL
MODEL      243
REMARK 921   NORMALIZED FREE ENERGY PREDICTED BY IDOCK:   -1.35 KCAL/MOL
REMARK 922        TOTAL FREE ENERGY PREDICTED BY IDOCK:   -1.76 KCAL/MOL
REMARK 923 INTER-LIGAND FREE ENERGY PREDICTED BY IDOCK:   -1.85 KCAL/MOL
REMARK 924 INTRA-LIGAND FREE ENERGY PREDICTED BY IDOCK:    0.09 KCAL/MOL
REMARK 927      BINDING AFFINITY PREDICTED BY RF-SCORE:    0.00 PKD
ROOT
HETATM    1  N   UNL     1     -10.292   8.155  68.285  1.00  0.00    -0.229 NA 
HETATM    2  C   UNL     1      -9.583   8.713  67.139  1.00  0.00    -0.173 C  
HETATM    3  H1  UNL     1     -11.270   7.965  68.066  1.00  0.00     0.000 HD 
HETATM    4  H2  UNL     1     -10.204   8.755  69.106  1.00  0.00     0.000 HD 
ENDROOT
BRANCH   2   5
HETATM    5  C   UNL     1      -8.116   8.998  67.469  1.00  0.00    -0.108 C  
BRANCH   5   6
HETATM    6  C   UNL     1      -7.704  10.473  67.376  1.00  0.00    -0.102 C  
BRANCH   6   7
HETATM    7  C   UNL     1      -8.324  11.190  66.175  1.00  0.00    -0.144 C  
BRANCH   7   8
HETATM    8  C   UNL     1      -9.582  11.962  66.565  1.00  0.00    -0.226 C  
HETATM    9  C   UNL     1     -10.495  12.167  65.378  1.00  0.00    -0.270 C  
HETATM   10  O   UNL     1     -10.304  11.739  64.252  1.00  0.00    -0.270 OA 
HETATM   11  O   UNL     1     -11.593  12.892  65.695  1.00  0.00    -0.328 OA 
ENDBRANCH   7   8
ENDBRANCH   6   7
ENDBRANCH   5   6
ENDBRANCH   2   5
TORSDOF 4
ENDMDL
MODEL      244
REMARK 921   NORMALIZED FREE ENERGY PREDICTED BY IDOCK:   -1.34 KCAL/MOL
REMARK 922        TOTAL FREE ENERGY PREDICTED BY IDOCK:   -1.74 KCAL/MOL
REMARK 923 INTER-LIGAND FREE ENERGY PREDICTED BY IDOCK:   -1.63 KCAL/MOL
REMARK 924 INTRA-LIGAND FREE ENERGY PREDICTED BY IDOCK:   -0.11 KCAL/MOL
REMARK 927      BINDING AFFINITY PREDICTED BY RF-SCORE:    0.00 PKD
ROOT
HETATM    1  N   UNL     1      -7.792  11.926  68.874  1.00  0.00    -0.320 NA 
HETATM    2  C   UNL     1      -7.164  10.612  68.959  1.00  0.00    -0.095 C  
HETATM    3  H1  UNL     1      -8.033  12.287  69.797  1.00  0.00     0.000 HD 
HETATM    4  H2  UNL     1      -8.603  11.912  68.255  1.00  0.00     0.000 HD 
ENDROOT
BRANCH   2   5
HETATM    5  C   UNL     1      -6.801  10.071  67.574  1.00  0.00    -0.081 C  
BRANCH   5   6
HETATM    6  C   UNL     1      -7.454   8.731  67.209  1.00  0.00    -0.089 C  
BRANCH   6   7
HETATM    7  C   UNL     1      -8.858   8.573  67.795  1.00  0.00    -0.137 C  
BRANCH   7   8
HETATM    8  C   UNL     1      -9.790   7.833  66.839  1.00  0.00    -0.305 C  
HETATM    9  C   UNL     1     -10.365   6.590  67.480  1.00  0.00    -0.201 C  
HETATM   10  O   UNL     1     -10.169   6.225  68.627  1.00  0.00    -0.152 OA 
HETATM   11  O   UNL     1     -11.156   5.894  66.629  1.00  0.00    -0.246 OA 
ENDBRANCH   7   8
ENDBRANCH   6   7
ENDBRANCH   5   6
ENDBRANCH   2   5
TORSDOF 4
ENDMDL
MODEL      245
REMARK 921   NORMALIZED FREE ENERGY PREDICTED BY IDOCK:   -1.31 KCAL/MOL
REMARK 922        TOTAL FREE ENERGY PREDICTED BY IDOCK:   -1.70 KCAL/MOL
REMARK 923 INTER-LIGAND FREE ENERGY PREDICTED BY IDOCK:   -1.63 KCAL/MOL
REMARK 924 INTRA-LIGAND FREE ENERGY PREDICTED BY IDOCK:   -0.07 KCAL/MOL
REMARK 927      BINDING AFFINITY PREDICTED BY RF-SCORE:    0.00 PKD
ROOT
HETATM    1  N   UNL     1      -7.279   5.697  73.242  1.00  0.00    -0.086 NA 
HETATM    2  C   UNL     1      -7.903   6.652  72.333  1.00  0.00    -0.099 C  
HETATM    3  H1  UNL     1      -6.495   6.114  73.744  1.00  0.00     0.000 HD 
HETATM    4  H2  UNL     1      -6.998   4.847  72.754  1.00  0.00     0.000 HD 
ENDROOT
BRANCH   2   5
HETATM    5  C   UNL     1      -9.079   6.026  71.579  1.00  0.00    -0.148 C  
BRANCH   5   6
HETATM    6  C   UNL     1      -8.809   5.710  70.102  1.00  0.00    -0.144 C  
BRANCH   6   7
HETATM    7  C   UNL     1      -9.960   6.129  69.184  1.00  0.00    -0.190 C  
BRANCH   7   8
HETATM    8  C   UNL     1      -9.740   7.523  68.603  1.00  0.00    -0.154 C  
HETATM    9  C   UNL     1     -10.537   7.725  67.334  1.00  0.00    -0.275 C  
HETATM   10  O   UNL     1     -11.304   6.916  66.840  1.00  0.00    -0.269 OA 
HETATM   11  O   UNL     1     -10.317   8.939  66.778  1.00  0.00    -0.269 OA 
ENDBRANCH   7   8
ENDBRANCH   6   7
ENDBRANCH   5   6
ENDBRANCH   2   5
TORSDOF 4
ENDMDL
MODEL      246
REMARK 921   NORMALIZED FREE ENERGY PREDICTED BY IDOCK:   -1.31 KCAL/MOL
REMARK 922        TOTAL FREE ENERGY PREDICTED BY IDOCK:   -1.70 KCAL/MOL
REMARK 923 INTER-LIGAND FREE ENERGY PREDICTED BY IDOCK:   -1.56 KCAL/MOL
REMARK 924 INTRA-LIGAND FREE ENERGY PREDICTED BY IDOCK:   -0.14 KCAL/MOL
REMARK 927      BINDING AFFINITY PREDICTED BY RF-SCORE:    0.00 PKD
ROOT
HETATM    1  N   UNL     1     -10.758   5.721  68.160  1.00  0.00    -0.233 NA 
HETATM    2  C   UNL     1     -10.705   5.959  66.721  1.00  0.00    -0.299 C  
HETATM    3  H1  UNL     1     -11.718   5.719  68.505  1.00  0.00     0.000 HD 
HETATM    4  H2  UNL     1     -10.179   6.390  68.669  1.00  0.00     0.000 HD 
ENDROOT
BRANCH   2   5
HETATM    5  C   UNL     1      -9.265   5.962  66.204  1.00  0.00    -0.164 C  
BRANCH   5   6
HETATM    6  C   UNL     1      -8.530   4.619  66.322  1.00  0.00    -0.113 C  
BRANCH   6   7
HETATM    7  C   UNL     1      -8.019   4.099  64.977  1.00  0.00    -0.093 C  
BRANCH   7   8
HETATM    8  C   UNL     1      -8.886   4.585  63.818  1.00  0.00    -0.140 C  
HETATM    9  C   UNL     1      -9.967   3.584  63.478  1.00  0.00    -0.169 C  
HETATM   10  O   UNL     1     -10.177   2.538  64.068  1.00  0.00    -0.136 OA 
HETATM   11  O   UNL     1     -10.714   3.975  62.420  1.00  0.00    -0.208 OA 
ENDBRANCH   7   8
ENDBRANCH   6   7
ENDBRANCH   5   6
ENDBRANCH   2   5
TORSDOF 4
ENDMDL
MODEL      247
REMARK 921   NORMALIZED FREE ENERGY PREDICTED BY IDOCK:   -1.30 KCAL/MOL
REMARK 922        TOTAL FREE ENERGY PREDICTED BY IDOCK:   -1.69 KCAL/MOL
REMARK 923 INTER-LIGAND FREE ENERGY PREDICTED BY IDOCK:   -1.58 KCAL/MOL
REMARK 924 INTRA-LIGAND FREE ENERGY PREDICTED BY IDOCK:   -0.11 KCAL/MOL
REMARK 927      BINDING AFFINITY PREDICTED BY RF-SCORE:    0.00 PKD
ROOT
HETATM    1  N   UNL     1     -11.530   6.703  68.407  1.00  0.00    -0.545 NA 
HETATM    2  C   UNL     1     -10.472   5.728  68.646  1.00  0.00    -0.229 C  
HETATM    3  H1  UNL     1     -12.084   6.462  67.585  1.00  0.00     0.000 HD 
HETATM    4  H2  UNL     1     -11.157   7.650  68.340  1.00  0.00     0.000 HD 
ENDROOT
BRANCH   2   5
HETATM    5  C   UNL     1      -9.642   6.090  69.879  1.00  0.00    -0.188 C  
BRANCH   5   6
HETATM    6  C   UNL     1      -8.269   6.708  69.581  1.00  0.00    -0.127 C  
BRANCH   6   7
HETATM    7  C   UNL     1      -8.251   8.228  69.753  1.00  0.00    -0.121 C  
BRANCH   7   8
HETATM    8  C   UNL     1      -8.836   8.942  68.537  1.00  0.00    -0.134 C  
HETATM    9  C   UNL     1      -9.607  10.179  68.940  1.00  0.00    -0.184 C  
HETATM   10  O   UNL     1      -9.723  10.605  70.076  1.00  0.00     0.116 OA 
HETATM   11  O   UNL     1     -10.175  10.798  67.879  1.00  0.00    -0.167 OA 
ENDBRANCH   7   8
ENDBRANCH   6   7
ENDBRANCH   5   6
ENDBRANCH   2   5
TORSDOF 4
ENDMDL
MODEL      248
REMARK 921   NORMALIZED FREE ENERGY PREDICTED BY IDOCK:   -1.30 KCAL/MOL
REMARK 922        TOTAL FREE ENERGY PREDICTED BY IDOCK:   -1.69 KCAL/MOL
REMARK 923 INTER-LIGAND FREE ENERGY PREDICTED BY IDOCK:   -1.60 KCAL/MOL
REMARK 924 INTRA-LIGAND FREE ENERGY PREDICTED BY IDOCK:   -0.09 KCAL/MOL
REMARK 927      BINDING AFFINITY PREDICTED BY RF-SCORE:    0.00 PKD
ROOT
HETATM    1  N   UNL     1      -8.170   7.521  65.421  1.00  0.00    -0.133 NA 
HETATM    2  C   UNL     1      -8.464   6.095  65.325  1.00  0.00    -0.120 C  
HETATM    3  H1  UNL     1      -8.664   8.055  64.706  1.00  0.00     0.000 HD 
HETATM    4  H2  UNL     1      -7.165   7.697  65.390  1.00  0.00     0.000 HD 
ENDROOT
BRANCH   2   5
HETATM    5  C   UNL     1      -7.724   5.294  66.399  1.00  0.00    -0.092 C  
BRANCH   5   6
HETATM    6  C   UNL     1      -8.608   4.364  67.241  1.00  0.00    -0.104 C  
BRANCH   6   7
HETATM    7  C   UNL     1      -9.807   5.083  67.862  1.00  0.00    -0.200 C  
BRANCH   7   8
HETATM    8  C   UNL     1      -9.748   5.066  69.387  1.00  0.00    -0.254 C  
HETATM    9  C   UNL     1     -10.588   6.171  69.986  1.00  0.00    -0.261 C  
HETATM   10  O   UNL     1     -11.275   6.960  69.360  1.00  0.00    -0.228 OA 
HETATM   11  O   UNL     1     -10.508   6.201  71.337  1.00  0.00    -0.211 OA 
ENDBRANCH   7   8
ENDBRANCH   6   7
ENDBRANCH   5   6
ENDBRANCH   2   5
TORSDOF 4
ENDMDL
MODEL      249
REMARK 921   NORMALIZED FREE ENERGY PREDICTED BY IDOCK:   -1.25 KCAL/MOL
REMARK 922        TOTAL FREE ENERGY PREDICTED BY IDOCK:   -1.62 KCAL/MOL
REMARK 923 INTER-LIGAND FREE ENERGY PREDICTED BY IDOCK:   -1.57 KCAL/MOL
REMARK 924 INTRA-LIGAND FREE ENERGY PREDICTED BY IDOCK:   -0.06 KCAL/MOL
REMARK 927      BINDING AFFINITY PREDICTED BY RF-SCORE:    0.00 PKD
ROOT
HETATM    1  N   UNL     1      -6.615   4.137  74.442  1.00  0.00    -0.051 NA 
HETATM    2  C   UNL     1      -6.600   4.613  73.063  1.00  0.00    -0.055 C  
HETATM    3  H1  UNL     1      -5.770   4.413  74.943  1.00  0.00     0.000 HD 
HETATM    4  H2  UNL     1      -6.763   3.129  74.486  1.00  0.00     0.000 HD 
ENDROOT
BRANCH   2   5
HETATM    5  C   UNL     1      -7.868   4.200  72.311  1.00  0.00    -0.082 C  
BRANCH   5   6
HETATM    6  C   UNL     1      -8.049   4.855  70.935  1.00  0.00    -0.095 C  
BRANCH   6   7
HETATM    7  C   UNL     1      -9.444   5.453  70.740  1.00  0.00    -0.215 C  
BRANCH   7   8
HETATM    8  C   UNL     1      -9.961   5.228  69.321  1.00  0.00    -0.285 C  
HETATM    9  C   UNL     1     -10.762   6.412  68.830  1.00  0.00    -0.287 C  
HETATM   10  O   UNL     1     -10.946   7.450  69.444  1.00  0.00    -0.205 OA 
HETATM   11  O   UNL     1     -11.270   6.210  67.592  1.00  0.00    -0.294 OA 
ENDBRANCH   7   8
ENDBRANCH   6   7
ENDBRANCH   5   6
ENDBRANCH   2   5
TORSDOF 4
ENDMDL
MODEL      250
REMARK 921   NORMALIZED FREE ENERGY PREDICTED BY IDOCK:   -1.22 KCAL/MOL
REMARK 922        TOTAL FREE ENERGY PREDICTED BY IDOCK:   -1.59 KCAL/MOL
REMARK 923 INTER-LIGAND FREE ENERGY PREDICTED BY IDOCK:   -1.40 KCAL/MOL
REMARK 924 INTRA-LIGAND FREE ENERGY PREDICTED BY IDOCK:   -0.19 KCAL/MOL
REMARK 927      BINDING AFFINITY PREDICTED BY RF-SCORE:    0.00 PKD
ROOT
HETATM    1  N   UNL     1      -9.254   1.730  66.394  1.00  0.00    -0.318 NA 
HETATM    2  C   UNL     1      -8.797   3.028  66.880  1.00  0.00    -0.145 C  
HETATM    3  H1  UNL     1      -9.031   0.984  67.053  1.00  0.00     0.000 HD 
HETATM    4  H2  UNL     1      -8.886   1.530  65.464  1.00  0.00     0.000 HD 
ENDROOT
BRANCH   2   5
HETATM    5  C   UNL     1      -9.133   4.148  65.892  1.00  0.00    -0.136 C  
BRANCH   5   6
HETATM    6  C   UNL     1     -10.138   5.187  66.406  1.00  0.00    -0.268 C  
BRANCH   6   7
HETATM    7  C   UNL     1     -10.657   4.871  67.810  1.00  0.00     0.120 C  
BRANCH   7   8
HETATM    8  C   UNL     1     -10.278   5.959  68.811  1.00  0.00    -0.243 C  
HETATM    9  C   UNL     1      -9.489   5.393  69.970  1.00  0.00    -0.160 C  
HETATM   10  O   UNL     1      -9.142   4.231  70.094  1.00  0.00    -0.091 OA 
HETATM   11  O   UNL     1      -9.187   6.336  70.893  1.00  0.00    -0.156 OA 
ENDBRANCH   7   8
ENDBRANCH   6   7
ENDBRANCH   5   6
ENDBRANCH   2   5
TORSDOF 4
ENDMDL
MODEL      251
REMARK 921   NORMALIZED FREE ENERGY PREDICTED BY IDOCK:   -1.22 KCAL/MOL
REMARK 922        TOTAL FREE ENERGY PREDICTED BY IDOCK:   -1.59 KCAL/MOL
REMARK 923 INTER-LIGAND FREE ENERGY PREDICTED BY IDOCK:   -1.61 KCAL/MOL
REMARK 924 INTRA-LIGAND FREE ENERGY PREDICTED BY IDOCK:    0.02 KCAL/MOL
REMARK 927      BINDING AFFINITY PREDICTED BY RF-SCORE:    0.00 PKD
ROOT
HETATM    1  N   UNL     1      -7.751  12.584  68.630  1.00  0.00    -0.240 NA 
HETATM    2  C   UNL     1      -7.773  11.129  68.525  1.00  0.00    -0.129 C  
HETATM    3  H1  UNL     1      -7.485  12.889  69.566  1.00  0.00     0.000 HD 
HETATM    4  H2  UNL     1      -8.641  12.992  68.343  1.00  0.00     0.000 HD 
ENDROOT
BRANCH   2   5
HETATM    5  C   UNL     1      -8.171  10.672  67.120  1.00  0.00    -0.121 C  
BRANCH   5   6
HETATM    6  C   UNL     1      -9.601  10.128  66.994  1.00  0.00    -0.209 C  
BRANCH   6   7
HETATM    7  C   UNL     1      -9.643   8.636  66.657  1.00  0.00    -0.285 C  
BRANCH   7   8
HETATM    8  C   UNL     1      -8.740   7.823  67.580  1.00  0.00    -0.126 C  
HETATM    9  C   UNL     1      -9.341   7.683  68.960  1.00  0.00    -0.146 C  
HETATM   10  O   UNL     1     -10.428   8.111  69.309  1.00  0.00    -0.220 OA 
HETATM   11  O   UNL     1      -8.531   7.006  69.807  1.00  0.00    -0.134 OA 
ENDBRANCH   7   8
ENDBRANCH   6   7
ENDBRANCH   5   6
ENDBRANCH   2   5
TORSDOF 4
ENDMDL
MODEL      252
REMARK 921   NORMALIZED FREE ENERGY PREDICTED BY IDOCK:   -1.18 KCAL/MOL
REMARK 922        TOTAL FREE ENERGY PREDICTED BY IDOCK:   -1.55 KCAL/MOL
REMARK 923 INTER-LIGAND FREE ENERGY PREDICTED BY IDOCK:   -1.49 KCAL/MOL
REMARK 924 INTRA-LIGAND FREE ENERGY PREDICTED BY IDOCK:   -0.06 KCAL/MOL
REMARK 927      BINDING AFFINITY PREDICTED BY RF-SCORE:    0.00 PKD
ROOT
HETATM    1  N   UNL     1     -11.481   6.135  68.844  1.00  0.00    -0.372 NA 
HETATM    2  C   UNL     1     -10.440   5.444  69.597  1.00  0.00    -0.291 C  
HETATM    3  H1  UNL     1     -11.255   6.186  67.851  1.00  0.00     0.000 HD 
HETATM    4  H2  UNL     1     -11.670   7.060  69.232  1.00  0.00     0.000 HD 
ENDROOT
BRANCH   2   5
HETATM    5  C   UNL     1     -10.780   5.367  71.087  1.00  0.00    -0.239 C  
BRANCH   5   6
HETATM    6  C   UNL     1      -9.788   6.078  72.018  1.00  0.00    -0.177 C  
BRANCH   6   7
HETATM    7  C   UNL     1      -8.619   5.185  72.436  1.00  0.00    -0.125 C  
BRANCH   7   8
HETATM    8  C   UNL     1      -7.433   6.004  72.940  1.00  0.00    -0.094 C  
HETATM    9  C   UNL     1      -6.698   5.288  74.050  1.00  0.00    -0.076 C  
HETATM   10  O   UNL     1      -6.963   4.177  74.476  1.00  0.00    -0.061 OA 
HETATM   11  O   UNL     1      -5.673   6.022  74.543  1.00  0.00    -0.052 OA 
ENDBRANCH   7   8
ENDBRANCH   6   7
ENDBRANCH   5   6
ENDBRANCH   2   5
TORSDOF 4
ENDMDL
MODEL      253
REMARK 921   NORMALIZED FREE ENERGY PREDICTED BY IDOCK:   -1.12 KCAL/MOL
REMARK 922        TOTAL FREE ENERGY PREDICTED BY IDOCK:   -1.47 KCAL/MOL
REMARK 923 INTER-LIGAND FREE ENERGY PREDICTED BY IDOCK:   -1.35 KCAL/MOL
REMARK 924 INTRA-LIGAND FREE ENERGY PREDICTED BY IDOCK:   -0.12 KCAL/MOL
REMARK 927      BINDING AFFINITY PREDICTED BY RF-SCORE:    0.00 PKD
ROOT
HETATM    1  N   UNL     1      -6.964   7.837  63.932  1.00  0.00    -0.061 NA 
HETATM    2  C   UNL     1      -7.876   6.818  64.439  1.00  0.00    -0.113 C  
HETATM    3  H1  UNL     1      -6.830   7.754  62.924  1.00  0.00     0.000 HD 
HETATM    4  H2  UNL     1      -6.073   7.821  64.429  1.00  0.00     0.000 HD 
ENDROOT
BRANCH   2   5
HETATM    5  C   UNL     1      -8.076   6.943  65.951  1.00  0.00    -0.119 C  
BRANCH   5   6
HETATM    6  C   UNL     1      -9.354   6.288  66.493  1.00  0.00    -0.173 C  
BRANCH   6   7
HETATM    7  C   UNL     1     -10.289   7.284  67.180  1.00  0.00    -0.367 C  
BRANCH   7   8
HETATM    8  C   UNL     1     -10.495   8.540  66.337  1.00  0.00     0.072 C  
HETATM    9  C   UNL     1     -10.107   9.787  67.098  1.00  0.00    -0.211 C  
HETATM   10  O   UNL     1      -9.640   9.816  68.224  1.00  0.00    -0.142 OA 
HETATM   11  O   UNL     1     -10.330  10.915  66.384  1.00  0.00    -0.237 OA 
ENDBRANCH   7   8
ENDBRANCH   6   7
ENDBRANCH   5   6
ENDBRANCH   2   5
TORSDOF 4
ENDMDL
MODEL      254
REMARK 921   NORMALIZED FREE ENERGY PREDICTED BY IDOCK:   -1.12 KCAL/MOL
REMARK 922        TOTAL FREE ENERGY PREDICTED BY IDOCK:   -1.47 KCAL/MOL
REMARK 923 INTER-LIGAND FREE ENERGY PREDICTED BY IDOCK:   -1.40 KCAL/MOL
REMARK 924 INTRA-LIGAND FREE ENERGY PREDICTED BY IDOCK:   -0.07 KCAL/MOL
REMARK 927      BINDING AFFINITY PREDICTED BY RF-SCORE:    0.00 PKD
ROOT
HETATM    1  N   UNL     1     -10.639   7.109  70.465  1.00  0.00    -0.220 NA 
HETATM    2  C   UNL     1     -10.222   5.955  71.254  1.00  0.00    -0.210 C  
HETATM    3  H1  UNL     1     -10.821   7.921  71.054  1.00  0.00     0.000 HD 
HETATM    4  H2  UNL     1     -11.443   6.888  69.877  1.00  0.00     0.000 HD 
ENDROOT
BRANCH   2   5
HETATM    5  C   UNL     1      -9.948   4.737  70.368  1.00  0.00    -0.315 C  
BRANCH   5   6
HETATM    6  C   UNL     1      -8.917   4.962  69.254  1.00  0.00    -0.129 C  
BRANCH   6   7
HETATM    7  C   UNL     1      -9.558   5.160  67.880  1.00  0.00    -0.167 C  
BRANCH   7   8
HETATM    8  C   UNL     1      -9.036   6.416  67.188  1.00  0.00    -0.109 C  
HETATM    9  C   UNL     1      -7.820   6.116  66.341  1.00  0.00    -0.104 C  
HETATM   10  O   UNL     1      -7.326   5.014  66.172  1.00  0.00    -0.075 OA 
HETATM   11  O   UNL     1      -7.313   7.228  65.758  1.00  0.00    -0.071 OA 
ENDBRANCH   7   8
ENDBRANCH   6   7
ENDBRANCH   5   6
ENDBRANCH   2   5
TORSDOF 4
ENDMDL
MODEL      255
REMARK 921   NORMALIZED FREE ENERGY PREDICTED BY IDOCK:   -1.11 KCAL/MOL
REMARK 922        TOTAL FREE ENERGY PREDICTED BY IDOCK:   -1.46 KCAL/MOL
REMARK 923 INTER-LIGAND FREE ENERGY PREDICTED BY IDOCK:   -1.39 KCAL/MOL
REMARK 924 INTRA-LIGAND FREE ENERGY PREDICTED BY IDOCK:   -0.07 KCAL/MOL
REMARK 927      BINDING AFFINITY PREDICTED BY RF-SCORE:    0.00 PKD
ROOT
HETATM    1  N   UNL     1      -9.835   3.654  66.721  1.00  0.00    -0.383 NA 
HETATM    2  C   UNL     1      -8.589   4.372  66.479  1.00  0.00    -0.112 C  
HETATM    3  H1  UNL     1      -9.785   2.691  66.387  1.00  0.00     0.000 HD 
HETATM    4  H2  UNL     1     -10.633   4.146  66.320  1.00  0.00     0.000 HD 
ENDROOT
BRANCH   2   5
HETATM    5  C   UNL     1      -8.665   5.816  66.981  1.00  0.00    -0.109 C  
BRANCH   5   6
HETATM    6  C   UNL     1      -7.397   6.330  67.676  1.00  0.00    -0.084 C  
BRANCH   6   7
HETATM    7  C   UNL     1      -7.539   6.404  69.197  1.00  0.00    -0.100 C  
BRANCH   7   8
HETATM    8  C   UNL     1      -8.183   7.715  69.641  1.00  0.00    -0.128 C  
HETATM    9  C   UNL     1      -8.772   7.600  71.029  1.00  0.00    -0.137 C  
HETATM   10  O   UNL     1      -8.713   6.617  71.746  1.00  0.00    -0.130 OA 
HETATM   11  O   UNL     1      -9.391   8.739  71.419  1.00  0.00    -0.210 OA 
ENDBRANCH   7   8
ENDBRANCH   6   7
ENDBRANCH   5   6
ENDBRANCH   2   5
TORSDOF 4
ENDMDL
MODEL      256
REMARK 921   NORMALIZED FREE ENERGY PREDICTED BY IDOCK:   -1.09 KCAL/MOL
REMARK 922        TOTAL FREE ENERGY PREDICTED BY IDOCK:   -1.43 KCAL/MOL
REMARK 923 INTER-LIGAND FREE ENERGY PREDICTED BY IDOCK:   -1.32 KCAL/MOL
REMARK 924 INTRA-LIGAND FREE ENERGY PREDICTED BY IDOCK:   -0.11 KCAL/MOL
REMARK 927      BINDING AFFINITY PREDICTED BY RF-SCORE:    0.00 PKD
ROOT
HETATM    1  N   UNL     1      -7.908   6.987  65.159  1.00  0.00    -0.117 NA 
HETATM    2  C   UNL     1      -8.707   5.879  65.670  1.00  0.00    -0.146 C  
HETATM    3  H1  UNL     1      -7.770   6.918  64.151  1.00  0.00     0.000 HD 
HETATM    4  H2  UNL     1      -7.019   7.064  65.653  1.00  0.00     0.000 HD 
ENDROOT
BRANCH   2   5
HETATM    5  C   UNL     1      -8.914   5.984  67.182  1.00  0.00    -0.114 C  
BRANCH   5   6
HETATM    6  C   UNL     1     -10.035   5.101  67.748  1.00  0.00    -0.202 C  
BRANCH   6   7
HETATM    7  C   UNL     1      -9.820   4.732  69.216  1.00  0.00    -0.269 C  
BRANCH   7   8
HETATM    8  C   UNL     1      -9.527   5.962  70.071  1.00  0.00    -0.189 C  
HETATM    9  C   UNL     1      -8.218   5.821  70.813  1.00  0.00    -0.123 C  
HETATM   10  O   UNL     1      -7.447   4.881  70.723  1.00  0.00    -0.061 OA 
HETATM   11  O   UNL     1      -7.966   6.882  71.615  1.00  0.00    -0.100 OA 
ENDBRANCH   7   8
ENDBRANCH   6   7
ENDBRANCH   5   6
ENDBRANCH   2   5
TORSDOF 4
ENDMDL
MODEL      257
REMARK 921   NORMALIZED FREE ENERGY PREDICTED BY IDOCK:   -1.04 KCAL/MOL
REMARK 922        TOTAL FREE ENERGY PREDICTED BY IDOCK:   -1.37 KCAL/MOL
REMARK 923 INTER-LIGAND FREE ENERGY PREDICTED BY IDOCK:   -1.25 KCAL/MOL
REMARK 924 INTRA-LIGAND FREE ENERGY PREDICTED BY IDOCK:   -0.12 KCAL/MOL
REMARK 927      BINDING AFFINITY PREDICTED BY RF-SCORE:    0.00 PKD
ROOT
HETATM    1  N   UNL     1      -6.816  12.125  69.843  1.00  0.00    -0.339 NA 
HETATM    2  C   UNL     1      -6.137  10.947  70.373  1.00  0.00    -0.129 C  
HETATM    3  H1  UNL     1      -6.916  12.851  70.552  1.00  0.00     0.000 HD 
HETATM    4  H2  UNL     1      -7.716  11.881  69.429  1.00  0.00     0.000 HD 
ENDROOT
BRANCH   2   5
HETATM    5  C   UNL     1      -5.988   9.858  69.308  1.00  0.00    -0.037 C  
BRANCH   5   6
HETATM    6  C   UNL     1      -6.444   8.458  69.743  1.00  0.00    -0.036 C  
BRANCH   6   7
HETATM    7  C   UNL     1      -7.650   8.490  70.683  1.00  0.00    -0.076 C  
BRANCH   7   8
HETATM    8  C   UNL     1      -8.891   7.886  70.030  1.00  0.00    -0.141 C  
HETATM    9  C   UNL     1      -9.459   6.757  70.860  1.00  0.00    -0.157 C  
HETATM   10  O   UNL     1      -9.033   6.385  71.940  1.00  0.00    -0.139 OA 
HETATM   11  O   UNL     1     -10.531   6.178  70.272  1.00  0.00    -0.199 OA 
ENDBRANCH   7   8
ENDBRANCH   6   7
ENDBRANCH   5   6
ENDBRANCH   2   5
TORSDOF 4
ENDMDL
MODEL      258
REMARK 921   NORMALIZED FREE ENERGY PREDICTED BY IDOCK:   -0.99 KCAL/MOL
REMARK 922        TOTAL FREE ENERGY PREDICTED BY IDOCK:   -1.30 KCAL/MOL
REMARK 923 INTER-LIGAND FREE ENERGY PREDICTED BY IDOCK:   -1.24 KCAL/MOL
REMARK 924 INTRA-LIGAND FREE ENERGY PREDICTED BY IDOCK:   -0.07 KCAL/MOL
REMARK 927      BINDING AFFINITY PREDICTED BY RF-SCORE:    0.00 PKD
ROOT
HETATM    1  N   UNL     1      -9.557   1.843  66.879  1.00  0.00    -0.356 NA 
HETATM    2  C   UNL     1      -8.154   2.219  67.011  1.00  0.00    -0.073 C  
HETATM    3  H1  UNL     1      -9.836   1.175  67.597  1.00  0.00     0.000 HD 
HETATM    4  H2  UNL     1      -9.763   1.493  65.944  1.00  0.00     0.000 HD 
ENDROOT
BRANCH   2   5
HETATM    5  C   UNL     1      -7.737   3.223  65.933  1.00  0.00    -0.081 C  
BRANCH   5   6
HETATM    6  C   UNL     1      -6.826   4.358  66.420  1.00  0.00    -0.055 C  
BRANCH   6   7
HETATM    7  C   UNL     1      -7.527   5.718  66.437  1.00  0.00    -0.086 C  
BRANCH   7   8
HETATM    8  C   UNL     1      -9.016   5.583  66.744  1.00  0.00    -0.114 C  
HETATM    9  C   UNL     1      -9.383   6.297  68.025  1.00  0.00    -0.114 C  
HETATM   10  O   UNL     1      -8.621   6.948  68.720  1.00  0.00    -0.124 OA 
HETATM   11  O   UNL     1     -10.691   6.146  68.339  1.00  0.00    -0.235 OA 
ENDBRANCH   7   8
ENDBRANCH   6   7
ENDBRANCH   5   6
ENDBRANCH   2   5
TORSDOF 4
ENDMDL
MODEL      259
REMARK 921   NORMALIZED FREE ENERGY PREDICTED BY IDOCK:   -0.97 KCAL/MOL
REMARK 922        TOTAL FREE ENERGY PREDICTED BY IDOCK:   -1.28 KCAL/MOL
REMARK 923 INTER-LIGAND FREE ENERGY PREDICTED BY IDOCK:   -1.26 KCAL/MOL
REMARK 924 INTRA-LIGAND FREE ENERGY PREDICTED BY IDOCK:   -0.02 KCAL/MOL
REMARK 927      BINDING AFFINITY PREDICTED BY RF-SCORE:    0.00 PKD
ROOT
HETATM    1  N   UNL     1      -6.612   3.812  72.641  1.00  0.00    -0.027 NA 
HETATM    2  C   UNL     1      -8.051   3.780  72.879  1.00  0.00    -0.086 C  
HETATM    3  H1  UNL     1      -6.086   3.622  73.494  1.00  0.00     0.000 HD 
HETATM    4  H2  UNL     1      -6.324   4.692  72.213  1.00  0.00     0.000 HD 
ENDROOT
BRANCH   2   5
HETATM    5  C   UNL     1      -8.839   4.064  71.598  1.00  0.00    -0.144 C  
BRANCH   5   6
HETATM    6  C   UNL     1      -8.848   5.533  71.153  1.00  0.00    -0.142 C  
BRANCH   6   7
HETATM    7  C   UNL     1     -10.118   5.917  70.391  1.00  0.00    -0.259 C  
BRANCH   7   8
HETATM    8  C   UNL     1      -9.831   6.192  68.917  1.00  0.00    -0.167 C  
HETATM    9  C   UNL     1      -9.380   7.618  68.698  1.00  0.00    -0.147 C  
HETATM   10  O   UNL     1      -9.209   8.452  69.571  1.00  0.00    -0.152 OA 
HETATM   11  O   UNL     1      -9.168   7.894  67.390  1.00  0.00    -0.137 OA 
ENDBRANCH   7   8
ENDBRANCH   6   7
ENDBRANCH   5   6
ENDBRANCH   2   5
TORSDOF 4
ENDMDL
MODEL      260
REMARK 921   NORMALIZED FREE ENERGY PREDICTED BY IDOCK:   -0.92 KCAL/MOL
REMARK 922        TOTAL FREE ENERGY PREDICTED BY IDOCK:   -1.23 KCAL/MOL
REMARK 923 INTER-LIGAND FREE ENERGY PREDICTED BY IDOCK:   -1.06 KCAL/MOL
REMARK 924 INTRA-LIGAND FREE ENERGY PREDICTED BY IDOCK:   -0.17 KCAL/MOL
REMARK 927      BINDING AFFINITY PREDICTED BY RF-SCORE:    0.00 PKD
ROOT
HETATM    1  N   UNL     1      -7.456   5.035  74.030  1.00  0.00    -0.083 NA 
HETATM    2  C   UNL     1      -7.579   6.400  73.531  1.00  0.00    -0.093 C  
HETATM    3  H1  UNL     1      -6.506   4.833  74.342  1.00  0.00     0.000 HD 
HETATM    4  H2  UNL     1      -7.774   4.355  73.340  1.00  0.00     0.000 HD 
ENDROOT
BRANCH   2   5
HETATM    5  C   UNL     1      -9.004   6.703  73.065  1.00  0.00    -0.139 C  
BRANCH   5   6
HETATM    6  C   UNL     1      -9.172   8.023  72.300  1.00  0.00    -0.243 C  
BRANCH   6   7
HETATM    7  C   UNL     1      -8.211   8.152  71.117  1.00  0.00    -0.123 C  
BRANCH   7   8
HETATM    8  C   UNL     1      -7.706   9.584  70.952  1.00  0.00    -0.022 C  
HETATM    9  C   UNL     1      -6.257   9.710  71.364  1.00  0.00     0.036 C  
HETATM   10  O   UNL     1      -5.542   8.796  71.736  1.00  0.00    -0.041 OA 
HETATM   11  O   UNL     1      -5.807  10.983  71.271  1.00  0.00    -0.353 OA 
ENDBRANCH   7   8
ENDBRANCH   6   7
ENDBRANCH   5   6
ENDBRANCH   2   5
TORSDOF 4
ENDMDL
MODEL      261
REMARK 921   NORMALIZED FREE ENERGY PREDICTED BY IDOCK:   -0.80 KCAL/MOL
REMARK 922        TOTAL FREE ENERGY PREDICTED BY IDOCK:   -1.08 KCAL/MOL
REMARK 923 INTER-LIGAND FREE ENERGY PREDICTED BY IDOCK:   -1.03 KCAL/MOL
REMARK 924 INTRA-LIGAND FREE ENERGY PREDICTED BY IDOCK:   -0.05 KCAL/MOL
REMARK 927      BINDING AFFINITY PREDICTED BY RF-SCORE:    0.00 PKD
ROOT
HETATM    1  N   UNL     1      -7.049   2.339  71.515  1.00  0.00    -0.031 NA 
HETATM    2  C   UNL     1      -6.397   3.622  71.757  1.00  0.00    -0.015 C  
HETATM    3  H1  UNL     1      -6.745   1.632  72.184  1.00  0.00     0.000 HD 
HETATM    4  H2  UNL     1      -6.912   2.027  70.554  1.00  0.00     0.000 HD 
ENDROOT
BRANCH   2   5
HETATM    5  C   UNL     1      -6.854   4.684  70.754  1.00  0.00    -0.036 C  
BRANCH   5   6
HETATM    6  C   UNL     1      -8.328   5.097  70.872  1.00  0.00    -0.114 C  
BRANCH   6   7
HETATM    7  C   UNL     1      -8.770   5.317  72.320  1.00  0.00    -0.129 C  
BRANCH   7   8
HETATM    8  C   UNL     1      -8.294   6.664  72.857  1.00  0.00    -0.121 C  
HETATM    9  C   UNL     1      -9.192   7.791  72.401  1.00  0.00    -0.164 C  
HETATM   10  O   UNL     1     -10.203   7.667  71.731  1.00  0.00    -0.186 OA 
HETATM   11  O   UNL     1      -8.757   8.999  72.828  1.00  0.00    -0.235 OA 
ENDBRANCH   7   8
ENDBRANCH   6   7
ENDBRANCH   5   6
ENDBRANCH   2   5
TORSDOF 4
ENDMDL
MODEL      262
REMARK 921   NORMALIZED FREE ENERGY PREDICTED BY IDOCK:   -0.80 KCAL/MOL
REMARK 922        TOTAL FREE ENERGY PREDICTED BY IDOCK:   -1.07 KCAL/MOL
REMARK 923 INTER-LIGAND FREE ENERGY PREDICTED BY IDOCK:   -1.12 KCAL/MOL
REMARK 924 INTRA-LIGAND FREE ENERGY PREDICTED BY IDOCK:    0.05 KCAL/MOL
REMARK 927      BINDING AFFINITY PREDICTED BY RF-SCORE:    0.00 PKD
ROOT
HETATM    1  N   UNL     1     -11.672  12.764  64.649  1.00  0.00    -0.337 NA 
HETATM    2  C   UNL     1     -11.538  12.283  66.020  1.00  0.00    -0.393 C  
HETATM    3  H1  UNL     1     -11.780  13.777  64.616  1.00  0.00     0.000 HD 
HETATM    4  H2  UNL     1     -12.433  12.291  64.161  1.00  0.00     0.000 HD 
ENDROOT
BRANCH   2   5
HETATM    5  C   UNL     1     -11.375  10.762  66.070  1.00  0.00     0.434 C  
BRANCH   5   6
HETATM    6  C   UNL     1     -10.170  10.212  65.295  1.00  0.00    -0.261 C  
BRANCH   6   7
HETATM    7  C   UNL     1      -8.838  10.786  65.781  1.00  0.00    -0.201 C  
BRANCH   7   8
HETATM    8  C   UNL     1      -8.779  10.867  67.304  1.00  0.00    -0.131 C  
HETATM    9  C   UNL     1      -7.456  10.364  67.834  1.00  0.00    -0.087 C  
HETATM   10  O   UNL     1      -6.517   9.982  67.156  1.00  0.00    -0.067 OA 
HETATM   11  O   UNL     1      -7.405  10.383  69.187  1.00  0.00    -0.082 OA 
ENDBRANCH   7   8
ENDBRANCH   6   7
ENDBRANCH   5   6
ENDBRANCH   2   5
TORSDOF 4
ENDMDL
MODEL      263
REMARK 921   NORMALIZED FREE ENERGY PREDICTED BY IDOCK:   -0.80 KCAL/MOL
REMARK 922        TOTAL FREE ENERGY PREDICTED BY IDOCK:   -1.07 KCAL/MOL
REMARK 923 INTER-LIGAND FREE ENERGY PREDICTED BY IDOCK:   -0.87 KCAL/MOL
REMARK 924 INTRA-LIGAND FREE ENERGY PREDICTED BY IDOCK:   -0.20 KCAL/MOL
REMARK 927      BINDING AFFINITY PREDICTED BY RF-SCORE:    0.00 PKD
ROOT
HETATM    1  N   UNL     1      -6.693   3.262  70.751  1.00  0.00    -0.032 NA 
HETATM    2  C   UNL     1      -5.978   4.532  70.806  1.00  0.00    -0.017 C  
HETATM    3  H1  UNL     1      -6.463   2.667  71.546  1.00  0.00     0.000 HD 
HETATM    4  H2  UNL     1      -6.532   2.781  69.866  1.00  0.00     0.000 HD 
ENDROOT
BRANCH   2   5
HETATM    5  C   UNL     1      -6.325   5.426  69.613  1.00  0.00    -0.030 C  
BRANCH   5   6
HETATM    6  C   UNL     1      -7.786   5.890  69.552  1.00  0.00    -0.098 C  
BRANCH   6   7
HETATM    7  C   UNL     1      -8.302   6.411  70.895  1.00  0.00    -0.126 C  
BRANCH   7   8
HETATM    8  C   UNL     1      -7.814   7.830  71.176  1.00  0.00    -0.089 C  
HETATM    9  C   UNL     1      -7.171   7.933  72.540  1.00  0.00    -0.090 C  
HETATM   10  O   UNL     1      -7.003   7.009  73.319  1.00  0.00    -0.073 OA 
HETATM   11  O   UNL     1      -6.776   9.195  72.827  1.00  0.00    -0.316 OA 
ENDBRANCH   7   8
ENDBRANCH   6   7
ENDBRANCH   5   6
ENDBRANCH   2   5
TORSDOF 4
ENDMDL
MODEL      264
REMARK 921   NORMALIZED FREE ENERGY PREDICTED BY IDOCK:   -0.80 KCAL/MOL
REMARK 922        TOTAL FREE ENERGY PREDICTED BY IDOCK:   -1.07 KCAL/MOL
REMARK 923 INTER-LIGAND FREE ENERGY PREDICTED BY IDOCK:   -0.91 KCAL/MOL
REMARK 924 INTRA-LIGAND FREE ENERGY PREDICTED BY IDOCK:   -0.15 KCAL/MOL
REMARK 927      BINDING AFFINITY PREDICTED BY RF-SCORE:    0.00 PKD
ROOT
HETATM    1  N   UNL     1      -8.698   8.962  68.641  1.00  0.00    -0.133 NA 
HETATM    2  C   UNL     1      -9.038  10.302  68.175  1.00  0.00    -0.136 C  
HETATM    3  H1  UNL     1      -9.328   8.651  69.380  1.00  0.00     0.000 HD 
HETATM    4  H2  UNL     1      -7.723   8.906  68.933  1.00  0.00     0.000 HD 
ENDROOT
BRANCH   2   5
HETATM    5  C   UNL     1      -8.094  10.769  67.065  1.00  0.00    -0.124 C  
BRANCH   5   6
HETATM    6  C   UNL     1      -6.728  10.070  67.038  1.00  0.00    -0.078 C  
BRANCH   6   7
HETATM    7  C   UNL     1      -6.381   9.492  65.665  1.00  0.00    -0.070 C  
BRANCH   7   8
HETATM    8  C   UNL     1      -7.105   8.173  65.407  1.00  0.00    -0.063 C  
HETATM    9  C   UNL     1      -7.312   7.935  63.929  1.00  0.00    -0.099 C  
HETATM   10  O   UNL     1      -6.919   8.660  63.030  1.00  0.00    -0.090 OA 
HETATM   11  O   UNL     1      -7.996   6.793  63.684  1.00  0.00    -0.120 OA 
ENDBRANCH   7   8
ENDBRANCH   6   7
ENDBRANCH   5   6
ENDBRANCH   2   5
TORSDOF 4
ENDMDL
MODEL      265
REMARK 921   NORMALIZED FREE ENERGY PREDICTED BY IDOCK:   -0.62 KCAL/MOL
REMARK 922        TOTAL FREE ENERGY PREDICTED BY IDOCK:   -0.85 KCAL/MOL
REMARK 923 INTER-LIGAND FREE ENERGY PREDICTED BY IDOCK:   -0.70 KCAL/MOL
REMARK 924 INTRA-LIGAND FREE ENERGY PREDICTED BY IDOCK:   -0.15 KCAL/MOL
REMARK 927      BINDING AFFINITY PREDICTED BY RF-SCORE:    0.00 PKD
ROOT
HETATM    1  N   UNL     1      -6.937   3.966  72.424  1.00  0.00    -0.045 NA 
HETATM    2  C   UNL     1      -8.183   3.487  71.834  1.00  0.00    -0.063 C  
HETATM    3  H1  UNL     1      -7.106   4.491  73.282  1.00  0.00     0.000 HD 
HETATM    4  H2  UNL     1      -6.393   4.510  71.755  1.00  0.00     0.000 HD 
ENDROOT
BRANCH   2   5
HETATM    5  C   UNL     1      -7.929   2.699  70.547  1.00  0.00    -0.050 C  
BRANCH   5   6
HETATM    6  C   UNL     1      -7.167   3.464  69.456  1.00  0.00    -0.045 C  
BRANCH   6   7
HETATM    7  C   UNL     1      -8.024   4.525  68.763  1.00  0.00    -0.078 C  
BRANCH   7   8
HETATM    8  C   UNL     1      -9.204   3.902  68.022  1.00  0.00    -0.212 C  
HETATM    9  C   UNL     1      -8.972   3.883  66.529  1.00  0.00    -0.134 C  
HETATM   10  O   UNL     1      -7.961   4.262  65.962  1.00  0.00    -0.097 OA 
HETATM   11  O   UNL     1     -10.029   3.379  65.851  1.00  0.00     0.024 OA 
ENDBRANCH   7   8
ENDBRANCH   6   7
ENDBRANCH   5   6
ENDBRANCH   2   5
TORSDOF 4
ENDMDL
