MODEL        1
REMARK 921   NORMALIZED FREE ENERGY PREDICTED BY IDOCK:   -6.32 KCAL/MOL
REMARK 922        TOTAL FREE ENERGY PREDICTED BY IDOCK:   -7.39 KCAL/MOL
REMARK 923 INTER-LIGAND FREE ENERGY PREDICTED BY IDOCK:   -7.06 KCAL/MOL
REMARK 924 INTRA-LIGAND FREE ENERGY PREDICTED BY IDOCK:   -0.33 KCAL/MOL
REMARK 927      BINDING AFFINITY PREDICTED BY RF-SCORE:    0.00 PKD
ROOT
HETATM    1  C   UNL     1      -8.431  13.447  67.251  1.00  0.00    -0.205 C  
HETATM    2  C   UNL     1      -9.606  13.106  66.340  1.00  0.00    -0.259 C  
ENDROOT
BRANCH   2   3
HETATM    3  C   UNL     1     -10.988  13.701  66.776  1.00  0.00    -0.297 C  
HETATM    4  C   UNL     1     -10.895  15.234  67.019  1.00  0.00    -0.321 C  
HETATM    5  O   UNL     1     -12.764  12.614  65.449  1.00  0.00    -0.635 OA 
HETATM    6  C   UNL     1     -10.447  16.012  65.793  1.00  0.00    -0.391 C  
HETATM    7  C   UNL     1     -11.944  13.521  65.568  1.00  0.00    -0.390 C  
HETATM    8  H   UNL     1     -12.101  14.105  63.611  1.00  0.00     0.000 HD 
HETATM    9  C   UNL     1     -11.332  15.705  64.620  1.00  0.00    -0.349 C  
HETATM   10  N   UNL     1     -11.812  14.424  64.535  1.00  0.00    -0.443 N  
HETATM   11  O   UNL     1     -11.605  16.543  63.763  1.00  0.00    -1.109 OA 
BRANCH   3  12
HETATM   12  C   UNL     1     -11.497  12.949  68.033  1.00  0.00    -0.361 A  
HETATM   13  C   UNL     1     -11.850  10.843  69.232  1.00  0.00    -0.395 A  
HETATM   14  N   UNL     1     -12.487  10.825  71.574  1.00  0.00    -0.364 NA 
HETATM   15  C   UNL     1     -12.226  12.909  70.367  1.00  0.00    -0.381 A  
HETATM   16  C   UNL     1     -11.904  13.614  69.203  1.00  0.00    -0.394 A  
HETATM   17  H2  UNL     1     -13.446  11.081  71.810  1.00  0.00     0.000 HD 
HETATM   18  H1  UNL     1     -12.408   9.809  71.611  1.00  0.00     0.000 HD 
HETATM   19  C   UNL     1     -11.524  11.543  68.065  1.00  0.00    -0.381 A  
HETATM   20  C   UNL     1     -12.118  11.523  70.418  1.00  0.00    -0.382 A  
ENDBRANCH   3  12
ENDBRANCH   2   3
TORSDOF 2
ENDMDL
MODEL        2
REMARK 921   NORMALIZED FREE ENERGY PREDICTED BY IDOCK:   -6.26 KCAL/MOL
REMARK 922        TOTAL FREE ENERGY PREDICTED BY IDOCK:   -7.33 KCAL/MOL
REMARK 923 INTER-LIGAND FREE ENERGY PREDICTED BY IDOCK:   -6.94 KCAL/MOL
REMARK 924 INTRA-LIGAND FREE ENERGY PREDICTED BY IDOCK:   -0.39 KCAL/MOL
REMARK 927      BINDING AFFINITY PREDICTED BY RF-SCORE:    0.00 PKD
ROOT
HETATM    1  C   UNL     1      -8.193  14.478  67.253  1.00  0.00    -0.230 C  
HETATM    2  C   UNL     1      -8.751  15.484  66.253  1.00  0.00    -0.283 C  
ENDROOT
BRANCH   2   3
HETATM    3  C   UNL     1     -10.311  15.622  66.238  1.00  0.00    -0.316 C  
HETATM    4  C   UNL     1     -10.881  15.770  67.677  1.00  0.00    -0.310 C  
HETATM    5  O   UNL     1     -10.953  17.063  64.339  1.00  0.00    -0.993 OA 
HETATM    6  C   UNL     1     -10.338  16.980  68.419  1.00  0.00    -0.351 C  
HETATM    7  C   UNL     1     -10.627  16.960  65.518  1.00  0.00    -0.202 C  
HETATM    8  H   UNL     1     -10.266  18.964  65.736  1.00  0.00     0.000 HD 
HETATM    9  C   UNL     1     -10.559  18.232  67.620  1.00  0.00    -0.405 C  
HETATM   10  N   UNL     1     -10.470  18.112  66.258  1.00  0.00    -0.388 N  
HETATM   11  O   UNL     1     -10.790  19.319  68.147  1.00  0.00    -0.247 OA 
BRANCH   3  12
HETATM   12  C   UNL     1     -10.926  14.408  65.497  1.00  0.00    -0.330 A  
HETATM   13  C   UNL     1     -12.889  13.060  64.921  1.00  0.00    -0.368 A  
HETATM   14  N   UNL     1     -12.778  11.356  63.198  1.00  0.00    -0.737 NA 
HETATM   15  C   UNL     1     -10.813  12.624  63.827  1.00  0.00    -0.466 A  
HETATM   16  C   UNL     1     -10.196  13.626  64.584  1.00  0.00    -0.338 A  
HETATM   17  H2  UNL     1     -12.289  10.488  63.415  1.00  0.00     0.000 HD 
HETATM   18  H1  UNL     1     -13.781  11.185  63.270  1.00  0.00     0.000 HD 
HETATM   19  C   UNL     1     -12.279  14.066  65.679  1.00  0.00    -0.462 A  
HETATM   20  C   UNL     1     -12.181  12.391  63.926  1.00  0.00    -0.513 A  
ENDBRANCH   3  12
ENDBRANCH   2   3
TORSDOF 2
ENDMDL
MODEL        3
REMARK 921   NORMALIZED FREE ENERGY PREDICTED BY IDOCK:   -6.22 KCAL/MOL
REMARK 922        TOTAL FREE ENERGY PREDICTED BY IDOCK:   -7.28 KCAL/MOL
REMARK 923 INTER-LIGAND FREE ENERGY PREDICTED BY IDOCK:   -6.87 KCAL/MOL
REMARK 924 INTRA-LIGAND FREE ENERGY PREDICTED BY IDOCK:   -0.41 KCAL/MOL
REMARK 927      BINDING AFFINITY PREDICTED BY RF-SCORE:    0.00 PKD
ROOT
HETATM    1  C   UNL     1     -10.580  16.017  68.957  1.00  0.00    -0.257 C  
HETATM    2  C   UNL     1     -11.155  16.185  67.555  1.00  0.00    -0.175 C  
ENDROOT
BRANCH   2   3
HETATM    3  C   UNL     1     -10.100  16.232  66.398  1.00  0.00    -0.318 C  
HETATM    4  C   UNL     1      -9.115  15.032  66.480  1.00  0.00    -0.319 C  
HETATM    5  O   UNL     1     -11.238  16.951  64.328  1.00  0.00    -1.204 OA 
HETATM    6  C   UNL     1      -9.803  13.680  66.395  1.00  0.00    -0.302 C  
HETATM    7  C   UNL     1     -10.890  16.041  65.076  1.00  0.00    -0.404 C  
HETATM    8  H   UNL     1     -12.094  14.653  64.172  1.00  0.00     0.000 HD 
HETATM    9  C   UNL     1     -10.653  13.597  65.160  1.00  0.00    -0.361 C  
HETATM   10  N   UNL     1     -11.269  14.754  64.762  1.00  0.00    -0.391 N  
HETATM   11  O   UNL     1     -10.812  12.547  64.539  1.00  0.00    -0.294 OA 
BRANCH   3  12
HETATM   12  C   UNL     1      -9.356  17.591  66.436  1.00  0.00    -0.265 A  
HETATM   13  C   UNL     1      -9.377  19.995  66.906  1.00  0.00    -0.515 A  
HETATM   14  N   UNL     1      -7.319  21.280  66.960  1.00  0.00    -0.795 NA 
HETATM   15  C   UNL     1      -7.304  18.922  66.406  1.00  0.00    -0.267 A  
HETATM   16  C   UNL     1      -7.970  17.704  66.229  1.00  0.00    -0.292 A  
HETATM   17  H2  UNL     1      -6.865  21.493  66.071  1.00  0.00     0.000 HD 
HETATM   18  H1  UNL     1      -7.820  22.112  67.271  1.00  0.00     0.000 HD 
HETATM   19  C   UNL     1     -10.048  18.780  66.734  1.00  0.00    -0.409 A  
HETATM   20  C   UNL     1      -7.988  20.057  66.830  1.00  0.00    -0.309 A  
ENDBRANCH   3  12
ENDBRANCH   2   3
TORSDOF 2
ENDMDL
MODEL        4
REMARK 921   NORMALIZED FREE ENERGY PREDICTED BY IDOCK:   -6.17 KCAL/MOL
REMARK 922        TOTAL FREE ENERGY PREDICTED BY IDOCK:   -7.22 KCAL/MOL
REMARK 923 INTER-LIGAND FREE ENERGY PREDICTED BY IDOCK:   -7.05 KCAL/MOL
REMARK 924 INTRA-LIGAND FREE ENERGY PREDICTED BY IDOCK:   -0.17 KCAL/MOL
REMARK 927      BINDING AFFINITY PREDICTED BY RF-SCORE:    0.00 PKD
ROOT
HETATM    1  C   UNL     1     -10.611  11.663  63.497  1.00  0.00    -0.496 C  
HETATM    2  C   UNL     1      -9.925  12.290  64.706  1.00  0.00    -0.215 C  
ENDROOT
BRANCH   2   3
HETATM    3  C   UNL     1     -10.885  12.942  65.759  1.00  0.00    -0.292 C  
HETATM    4  C   UNL     1     -10.323  14.295  66.278  1.00  0.00    -0.297 C  
HETATM    5  O   UNL     1     -13.214  12.605  65.012  1.00  0.00    -0.753 OA 
HETATM    6  C   UNL     1     -10.112  15.322  65.178  1.00  0.00    -0.323 C  
HETATM    7  C   UNL     1     -12.195  13.289  65.003  1.00  0.00    -0.432 C  
HETATM    8  H   UNL     1     -12.823  14.450  63.437  1.00  0.00     0.000 HD 
HETATM    9  C   UNL     1     -11.379  15.527  64.398  1.00  0.00    -0.252 C  
HETATM   10  N   UNL     1     -12.176  14.426  64.225  1.00  0.00    -0.473 N  
HETATM   11  O   UNL     1     -11.689  16.617  63.919  1.00  0.00    -1.153 OA 
BRANCH   3  12
HETATM   12  C   UNL     1     -11.134  11.940  66.916  1.00  0.00    -0.356 A  
HETATM   13  C   UNL     1     -10.754   9.737  67.918  1.00  0.00    -0.312 A  
HETATM   14  N   UNL     1     -11.419   9.268  70.204  1.00  0.00    -0.423 NA 
HETATM   15  C   UNL     1     -11.877  11.419  69.187  1.00  0.00    -0.413 A  
HETATM   16  C   UNL     1     -11.789  12.302  68.106  1.00  0.00    -0.372 A  
HETATM   17  H2  UNL     1     -12.413   9.147  70.397  1.00  0.00     0.000 HD 
HETATM   18  H1  UNL     1     -10.985   8.346  70.165  1.00  0.00     0.000 HD 
HETATM   19  C   UNL     1     -10.660  10.618  66.834  1.00  0.00    -0.311 A  
HETATM   20  C   UNL     1     -11.285  10.160  69.134  1.00  0.00    -0.183 A  
ENDBRANCH   3  12
ENDBRANCH   2   3
TORSDOF 2
ENDMDL
MODEL        5
REMARK 921   NORMALIZED FREE ENERGY PREDICTED BY IDOCK:   -6.16 KCAL/MOL
REMARK 922        TOTAL FREE ENERGY PREDICTED BY IDOCK:   -7.21 KCAL/MOL
REMARK 923 INTER-LIGAND FREE ENERGY PREDICTED BY IDOCK:   -6.84 KCAL/MOL
REMARK 924 INTRA-LIGAND FREE ENERGY PREDICTED BY IDOCK:   -0.37 KCAL/MOL
REMARK 927      BINDING AFFINITY PREDICTED BY RF-SCORE:    0.00 PKD
ROOT
HETATM    1  C   UNL     1      -8.337  13.711  67.789  1.00  0.00    -0.181 C  
HETATM    2  C   UNL     1      -9.442  13.462  66.768  1.00  0.00    -0.263 C  
ENDROOT
BRANCH   2   3
HETATM    3  C   UNL     1     -10.846  14.047  67.141  1.00  0.00    -0.288 C  
HETATM    4  C   UNL     1     -10.807  15.598  67.238  1.00  0.00    -0.298 C  
HETATM    5  O   UNL     1     -12.576  12.778  65.918  1.00  0.00    -0.518 OA 
HETATM    6  C   UNL     1     -10.379  16.272  65.945  1.00  0.00    -0.381 C  
HETATM    7  C   UNL     1     -11.789  13.720  65.953  1.00  0.00    -0.383 C  
HETATM    8  H   UNL     1     -11.954  14.110  63.949  1.00  0.00     0.000 HD 
HETATM    9  C   UNL     1     -11.246  15.824  64.804  1.00  0.00    -0.366 C  
HETATM   10  N   UNL     1     -11.681  14.525  64.840  1.00  0.00    -0.384 N  
HETATM   11  O   UNL     1     -11.543  16.567  63.870  1.00  0.00    -1.175 OA 
BRANCH   3  12
HETATM   12  C   UNL     1     -11.336  13.400  68.462  1.00  0.00    -0.324 A  
HETATM   13  C   UNL     1     -12.509  13.603  70.604  1.00  0.00    -0.417 A  
HETATM   14  N   UNL     1     -13.065  11.641  71.919  1.00  0.00    -0.455 NA 
HETATM   15  C   UNL     1     -11.827  11.444  69.847  1.00  0.00    -0.435 A  
HETATM   16  C   UNL     1     -11.253  12.018  68.707  1.00  0.00    -0.316 A  
HETATM   17  H2  UNL     1     -12.310  11.170  72.417  1.00  0.00     0.000 HD 
HETATM   18  H1  UNL     1     -13.584  12.209  72.588  1.00  0.00     0.000 HD 
HETATM   19  C   UNL     1     -11.939  14.183  69.464  1.00  0.00    -0.389 A  
HETATM   20  C   UNL     1     -12.535  12.219  70.760  1.00  0.00    -0.265 A  
ENDBRANCH   3  12
ENDBRANCH   2   3
TORSDOF 2
ENDMDL
MODEL        6
REMARK 921   NORMALIZED FREE ENERGY PREDICTED BY IDOCK:   -5.85 KCAL/MOL
REMARK 922        TOTAL FREE ENERGY PREDICTED BY IDOCK:   -6.86 KCAL/MOL
REMARK 923 INTER-LIGAND FREE ENERGY PREDICTED BY IDOCK:   -6.47 KCAL/MOL
REMARK 924 INTRA-LIGAND FREE ENERGY PREDICTED BY IDOCK:   -0.39 KCAL/MOL
REMARK 927      BINDING AFFINITY PREDICTED BY RF-SCORE:    0.00 PKD
ROOT
HETATM    1  C   UNL     1     -11.108  14.845  68.535  1.00  0.00    -0.275 C  
HETATM    2  C   UNL     1     -11.587  15.462  67.226  1.00  0.00    -0.094 C  
ENDROOT
BRANCH   2   3
HETATM    3  C   UNL     1     -10.464  15.767  66.177  1.00  0.00    -0.326 C  
HETATM    4  C   UNL     1      -9.423  14.615  66.109  1.00  0.00    -0.308 C  
HETATM    5  O   UNL     1     -11.504  16.814  64.197  1.00  0.00    -1.171 OA 
HETATM    6  C   UNL     1     -10.031  13.275  65.727  1.00  0.00    -0.261 C  
HETATM    7  C   UNL     1     -11.156  15.795  64.788  1.00  0.00    -0.400 C  
HETATM    8  H   UNL     1     -12.224  14.552  63.560  1.00  0.00     0.000 HD 
HETATM    9  C   UNL     1     -10.794  13.390  64.439  1.00  0.00    -0.406 C  
HETATM   10  N   UNL     1     -11.444  14.575  64.217  1.00  0.00    -0.246 N  
HETATM   11  O   UNL     1     -10.857  12.470  63.625  1.00  0.00    -0.423 OA 
BRANCH   3  12
HETATM   12  C   UNL     1      -9.798  17.125  66.518  1.00  0.00    -0.305 A  
HETATM   13  C   UNL     1      -7.873  18.630  66.359  1.00  0.00    -0.305 A  
HETATM   14  N   UNL     1      -8.033  20.950  67.053  1.00  0.00    -0.579 NA 
HETATM   15  C   UNL     1      -9.913  19.442  67.295  1.00  0.00    -0.470 A  
HETATM   16  C   UNL     1     -10.499  18.183  67.125  1.00  0.00    -0.392 A  
HETATM   17  H2  UNL     1      -8.062  21.149  68.053  1.00  0.00     0.000 HD 
HETATM   18  H1  UNL     1      -7.090  21.140  66.715  1.00  0.00     0.000 HD 
HETATM   19  C   UNL     1      -8.454  17.370  66.182  1.00  0.00    -0.198 A  
HETATM   20  C   UNL     1      -8.625  19.700  66.835  1.00  0.00    -0.315 A  
ENDBRANCH   3  12
ENDBRANCH   2   3
TORSDOF 2
ENDMDL
MODEL        7
REMARK 921   NORMALIZED FREE ENERGY PREDICTED BY IDOCK:   -5.83 KCAL/MOL
REMARK 922        TOTAL FREE ENERGY PREDICTED BY IDOCK:   -6.84 KCAL/MOL
REMARK 923 INTER-LIGAND FREE ENERGY PREDICTED BY IDOCK:   -6.42 KCAL/MOL
REMARK 924 INTRA-LIGAND FREE ENERGY PREDICTED BY IDOCK:   -0.42 KCAL/MOL
REMARK 927      BINDING AFFINITY PREDICTED BY RF-SCORE:    0.00 PKD
ROOT
HETATM    1  C   UNL     1      -8.372  11.907  67.225  1.00  0.00    -0.169 C  
HETATM    2  C   UNL     1      -9.303  12.454  68.302  1.00  0.00    -0.199 C  
ENDROOT
BRANCH   2   3
HETATM    3  C   UNL     1     -10.831  12.390  67.963  1.00  0.00    -0.251 C  
HETATM    4  C   UNL     1     -11.253  10.963  67.515  1.00  0.00    -0.364 C  
HETATM    5  O   UNL     1     -12.060  13.741  69.625  1.00  0.00    -0.318 OA 
HETATM    6  C   UNL     1     -10.990   9.898  68.567  1.00  0.00    -0.226 C  
HETATM    7  C   UNL     1     -11.587  12.658  69.292  1.00  0.00    -0.318 C  
HETATM    8  H   UNL     1     -11.777  11.844  71.162  1.00  0.00     0.000 HD 
HETATM    9  C   UNL     1     -11.640  10.269  69.868  1.00  0.00    -0.256 C  
HETATM   10  N   UNL     1     -11.675  11.604  70.175  1.00  0.00    -0.321 N  
HETATM   11  O   UNL     1     -12.104   9.429  70.637  1.00  0.00    -0.239 OA 
BRANCH   3  12
HETATM   12  C   UNL     1     -11.163  13.454  66.885  1.00  0.00    -0.330 A  
HETATM   13  C   UNL     1     -10.657  15.595  65.807  1.00  0.00    -0.374 A  
HETATM   14  N   UNL     1     -11.729  16.235  63.727  1.00  0.00    -1.488 NA 
HETATM   15  C   UNL     1     -12.298  14.158  64.836  1.00  0.00    -0.446 A  
HETATM   16  C   UNL     1     -12.118  13.239  65.875  1.00  0.00    -0.493 A  
HETATM   17  H2  UNL     1     -12.707  16.523  63.762  1.00  0.00     0.000 HD 
HETATM   18  H1  UNL     1     -11.151  17.072  63.660  1.00  0.00     0.000 HD 
HETATM   19  C   UNL     1     -10.470  14.678  66.848  1.00  0.00    -0.270 A  
HETATM   20  C   UNL     1     -11.509  15.301  64.746  1.00  0.00    -0.363 A  
ENDBRANCH   3  12
ENDBRANCH   2   3
TORSDOF 2
ENDMDL
MODEL        8
REMARK 921   NORMALIZED FREE ENERGY PREDICTED BY IDOCK:   -5.74 KCAL/MOL
REMARK 922        TOTAL FREE ENERGY PREDICTED BY IDOCK:   -6.74 KCAL/MOL
REMARK 923 INTER-LIGAND FREE ENERGY PREDICTED BY IDOCK:   -6.48 KCAL/MOL
REMARK 924 INTRA-LIGAND FREE ENERGY PREDICTED BY IDOCK:   -0.26 KCAL/MOL
REMARK 927      BINDING AFFINITY PREDICTED BY RF-SCORE:    0.00 PKD
ROOT
HETATM    1  C   UNL     1      -7.453  11.248  66.458  1.00  0.00    -0.105 C  
HETATM    2  C   UNL     1      -8.723  11.517  67.258  1.00  0.00    -0.151 C  
ENDROOT
BRANCH   2   3
HETATM    3  C   UNL     1     -10.065  11.302  66.479  1.00  0.00    -0.256 C  
HETATM    4  C   UNL     1      -9.916  10.209  65.384  1.00  0.00    -0.377 C  
HETATM    5  O   UNL     1     -11.932  11.403  68.092  1.00  0.00    -0.594 OA 
HETATM    6  C   UNL     1      -9.505   8.855  65.935  1.00  0.00    -0.303 C  
HETATM    7  C   UNL     1     -11.082  10.737  67.506  1.00  0.00    -0.308 C  
HETATM    8  H   UNL     1     -11.315   9.111  68.728  1.00  0.00     0.000 HD 
HETATM    9  C   UNL     1     -10.453   8.413  67.013  1.00  0.00    -0.305 C  
HETATM   10  N   UNL     1     -10.973   9.399  67.811  1.00  0.00    -0.155 N  
HETATM   11  O   UNL     1     -10.743   7.232  67.193  1.00  0.00    -0.315 OA 
BRANCH   3  12
HETATM   12  C   UNL     1     -10.535  12.654  65.884  1.00  0.00    -0.295 A  
HETATM   13  C   UNL     1     -10.323  15.091  65.756  1.00  0.00    -0.354 A  
HETATM   14  N   UNL     1     -11.465  16.361  64.032  1.00  0.00    -1.573 NA 
HETATM   15  C   UNL     1     -11.748  13.962  64.209  1.00  0.00    -0.406 A  
HETATM   16  C   UNL     1     -11.448  12.738  64.817  1.00  0.00    -0.356 A  
HETATM   17  H2  UNL     1     -12.473  16.488  64.120  1.00  0.00     0.000 HD 
HETATM   18  H1  UNL     1     -11.006  17.221  64.330  1.00  0.00     0.000 HD 
HETATM   19  C   UNL     1     -10.016  13.870  66.367  1.00  0.00    -0.303 A  
HETATM   20  C   UNL     1     -11.122  15.136  64.617  1.00  0.00    -0.324 A  
ENDBRANCH   3  12
ENDBRANCH   2   3
TORSDOF 2
ENDMDL
MODEL        9
REMARK 921   NORMALIZED FREE ENERGY PREDICTED BY IDOCK:   -5.71 KCAL/MOL
REMARK 922        TOTAL FREE ENERGY PREDICTED BY IDOCK:   -6.71 KCAL/MOL
REMARK 923 INTER-LIGAND FREE ENERGY PREDICTED BY IDOCK:   -6.31 KCAL/MOL
REMARK 924 INTRA-LIGAND FREE ENERGY PREDICTED BY IDOCK:   -0.40 KCAL/MOL
REMARK 927      BINDING AFFINITY PREDICTED BY RF-SCORE:    0.00 PKD
ROOT
HETATM    1  C   UNL     1      -7.269  15.925  67.287  1.00  0.00    -0.251 C  
HETATM    2  C   UNL     1      -8.174  16.736  66.365  1.00  0.00    -0.349 C  
ENDROOT
BRANCH   2   3
HETATM    3  C   UNL     1      -9.661  16.877  66.837  1.00  0.00    -0.262 C  
HETATM    4  C   UNL     1      -9.748  17.498  68.259  1.00  0.00    -0.311 C  
HETATM    5  O   UNL     1     -11.026  17.616  64.917  1.00  0.00    -0.886 OA 
HETATM    6  C   UNL     1      -9.123  18.880  68.354  1.00  0.00    -0.383 C  
HETATM    7  C   UNL     1     -10.328  17.905  65.885  1.00  0.00    -0.259 C  
HETATM    8  H   UNL     1     -10.124  19.865  65.326  1.00  0.00     0.000 HD 
HETATM    9  C   UNL     1      -9.717  19.799  67.326  1.00  0.00    -0.370 C  
HETATM   10  N   UNL     1     -10.060  19.235  66.126  1.00  0.00    -0.428 N  
HETATM   11  O   UNL     1      -9.876  21.002  67.531  1.00  0.00    -0.369 OA 
BRANCH   3  12
HETATM   12  C   UNL     1     -10.353  15.492  66.770  1.00  0.00    -0.288 A  
HETATM   13  C   UNL     1     -10.535  13.270  65.754  1.00  0.00    -0.289 A  
HETATM   14  N   UNL     1     -11.905  11.539  66.762  1.00  0.00    -0.446 NA 
HETATM   15  C   UNL     1     -11.799  13.762  67.718  1.00  0.00    -0.404 A  
HETATM   16  C   UNL     1     -11.294  15.067  67.725  1.00  0.00    -0.340 A  
HETATM   17  H2  UNL     1     -12.918  11.623  66.677  1.00  0.00     0.000 HD 
HETATM   18  H1  UNL     1     -11.582  10.855  66.079  1.00  0.00     0.000 HD 
HETATM   19  C   UNL     1     -10.023  14.573  65.757  1.00  0.00    -0.361 A  
HETATM   20  C   UNL     1     -11.359  12.828  66.786  1.00  0.00    -0.313 A  
ENDBRANCH   3  12
ENDBRANCH   2   3
TORSDOF 2
ENDMDL
MODEL       10
REMARK 921   NORMALIZED FREE ENERGY PREDICTED BY IDOCK:   -5.70 KCAL/MOL
REMARK 922        TOTAL FREE ENERGY PREDICTED BY IDOCK:   -6.70 KCAL/MOL
REMARK 923 INTER-LIGAND FREE ENERGY PREDICTED BY IDOCK:   -6.81 KCAL/MOL
REMARK 924 INTRA-LIGAND FREE ENERGY PREDICTED BY IDOCK:    0.11 KCAL/MOL
REMARK 927      BINDING AFFINITY PREDICTED BY RF-SCORE:    0.00 PKD
ROOT
HETATM    1  C   UNL     1      -8.208  15.299  69.104  1.00  0.00    -0.234 C  
HETATM    2  C   UNL     1      -9.198  14.768  68.072  1.00  0.00    -0.194 C  
ENDROOT
BRANCH   2   3
HETATM    3  C   UNL     1     -10.638  15.379  68.146  1.00  0.00    -0.263 C  
HETATM    4  C   UNL     1     -10.636  16.885  67.761  1.00  0.00    -0.340 C  
HETATM    5  O   UNL     1     -12.240  13.724  67.256  1.00  0.00    -0.375 OA 
HETATM    6  C   UNL     1     -10.118  17.147  66.357  1.00  0.00    -0.326 C  
HETATM    7  C   UNL     1     -11.476  14.663  67.053  1.00  0.00    -0.368 C  
HETATM    8  H   UNL     1     -11.486  14.412  65.021  1.00  0.00     0.000 HD 
HETATM    9  C   UNL     1     -10.882  16.334  65.352  1.00  0.00    -0.273 C  
HETATM   10  N   UNL     1     -11.294  15.092  65.757  1.00  0.00    -0.317 N  
HETATM   11  O   UNL     1     -11.116  16.741  64.215  1.00  0.00    -1.106 OA 
BRANCH   3  12
HETATM   12  C   UNL     1     -11.221  15.148  69.564  1.00  0.00    -0.286 A  
HETATM   13  C   UNL     1     -11.883  16.046  71.745  1.00  0.00    -0.599 A  
HETATM   14  N   UNL     1     -13.164  14.710  73.315  1.00  0.00    -0.589 NA 
HETATM   15  C   UNL     1     -12.434  13.789  71.196  1.00  0.00    -0.450 A  
HETATM   16  C   UNL     1     -11.793  13.926  69.961  1.00  0.00    -0.384 A  
HETATM   17  H2  UNL     1     -12.681  13.960  73.809  1.00  0.00     0.000 HD 
HETATM   18  H1  UNL     1     -13.257  15.503  73.949  1.00  0.00     0.000 HD 
HETATM   19  C   UNL     1     -11.243  16.190  70.509  1.00  0.00    -0.381 A  
HETATM   20  C   UNL     1     -12.560  14.871  72.062  1.00  0.00    -0.326 A  
ENDBRANCH   3  12
ENDBRANCH   2   3
TORSDOF 2
ENDMDL
MODEL       11
REMARK 921   NORMALIZED FREE ENERGY PREDICTED BY IDOCK:   -5.67 KCAL/MOL
REMARK 922        TOTAL FREE ENERGY PREDICTED BY IDOCK:   -6.67 KCAL/MOL
REMARK 923 INTER-LIGAND FREE ENERGY PREDICTED BY IDOCK:   -6.50 KCAL/MOL
REMARK 924 INTRA-LIGAND FREE ENERGY PREDICTED BY IDOCK:   -0.17 KCAL/MOL
REMARK 927      BINDING AFFINITY PREDICTED BY RF-SCORE:    0.00 PKD
ROOT
HETATM    1  C   UNL     1     -11.678  13.917  68.291  1.00  0.00    -0.396 C  
HETATM    2  C   UNL     1     -12.215  13.264  67.022  1.00  0.00    -0.310 C  
ENDROOT
BRANCH   2   3
HETATM    3  C   UNL     1     -11.180  13.110  65.856  1.00  0.00    -0.311 C  
HETATM    4  C   UNL     1     -11.830  13.413  64.477  1.00  0.00    -0.440 C  
HETATM    5  O   UNL     1      -9.016  14.038  66.601  1.00  0.00    -0.231 OA 
HETATM    6  C   UNL     1     -12.404  14.816  64.376  1.00  0.00    -0.389 C  
HETATM    7  C   UNL     1     -10.110  14.214  66.071  1.00  0.00    -0.316 C  
HETATM    8  H   UNL     1      -9.982  16.256  66.165  1.00  0.00     0.000 HD 
HETATM    9  C   UNL     1     -11.359  15.840  64.715  1.00  0.00    -0.314 C  
HETATM   10  N   UNL     1     -10.453  15.490  65.682  1.00  0.00    -0.347 N  
HETATM   11  O   UNL     1     -11.317  16.944  64.176  1.00  0.00    -1.208 OA 
BRANCH   3  12
HETATM   12  C   UNL     1     -10.562  11.689  65.903  1.00  0.00    -0.318 A  
HETATM   13  C   UNL     1     -10.288   9.544  67.052  1.00  0.00    -0.319 A  
HETATM   14  N   UNL     1      -9.253   7.650  65.943  1.00  0.00    -0.382 NA 
HETATM   15  C   UNL     1      -9.441   9.796  64.835  1.00  0.00    -0.331 A  
HETATM   16  C   UNL     1      -9.867  11.128  64.817  1.00  0.00    -0.326 A  
HETATM   17  H2  UNL     1      -8.242   7.668  65.810  1.00  0.00     0.000 HD 
HETATM   18  H1  UNL     1      -9.461   7.043  66.735  1.00  0.00     0.000 HD 
HETATM   19  C   UNL     1     -10.720  10.875  67.039  1.00  0.00    -0.323 A  
HETATM   20  C   UNL     1      -9.724   8.968  65.917  1.00  0.00    -0.236 A  
ENDBRANCH   3  12
ENDBRANCH   2   3
TORSDOF 2
ENDMDL
MODEL       12
REMARK 921   NORMALIZED FREE ENERGY PREDICTED BY IDOCK:   -5.66 KCAL/MOL
REMARK 922        TOTAL FREE ENERGY PREDICTED BY IDOCK:   -6.65 KCAL/MOL
REMARK 923 INTER-LIGAND FREE ENERGY PREDICTED BY IDOCK:   -6.61 KCAL/MOL
REMARK 924 INTRA-LIGAND FREE ENERGY PREDICTED BY IDOCK:   -0.04 KCAL/MOL
REMARK 927      BINDING AFFINITY PREDICTED BY RF-SCORE:    0.00 PKD
ROOT
HETATM    1  C   UNL     1      -9.041  12.910  68.140  1.00  0.00    -0.207 C  
HETATM    2  C   UNL     1      -9.439  14.236  68.779  1.00  0.00    -0.131 C  
ENDROOT
BRANCH   2   3
HETATM    3  C   UNL     1     -10.897  14.720  68.471  1.00  0.00    -0.255 C  
HETATM    4  C   UNL     1     -11.927  14.062  69.432  1.00  0.00    -0.390 C  
HETATM    5  O   UNL     1     -10.830  17.132  67.951  1.00  0.00    -0.363 OA 
HETATM    6  C   UNL     1     -11.664  14.365  70.897  1.00  0.00    -0.281 C  
HETATM    7  C   UNL     1     -10.932  16.238  68.787  1.00  0.00    -0.343 C  
HETATM    8  H   UNL     1     -10.651  17.501  70.374  1.00  0.00     0.000 HD 
HETATM    9  C   UNL     1     -11.583  15.847  71.124  1.00  0.00    -0.432 C  
HETATM   10  N   UNL     1     -11.030  16.591  70.115  1.00  0.00    -0.304 N  
HETATM   11  O   UNL     1     -11.972  16.377  72.163  1.00  0.00    -0.509 OA 
BRANCH   3  12
HETATM   12  C   UNL     1     -11.230  14.430  66.984  1.00  0.00    -0.336 A  
HETATM   13  C   UNL     1     -12.640  13.325  65.314  1.00  0.00    -0.528 A  
HETATM   14  N   UNL     1     -12.473  13.891  62.960  1.00  0.00    -1.009 NA 
HETATM   15  C   UNL     1     -11.015  14.920  64.598  1.00  0.00    -0.323 A  
HETATM   16  C   UNL     1     -10.599  15.100  65.921  1.00  0.00    -0.347 A  
HETATM   17  H2  UNL     1     -11.660  13.555  62.445  1.00  0.00     0.000 HD 
HETATM   18  H1  UNL     1     -13.265  13.288  62.736  1.00  0.00     0.000 HD 
HETATM   19  C   UNL     1     -12.230  13.503  66.641  1.00  0.00    -0.411 A  
HETATM   20  C   UNL     1     -12.096  14.098  64.292  1.00  0.00    -0.444 A  
ENDBRANCH   3  12
ENDBRANCH   2   3
TORSDOF 2
ENDMDL
MODEL       13
REMARK 921   NORMALIZED FREE ENERGY PREDICTED BY IDOCK:   -5.60 KCAL/MOL
REMARK 922        TOTAL FREE ENERGY PREDICTED BY IDOCK:   -6.59 KCAL/MOL
REMARK 923 INTER-LIGAND FREE ENERGY PREDICTED BY IDOCK:   -6.32 KCAL/MOL
REMARK 924 INTRA-LIGAND FREE ENERGY PREDICTED BY IDOCK:   -0.27 KCAL/MOL
REMARK 927      BINDING AFFINITY PREDICTED BY RF-SCORE:    0.00 PKD
ROOT
HETATM    1  C   UNL     1      -9.481  15.814  68.206  1.00  0.00    -0.200 C  
HETATM    2  C   UNL     1      -9.873  14.504  68.881  1.00  0.00    -0.191 C  
ENDROOT
BRANCH   2   3
HETATM    3  C   UNL     1     -11.413  14.225  68.961  1.00  0.00    -0.318 C  
HETATM    4  C   UNL     1     -12.148  14.736  67.690  1.00  0.00    -0.138 C  
HETATM    5  O   UNL     1     -11.754  11.990  69.954  1.00  0.00    -0.314 OA 
HETATM    6  C   UNL     1     -11.650  14.095  66.406  1.00  0.00    -0.380 C  
HETATM    7  C   UNL     1     -11.580  12.682  68.955  1.00  0.00    -0.317 C  
HETATM    8  H   UNL     1     -11.163  11.079  67.750  1.00  0.00     0.000 HD 
HETATM    9  C   UNL     1     -11.716  12.598  66.503  1.00  0.00    -0.400 C  
HETATM   10  N   UNL     1     -11.466  12.053  67.735  1.00  0.00    -0.305 N  
HETATM   11  O   UNL     1     -11.964  11.885  65.532  1.00  0.00    -0.399 OA 
BRANCH   3  12
HETATM   12  C   UNL     1     -11.984  14.863  70.253  1.00  0.00    -0.365 A  
HETATM   13  C   UNL     1     -13.909  15.396  71.670  1.00  0.00    -0.606 A  
HETATM   14  N   UNL     1     -13.610  16.222  73.933  1.00  0.00    -0.800 NA 
HETATM   15  C   UNL     1     -11.705  15.781  72.503  1.00  0.00    -0.566 A  
HETATM   16  C   UNL     1     -11.163  15.338  71.292  1.00  0.00    -0.375 A  
HETATM   17  H2  UNL     1     -13.299  17.186  74.052  1.00  0.00     0.000 HD 
HETATM   18  H1  UNL     1     -14.615  16.186  74.103  1.00  0.00     0.000 HD 
HETATM   19  C   UNL     1     -13.373  14.948  70.458  1.00  0.00    -0.145 A  
HETATM   20  C   UNL     1     -13.077  15.733  72.735  1.00  0.00    -0.503 A  
ENDBRANCH   3  12
ENDBRANCH   2   3
TORSDOF 2
ENDMDL
MODEL       14
REMARK 921   NORMALIZED FREE ENERGY PREDICTED BY IDOCK:   -5.59 KCAL/MOL
REMARK 922        TOTAL FREE ENERGY PREDICTED BY IDOCK:   -6.57 KCAL/MOL
REMARK 923 INTER-LIGAND FREE ENERGY PREDICTED BY IDOCK:   -6.43 KCAL/MOL
REMARK 924 INTRA-LIGAND FREE ENERGY PREDICTED BY IDOCK:   -0.14 KCAL/MOL
REMARK 927      BINDING AFFINITY PREDICTED BY RF-SCORE:    0.00 PKD
ROOT
HETATM    1  C   UNL     1      -9.123  13.893  67.757  1.00  0.00    -0.191 C  
HETATM    2  C   UNL     1      -9.023  14.780  66.521  1.00  0.00    -0.267 C  
ENDROOT
BRANCH   2   3
HETATM    3  C   UNL     1     -10.234  15.745  66.286  1.00  0.00    -0.317 C  
HETATM    4  C   UNL     1     -10.817  15.585  64.854  1.00  0.00    -0.447 C  
HETATM    5  O   UNL     1     -11.602  15.800  68.341  1.00  0.00    -0.373 OA 
HETATM    6  C   UNL     1     -11.310  14.179  64.557  1.00  0.00    -0.355 C  
HETATM    7  C   UNL     1     -11.356  15.284  67.254  1.00  0.00    -0.269 C  
HETATM    8  H   UNL     1     -12.506  13.631  67.624  1.00  0.00     0.000 HD 
HETATM    9  C   UNL     1     -12.300  13.736  65.595  1.00  0.00    -0.482 C  
HETATM   10  N   UNL     1     -12.084  14.178  66.874  1.00  0.00    -0.446 N  
HETATM   11  O   UNL     1     -13.249  13.001  65.330  1.00  0.00    -0.636 OA 
BRANCH   3  12
HETATM   12  C   UNL     1      -9.790  17.203  66.568  1.00  0.00    -0.305 A  
HETATM   13  C   UNL     1      -8.167  18.767  67.528  1.00  0.00    -0.278 A  
HETATM   14  N   UNL     1      -8.279  21.142  67.046  1.00  0.00    -0.573 NA 
HETATM   15  C   UNL     1      -9.938  19.612  66.168  1.00  0.00    -0.554 A  
HETATM   16  C   UNL     1     -10.442  18.317  66.010  1.00  0.00    -0.380 A  
HETATM   17  H2  UNL     1      -9.015  21.686  67.495  1.00  0.00     0.000 HD 
HETATM   18  H1  UNL     1      -7.407  21.308  67.549  1.00  0.00     0.000 HD 
HETATM   19  C   UNL     1      -8.665  17.468  67.370  1.00  0.00    -0.231 A  
HETATM   20  C   UNL     1      -8.749  19.838  66.855  1.00  0.00    -0.331 A  
ENDBRANCH   3  12
ENDBRANCH   2   3
TORSDOF 2
ENDMDL
MODEL       15
REMARK 921   NORMALIZED FREE ENERGY PREDICTED BY IDOCK:   -5.55 KCAL/MOL
REMARK 922        TOTAL FREE ENERGY PREDICTED BY IDOCK:   -6.53 KCAL/MOL
REMARK 923 INTER-LIGAND FREE ENERGY PREDICTED BY IDOCK:   -6.13 KCAL/MOL
REMARK 924 INTRA-LIGAND FREE ENERGY PREDICTED BY IDOCK:   -0.40 KCAL/MOL
REMARK 927      BINDING AFFINITY PREDICTED BY RF-SCORE:    0.00 PKD
ROOT
HETATM    1  C   UNL     1     -11.608  14.073  68.501  1.00  0.00    -0.357 C  
HETATM    2  C   UNL     1     -11.905  14.837  67.215  1.00  0.00    -0.316 C  
ENDROOT
BRANCH   2   3
HETATM    3  C   UNL     1     -10.665  15.121  66.302  1.00  0.00    -0.320 C  
HETATM    4  C   UNL     1      -9.754  13.868  66.176  1.00  0.00    -0.289 C  
HETATM    5  O   UNL     1     -11.399  16.498  64.388  1.00  0.00    -0.921 OA 
HETATM    6  C   UNL     1     -10.466  12.661  65.589  1.00  0.00    -0.298 C  
HETATM    7  C   UNL     1     -11.220  15.386  64.877  1.00  0.00    -0.403 C  
HETATM    8  H   UNL     1     -12.301  14.423  63.428  1.00  0.00     0.000 HD 
HETATM    9  C   UNL     1     -11.092  13.008  64.269  1.00  0.00    -0.385 C  
HETATM   10  N   UNL     1     -11.586  14.280  64.142  1.00  0.00    -0.262 N  
HETATM   11  O   UNL     1     -11.180  12.198  63.348  1.00  0.00    -0.427 OA 
BRANCH   3  12
HETATM   12  C   UNL     1      -9.889  16.344  66.856  1.00  0.00    -0.266 A  
HETATM   13  C   UNL     1      -9.854  18.382  68.213  1.00  0.00    -0.383 A  
HETATM   14  N   UNL     1      -7.766  19.499  68.745  1.00  0.00    -0.352 NA 
HETATM   15  C   UNL     1      -7.805  17.535  67.328  1.00  0.00    -0.221 A  
HETATM   16  C   UNL     1      -8.499  16.495  66.701  1.00  0.00    -0.299 A  
HETATM   17  H2  UNL     1      -7.304  20.026  68.004  1.00  0.00     0.000 HD 
HETATM   18  H1  UNL     1      -8.248  20.159  69.355  1.00  0.00     0.000 HD 
HETATM   19  C   UNL     1     -10.553  17.342  67.591  1.00  0.00    -0.350 A  
HETATM   20  C   UNL     1      -8.463  18.436  68.160  1.00  0.00    -0.285 A  
ENDBRANCH   3  12
ENDBRANCH   2   3
TORSDOF 2
ENDMDL
MODEL       16
REMARK 921   NORMALIZED FREE ENERGY PREDICTED BY IDOCK:   -5.46 KCAL/MOL
REMARK 922        TOTAL FREE ENERGY PREDICTED BY IDOCK:   -6.43 KCAL/MOL
REMARK 923 INTER-LIGAND FREE ENERGY PREDICTED BY IDOCK:   -6.01 KCAL/MOL
REMARK 924 INTRA-LIGAND FREE ENERGY PREDICTED BY IDOCK:   -0.42 KCAL/MOL
REMARK 927      BINDING AFFINITY PREDICTED BY RF-SCORE:    0.00 PKD
ROOT
HETATM    1  C   UNL     1     -11.843  11.768  68.947  1.00  0.00    -0.381 C  
HETATM    2  C   UNL     1     -11.451  10.968  67.710  1.00  0.00    -0.339 C  
ENDROOT
BRANCH   2   3
HETATM    3  C   UNL     1     -10.255  11.553  66.883  1.00  0.00    -0.249 C  
HETATM    4  C   UNL     1      -9.010  11.794  67.781  1.00  0.00    -0.173 C  
HETATM    5  O   UNL     1     -10.185  10.414  64.693  1.00  0.00    -0.346 OA 
HETATM    6  C   UNL     1      -8.501  10.533  68.459  1.00  0.00    -0.131 C  
HETATM    7  C   UNL     1      -9.841  10.452  65.872  1.00  0.00    -0.235 C  
HETATM    8  H   UNL     1      -9.142   8.526  65.871  1.00  0.00     0.000 HD 
HETATM    9  C   UNL     1      -8.235   9.459  67.445  1.00  0.00    -0.121 C  
HETATM   10  N   UNL     1      -9.075   9.417  66.363  1.00  0.00    -0.153 N  
HETATM   11  O   UNL     1      -7.325   8.641  67.573  1.00  0.00    -0.086 OA 
BRANCH   3  12
HETATM   12  C   UNL     1     -10.712  12.851  66.170  1.00  0.00    -0.290 A  
HETATM   13  C   UNL     1     -10.178  15.072  65.286  1.00  0.00    -0.409 A  
HETATM   14  N   UNL     1     -11.749  16.273  63.880  1.00  0.00    -1.518 NA 
HETATM   15  C   UNL     1     -12.316  14.116  64.825  1.00  0.00    -0.436 A  
HETATM   16  C   UNL     1     -11.982  12.988  65.581  1.00  0.00    -0.479 A  
HETATM   17  H2  UNL     1     -12.570  16.685  64.324  1.00  0.00     0.000 HD 
HETATM   18  H1  UNL     1     -11.069  17.014  63.714  1.00  0.00     0.000 HD 
HETATM   19  C   UNL     1      -9.836  13.944  66.041  1.00  0.00    -0.306 A  
HETATM   20  C   UNL     1     -11.388  15.128  64.599  1.00  0.00    -0.356 A  
ENDBRANCH   3  12
ENDBRANCH   2   3
TORSDOF 2
ENDMDL
MODEL       17
REMARK 921   NORMALIZED FREE ENERGY PREDICTED BY IDOCK:   -5.40 KCAL/MOL
REMARK 922        TOTAL FREE ENERGY PREDICTED BY IDOCK:   -6.36 KCAL/MOL
REMARK 923 INTER-LIGAND FREE ENERGY PREDICTED BY IDOCK:   -6.56 KCAL/MOL
REMARK 924 INTRA-LIGAND FREE ENERGY PREDICTED BY IDOCK:    0.19 KCAL/MOL
REMARK 927      BINDING AFFINITY PREDICTED BY RF-SCORE:    0.00 PKD
ROOT
HETATM    1  C   UNL     1      -8.814  13.034  67.106  1.00  0.00    -0.218 C  
HETATM    2  C   UNL     1      -9.737  13.934  66.292  1.00  0.00    -0.304 C  
ENDROOT
BRANCH   2   3
HETATM    3  C   UNL     1     -11.239  13.934  66.738  1.00  0.00    -0.328 C  
HETATM    4  C   UNL     1     -12.131  14.708  65.727  1.00  0.00    -0.201 C  
HETATM    5  O   UNL     1     -11.788  11.704  67.645  1.00  0.00    -0.575 OA 
HETATM    6  C   UNL     1     -12.089  14.133  64.322  1.00  0.00    -0.471 C  
HETATM    7  C   UNL     1     -11.714  12.458  66.678  1.00  0.00    -0.372 C  
HETATM    8  H   UNL     1     -11.928  10.949  65.310  1.00  0.00     0.000 HD 
HETATM    9  C   UNL     1     -12.435  12.672  64.339  1.00  0.00    -0.428 C  
HETATM   10  N   UNL     1     -12.020  11.958  65.432  1.00  0.00    -0.119 N  
HETATM   11  O   UNL     1     -13.043  12.128  63.418  1.00  0.00    -0.752 OA 
BRANCH   3  12
HETATM   12  C   UNL     1     -11.349  14.519  68.169  1.00  0.00    -0.319 A  
HETATM   13  C   UNL     1     -11.004  16.385  69.718  1.00  0.00    -0.341 A  
HETATM   14  N   UNL     1     -11.966  16.360  71.946  1.00  0.00    -0.658 NA 
HETATM   15  C   UNL     1     -12.234  14.474  70.449  1.00  0.00    -0.394 A  
HETATM   16  C   UNL     1     -12.031  13.861  69.208  1.00  0.00    -0.402 A  
HETATM   17  H2  UNL     1     -11.541  15.748  72.643  1.00  0.00     0.000 HD 
HETATM   18  H1  UNL     1     -11.647  17.313  72.119  1.00  0.00     0.000 HD 
HETATM   19  C   UNL     1     -10.801  15.779  68.473  1.00  0.00    -0.290 A  
HETATM   20  C   UNL     1     -11.798  15.774  70.686  1.00  0.00    -0.385 A  
ENDBRANCH   3  12
ENDBRANCH   2   3
TORSDOF 2
ENDMDL
MODEL       18
REMARK 921   NORMALIZED FREE ENERGY PREDICTED BY IDOCK:   -5.39 KCAL/MOL
REMARK 922        TOTAL FREE ENERGY PREDICTED BY IDOCK:   -6.36 KCAL/MOL
REMARK 923 INTER-LIGAND FREE ENERGY PREDICTED BY IDOCK:   -5.96 KCAL/MOL
REMARK 924 INTRA-LIGAND FREE ENERGY PREDICTED BY IDOCK:   -0.40 KCAL/MOL
REMARK 927      BINDING AFFINITY PREDICTED BY RF-SCORE:    0.00 PKD
ROOT
HETATM    1  C   UNL     1      -7.432  14.723  67.674  1.00  0.00    -0.203 C  
HETATM    2  C   UNL     1      -8.821  14.823  68.295  1.00  0.00    -0.179 C  
ENDROOT
BRANCH   2   3
HETATM    3  C   UNL     1      -9.930  15.427  67.368  1.00  0.00    -0.229 C  
HETATM    4  C   UNL     1      -9.921  14.759  65.964  1.00  0.00    -0.336 C  
HETATM    5  O   UNL     1     -11.967  15.790  68.716  1.00  0.00    -0.374 OA 
HETATM    6  C   UNL     1     -10.153  13.258  66.008  1.00  0.00    -0.301 C  
HETATM    7  C   UNL     1     -11.292  15.048  68.008  1.00  0.00    -0.327 C  
HETATM    8  H   UNL     1     -12.361  13.374  68.508  1.00  0.00     0.000 HD 
HETATM    9  C   UNL     1     -11.421  12.942  66.748  1.00  0.00    -0.340 C  
HETATM   10  N   UNL     1     -11.734  13.759  67.802  1.00  0.00    -0.338 N  
HETATM   11  O   UNL     1     -12.140  11.991  66.446  1.00  0.00    -0.610 OA 
BRANCH   3  12
HETATM   12  C   UNL     1      -9.742  16.963  67.277  1.00  0.00    -0.251 A  
HETATM   13  C   UNL     1     -10.248  19.089  66.171  1.00  0.00    -0.508 A  
HETATM   14  N   UNL     1      -9.617  21.206  67.175  1.00  0.00    -0.592 NA 
HETATM   15  C   UNL     1      -9.035  19.103  68.227  1.00  0.00    -0.379 A  
HETATM   16  C   UNL     1      -9.070  17.705  68.265  1.00  0.00    -0.276 A  
HETATM   17  H2  UNL     1      -8.632  21.469  67.154  1.00  0.00     0.000 HD 
HETATM   18  H1  UNL     1     -10.103  21.724  66.443  1.00  0.00     0.000 HD 
HETATM   19  C   UNL     1     -10.290  17.690  66.205  1.00  0.00    -0.342 A  
HETATM   20  C   UNL     1      -9.698  19.810  67.228  1.00  0.00    -0.370 A  
ENDBRANCH   3  12
ENDBRANCH   2   3
TORSDOF 2
ENDMDL
MODEL       19
REMARK 921   NORMALIZED FREE ENERGY PREDICTED BY IDOCK:   -5.39 KCAL/MOL
REMARK 922        TOTAL FREE ENERGY PREDICTED BY IDOCK:   -6.35 KCAL/MOL
REMARK 923 INTER-LIGAND FREE ENERGY PREDICTED BY IDOCK:   -5.95 KCAL/MOL
REMARK 924 INTRA-LIGAND FREE ENERGY PREDICTED BY IDOCK:   -0.40 KCAL/MOL
REMARK 927      BINDING AFFINITY PREDICTED BY RF-SCORE:    0.00 PKD
ROOT
HETATM    1  C   UNL     1     -12.024  15.386  69.559  1.00  0.00    -0.358 C  
HETATM    2  C   UNL     1     -10.605  15.076  69.096  1.00  0.00    -0.251 C  
ENDROOT
BRANCH   2   3
HETATM    3  C   UNL     1     -10.227  15.622  67.677  1.00  0.00    -0.261 C  
HETATM    4  C   UNL     1     -10.635  17.113  67.516  1.00  0.00    -0.323 C  
HETATM    5  O   UNL     1      -8.019  14.714  67.049  1.00  0.00    -0.189 OA 
HETATM    6  C   UNL     1      -9.975  18.032  68.531  1.00  0.00    -0.395 C  
HETATM    7  C   UNL     1      -8.678  15.595  67.594  1.00  0.00    -0.175 C  
HETATM    8  H   UNL     1      -7.057  16.412  68.543  1.00  0.00     0.000 HD 
HETATM    9  C   UNL     1      -8.482  17.873  68.495  1.00  0.00    -0.298 C  
HETATM   10  N   UNL     1      -8.007  16.615  68.232  1.00  0.00    -0.184 N  
HETATM   11  O   UNL     1      -7.715  18.810  68.705  1.00  0.00    -0.326 OA 
BRANCH   3  12
HETATM   12  C   UNL     1     -10.880  14.726  66.593  1.00  0.00    -0.319 A  
HETATM   13  C   UNL     1     -11.911  12.598  65.954  1.00  0.00    -0.497 A  
HETATM   14  N   UNL     1     -13.033  12.340  63.818  1.00  0.00    -0.786 NA 
HETATM   15  C   UNL     1     -11.937  14.418  64.409  1.00  0.00    -0.471 A  
HETATM   16  C   UNL     1     -11.225  15.208  65.317  1.00  0.00    -0.359 A  
HETATM   17  H2  UNL     1     -12.456  12.272  62.980  1.00  0.00     0.000 HD 
HETATM   18  H1  UNL     1     -13.345  11.402  64.069  1.00  0.00     0.000 HD 
HETATM   19  C   UNL     1     -11.202  13.385  66.869  1.00  0.00    -0.330 A  
HETATM   20  C   UNL     1     -12.362  13.137  64.752  1.00  0.00    -0.423 A  
ENDBRANCH   3  12
ENDBRANCH   2   3
TORSDOF 2
ENDMDL
MODEL       20
REMARK 921   NORMALIZED FREE ENERGY PREDICTED BY IDOCK:   -5.36 KCAL/MOL
REMARK 922        TOTAL FREE ENERGY PREDICTED BY IDOCK:   -6.32 KCAL/MOL
REMARK 923 INTER-LIGAND FREE ENERGY PREDICTED BY IDOCK:   -6.20 KCAL/MOL
REMARK 924 INTRA-LIGAND FREE ENERGY PREDICTED BY IDOCK:   -0.13 KCAL/MOL
REMARK 927      BINDING AFFINITY PREDICTED BY RF-SCORE:    0.00 PKD
ROOT
HETATM    1  C   UNL     1      -8.988  15.868  66.119  1.00  0.00    -0.376 C  
HETATM    2  C   UNL     1     -10.509  15.782  66.047  1.00  0.00    -0.350 C  
ENDROOT
BRANCH   2   3
HETATM    3  C   UNL     1     -11.139  14.485  66.660  1.00  0.00    -0.333 C  
HETATM    4  C   UNL     1     -12.410  14.048  65.880  1.00  0.00    -0.515 C  
HETATM    5  O   UNL     1      -9.311  12.953  67.299  1.00  0.00    -0.198 OA 
HETATM    6  C   UNL     1     -12.148  13.759  64.411  1.00  0.00    -0.474 C  
HETATM    7  C   UNL     1     -10.101  13.351  66.447  1.00  0.00    -0.292 C  
HETATM    8  H   UNL     1      -9.147  12.386  64.913  1.00  0.00     0.000 HD 
HETATM    9  C   UNL     1     -11.048  12.747  64.261  1.00  0.00    -0.370 C  
HETATM   10  N   UNL     1     -10.039  12.799  65.186  1.00  0.00    -0.260 N  
HETATM   11  O   UNL     1     -11.033  11.921  63.350  1.00  0.00    -0.403 OA 
BRANCH   3  12
HETATM   12  C   UNL     1     -11.437  14.721  68.162  1.00  0.00    -0.343 A  
HETATM   13  C   UNL     1     -12.171  13.848  70.331  1.00  0.00    -0.438 A  
HETATM   14  N   UNL     1     -11.906  15.151  72.361  1.00  0.00    -0.395 NA 
HETATM   15  C   UNL     1     -11.263  16.053  70.207  1.00  0.00    -0.397 A  
HETATM   16  C   UNL     1     -11.109  15.918  68.823  1.00  0.00    -0.328 A  
HETATM   17  H2  UNL     1     -12.534  15.942  72.506  1.00  0.00     0.000 HD 
HETATM   18  H1  UNL     1     -12.236  14.372  72.930  1.00  0.00     0.000 HD 
HETATM   19  C   UNL     1     -12.016  13.707  68.947  1.00  0.00    -0.392 A  
HETATM   20  C   UNL     1     -11.713  14.990  70.984  1.00  0.00    -0.332 A  
ENDBRANCH   3  12
ENDBRANCH   2   3
TORSDOF 2
ENDMDL
MODEL       21
REMARK 921   NORMALIZED FREE ENERGY PREDICTED BY IDOCK:   -5.32 KCAL/MOL
REMARK 922        TOTAL FREE ENERGY PREDICTED BY IDOCK:   -6.27 KCAL/MOL
REMARK 923 INTER-LIGAND FREE ENERGY PREDICTED BY IDOCK:   -6.10 KCAL/MOL
REMARK 924 INTRA-LIGAND FREE ENERGY PREDICTED BY IDOCK:   -0.17 KCAL/MOL
REMARK 927      BINDING AFFINITY PREDICTED BY RF-SCORE:    0.00 PKD
ROOT
HETATM    1  C   UNL     1      -9.471  16.395  69.139  1.00  0.00    -0.236 C  
HETATM    2  C   UNL     1     -10.548  17.010  68.252  1.00  0.00    -0.372 C  
ENDROOT
BRANCH   2   3
HETATM    3  C   UNL     1     -10.264  16.952  66.713  1.00  0.00    -0.306 C  
HETATM    4  C   UNL     1     -10.718  18.259  66.003  1.00  0.00    -0.193 C  
HETATM    5  O   UNL     1      -8.071  15.875  66.360  1.00  0.00    -0.265 OA 
HETATM    6  C   UNL     1     -10.027  19.504  66.533  1.00  0.00    -0.518 C  
HETATM    7  C   UNL     1      -8.721  16.898  66.553  1.00  0.00    -0.269 C  
HETATM    8  H   UNL     1      -7.072  18.026  67.004  1.00  0.00     0.000 HD 
HETATM    9  C   UNL     1      -8.535  19.347  66.471  1.00  0.00    -0.337 C  
HETATM   10  N   UNL     1      -8.043  18.088  66.697  1.00  0.00    -0.249 N  
HETATM   11  O   UNL     1      -7.781  20.293  66.249  1.00  0.00    -0.267 OA 
BRANCH   3  12
HETATM   12  C   UNL     1     -10.952  15.701  66.110  1.00  0.00    -0.206 A  
HETATM   13  C   UNL     1     -12.167  13.599  66.435  1.00  0.00    -0.472 A  
HETATM   14  N   UNL     1     -13.203  12.448  64.567  1.00  0.00    -0.771 NA 
HETATM   15  C   UNL     1     -11.927  14.478  64.229  1.00  0.00    -0.419 A  
HETATM   16  C   UNL     1     -11.182  15.551  64.731  1.00  0.00    -0.399 A  
HETATM   17  H2  UNL     1     -12.595  11.955  63.913  1.00  0.00     0.000 HD 
HETATM   18  H1  UNL     1     -13.623  11.761  65.193  1.00  0.00     0.000 HD 
HETATM   19  C   UNL     1     -11.425  14.671  66.944  1.00  0.00    -0.372 A  
HETATM   20  C   UNL     1     -12.499  13.541  65.084  1.00  0.00    -0.451 A  
ENDBRANCH   3  12
ENDBRANCH   2   3
TORSDOF 2
ENDMDL
MODEL       22
REMARK 921   NORMALIZED FREE ENERGY PREDICTED BY IDOCK:   -5.29 KCAL/MOL
REMARK 922        TOTAL FREE ENERGY PREDICTED BY IDOCK:   -6.24 KCAL/MOL
REMARK 923 INTER-LIGAND FREE ENERGY PREDICTED BY IDOCK:   -5.85 KCAL/MOL
REMARK 924 INTRA-LIGAND FREE ENERGY PREDICTED BY IDOCK:   -0.38 KCAL/MOL
REMARK 927      BINDING AFFINITY PREDICTED BY RF-SCORE:    0.00 PKD
ROOT
HETATM    1  C   UNL     1      -9.484  14.330  67.885  1.00  0.00    -0.212 C  
HETATM    2  C   UNL     1      -9.527  13.269  66.790  1.00  0.00    -0.257 C  
ENDROOT
BRANCH   2   3
HETATM    3  C   UNL     1     -10.809  12.369  66.778  1.00  0.00    -0.283 C  
HETATM    4  C   UNL     1     -12.104  13.227  66.727  1.00  0.00    -0.403 C  
HETATM    5  O   UNL     1     -10.383  10.418  65.326  1.00  0.00    -0.284 OA 
HETATM    6  C   UNL     1     -12.184  14.126  65.505  1.00  0.00    -0.443 C  
HETATM    7  C   UNL     1     -10.775  11.575  65.445  1.00  0.00    -0.278 C  
HETATM    8  H   UNL     1     -10.776  11.927  63.427  1.00  0.00     0.000 HD 
HETATM    9  C   UNL     1     -12.020  13.323  64.247  1.00  0.00    -0.421 C  
HETATM   10  N   UNL     1     -11.165  12.254  64.311  1.00  0.00    -0.327 N  
HETATM   11  O   UNL     1     -12.602  13.608  63.202  1.00  0.00    -0.792 OA 
BRANCH   3  12
HETATM   12  C   UNL     1     -10.789  11.429  68.011  1.00  0.00    -0.264 A  
HETATM   13  C   UNL     1      -9.533  10.003  69.556  1.00  0.00    -0.245 A  
HETATM   14  N   UNL     1     -10.547   9.169  71.597  1.00  0.00    -0.362 NA 
HETATM   15  C   UNL     1     -11.819  10.504  70.027  1.00  0.00    -0.388 A  
HETATM   16  C   UNL     1     -11.906  11.248  68.845  1.00  0.00    -0.413 A  
HETATM   17  H2  UNL     1     -11.233   8.419  71.517  1.00  0.00     0.000 HD 
HETATM   18  H1  UNL     1      -9.661   8.762  71.897  1.00  0.00     0.000 HD 
HETATM   19  C   UNL     1      -9.612  10.749  68.374  1.00  0.00    -0.177 A  
HETATM   20  C   UNL     1     -10.610   9.949  70.436  1.00  0.00    -0.302 A  
ENDBRANCH   3  12
ENDBRANCH   2   3
TORSDOF 2
ENDMDL
MODEL       23
REMARK 921   NORMALIZED FREE ENERGY PREDICTED BY IDOCK:   -5.27 KCAL/MOL
REMARK 922        TOTAL FREE ENERGY PREDICTED BY IDOCK:   -6.22 KCAL/MOL
REMARK 923 INTER-LIGAND FREE ENERGY PREDICTED BY IDOCK:   -6.16 KCAL/MOL
REMARK 924 INTRA-LIGAND FREE ENERGY PREDICTED BY IDOCK:   -0.05 KCAL/MOL
REMARK 927      BINDING AFFINITY PREDICTED BY RF-SCORE:    0.00 PKD
ROOT
HETATM    1  C   UNL     1     -10.806  10.643  68.485  1.00  0.00    -0.275 C  
HETATM    2  C   UNL     1     -11.780  11.400  67.587  1.00  0.00    -0.246 C  
ENDROOT
BRANCH   2   3
HETATM    3  C   UNL     1     -11.299  12.815  67.118  1.00  0.00    -0.365 C  
HETATM    4  C   UNL     1      -9.812  12.787  66.665  1.00  0.00    -0.250 C  
HETATM    5  O   UNL     1     -13.119  13.874  65.829  1.00  0.00    -0.526 OA 
HETATM    6  C   UNL     1      -9.549  11.829  65.516  1.00  0.00    -0.222 C  
HETATM    7  C   UNL     1     -12.121  13.159  65.848  1.00  0.00    -0.444 C  
HETATM    8  H   UNL     1     -12.438  12.435  63.958  1.00  0.00     0.000 HD 
HETATM    9  C   UNL     1     -10.459  12.128  64.360  1.00  0.00    -0.317 C  
HETATM   10  N   UNL     1     -11.720  12.564  64.672  1.00  0.00    -0.342 N  
HETATM   11  O   UNL     1     -10.111  11.977  63.190  1.00  0.00    -0.414 OA 
BRANCH   3  12
HETATM   12  C   UNL     1     -11.536  13.841  68.255  1.00  0.00    -0.348 A  
HETATM   13  C   UNL     1     -12.136  14.309  70.584  1.00  0.00    -0.417 A  
HETATM   14  N   UNL     1     -11.824  16.517  71.540  1.00  0.00    -0.616 NA 
HETATM   15  C   UNL     1     -11.314  16.081  69.212  1.00  0.00    -0.356 A  
HETATM   16  C   UNL     1     -11.219  15.205  68.126  1.00  0.00    -0.326 A  
HETATM   17  H2  UNL     1     -12.471  17.254  71.261  1.00  0.00     0.000 HD 
HETATM   18  H1  UNL     1     -12.099  16.181  72.463  1.00  0.00     0.000 HD 
HETATM   19  C   UNL     1     -12.041  13.426  69.501  1.00  0.00    -0.334 A  
HETATM   20  C   UNL     1     -11.689  15.623  70.472  1.00  0.00    -0.366 A  
ENDBRANCH   3  12
ENDBRANCH   2   3
TORSDOF 2
ENDMDL
MODEL       24
REMARK 921   NORMALIZED FREE ENERGY PREDICTED BY IDOCK:   -5.22 KCAL/MOL
REMARK 922        TOTAL FREE ENERGY PREDICTED BY IDOCK:   -6.17 KCAL/MOL
REMARK 923 INTER-LIGAND FREE ENERGY PREDICTED BY IDOCK:   -6.52 KCAL/MOL
REMARK 924 INTRA-LIGAND FREE ENERGY PREDICTED BY IDOCK:    0.35 KCAL/MOL
REMARK 927      BINDING AFFINITY PREDICTED BY RF-SCORE:    0.00 PKD
ROOT
HETATM    1  C   UNL     1      -9.011  13.157  68.160  1.00  0.00    -0.195 C  
HETATM    2  C   UNL     1      -9.910  14.000  67.261  1.00  0.00    -0.242 C  
ENDROOT
BRANCH   2   3
HETATM    3  C   UNL     1     -11.443  13.702  67.375  1.00  0.00    -0.365 C  
HETATM    4  C   UNL     1     -12.278  14.683  66.504  1.00  0.00    -0.154 C  
HETATM    5  O   UNL     1     -11.768  11.255  67.403  1.00  0.00    -0.580 OA 
HETATM    6  C   UNL     1     -11.927  14.625  65.027  1.00  0.00    -0.364 C  
HETATM    7  C   UNL     1     -11.665  12.295  66.759  1.00  0.00    -0.342 C  
HETATM    8  H   UNL     1     -11.422  11.327  64.971  1.00  0.00     0.000 HD 
HETATM    9  C   UNL     1     -12.037  13.219  64.512  1.00  0.00    -0.408 C  
HETATM   10  N   UNL     1     -11.690  12.220  65.384  1.00  0.00    -0.378 N  
HETATM   11  O   UNL     1     -12.401  12.963  63.366  1.00  0.00    -0.653 OA 
BRANCH   3  12
HETATM   12  C   UNL     1     -11.866  13.754  68.866  1.00  0.00    -0.396 A  
HETATM   13  C   UNL     1     -12.766  15.017  70.762  1.00  0.00    -0.438 A  
HETATM   14  N   UNL     1     -13.421  13.901  72.815  1.00  0.00    -0.669 NA 
HETATM   15  C   UNL     1     -12.448  12.661  70.976  1.00  0.00    -0.354 A  
HETATM   16  C   UNL     1     -11.932  12.606  69.677  1.00  0.00    -0.352 A  
HETATM   17  H2  UNL     1     -12.682  13.567  73.433  1.00  0.00     0.000 HD 
HETATM   18  H1  UNL     1     -13.789  14.772  73.197  1.00  0.00     0.000 HD 
HETATM   19  C   UNL     1     -12.254  14.969  69.460  1.00  0.00    -0.267 A  
HETATM   20  C   UNL     1     -12.949  13.850  71.498  1.00  0.00    -0.358 A  
ENDBRANCH   3  12
ENDBRANCH   2   3
TORSDOF 2
ENDMDL
MODEL       25
REMARK 921   NORMALIZED FREE ENERGY PREDICTED BY IDOCK:   -5.18 KCAL/MOL
REMARK 922        TOTAL FREE ENERGY PREDICTED BY IDOCK:   -6.13 KCAL/MOL
REMARK 923 INTER-LIGAND FREE ENERGY PREDICTED BY IDOCK:   -6.13 KCAL/MOL
REMARK 924 INTRA-LIGAND FREE ENERGY PREDICTED BY IDOCK:    0.01 KCAL/MOL
REMARK 927      BINDING AFFINITY PREDICTED BY RF-SCORE:    0.00 PKD
ROOT
HETATM    1  C   UNL     1      -9.332  16.171  67.188  1.00  0.00    -0.225 C  
HETATM    2  C   UNL     1     -10.833  15.913  67.113  1.00  0.00    -0.267 C  
ENDROOT
BRANCH   2   3
HETATM    3  C   UNL     1     -11.276  14.437  67.394  1.00  0.00    -0.337 C  
HETATM    4  C   UNL     1     -12.387  13.980  66.408  1.00  0.00    -0.468 C  
HETATM    5  O   UNL     1      -9.267  13.105  67.930  1.00  0.00    -0.191 OA 
HETATM    6  C   UNL     1     -11.963  14.043  64.950  1.00  0.00    -0.416 C  
HETATM    7  C   UNL     1     -10.045  13.544  67.087  1.00  0.00    -0.245 C  
HETATM    8  H   UNL     1      -8.820  13.073  65.514  1.00  0.00     0.000 HD 
HETATM    9  C   UNL     1     -10.697  13.265  64.734  1.00  0.00    -0.378 C  
HETATM   10  N   UNL     1      -9.789  13.279  65.759  1.00  0.00    -0.239 N  
HETATM   11  O   UNL     1     -10.467  12.656  63.691  1.00  0.00    -0.414 OA 
BRANCH   3  12
HETATM   12  C   UNL     1     -11.729  14.310  68.871  1.00  0.00    -0.363 A  
HETATM   13  C   UNL     1     -12.611  15.352  70.905  1.00  0.00    -0.496 A  
HETATM   14  N   UNL     1     -13.363  14.005  72.779  1.00  0.00    -0.608 NA 
HETATM   15  C   UNL     1     -12.408  12.975  70.805  1.00  0.00    -0.394 A  
HETATM   16  C   UNL     1     -11.866  13.069  69.519  1.00  0.00    -0.385 A  
HETATM   17  H2  UNL     1     -12.654  13.555  73.358  1.00  0.00     0.000 HD 
HETATM   18  H1  UNL     1     -13.698  14.834  73.269  1.00  0.00     0.000 HD 
HETATM   19  C   UNL     1     -12.072  15.452  69.617  1.00  0.00    -0.354 A  
HETATM   20  C   UNL     1     -12.865  14.107  71.474  1.00  0.00    -0.354 A  
ENDBRANCH   3  12
ENDBRANCH   2   3
TORSDOF 2
ENDMDL
MODEL       26
REMARK 921   NORMALIZED FREE ENERGY PREDICTED BY IDOCK:   -5.13 KCAL/MOL
REMARK 922        TOTAL FREE ENERGY PREDICTED BY IDOCK:   -6.06 KCAL/MOL
REMARK 923 INTER-LIGAND FREE ENERGY PREDICTED BY IDOCK:   -5.90 KCAL/MOL
REMARK 924 INTRA-LIGAND FREE ENERGY PREDICTED BY IDOCK:   -0.16 KCAL/MOL
REMARK 927      BINDING AFFINITY PREDICTED BY RF-SCORE:    0.00 PKD
ROOT
HETATM    1  C   UNL     1     -12.034  15.038  64.493  1.00  0.00    -0.379 C  
HETATM    2  C   UNL     1     -12.412  14.068  65.607  1.00  0.00    -0.531 C  
ENDROOT
BRANCH   2   3
HETATM    3  C   UNL     1     -11.213  13.501  66.440  1.00  0.00    -0.322 C  
HETATM    4  C   UNL     1     -10.234  14.631  66.866  1.00  0.00    -0.262 C  
HETATM    5  O   UNL     1     -12.072  11.764  67.970  1.00  0.00    -0.572 OA 
HETATM    6  C   UNL     1     -10.888  15.709  67.713  1.00  0.00    -0.307 C  
HETATM    7  C   UNL     1     -11.817  12.946  67.757  1.00  0.00    -0.339 C  
HETATM    8  H   UNL     1     -12.873  13.608  69.382  1.00  0.00     0.000 HD 
HETATM    9  C   UNL     1     -11.564  15.103  68.909  1.00  0.00    -0.341 C  
HETATM   10  N   UNL     1     -12.135  13.870  68.729  1.00  0.00    -0.351 N  
HETATM   11  O   UNL     1     -11.626  15.678  69.994  1.00  0.00    -0.296 OA 
BRANCH   3  12
HETATM   12  C   UNL     1     -10.497  12.396  65.622  1.00  0.00    -0.290 A  
HETATM   13  C   UNL     1      -8.757  10.679  65.464  1.00  0.00    -0.199 A  
HETATM   14  N   UNL     1      -8.724   9.092  63.630  1.00  0.00    -0.404 NA 
HETATM   15  C   UNL     1     -10.393  10.844  63.734  1.00  0.00    -0.384 A  
HETATM   16  C   UNL     1     -10.980  11.935  64.384  1.00  0.00    -0.392 A  
HETATM   17  H2  UNL     1      -8.428   9.427  62.713  1.00  0.00     0.000 HD 
HETATM   18  H1  UNL     1      -7.947   8.585  64.052  1.00  0.00     0.000 HD 
HETATM   19  C   UNL     1      -9.341  11.769  66.121  1.00  0.00    -0.236 A  
HETATM   20  C   UNL     1      -9.332  10.153  64.311  1.00  0.00    -0.295 A  
ENDBRANCH   3  12
ENDBRANCH   2   3
TORSDOF 2
ENDMDL
MODEL       27
REMARK 921   NORMALIZED FREE ENERGY PREDICTED BY IDOCK:   -5.11 KCAL/MOL
REMARK 922        TOTAL FREE ENERGY PREDICTED BY IDOCK:   -6.04 KCAL/MOL
REMARK 923 INTER-LIGAND FREE ENERGY PREDICTED BY IDOCK:   -5.84 KCAL/MOL
REMARK 924 INTRA-LIGAND FREE ENERGY PREDICTED BY IDOCK:   -0.20 KCAL/MOL
REMARK 927      BINDING AFFINITY PREDICTED BY RF-SCORE:    0.00 PKD
ROOT
HETATM    1  C   UNL     1      -7.947  11.813  66.921  1.00  0.00    -0.149 C  
HETATM    2  C   UNL     1      -9.104  11.589  67.889  1.00  0.00    -0.167 C  
ENDROOT
BRANCH   2   3
HETATM    3  C   UNL     1     -10.383  10.934  67.266  1.00  0.00    -0.255 C  
HETATM    4  C   UNL     1     -10.041   9.605  66.535  1.00  0.00    -0.314 C  
HETATM    5  O   UNL     1     -12.254  11.197  68.856  1.00  0.00    -0.522 OA 
HETATM    6  C   UNL     1      -9.409   8.563  67.442  1.00  0.00    -0.178 C  
HETATM    7  C   UNL     1     -11.298  10.538  68.455  1.00  0.00    -0.257 C  
HETATM    8  H   UNL     1     -11.259   9.333  70.111  1.00  0.00     0.000 HD 
HETATM    9  C   UNL     1     -10.277   8.311  68.641  1.00  0.00    -0.204 C  
HETATM   10  N   UNL     1     -10.964   9.388  69.136  1.00  0.00    -0.149 N  
HETATM   11  O   UNL     1     -10.362   7.205  69.173  1.00  0.00    -0.188 OA 
BRANCH   3  12
HETATM   12  C   UNL     1     -11.072  11.950  66.320  1.00  0.00    -0.364 A  
HETATM   13  C   UNL     1     -12.041  14.170  65.953  1.00  0.00    -0.441 A  
HETATM   14  N   UNL     1     -12.595  14.943  63.721  1.00  0.00    -0.981 NA 
HETATM   15  C   UNL     1     -11.720  12.715  64.089  1.00  0.00    -0.468 A  
HETATM   16  C   UNL     1     -11.221  11.723  64.940  1.00  0.00    -0.328 A  
HETATM   17  H2  UNL     1     -13.418  14.547  63.269  1.00  0.00     0.000 HD 
HETATM   18  H1  UNL     1     -12.838  15.868  64.077  1.00  0.00     0.000 HD 
HETATM   19  C   UNL     1     -11.539  13.184  66.810  1.00  0.00    -0.414 A  
HETATM   20  C   UNL     1     -12.053  13.975  64.575  1.00  0.00    -0.459 A  
ENDBRANCH   3  12
ENDBRANCH   2   3
TORSDOF 2
ENDMDL
MODEL       28
REMARK 921   NORMALIZED FREE ENERGY PREDICTED BY IDOCK:   -5.10 KCAL/MOL
REMARK 922        TOTAL FREE ENERGY PREDICTED BY IDOCK:   -6.03 KCAL/MOL
REMARK 923 INTER-LIGAND FREE ENERGY PREDICTED BY IDOCK:   -5.70 KCAL/MOL
REMARK 924 INTRA-LIGAND FREE ENERGY PREDICTED BY IDOCK:   -0.33 KCAL/MOL
REMARK 927      BINDING AFFINITY PREDICTED BY RF-SCORE:    0.00 PKD
ROOT
HETATM    1  C   UNL     1     -11.256  15.660  64.837  1.00  0.00    -0.376 C  
HETATM    2  C   UNL     1     -10.173  14.887  65.581  1.00  0.00    -0.382 C  
ENDROOT
BRANCH   2   3
HETATM    3  C   UNL     1     -10.687  13.731  66.505  1.00  0.00    -0.284 C  
HETATM    4  C   UNL     1     -11.887  12.982  65.860  1.00  0.00    -0.468 C  
HETATM    5  O   UNL     1      -8.735  12.608  67.517  1.00  0.00    -0.164 OA 
HETATM    6  C   UNL     1     -11.556  12.357  64.515  1.00  0.00    -0.409 C  
HETATM    7  C   UNL     1      -9.537  12.693  66.591  1.00  0.00    -0.249 C  
HETATM    8  H   UNL     1      -8.449  11.474  65.356  1.00  0.00     0.000 HD 
HETATM    9  C   UNL     1     -10.358  11.459  64.631  1.00  0.00    -0.307 C  
HETATM   10  N   UNL     1      -9.385  11.848  65.513  1.00  0.00    -0.142 N  
HETATM   11  O   UNL     1     -10.235  10.435  63.961  1.00  0.00    -0.269 OA 
BRANCH   3  12
HETATM   12  C   UNL     1     -11.050  14.309  67.897  1.00  0.00    -0.293 A  
HETATM   13  C   UNL     1     -10.999  16.172  69.486  1.00  0.00    -0.341 A  
HETATM   14  N   UNL     1     -12.331  16.127  71.514  1.00  0.00    -0.588 NA 
HETATM   15  C   UNL     1     -12.315  14.245  69.989  1.00  0.00    -0.403 A  
HETATM   16  C   UNL     1     -11.894  13.640  68.800  1.00  0.00    -0.395 A  
HETATM   17  H2  UNL     1     -12.026  15.517  72.272  1.00  0.00     0.000 HD 
HETATM   18  H1  UNL     1     -12.058  17.083  71.742  1.00  0.00     0.000 HD 
HETATM   19  C   UNL     1     -10.577  15.573  68.294  1.00  0.00    -0.255 A  
HETATM   20  C   UNL     1     -11.941  15.549  70.300  1.00  0.00    -0.374 A  
ENDBRANCH   3  12
ENDBRANCH   2   3
TORSDOF 2
ENDMDL
MODEL       29
REMARK 921   NORMALIZED FREE ENERGY PREDICTED BY IDOCK:   -5.10 KCAL/MOL
REMARK 922        TOTAL FREE ENERGY PREDICTED BY IDOCK:   -6.03 KCAL/MOL
REMARK 923 INTER-LIGAND FREE ENERGY PREDICTED BY IDOCK:   -5.61 KCAL/MOL
REMARK 924 INTRA-LIGAND FREE ENERGY PREDICTED BY IDOCK:   -0.41 KCAL/MOL
REMARK 927      BINDING AFFINITY PREDICTED BY RF-SCORE:    0.00 PKD
ROOT
HETATM    1  C   UNL     1     -11.417  10.812  69.159  1.00  0.00    -0.368 C  
HETATM    2  C   UNL     1     -10.295  11.774  68.782  1.00  0.00    -0.198 C  
ENDROOT
BRANCH   2   3
HETATM    3  C   UNL     1     -10.642  12.800  67.650  1.00  0.00    -0.230 C  
HETATM    4  C   UNL     1     -12.031  13.457  67.887  1.00  0.00    -0.360 C  
HETATM    5  O   UNL     1      -8.595  14.055  67.076  1.00  0.00    -0.213 OA 
HETATM    6  C   UNL     1     -12.127  14.206  69.205  1.00  0.00    -0.364 C  
HETATM    7  C   UNL     1      -9.605  13.948  67.766  1.00  0.00    -0.222 C  
HETATM    8  H   UNL     1      -8.998  15.362  69.118  1.00  0.00     0.000 HD 
HETATM    9  C   UNL     1     -11.025  15.219  69.319  1.00  0.00    -0.261 C  
HETATM   10  N   UNL     1      -9.821  14.878  68.760  1.00  0.00    -0.220 N  
HETATM   11  O   UNL     1     -11.174  16.294  69.896  1.00  0.00    -0.340 OA 
BRANCH   3  12
HETATM   12  C   UNL     1     -10.568  12.090  66.274  1.00  0.00    -0.287 A  
HETATM   13  C   UNL     1     -11.282  11.940  63.936  1.00  0.00    -0.497 A  
HETATM   14  N   UNL     1     -10.145  10.477  62.369  1.00  0.00    -0.746 NA 
HETATM   15  C   UNL     1      -9.493  10.556  64.700  1.00  0.00    -0.316 A  
HETATM   16  C   UNL     1      -9.630  11.081  65.990  1.00  0.00    -0.249 A  
HETATM   17  H2  UNL     1     -10.309   9.474  62.447  1.00  0.00     0.000 HD 
HETATM   18  H1  UNL     1     -10.705  10.834  61.595  1.00  0.00     0.000 HD 
HETATM   19  C   UNL     1     -11.421  12.472  65.223  1.00  0.00    -0.374 A  
HETATM   20  C   UNL     1     -10.258  11.042  63.644  1.00  0.00    -0.372 A  
ENDBRANCH   3  12
ENDBRANCH   2   3
TORSDOF 2
ENDMDL
MODEL       30
REMARK 921   NORMALIZED FREE ENERGY PREDICTED BY IDOCK:   -5.09 KCAL/MOL
REMARK 922        TOTAL FREE ENERGY PREDICTED BY IDOCK:   -6.02 KCAL/MOL
REMARK 923 INTER-LIGAND FREE ENERGY PREDICTED BY IDOCK:   -5.86 KCAL/MOL
REMARK 924 INTRA-LIGAND FREE ENERGY PREDICTED BY IDOCK:   -0.16 KCAL/MOL
REMARK 927      BINDING AFFINITY PREDICTED BY RF-SCORE:    0.00 PKD
ROOT
HETATM    1  C   UNL     1      -9.534  12.480  67.831  1.00  0.00    -0.196 C  
HETATM    2  C   UNL     1      -9.309  13.406  66.641  1.00  0.00    -0.248 C  
ENDROOT
BRANCH   2   3
HETATM    3  C   UNL     1     -10.416  14.491  66.416  1.00  0.00    -0.295 C  
HETATM    4  C   UNL     1     -10.713  14.694  64.903  1.00  0.00    -0.447 C  
HETATM    5  O   UNL     1     -12.158  14.205  68.142  1.00  0.00    -0.343 OA 
HETATM    6  C   UNL     1     -11.187  13.430  64.206  1.00  0.00    -0.406 C  
HETATM    7  C   UNL     1     -11.722  13.921  67.030  1.00  0.00    -0.397 C  
HETATM    8  H   UNL     1     -12.980  12.322  66.794  1.00  0.00     0.000 HD 
HETATM    9  C   UNL     1     -12.376  12.851  64.916  1.00  0.00    -0.475 C  
HETATM   10  N   UNL     1     -12.400  12.985  66.280  1.00  0.00    -0.312 N  
HETATM   11  O   UNL     1     -13.280  12.268  64.320  1.00  0.00    -0.785 OA 
BRANCH   3  12
HETATM   12  C   UNL     1      -9.985  15.814  67.100  1.00  0.00    -0.242 A  
HETATM   13  C   UNL     1      -8.495  17.007  68.635  1.00  0.00    -0.262 A  
HETATM   14  N   UNL     1      -8.468  19.432  68.725  1.00  0.00    -0.369 NA 
HETATM   15  C   UNL     1     -10.006  18.254  67.271  1.00  0.00    -0.343 A  
HETATM   16  C   UNL     1     -10.512  17.065  66.735  1.00  0.00    -0.257 A  
HETATM   17  H2  UNL     1      -9.252  19.902  69.176  1.00  0.00     0.000 HD 
HETATM   18  H1  UNL     1      -7.683  19.422  69.376  1.00  0.00     0.000 HD 
HETATM   19  C   UNL     1      -8.995  15.814  68.099  1.00  0.00    -0.180 A  
HETATM   20  C   UNL     1      -8.936  18.240  68.160  1.00  0.00    -0.302 A  
ENDBRANCH   3  12
ENDBRANCH   2   3
TORSDOF 2
ENDMDL
MODEL       31
REMARK 921   NORMALIZED FREE ENERGY PREDICTED BY IDOCK:   -5.07 KCAL/MOL
REMARK 922        TOTAL FREE ENERGY PREDICTED BY IDOCK:   -6.00 KCAL/MOL
REMARK 923 INTER-LIGAND FREE ENERGY PREDICTED BY IDOCK:   -5.84 KCAL/MOL
REMARK 924 INTRA-LIGAND FREE ENERGY PREDICTED BY IDOCK:   -0.16 KCAL/MOL
REMARK 927      BINDING AFFINITY PREDICTED BY RF-SCORE:    0.00 PKD
ROOT
HETATM    1  C   UNL     1      -8.620   9.420  65.556  1.00  0.00    -0.169 C  
HETATM    2  C   UNL     1     -10.047   9.488  66.088  1.00  0.00    -0.326 C  
ENDROOT
BRANCH   2   3
HETATM    3  C   UNL     1     -10.376  10.742  66.968  1.00  0.00    -0.275 C  
HETATM    4  C   UNL     1     -11.282  10.365  68.174  1.00  0.00    -0.333 C  
HETATM    5  O   UNL     1      -8.345  12.134  67.143  1.00  0.00    -0.170 OA 
HETATM    6  C   UNL     1     -10.659   9.331  69.097  1.00  0.00    -0.228 C  
HETATM    7  C   UNL     1      -9.031  11.214  67.580  1.00  0.00    -0.140 C  
HETATM    8  H   UNL     1      -7.551  10.510  68.808  1.00  0.00     0.000 HD 
HETATM    9  C   UNL     1      -9.305   9.783  69.560  1.00  0.00    -0.213 C  
HETATM   10  N   UNL     1      -8.560  10.502  68.661  1.00  0.00    -0.131 N  
HETATM   11  O   UNL     1      -8.866   9.515  70.677  1.00  0.00    -0.230 OA 
BRANCH   3  12
HETATM   12  C   UNL     1     -11.024  11.835  66.081  1.00  0.00    -0.355 A  
HETATM   13  C   UNL     1     -12.333  13.898  65.891  1.00  0.00    -0.517 A  
HETATM   14  N   UNL     1     -12.495  15.090  63.784  1.00  0.00    -1.049 NA 
HETATM   15  C   UNL     1     -11.275  13.004  63.947  1.00  0.00    -0.434 A  
HETATM   16  C   UNL     1     -10.790  11.928  64.697  1.00  0.00    -0.363 A  
HETATM   17  H2  UNL     1     -13.084  14.690  63.054  1.00  0.00     0.000 HD 
HETATM   18  H1  UNL     1     -13.009  15.851  64.229  1.00  0.00     0.000 HD 
HETATM   19  C   UNL     1     -11.847  12.825  66.649  1.00  0.00    -0.462 A  
HETATM   20  C   UNL     1     -11.976  14.042  64.553  1.00  0.00    -0.448 A  
ENDBRANCH   3  12
ENDBRANCH   2   3
TORSDOF 2
ENDMDL
MODEL       32
REMARK 921   NORMALIZED FREE ENERGY PREDICTED BY IDOCK:   -5.04 KCAL/MOL
REMARK 922        TOTAL FREE ENERGY PREDICTED BY IDOCK:   -5.96 KCAL/MOL
REMARK 923 INTER-LIGAND FREE ENERGY PREDICTED BY IDOCK:   -6.01 KCAL/MOL
REMARK 924 INTRA-LIGAND FREE ENERGY PREDICTED BY IDOCK:    0.05 KCAL/MOL
REMARK 927      BINDING AFFINITY PREDICTED BY RF-SCORE:    0.00 PKD
ROOT
HETATM    1  C   UNL     1      -9.475  10.190  64.934  1.00  0.00    -0.349 C  
HETATM    2  C   UNL     1     -10.635  10.389  65.904  1.00  0.00    -0.114 C  
ENDROOT
BRANCH   2   3
HETATM    3  C   UNL     1     -10.498  11.612  66.873  1.00  0.00    -0.262 C  
HETATM    4  C   UNL     1     -11.347  11.414  68.160  1.00  0.00    -0.374 C  
HETATM    5  O   UNL     1      -8.144  12.357  66.867  1.00  0.00    -0.151 OA 
HETATM    6  C   UNL     1     -10.960  10.178  68.954  1.00  0.00    -0.261 C  
HETATM    7  C   UNL     1      -9.019  11.638  67.341  1.00  0.00    -0.166 C  
HETATM    8  H   UNL     1      -7.689  10.452  68.351  1.00  0.00     0.000 HD 
HETATM    9  C   UNL     1      -9.493  10.193  69.272  1.00  0.00    -0.218 C  
HETATM   10  N   UNL     1      -8.667  10.740  68.325  1.00  0.00    -0.130 N  
HETATM   11  O   UNL     1      -9.040   9.727  70.316  1.00  0.00    -0.237 OA 
BRANCH   3  12
HETATM   12  C   UNL     1     -10.888  12.910  66.119  1.00  0.00    -0.300 A  
HETATM   13  C   UNL     1     -10.631  15.325  65.803  1.00  0.00    -0.359 A  
HETATM   14  N   UNL     1     -11.581  16.445  63.871  1.00  0.00    -1.602 NA 
HETATM   15  C   UNL     1     -11.914  14.072  64.227  1.00  0.00    -0.463 A  
HETATM   16  C   UNL     1     -11.692  12.905  64.965  1.00  0.00    -0.381 A  
HETATM   17  H2  UNL     1     -12.591  16.585  63.849  1.00  0.00     0.000 HD 
HETATM   18  H1  UNL     1     -11.141  17.326  64.138  1.00  0.00     0.000 HD 
HETATM   19  C   UNL     1     -10.402  14.160  66.544  1.00  0.00    -0.284 A  
HETATM   20  C   UNL     1     -11.315  15.274  64.591  1.00  0.00    -0.358 A  
ENDBRANCH   3  12
ENDBRANCH   2   3
TORSDOF 2
ENDMDL
MODEL       33
REMARK 921   NORMALIZED FREE ENERGY PREDICTED BY IDOCK:   -5.03 KCAL/MOL
REMARK 922        TOTAL FREE ENERGY PREDICTED BY IDOCK:   -5.95 KCAL/MOL
REMARK 923 INTER-LIGAND FREE ENERGY PREDICTED BY IDOCK:   -5.89 KCAL/MOL
REMARK 924 INTRA-LIGAND FREE ENERGY PREDICTED BY IDOCK:   -0.06 KCAL/MOL
REMARK 927      BINDING AFFINITY PREDICTED BY RF-SCORE:    0.00 PKD
ROOT
HETATM    1  C   UNL     1      -8.807  11.830  67.423  1.00  0.00    -0.164 C  
HETATM    2  C   UNL     1      -9.588  12.672  68.427  1.00  0.00    -0.173 C  
ENDROOT
BRANCH   2   3
HETATM    3  C   UNL     1     -11.095  12.280  68.602  1.00  0.00    -0.291 C  
HETATM    4  C   UNL     1     -11.983  13.535  68.833  1.00  0.00    -0.378 C  
HETATM    5  O   UNL     1     -11.629  10.480  66.999  1.00  0.00    -0.174 OA 
HETATM    6  C   UNL     1     -11.918  14.538  67.693  1.00  0.00    -0.355 C  
HETATM    7  C   UNL     1     -11.553  11.681  67.247  1.00  0.00    -0.238 C  
HETATM    8  H   UNL     1     -11.734  12.236  65.283  1.00  0.00     0.000 HD 
HETATM    9  C   UNL     1     -12.249  13.875  66.387  1.00  0.00    -0.449 C  
HETATM   10  N   UNL     1     -11.839  12.576  66.240  1.00  0.00    -0.406 N  
HETATM   11  O   UNL     1     -12.840  14.461  65.482  1.00  0.00    -0.458 OA 
BRANCH   3  12
HETATM   12  C   UNL     1     -11.228  11.259  69.761  1.00  0.00    -0.294 A  
HETATM   13  C   UNL     1     -12.551  10.298  71.584  1.00  0.00    -0.534 A  
HETATM   14  N   UNL     1     -11.860   8.251  72.691  1.00  0.00    -0.480 NA 
HETATM   15  C   UNL     1     -10.504   9.248  70.949  1.00  0.00    -0.372 A  
HETATM   16  C   UNL     1     -10.288  10.238  69.984  1.00  0.00    -0.255 A  
HETATM   17  H2  UNL     1     -11.071   8.300  73.335  1.00  0.00     0.000 HD 
HETATM   18  H1  UNL     1     -12.720   8.230  73.238  1.00  0.00     0.000 HD 
HETATM   19  C   UNL     1     -12.343  11.289  70.619  1.00  0.00    -0.477 A  
HETATM   20  C   UNL     1     -11.677   9.220  71.697  1.00  0.00    -0.392 A  
ENDBRANCH   3  12
ENDBRANCH   2   3
TORSDOF 2
ENDMDL
MODEL       34
REMARK 921   NORMALIZED FREE ENERGY PREDICTED BY IDOCK:   -5.03 KCAL/MOL
REMARK 922        TOTAL FREE ENERGY PREDICTED BY IDOCK:   -5.95 KCAL/MOL
REMARK 923 INTER-LIGAND FREE ENERGY PREDICTED BY IDOCK:   -5.53 KCAL/MOL
REMARK 924 INTRA-LIGAND FREE ENERGY PREDICTED BY IDOCK:   -0.42 KCAL/MOL
REMARK 927      BINDING AFFINITY PREDICTED BY RF-SCORE:    0.00 PKD
ROOT
HETATM    1  C   UNL     1     -12.040  14.242  69.469  1.00  0.00    -0.376 C  
HETATM    2  C   UNL     1     -10.611  14.343  68.946  1.00  0.00    -0.250 C  
ENDROOT
BRANCH   2   3
HETATM    3  C   UNL     1     -10.453  15.048  67.556  1.00  0.00    -0.256 C  
HETATM    4  C   UNL     1     -11.141  16.441  67.546  1.00  0.00    -0.109 C  
HETATM    5  O   UNL     1      -8.170  14.624  66.717  1.00  0.00    -0.146 OA 
HETATM    6  C   UNL     1     -10.587  17.396  68.589  1.00  0.00    -0.318 C  
HETATM    7  C   UNL     1      -8.937  15.323  67.374  1.00  0.00    -0.183 C  
HETATM    8  H   UNL     1      -7.427  16.366  68.283  1.00  0.00     0.000 HD 
HETATM    9  C   UNL     1      -9.098  17.529  68.446  1.00  0.00    -0.276 C  
HETATM   10  N   UNL     1      -8.419  16.405  68.051  1.00  0.00    -0.180 N  
HETATM   11  O   UNL     1      -8.503  18.578  68.684  1.00  0.00    -0.326 OA 
BRANCH   3  12
HETATM   12  C   UNL     1     -11.010  14.121  66.445  1.00  0.00    -0.311 A  
HETATM   13  C   UNL     1     -12.094  13.858  64.264  1.00  0.00    -0.477 A  
HETATM   14  N   UNL     1     -12.203  11.694  63.172  1.00  0.00    -0.966 NA 
HETATM   15  C   UNL     1     -11.211  11.934  65.368  1.00  0.00    -0.351 A  
HETATM   16  C   UNL     1     -10.818  12.728  66.451  1.00  0.00    -0.294 A  
HETATM   17  H2  UNL     1     -12.858  11.005  63.541  1.00  0.00     0.000 HD 
HETATM   18  H1  UNL     1     -12.615  12.111  62.337  1.00  0.00     0.000 HD 
HETATM   19  C   UNL     1     -11.700  14.658  65.343  1.00  0.00    -0.330 A  
HETATM   20  C   UNL     1     -11.773  12.503  64.229  1.00  0.00    -0.382 A  
ENDBRANCH   3  12
ENDBRANCH   2   3
TORSDOF 2
ENDMDL
MODEL       35
REMARK 921   NORMALIZED FREE ENERGY PREDICTED BY IDOCK:   -5.02 KCAL/MOL
REMARK 922        TOTAL FREE ENERGY PREDICTED BY IDOCK:   -5.95 KCAL/MOL
REMARK 923 INTER-LIGAND FREE ENERGY PREDICTED BY IDOCK:   -5.63 KCAL/MOL
REMARK 924 INTRA-LIGAND FREE ENERGY PREDICTED BY IDOCK:   -0.32 KCAL/MOL
REMARK 927      BINDING AFFINITY PREDICTED BY RF-SCORE:    0.00 PKD
ROOT
HETATM    1  C   UNL     1     -12.334  12.915  65.509  1.00  0.00    -0.517 C  
HETATM    2  C   UNL     1     -12.264  14.088  66.481  1.00  0.00    -0.485 C  
ENDROOT
BRANCH   2   3
HETATM    3  C   UNL     1     -10.945  14.187  67.321  1.00  0.00    -0.304 C  
HETATM    4  C   UNL     1      -9.696  14.306  66.403  1.00  0.00    -0.315 C  
HETATM    5  O   UNL     1     -11.368  15.631  69.278  1.00  0.00    -0.296 OA 
HETATM    6  C   UNL     1      -9.731  15.521  65.491  1.00  0.00    -0.307 C  
HETATM    7  C   UNL     1     -11.023  15.524  68.104  1.00  0.00    -0.312 C  
HETATM    8  H   UNL     1     -11.160  17.534  67.737  1.00  0.00     0.000 HD 
HETATM    9  C   UNL     1      -9.934  16.775  66.291  1.00  0.00    -0.320 C  
HETATM   10  N   UNL     1     -10.734  16.671  67.399  1.00  0.00    -0.293 N  
HETATM   11  O   UNL     1      -9.430  17.850  65.971  1.00  0.00    -0.504 OA 
BRANCH   3  12
HETATM   12  C   UNL     1     -10.849  12.965  68.270  1.00  0.00    -0.263 A  
HETATM   13  C   UNL     1     -11.898  11.479  69.910  1.00  0.00    -0.430 A  
HETATM   14  N   UNL     1     -10.826   9.413  70.596  1.00  0.00    -0.258 NA 
HETATM   15  C   UNL     1      -9.744  10.924  69.042  1.00  0.00    -0.181 A  
HETATM   16  C   UNL     1      -9.744  12.094  68.276  1.00  0.00    -0.216 A  
HETATM   17  H2  UNL     1     -10.021   9.476  71.220  1.00  0.00     0.000 HD 
HETATM   18  H1  UNL     1     -11.640   9.147  71.149  1.00  0.00     0.000 HD 
HETATM   19  C   UNL     1     -11.906  12.649  69.143  1.00  0.00    -0.349 A  
HETATM   20  C   UNL     1     -10.855  10.562  69.798  1.00  0.00    -0.281 A  
ENDBRANCH   3  12
ENDBRANCH   2   3
TORSDOF 2
ENDMDL
MODEL       36
REMARK 921   NORMALIZED FREE ENERGY PREDICTED BY IDOCK:   -5.00 KCAL/MOL
REMARK 922        TOTAL FREE ENERGY PREDICTED BY IDOCK:   -5.91 KCAL/MOL
REMARK 923 INTER-LIGAND FREE ENERGY PREDICTED BY IDOCK:   -5.54 KCAL/MOL
REMARK 924 INTRA-LIGAND FREE ENERGY PREDICTED BY IDOCK:   -0.37 KCAL/MOL
REMARK 927      BINDING AFFINITY PREDICTED BY RF-SCORE:    0.00 PKD
ROOT
HETATM    1  C   UNL     1     -12.031  14.813  64.321  1.00  0.00    -0.387 C  
HETATM    2  C   UNL     1     -10.653  14.550  64.919  1.00  0.00    -0.450 C  
ENDROOT
BRANCH   2   3
HETATM    3  C   UNL     1     -10.621  14.350  66.472  1.00  0.00    -0.296 C  
HETATM    4  C   UNL     1     -11.832  13.505  66.959  1.00  0.00    -0.447 C  
HETATM    5  O   UNL     1      -8.285  13.951  67.164  1.00  0.00    -0.171 OA 
HETATM    6  C   UNL     1     -11.890  12.119  66.338  1.00  0.00    -0.321 C  
HETATM    7  C   UNL     1      -9.361  13.499  66.780  1.00  0.00    -0.257 C  
HETATM    8  H   UNL     1      -8.585  11.655  66.340  1.00  0.00     0.000 HD 
HETATM    9  C   UNL     1     -10.598  11.388  66.558  1.00  0.00    -0.263 C  
HETATM   10  N   UNL     1      -9.456  12.145  66.545  1.00  0.00    -0.226 N  
HETATM   11  O   UNL     1     -10.550  10.170  66.724  1.00  0.00    -0.223 OA 
BRANCH   3  12
HETATM   12  C   UNL     1     -10.569  15.735  67.166  1.00  0.00    -0.313 A  
HETATM   13  C   UNL     1     -10.774  17.085  69.200  1.00  0.00    -0.253 A  
HETATM   14  N   UNL     1     -10.063  19.404  69.242  1.00  0.00    -0.570 NA 
HETATM   15  C   UNL     1      -9.942  18.099  67.205  1.00  0.00    -0.336 A  
HETATM   16  C   UNL     1     -10.109  16.893  66.515  1.00  0.00    -0.320 A  
HETATM   17  H2  UNL     1     -10.648  20.092  68.768  1.00  0.00     0.000 HD 
HETATM   18  H1  UNL     1     -10.244  19.465  70.244  1.00  0.00     0.000 HD 
HETATM   19  C   UNL     1     -10.941  15.875  68.516  1.00  0.00    -0.324 A  
HETATM   20  C   UNL     1     -10.190  18.182  68.572  1.00  0.00    -0.384 A  
ENDBRANCH   3  12
ENDBRANCH   2   3
TORSDOF 2
ENDMDL
MODEL       37
REMARK 921   NORMALIZED FREE ENERGY PREDICTED BY IDOCK:   -5.00 KCAL/MOL
REMARK 922        TOTAL FREE ENERGY PREDICTED BY IDOCK:   -5.91 KCAL/MOL
REMARK 923 INTER-LIGAND FREE ENERGY PREDICTED BY IDOCK:   -5.61 KCAL/MOL
REMARK 924 INTRA-LIGAND FREE ENERGY PREDICTED BY IDOCK:   -0.30 KCAL/MOL
REMARK 927      BINDING AFFINITY PREDICTED BY RF-SCORE:    0.00 PKD
ROOT
HETATM    1  C   UNL     1     -12.606  13.952  65.891  1.00  0.00    -0.498 C  
HETATM    2  C   UNL     1     -11.355  14.170  66.735  1.00  0.00    -0.353 C  
ENDROOT
BRANCH   2   3
HETATM    3  C   UNL     1     -10.976  12.990  67.693  1.00  0.00    -0.277 C  
HETATM    4  C   UNL     1     -11.378  11.616  67.086  1.00  0.00    -0.373 C  
HETATM    5  O   UNL     1      -8.772  13.470  68.696  1.00  0.00    -0.119 OA 
HETATM    6  C   UNL     1     -10.714  11.330  65.750  1.00  0.00    -0.284 C  
HETATM    7  C   UNL     1      -9.428  12.977  67.782  1.00  0.00    -0.209 C  
HETATM    8  H   UNL     1      -7.803  12.749  66.556  1.00  0.00     0.000 HD 
HETATM    9  C   UNL     1      -9.222  11.454  65.864  1.00  0.00    -0.216 C  
HETATM   10  N   UNL     1      -8.752  12.414  66.721  1.00  0.00    -0.189 N  
HETATM   11  O   UNL     1      -8.450  10.750  65.216  1.00  0.00    -0.171 OA 
BRANCH   3  12
HETATM   12  C   UNL     1     -11.634  13.222  69.078  1.00  0.00    -0.359 A  
HETATM   13  C   UNL     1     -12.696  14.738  70.682  1.00  0.00    -0.415 A  
HETATM   14  N   UNL     1     -13.800  13.888  72.669  1.00  0.00    -0.722 NA 
HETATM   15  C   UNL     1     -12.673  12.393  71.131  1.00  0.00    -0.336 A  
HETATM   16  C   UNL     1     -11.957  12.168  69.951  1.00  0.00    -0.380 A  
HETATM   17  H2  UNL     1     -13.215  13.546  73.431  1.00  0.00     0.000 HD 
HETATM   18  H1  UNL     1     -14.131  14.821  72.912  1.00  0.00     0.000 HD 
HETATM   19  C   UNL     1     -11.982  14.518  69.498  1.00  0.00    -0.363 A  
HETATM   20  C   UNL     1     -13.124  13.667  71.463  1.00  0.00    -0.350 A  
ENDBRANCH   3  12
ENDBRANCH   2   3
TORSDOF 2
ENDMDL
MODEL       38
REMARK 921   NORMALIZED FREE ENERGY PREDICTED BY IDOCK:   -4.98 KCAL/MOL
REMARK 922        TOTAL FREE ENERGY PREDICTED BY IDOCK:   -5.90 KCAL/MOL
REMARK 923 INTER-LIGAND FREE ENERGY PREDICTED BY IDOCK:   -5.49 KCAL/MOL
REMARK 924 INTRA-LIGAND FREE ENERGY PREDICTED BY IDOCK:   -0.41 KCAL/MOL
REMARK 927      BINDING AFFINITY PREDICTED BY RF-SCORE:    0.00 PKD
ROOT
HETATM    1  C   UNL     1      -7.540  15.817  66.735  1.00  0.00    -0.177 C  
HETATM    2  C   UNL     1      -8.501  16.946  66.378  1.00  0.00    -0.325 C  
ENDROOT
BRANCH   2   3
HETATM    3  C   UNL     1      -9.107  17.722  67.596  1.00  0.00    -0.246 C  
HETATM    4  C   UNL     1      -8.001  18.154  68.600  1.00  0.00    -0.301 C  
HETATM    5  O   UNL     1     -10.885  19.220  66.765  1.00  0.00    -0.438 OA 
HETATM    6  C   UNL     1      -6.945  19.056  67.984  1.00  0.00    -0.256 C  
HETATM    7  C   UNL     1      -9.699  19.039  67.027  1.00  0.00    -0.315 C  
HETATM    8  H   UNL     1      -9.080  20.716  66.028  1.00  0.00     0.000 HD 
HETATM    9  C   UNL     1      -7.584  20.252  67.338  1.00  0.00    -0.314 C  
HETATM   10  N   UNL     1      -8.805  20.049  66.749  1.00  0.00    -0.337 N  
HETATM   11  O   UNL     1      -7.044  21.356  67.315  1.00  0.00    -0.565 OA 
BRANCH   3  12
HETATM   12  C   UNL     1     -10.191  16.847  68.275  1.00  0.00    -0.318 A  
HETATM   13  C   UNL     1     -11.782  14.988  68.154  1.00  0.00    -0.335 A  
HETATM   14  N   UNL     1     -12.874  14.141  70.149  1.00  0.00    -0.396 NA 
HETATM   15  C   UNL     1     -11.370  16.037  70.259  1.00  0.00    -0.391 A  
HETATM   16  C   UNL     1     -10.488  16.933  69.647  1.00  0.00    -0.158 A  
HETATM   17  H2  UNL     1     -13.617  14.705  70.563  1.00  0.00     0.000 HD 
HETATM   18  H1  UNL     1     -13.304  13.383  69.619  1.00  0.00     0.000 HD 
HETATM   19  C   UNL     1     -10.897  15.879  67.537  1.00  0.00    -0.305 A  
HETATM   20  C   UNL     1     -11.958  15.003  69.536  1.00  0.00    -0.313 A  
ENDBRANCH   3  12
ENDBRANCH   2   3
TORSDOF 2
ENDMDL
MODEL       39
REMARK 921   NORMALIZED FREE ENERGY PREDICTED BY IDOCK:   -4.95 KCAL/MOL
REMARK 922        TOTAL FREE ENERGY PREDICTED BY IDOCK:   -5.86 KCAL/MOL
REMARK 923 INTER-LIGAND FREE ENERGY PREDICTED BY IDOCK:   -5.53 KCAL/MOL
REMARK 924 INTRA-LIGAND FREE ENERGY PREDICTED BY IDOCK:   -0.33 KCAL/MOL
REMARK 927      BINDING AFFINITY PREDICTED BY RF-SCORE:    0.00 PKD
ROOT
HETATM    1  C   UNL     1     -11.420  12.437  68.196  1.00  0.00    -0.370 C  
HETATM    2  C   UNL     1     -11.969  13.176  66.980  1.00  0.00    -0.412 C  
ENDROOT
BRANCH   2   3
HETATM    3  C   UNL     1     -10.894  13.846  66.060  1.00  0.00    -0.290 C  
HETATM    4  C   UNL     1      -9.669  12.913  65.846  1.00  0.00    -0.190 C  
HETATM    5  O   UNL     1     -12.056  15.046  64.241  1.00  0.00    -0.471 OA 
HETATM    6  C   UNL     1     -10.029  11.583  65.206  1.00  0.00    -0.302 C  
HETATM    7  C   UNL     1     -11.551  14.009  64.664  1.00  0.00    -0.392 C  
HETATM    8  H   UNL     1     -12.363  12.848  63.184  1.00  0.00     0.000 HD 
HETATM    9  C   UNL     1     -10.773  11.799  63.920  1.00  0.00    -0.399 C  
HETATM   10  N   UNL     1     -11.613  12.881  63.875  1.00  0.00    -0.420 N  
HETATM   11  O   UNL     1     -10.659  11.043  62.957  1.00  0.00    -0.181 OA 
BRANCH   3  12
HETATM   12  C   UNL     1     -10.479  15.211  66.666  1.00  0.00    -0.287 A  
HETATM   13  C   UNL     1     -10.827  16.975  68.330  1.00  0.00    -0.333 A  
HETATM   14  N   UNL     1      -9.189  18.736  68.653  1.00  0.00    -0.351 NA 
HETATM   15  C   UNL     1      -8.884  17.045  66.945  1.00  0.00    -0.251 A  
HETATM   16  C   UNL     1      -9.305  15.886  66.285  1.00  0.00    -0.357 A  
HETATM   17  H2  UNL     1      -9.126  19.466  67.943  1.00  0.00     0.000 HD 
HETATM   18  H1  UNL     1      -9.710  19.105  69.448  1.00  0.00     0.000 HD 
HETATM   19  C   UNL     1     -11.252  15.813  67.675  1.00  0.00    -0.246 A  
HETATM   20  C   UNL     1      -9.595  17.550  68.030  1.00  0.00    -0.282 A  
ENDBRANCH   3  12
ENDBRANCH   2   3
TORSDOF 2
ENDMDL
MODEL       40
REMARK 921   NORMALIZED FREE ENERGY PREDICTED BY IDOCK:   -4.94 KCAL/MOL
REMARK 922        TOTAL FREE ENERGY PREDICTED BY IDOCK:   -5.85 KCAL/MOL
REMARK 923 INTER-LIGAND FREE ENERGY PREDICTED BY IDOCK:   -5.71 KCAL/MOL
REMARK 924 INTRA-LIGAND FREE ENERGY PREDICTED BY IDOCK:   -0.14 KCAL/MOL
REMARK 927      BINDING AFFINITY PREDICTED BY RF-SCORE:    0.00 PKD
ROOT
HETATM    1  C   UNL     1     -11.422  14.034  69.037  1.00  0.00    -0.337 C  
HETATM    2  C   UNL     1     -12.141  13.393  67.855  1.00  0.00    -0.289 C  
ENDROOT
BRANCH   2   3
HETATM    3  C   UNL     1     -11.215  12.912  66.686  1.00  0.00    -0.342 C  
HETATM    4  C   UNL     1     -11.937  13.013  65.313  1.00  0.00    -0.446 C  
HETATM    5  O   UNL     1      -8.925  13.732  67.112  1.00  0.00    -0.216 OA 
HETATM    6  C   UNL     1     -12.384  14.423  64.969  1.00  0.00    -0.401 C  
HETATM    7  C   UNL     1     -10.035  13.918  66.619  1.00  0.00    -0.279 C  
HETATM    8  H   UNL     1      -9.712  15.915  66.301  1.00  0.00     0.000 HD 
HETATM    9  C   UNL     1     -11.227  15.377  65.041  1.00  0.00    -0.387 C  
HETATM   10  N   UNL     1     -10.286  15.125  66.006  1.00  0.00    -0.293 N  
HETATM   11  O   UNL     1     -11.124  16.347  64.293  1.00  0.00    -0.845 OA 
BRANCH   3  12
HETATM   12  C   UNL     1     -10.729  11.469  66.977  1.00  0.00    -0.300 A  
HETATM   13  C   UNL     1     -10.651   9.530  68.473  1.00  0.00    -0.247 A  
HETATM   14  N   UNL     1      -9.794   7.392  67.709  1.00  0.00    -0.146 NA 
HETATM   15  C   UNL     1      -9.787   9.330  66.256  1.00  0.00    -0.361 A  
HETATM   16  C   UNL     1     -10.090  10.674  66.010  1.00  0.00    -0.308 A  
HETATM   17  H2  UNL     1      -8.786   7.297  67.589  1.00  0.00     0.000 HD 
HETATM   18  H1  UNL     1     -10.056   6.948  68.589  1.00  0.00     0.000 HD 
HETATM   19  C   UNL     1     -10.959  10.874  68.231  1.00  0.00    -0.293 A  
HETATM   20  C   UNL     1     -10.143   8.724  67.457  1.00  0.00    -0.222 A  
ENDBRANCH   3  12
ENDBRANCH   2   3
TORSDOF 2
ENDMDL
MODEL       41
REMARK 921   NORMALIZED FREE ENERGY PREDICTED BY IDOCK:   -4.92 KCAL/MOL
REMARK 922        TOTAL FREE ENERGY PREDICTED BY IDOCK:   -5.83 KCAL/MOL
REMARK 923 INTER-LIGAND FREE ENERGY PREDICTED BY IDOCK:   -5.49 KCAL/MOL
REMARK 924 INTRA-LIGAND FREE ENERGY PREDICTED BY IDOCK:   -0.34 KCAL/MOL
REMARK 927      BINDING AFFINITY PREDICTED BY RF-SCORE:    0.00 PKD
ROOT
HETATM    1  C   UNL     1      -8.215  12.231  66.784  1.00  0.00    -0.058 C  
HETATM    2  C   UNL     1      -9.715  12.459  66.941  1.00  0.00    -0.217 C  
ENDROOT
BRANCH   2   3
HETATM    3  C   UNL     1     -10.273  13.751  66.253  1.00  0.00    -0.298 C  
HETATM    4  C   UNL     1     -10.092  13.696  64.710  1.00  0.00    -0.268 C  
HETATM    5  O   UNL     1     -12.374  14.394  67.379  1.00  0.00    -0.300 OA 
HETATM    6  C   UNL     1     -10.794  12.514  64.063  1.00  0.00    -0.446 C  
HETATM    7  C   UNL     1     -11.805  13.753  66.500  1.00  0.00    -0.407 C  
HETATM    8  H   UNL     1     -13.446  12.601  66.086  1.00  0.00     0.000 HD 
HETATM    9  C   UNL     1     -12.248  12.494  64.436  1.00  0.00    -0.449 C  
HETATM   10  N   UNL     1     -12.561  12.926  65.699  1.00  0.00    -0.339 N  
HETATM   11  O   UNL     1     -13.121  12.097  63.667  1.00  0.00    -0.787 OA 
BRANCH   3  12
HETATM   12  C   UNL     1      -9.586  14.997  66.869  1.00  0.00    -0.251 A  
HETATM   13  C   UNL     1      -8.495  17.170  66.569  1.00  0.00    -0.309 A  
HETATM   14  N   UNL     1      -8.054  18.623  68.461  1.00  0.00    -0.334 NA 
HETATM   15  C   UNL     1      -9.051  16.438  68.772  1.00  0.00    -0.244 A  
HETATM   16  C   UNL     1      -9.554  15.240  68.254  1.00  0.00    -0.206 A  
HETATM   17  H2  UNL     1      -7.295  18.368  69.092  1.00  0.00     0.000 HD 
HETATM   18  H1  UNL     1      -7.722  19.364  67.844  1.00  0.00     0.000 HD 
HETATM   19  C   UNL     1      -9.001  15.975  66.044  1.00  0.00    -0.345 A  
HETATM   20  C   UNL     1      -8.597  17.448  67.929  1.00  0.00    -0.232 A  
ENDBRANCH   3  12
ENDBRANCH   2   3
TORSDOF 2
ENDMDL
MODEL       42
REMARK 921   NORMALIZED FREE ENERGY PREDICTED BY IDOCK:   -4.83 KCAL/MOL
REMARK 922        TOTAL FREE ENERGY PREDICTED BY IDOCK:   -5.73 KCAL/MOL
REMARK 923 INTER-LIGAND FREE ENERGY PREDICTED BY IDOCK:   -5.30 KCAL/MOL
REMARK 924 INTRA-LIGAND FREE ENERGY PREDICTED BY IDOCK:   -0.42 KCAL/MOL
REMARK 927      BINDING AFFINITY PREDICTED BY RF-SCORE:    0.00 PKD
ROOT
HETATM    1  C   UNL     1     -11.166   6.354  69.120  1.00  0.00    -0.421 C  
HETATM    2  C   UNL     1     -10.213   6.875  70.191  1.00  0.00    -0.208 C  
ENDROOT
BRANCH   2   3
HETATM    3  C   UNL     1     -10.882   7.711  71.334  1.00  0.00    -0.250 C  
HETATM    4  C   UNL     1     -12.116   6.975  71.928  1.00  0.00    -0.358 C  
HETATM    5  O   UNL     1      -9.100   8.745  72.695  1.00  0.00    -0.354 OA 
HETATM    6  C   UNL     1     -11.782   5.614  72.515  1.00  0.00    -0.255 C  
HETATM    7  C   UNL     1      -9.844   7.791  72.485  1.00  0.00    -0.212 C  
HETATM    8  H   UNL     1      -8.821   6.541  73.744  1.00  0.00     0.000 HD 
HETATM    9  C   UNL     1     -10.684   5.733  73.532  1.00  0.00    -0.269 C  
HETATM   10  N   UNL     1      -9.722   6.677  73.286  1.00  0.00    -0.162 N  
HETATM   11  O   UNL     1     -10.628   5.015  74.529  1.00  0.00    -0.320 OA 
BRANCH   3  12
HETATM   12  C   UNL     1     -11.254   9.115  70.793  1.00  0.00    -0.336 A  
HETATM   13  C   UNL     1     -12.570  11.172  70.990  1.00  0.00    -0.503 A  
HETATM   14  N   UNL     1     -12.062  13.120  69.634  1.00  0.00    -0.287 NA 
HETATM   15  C   UNL     1     -10.817  11.058  69.373  1.00  0.00    -0.278 A  
HETATM   16  C   UNL     1     -10.548   9.737  69.748  1.00  0.00    -0.285 A  
HETATM   17  H2  UNL     1     -12.315  13.093  68.647  1.00  0.00     0.000 HD 
HETATM   18  H1  UNL     1     -12.760  13.674  70.129  1.00  0.00     0.000 HD 
HETATM   19  C   UNL     1     -12.303   9.852  71.372  1.00  0.00    -0.498 A  
HETATM   20  C   UNL     1     -11.770  11.815  70.048  1.00  0.00    -0.305 A  
ENDBRANCH   3  12
ENDBRANCH   2   3
TORSDOF 2
ENDMDL
MODEL       43
REMARK 921   NORMALIZED FREE ENERGY PREDICTED BY IDOCK:   -4.83 KCAL/MOL
REMARK 922        TOTAL FREE ENERGY PREDICTED BY IDOCK:   -5.73 KCAL/MOL
REMARK 923 INTER-LIGAND FREE ENERGY PREDICTED BY IDOCK:   -5.95 KCAL/MOL
REMARK 924 INTRA-LIGAND FREE ENERGY PREDICTED BY IDOCK:    0.22 KCAL/MOL
REMARK 927      BINDING AFFINITY PREDICTED BY RF-SCORE:    0.00 PKD
ROOT
HETATM    1  C   UNL     1     -10.694  19.040  66.977  1.00  0.00    -0.516 C  
HETATM    2  C   UNL     1     -10.098  18.057  65.975  1.00  0.00    -0.268 C  
ENDROOT
BRANCH   2   3
HETATM    3  C   UNL     1      -9.667  16.672  66.567  1.00  0.00    -0.291 C  
HETATM    4  C   UNL     1      -8.147  16.416  66.365  1.00  0.00    -0.357 C  
HETATM    5  O   UNL     1     -10.857  16.329  68.703  1.00  0.00    -0.284 OA 
HETATM    6  C   UNL     1      -7.266  17.468  67.018  1.00  0.00    -0.212 C  
HETATM    7  C   UNL     1      -9.880  16.766  68.101  1.00  0.00    -0.264 C  
HETATM    8  H   UNL     1      -9.216  17.864  69.698  1.00  0.00     0.000 HD 
HETATM    9  C   UNL     1      -7.601  17.606  68.475  1.00  0.00    -0.272 C  
HETATM   10  N   UNL     1      -8.917  17.442  68.818  1.00  0.00    -0.254 N  
HETATM   11  O   UNL     1      -6.752  17.870  69.325  1.00  0.00    -0.255 OA 
BRANCH   3  12
HETATM   12  C   UNL     1     -10.530  15.552  65.931  1.00  0.00    -0.356 A  
HETATM   13  C   UNL     1     -11.445  13.282  66.027  1.00  0.00    -0.360 A  
HETATM   14  N   UNL     1     -13.176  12.562  64.487  1.00  0.00    -0.779 NA 
HETATM   15  C   UNL     1     -12.210  14.778  64.331  1.00  0.00    -0.447 A  
HETATM   16  C   UNL     1     -11.338  15.766  64.800  1.00  0.00    -0.319 A  
HETATM   17  H2  UNL     1     -12.908  12.376  63.521  1.00  0.00     0.000 HD 
HETATM   18  H1  UNL     1     -13.268  11.669  64.972  1.00  0.00     0.000 HD 
HETATM   19  C   UNL     1     -10.573  14.268  66.504  1.00  0.00    -0.286 A  
HETATM   20  C   UNL     1     -12.334  13.559  64.992  1.00  0.00    -0.428 A  
ENDBRANCH   3  12
ENDBRANCH   2   3
TORSDOF 2
ENDMDL
MODEL       44
REMARK 921   NORMALIZED FREE ENERGY PREDICTED BY IDOCK:   -4.80 KCAL/MOL
REMARK 922        TOTAL FREE ENERGY PREDICTED BY IDOCK:   -5.69 KCAL/MOL
REMARK 923 INTER-LIGAND FREE ENERGY PREDICTED BY IDOCK:   -5.61 KCAL/MOL
REMARK 924 INTRA-LIGAND FREE ENERGY PREDICTED BY IDOCK:   -0.08 KCAL/MOL
REMARK 927      BINDING AFFINITY PREDICTED BY RF-SCORE:    0.00 PKD
ROOT
HETATM    1  C   UNL     1     -12.894  13.978  65.172  1.00  0.00    -0.368 C  
HETATM    2  C   UNL     1     -11.414  14.311  65.329  1.00  0.00    -0.344 C  
ENDROOT
BRANCH   2   3
HETATM    3  C   UNL     1     -10.585  13.296  66.186  1.00  0.00    -0.293 C  
HETATM    4  C   UNL     1      -9.323  13.967  66.796  1.00  0.00    -0.289 C  
HETATM    5  O   UNL     1     -12.155  11.881  67.462  1.00  0.00    -0.573 OA 
HETATM    6  C   UNL     1      -9.644  15.147  67.699  1.00  0.00    -0.206 C  
HETATM    7  C   UNL     1     -11.481  12.904  67.391  1.00  0.00    -0.336 C  
HETATM    8  H   UNL     1     -12.404  13.788  68.992  1.00  0.00     0.000 HD 
HETATM    9  C   UNL     1     -10.612  14.742  68.772  1.00  0.00    -0.251 C  
HETATM   10  N   UNL     1     -11.556  13.811  68.425  1.00  0.00    -0.312 N  
HETATM   11  O   UNL     1     -10.583  15.226  69.903  1.00  0.00    -0.263 OA 
BRANCH   3  12
HETATM   12  C   UNL     1     -10.219  12.067  65.315  1.00  0.00    -0.304 A  
HETATM   13  C   UNL     1      -9.988  11.044  63.101  1.00  0.00    -0.382 A  
HETATM   14  N   UNL     1      -8.869   8.909  62.817  1.00  0.00    -0.428 NA 
HETATM   15  C   UNL     1      -9.175   9.875  65.017  1.00  0.00    -0.295 A  
HETATM   16  C   UNL     1      -9.620  10.911  65.846  1.00  0.00    -0.257 A  
HETATM   17  H2  UNL     1      -9.362   8.068  63.117  1.00  0.00     0.000 HD 
HETATM   18  H1  UNL     1      -8.943   8.980  61.803  1.00  0.00     0.000 HD 
HETATM   19  C   UNL     1     -10.432  12.085  63.924  1.00  0.00    -0.440 A  
HETATM   20  C   UNL     1      -9.276   9.971  63.633  1.00  0.00    -0.274 A  
ENDBRANCH   3  12
ENDBRANCH   2   3
TORSDOF 2
ENDMDL
MODEL       45
REMARK 921   NORMALIZED FREE ENERGY PREDICTED BY IDOCK:   -4.80 KCAL/MOL
REMARK 922        TOTAL FREE ENERGY PREDICTED BY IDOCK:   -5.69 KCAL/MOL
REMARK 923 INTER-LIGAND FREE ENERGY PREDICTED BY IDOCK:   -5.30 KCAL/MOL
REMARK 924 INTRA-LIGAND FREE ENERGY PREDICTED BY IDOCK:   -0.39 KCAL/MOL
REMARK 927      BINDING AFFINITY PREDICTED BY RF-SCORE:    0.00 PKD
ROOT
HETATM    1  C   UNL     1     -11.045  15.559  64.792  1.00  0.00    -0.421 C  
HETATM    2  C   UNL     1      -9.915  15.199  65.750  1.00  0.00    -0.375 C  
ENDROOT
BRANCH   2   3
HETATM    3  C   UNL     1      -9.990  15.876  67.161  1.00  0.00    -0.240 C  
HETATM    4  C   UNL     1     -11.434  15.828  67.737  1.00  0.00    -0.175 C  
HETATM    5  O   UNL     1      -7.969  15.257  68.437  1.00  0.00    -0.124 OA 
HETATM    6  C   UNL     1     -11.973  14.416  67.896  1.00  0.00    -0.348 C  
HETATM    7  C   UNL     1      -9.126  15.006  68.112  1.00  0.00    -0.178 C  
HETATM    8  H   UNL     1      -9.057  13.089  68.830  1.00  0.00     0.000 HD 
HETATM    9  C   UNL     1     -11.035  13.583  68.720  1.00  0.00    -0.261 C  
HETATM   10  N   UNL     1      -9.697  13.840  68.572  1.00  0.00    -0.219 N  
HETATM   11  O   UNL     1     -11.431  12.700  69.479  1.00  0.00    -0.266 OA 
BRANCH   3  12
HETATM   12  C   UNL     1      -9.458  17.328  67.063  1.00  0.00    -0.264 A  
HETATM   13  C   UNL     1      -9.459  19.637  67.882  1.00  0.00    -0.444 A  
HETATM   14  N   UNL     1      -7.784  21.230  67.145  1.00  0.00    -0.738 NA 
HETATM   15  C   UNL     1      -7.833  18.974  66.265  1.00  0.00    -0.303 A  
HETATM   16  C   UNL     1      -8.382  17.688  66.231  1.00  0.00    -0.251 A  
HETATM   17  H2  UNL     1      -7.862  21.602  66.198  1.00  0.00     0.000 HD 
HETATM   18  H1  UNL     1      -8.134  21.933  67.795  1.00  0.00     0.000 HD 
HETATM   19  C   UNL     1     -10.011  18.351  67.855  1.00  0.00    -0.370 A  
HETATM   20  C   UNL     1      -8.311  19.933  67.152  1.00  0.00    -0.322 A  
ENDBRANCH   3  12
ENDBRANCH   2   3
TORSDOF 2
ENDMDL
MODEL       46
REMARK 921   NORMALIZED FREE ENERGY PREDICTED BY IDOCK:   -4.79 KCAL/MOL
REMARK 922        TOTAL FREE ENERGY PREDICTED BY IDOCK:   -5.68 KCAL/MOL
REMARK 923 INTER-LIGAND FREE ENERGY PREDICTED BY IDOCK:   -5.42 KCAL/MOL
REMARK 924 INTRA-LIGAND FREE ENERGY PREDICTED BY IDOCK:   -0.26 KCAL/MOL
REMARK 927      BINDING AFFINITY PREDICTED BY RF-SCORE:    0.00 PKD
ROOT
HETATM    1  C   UNL     1     -11.574  15.755  70.187  1.00  0.00    -0.364 C  
HETATM    2  C   UNL     1     -11.943  15.780  68.707  1.00  0.00    -0.226 C  
ENDROOT
BRANCH   2   3
HETATM    3  C   UNL     1     -10.833  15.267  67.729  1.00  0.00    -0.295 C  
HETATM    4  C   UNL     1      -9.988  14.133  68.376  1.00  0.00    -0.235 C  
HETATM    5  O   UNL     1     -11.781  15.162  65.452  1.00  0.00    -0.236 OA 
HETATM    6  C   UNL     1     -10.813  12.923  68.781  1.00  0.00    -0.277 C  
HETATM    7  C   UNL     1     -11.571  14.614  66.531  1.00  0.00    -0.344 C  
HETATM    8  H   UNL     1     -12.871  13.076  66.158  1.00  0.00     0.000 HD 
HETATM    9  C   UNL     1     -11.603  12.408  67.613  1.00  0.00    -0.357 C  
HETATM   10  N   UNL     1     -12.070  13.345  66.729  1.00  0.00    -0.386 N  
HETATM   11  O   UNL     1     -11.843  11.212  67.455  1.00  0.00    -0.591 OA 
BRANCH   3  12
HETATM   12  C   UNL     1      -9.950  16.460  67.283  1.00  0.00    -0.258 A  
HETATM   13  C   UNL     1      -9.507  18.870  67.274  1.00  0.00    -0.336 A  
HETATM   14  N   UNL     1      -7.398  19.753  66.460  1.00  0.00    -0.247 NA 
HETATM   15  C   UNL     1      -7.868  17.378  66.385  1.00  0.00    -0.337 A  
HETATM   16  C   UNL     1      -8.706  16.290  66.651  1.00  0.00    -0.294 A  
HETATM   17  H2  UNL     1      -7.238  19.755  65.453  1.00  0.00     0.000 HD 
HETATM   18  H1  UNL     1      -7.659  20.697  66.744  1.00  0.00     0.000 HD 
HETATM   19  C   UNL     1     -10.348  17.784  67.545  1.00  0.00    -0.371 A  
HETATM   20  C   UNL     1      -8.224  18.667  66.772  1.00  0.00    -0.267 A  
ENDBRANCH   3  12
ENDBRANCH   2   3
TORSDOF 2
ENDMDL
MODEL       47
REMARK 921   NORMALIZED FREE ENERGY PREDICTED BY IDOCK:   -4.73 KCAL/MOL
REMARK 922        TOTAL FREE ENERGY PREDICTED BY IDOCK:   -5.61 KCAL/MOL
REMARK 923 INTER-LIGAND FREE ENERGY PREDICTED BY IDOCK:   -5.64 KCAL/MOL
REMARK 924 INTRA-LIGAND FREE ENERGY PREDICTED BY IDOCK:    0.03 KCAL/MOL
REMARK 927      BINDING AFFINITY PREDICTED BY RF-SCORE:    0.00 PKD
ROOT
HETATM    1  C   UNL     1     -14.041   8.244  71.792  1.00  0.00    -0.510 C  
HETATM    2  C   UNL     1     -12.730   8.770  72.366  1.00  0.00    -0.433 C  
ENDROOT
BRANCH   2   3
HETATM    3  C   UNL     1     -11.442   8.381  71.564  1.00  0.00    -0.335 C  
HETATM    4  C   UNL     1     -10.183   8.382  72.477  1.00  0.00    -0.369 C  
HETATM    5  O   UNL     1     -12.014   6.563  69.994  1.00  0.00    -0.358 OA 
HETATM    6  C   UNL     1     -10.285   7.414  73.644  1.00  0.00    -0.380 C  
HETATM    7  C   UNL     1     -11.634   6.910  71.110  1.00  0.00    -0.319 C  
HETATM    8  H   UNL     1     -11.908   5.054  71.931  1.00  0.00     0.000 HD 
HETATM    9  C   UNL     1     -10.596   6.029  73.155  1.00  0.00    -0.246 C  
HETATM   10  N   UNL     1     -11.412   5.937  72.058  1.00  0.00    -0.278 N  
HETATM   11  O   UNL     1     -10.164   5.021  73.711  1.00  0.00    -0.174 OA 
BRANCH   3  12
HETATM   12  C   UNL     1     -11.279   9.342  70.358  1.00  0.00    -0.309 A  
HETATM   13  C   UNL     1     -10.438   9.767  68.097  1.00  0.00    -0.258 A  
HETATM   14  N   UNL     1     -11.117  11.740  66.857  1.00  0.00    -0.292 NA 
HETATM   15  C   UNL     1     -11.880  11.368  69.126  1.00  0.00    -0.413 A  
HETATM   16  C   UNL     1     -11.934  10.584  70.283  1.00  0.00    -0.411 A  
HETATM   17  H2  UNL     1     -10.723  12.638  67.135  1.00  0.00     0.000 HD 
HETATM   18  H1  UNL     1     -10.621  11.416  66.027  1.00  0.00     0.000 HD 
HETATM   19  C   UNL     1     -10.491   8.977  69.251  1.00  0.00    -0.238 A  
HETATM   20  C   UNL     1     -11.203  10.926  67.993  1.00  0.00    -0.314 A  
ENDBRANCH   3  12
ENDBRANCH   2   3
TORSDOF 2
ENDMDL
MODEL       48
REMARK 921   NORMALIZED FREE ENERGY PREDICTED BY IDOCK:   -4.72 KCAL/MOL
REMARK 922        TOTAL FREE ENERGY PREDICTED BY IDOCK:   -5.60 KCAL/MOL
REMARK 923 INTER-LIGAND FREE ENERGY PREDICTED BY IDOCK:   -6.22 KCAL/MOL
REMARK 924 INTRA-LIGAND FREE ENERGY PREDICTED BY IDOCK:    0.62 KCAL/MOL
REMARK 927      BINDING AFFINITY PREDICTED BY RF-SCORE:    0.00 PKD
ROOT
HETATM    1  C   UNL     1     -12.312  13.025  65.487  1.00  0.00    -0.527 C  
HETATM    2  C   UNL     1     -12.494  14.119  66.534  1.00  0.00    -0.306 C  
ENDROOT
BRANCH   2   3
HETATM    3  C   UNL     1     -11.360  14.213  67.610  1.00  0.00    -0.342 C  
HETATM    4  C   UNL     1      -9.959  13.975  66.980  1.00  0.00    -0.257 C  
HETATM    5  O   UNL     1     -11.891  16.069  69.149  1.00  0.00    -0.356 OA 
HETATM    6  C   UNL     1      -9.612  14.972  65.888  1.00  0.00    -0.356 C  
HETATM    7  C   UNL     1     -11.354  15.680  68.115  1.00  0.00    -0.340 C  
HETATM    8  H   UNL     1     -11.072  17.573  67.385  1.00  0.00     0.000 HD 
HETATM    9  C   UNL     1      -9.744  16.379  66.395  1.00  0.00    -0.287 C  
HETATM   10  N   UNL     1     -10.744  16.610  67.303  1.00  0.00    -0.275 N  
HETATM   11  O   UNL     1      -9.012  17.290  66.012  1.00  0.00    -0.486 OA 
BRANCH   3  12
HETATM   12  C   UNL     1     -11.655  13.209  68.754  1.00  0.00    -0.348 A  
HETATM   13  C   UNL     1     -12.572  12.756  70.980  1.00  0.00    -0.362 A  
HETATM   14  N   UNL     1     -12.866  10.482  71.776  1.00  0.00    -0.457 NA 
HETATM   15  C   UNL     1     -11.876  10.928  69.611  1.00  0.00    -0.416 A  
HETATM   16  C   UNL     1     -11.472  11.821  68.613  1.00  0.00    -0.346 A  
HETATM   17  H2  UNL     1     -12.034   9.961  72.051  1.00  0.00     0.000 HD 
HETATM   18  H1  UNL     1     -13.330  10.814  72.622  1.00  0.00     0.000 HD 
HETATM   19  C   UNL     1     -12.173  13.654  69.984  1.00  0.00    -0.395 A  
HETATM   20  C   UNL     1     -12.508  11.381  70.765  1.00  0.00    -0.365 A  
ENDBRANCH   3  12
ENDBRANCH   2   3
TORSDOF 2
ENDMDL
MODEL       49
REMARK 921   NORMALIZED FREE ENERGY PREDICTED BY IDOCK:   -4.66 KCAL/MOL
REMARK 922        TOTAL FREE ENERGY PREDICTED BY IDOCK:   -5.54 KCAL/MOL
REMARK 923 INTER-LIGAND FREE ENERGY PREDICTED BY IDOCK:   -5.41 KCAL/MOL
REMARK 924 INTRA-LIGAND FREE ENERGY PREDICTED BY IDOCK:   -0.13 KCAL/MOL
REMARK 927      BINDING AFFINITY PREDICTED BY RF-SCORE:    0.00 PKD
ROOT
HETATM    1  C   UNL     1      -9.528  12.174  68.357  1.00  0.00    -0.179 C  
HETATM    2  C   UNL     1     -10.626  11.133  68.170  1.00  0.00    -0.227 C  
ENDROOT
BRANCH   2   3
HETATM    3  C   UNL     1     -10.340   9.732  68.811  1.00  0.00    -0.227 C  
HETATM    4  C   UNL     1     -10.525   8.587  67.776  1.00  0.00    -0.287 C  
HETATM    5  O   UNL     1      -8.392   9.941  70.313  1.00  0.00    -0.180 OA 
HETATM    6  C   UNL     1      -9.613   8.713  66.567  1.00  0.00    -0.303 C  
HETATM    7  C   UNL     1      -8.835   9.722  69.189  1.00  0.00    -0.160 C  
HETATM    8  H   UNL     1      -7.005   9.889  68.285  1.00  0.00     0.000 HD 
HETATM    9  C   UNL     1      -8.179   8.825  66.997  1.00  0.00    -0.103 C  
HETATM   10  N   UNL     1      -7.942   9.504  68.163  1.00  0.00    -0.094 N  
HETATM   11  O   UNL     1      -7.254   8.354  66.338  1.00  0.00    -0.070 OA 
BRANCH   3  12
HETATM   12  C   UNL     1     -11.250   9.541  70.051  1.00  0.00    -0.243 A  
HETATM   13  C   UNL     1     -12.961  10.417  71.569  1.00  0.00    -0.562 A  
HETATM   14  N   UNL     1     -14.062   8.977  73.182  1.00  0.00    -1.223 NA 
HETATM   15  C   UNL     1     -12.307   8.128  71.745  1.00  0.00    -0.357 A  
HETATM   16  C   UNL     1     -11.376   8.308  70.717  1.00  0.00    -0.285 A  
HETATM   17  H2  UNL     1     -13.532   8.687  74.004  1.00  0.00     0.000 HD 
HETATM   18  H1  UNL     1     -14.693   9.729  73.457  1.00  0.00     0.000 HD 
HETATM   19  C   UNL     1     -12.035  10.602  70.537  1.00  0.00    -0.446 A  
HETATM   20  C   UNL     1     -13.167   9.155  72.121  1.00  0.00    -0.458 A  
ENDBRANCH   3  12
ENDBRANCH   2   3
TORSDOF 2
ENDMDL
MODEL       50
REMARK 921   NORMALIZED FREE ENERGY PREDICTED BY IDOCK:   -4.64 KCAL/MOL
REMARK 922        TOTAL FREE ENERGY PREDICTED BY IDOCK:   -5.52 KCAL/MOL
REMARK 923 INTER-LIGAND FREE ENERGY PREDICTED BY IDOCK:   -5.21 KCAL/MOL
REMARK 924 INTRA-LIGAND FREE ENERGY PREDICTED BY IDOCK:   -0.31 KCAL/MOL
REMARK 927      BINDING AFFINITY PREDICTED BY RF-SCORE:    0.00 PKD
ROOT
HETATM    1  C   UNL     1     -10.563   8.367  67.542  1.00  0.00    -0.285 C  
HETATM    2  C   UNL     1      -9.824   8.711  68.831  1.00  0.00    -0.184 C  
ENDROOT
BRANCH   2   3
HETATM    3  C   UNL     1     -10.570   8.332  70.155  1.00  0.00    -0.233 C  
HETATM    4  C   UNL     1     -11.364   7.005  69.999  1.00  0.00    -0.293 C  
HETATM    5  O   UNL     1      -9.088   8.843  72.063  1.00  0.00    -0.353 OA 
HETATM    6  C   UNL     1     -10.490   5.818  69.630  1.00  0.00    -0.363 C  
HETATM    7  C   UNL     1      -9.470   8.045  71.212  1.00  0.00    -0.157 C  
HETATM    8  H   UNL     1      -7.900   6.764  71.511  1.00  0.00     0.000 HD 
HETATM    9  C   UNL     1      -9.369   5.663  70.616  1.00  0.00    -0.159 C  
HETATM   10  N   UNL     1      -8.848   6.818  71.138  1.00  0.00    -0.137 N  
HETATM   11  O   UNL     1      -8.919   4.563  70.935  1.00  0.00    -0.112 OA 
BRANCH   3  12
HETATM   12  C   UNL     1     -11.487   9.507  70.581  1.00  0.00    -0.362 A  
HETATM   13  C   UNL     1     -13.235  10.394  72.051  1.00  0.00    -0.497 A  
HETATM   14  N   UNL     1     -13.760  12.763  72.087  1.00  0.00    -0.448 NA 
HETATM   15  C   UNL     1     -12.094  11.876  70.568  1.00  0.00    -0.422 A  
HETATM   16  C   UNL     1     -11.345  10.807  70.065  1.00  0.00    -0.397 A  
HETATM   17  H2  UNL     1     -14.276  13.149  71.297  1.00  0.00     0.000 HD 
HETATM   18  H1  UNL     1     -14.410  12.629  72.861  1.00  0.00     0.000 HD 
HETATM   19  C   UNL     1     -12.486   9.320  71.554  1.00  0.00    -0.435 A  
HETATM   20  C   UNL     1     -12.982  11.695  71.624  1.00  0.00    -0.378 A  
ENDBRANCH   3  12
ENDBRANCH   2   3
TORSDOF 2
ENDMDL
MODEL       51
REMARK 921   NORMALIZED FREE ENERGY PREDICTED BY IDOCK:   -4.64 KCAL/MOL
REMARK 922        TOTAL FREE ENERGY PREDICTED BY IDOCK:   -5.51 KCAL/MOL
REMARK 923 INTER-LIGAND FREE ENERGY PREDICTED BY IDOCK:   -5.13 KCAL/MOL
REMARK 924 INTRA-LIGAND FREE ENERGY PREDICTED BY IDOCK:   -0.38 KCAL/MOL
REMARK 927      BINDING AFFINITY PREDICTED BY RF-SCORE:    0.00 PKD
ROOT
HETATM    1  C   UNL     1     -12.203  14.096  64.589  1.00  0.00    -0.465 C  
HETATM    2  C   UNL     1     -12.301  14.322  66.094  1.00  0.00    -0.411 C  
ENDROOT
BRANCH   2   3
HETATM    3  C   UNL     1     -10.944  14.252  66.873  1.00  0.00    -0.304 C  
HETATM    4  C   UNL     1      -9.866  15.161  66.219  1.00  0.00    -0.317 C  
HETATM    5  O   UNL     1     -11.431  14.203  69.293  1.00  0.00    -0.259 OA 
HETATM    6  C   UNL     1     -10.266  16.626  66.162  1.00  0.00    -0.360 C  
HETATM    7  C   UNL     1     -11.212  14.856  68.277  1.00  0.00    -0.294 C  
HETATM    8  H   UNL     1     -11.817  16.623  69.118  1.00  0.00     0.000 HD 
HETATM    9  C   UNL     1     -10.636  17.125  67.529  1.00  0.00    -0.323 C  
HETATM   10  N   UNL     1     -11.259  16.231  68.359  1.00  0.00    -0.363 N  
HETATM   11  O   UNL     1     -10.414  18.279  67.892  1.00  0.00    -0.381 OA 
BRANCH   3  12
HETATM   12  C   UNL     1     -10.478  12.776  66.958  1.00  0.00    -0.245 A  
HETATM   13  C   UNL     1     -11.022  10.403  67.230  1.00  0.00    -0.306 A  
HETATM   14  N   UNL     1      -9.366   8.680  66.810  1.00  0.00    -0.166 NA 
HETATM   15  C   UNL     1      -8.798  11.028  66.628  1.00  0.00    -0.168 A  
HETATM   16  C   UNL     1      -9.158  12.379  66.678  1.00  0.00    -0.204 A  
HETATM   17  H2  UNL     1      -8.624   8.553  67.498  1.00  0.00     0.000 HD 
HETATM   18  H1  UNL     1     -10.060   7.947  66.949  1.00  0.00     0.000 HD 
HETATM   19  C   UNL     1     -11.389  11.753  67.279  1.00  0.00    -0.379 A  
HETATM   20  C   UNL     1      -9.746  10.027  66.818  1.00  0.00    -0.189 A  
ENDBRANCH   3  12
ENDBRANCH   2   3
TORSDOF 2
ENDMDL
MODEL       52
REMARK 921   NORMALIZED FREE ENERGY PREDICTED BY IDOCK:   -4.64 KCAL/MOL
REMARK 922        TOTAL FREE ENERGY PREDICTED BY IDOCK:   -5.51 KCAL/MOL
REMARK 923 INTER-LIGAND FREE ENERGY PREDICTED BY IDOCK:   -5.13 KCAL/MOL
REMARK 924 INTRA-LIGAND FREE ENERGY PREDICTED BY IDOCK:   -0.38 KCAL/MOL
REMARK 927      BINDING AFFINITY PREDICTED BY RF-SCORE:    0.00 PKD
ROOT
HETATM    1  C   UNL     1      -8.410  11.948  67.748  1.00  0.00    -0.149 C  
HETATM    2  C   UNL     1      -8.979  12.019  66.334  1.00  0.00    -0.161 C  
ENDROOT
BRANCH   2   3
HETATM    3  C   UNL     1     -10.247  11.136  66.075  1.00  0.00    -0.300 C  
HETATM    4  C   UNL     1     -11.393  11.487  67.065  1.00  0.00    -0.340 C  
HETATM    5  O   UNL     1     -10.548  10.892  63.637  1.00  0.00    -0.326 OA 
HETATM    6  C   UNL     1     -11.840  12.937  66.981  1.00  0.00    -0.437 C  
HETATM    7  C   UNL     1     -10.770  11.523  64.667  1.00  0.00    -0.319 C  
HETATM    8  H   UNL     1     -11.481  13.165  63.671  1.00  0.00     0.000 HD 
HETATM    9  C   UNL     1     -12.217  13.292  65.572  1.00  0.00    -0.457 C  
HETATM   10  N   UNL     1     -11.490  12.694  64.575  1.00  0.00    -0.322 N  
HETATM   11  O   UNL     1     -13.115  14.090  65.310  1.00  0.00    -0.782 OA 
BRANCH   3  12
HETATM   12  C   UNL     1      -9.855   9.639  66.156  1.00  0.00    -0.334 A  
HETATM   13  C   UNL     1      -8.254   7.848  65.675  1.00  0.00    -0.137 A  
HETATM   14  N   UNL     1      -8.500   5.647  66.667  1.00  0.00    -0.112 NA 
HETATM   15  C   UNL     1     -10.134   7.389  67.073  1.00  0.00    -0.328 A  
HETATM   16  C   UNL     1     -10.587   8.701  66.906  1.00  0.00    -0.270 A  
HETATM   17  H2  UNL     1      -9.235   5.040  66.305  1.00  0.00     0.000 HD 
HETATM   18  H1  UNL     1      -7.611   5.344  66.271  1.00  0.00     0.000 HD 
HETATM   19  C   UNL     1      -8.700   9.164  65.507  1.00  0.00    -0.210 A  
HETATM   20  C   UNL     1      -8.920   6.975  66.531  1.00  0.00    -0.147 A  
ENDBRANCH   3  12
ENDBRANCH   2   3
TORSDOF 2
ENDMDL
MODEL       53
REMARK 921   NORMALIZED FREE ENERGY PREDICTED BY IDOCK:   -4.62 KCAL/MOL
REMARK 922        TOTAL FREE ENERGY PREDICTED BY IDOCK:   -5.49 KCAL/MOL
REMARK 923 INTER-LIGAND FREE ENERGY PREDICTED BY IDOCK:   -5.07 KCAL/MOL
REMARK 924 INTRA-LIGAND FREE ENERGY PREDICTED BY IDOCK:   -0.42 KCAL/MOL
REMARK 927      BINDING AFFINITY PREDICTED BY RF-SCORE:    0.00 PKD
ROOT
HETATM    1  C   UNL     1      -7.594   9.383  70.657  1.00  0.00    -0.163 C  
HETATM    2  C   UNL     1      -8.412   8.460  69.760  1.00  0.00    -0.127 C  
ENDROOT
BRANCH   2   3
HETATM    3  C   UNL     1      -9.745   9.068  69.207  1.00  0.00    -0.168 C  
HETATM    4  C   UNL     1      -9.516  10.485  68.610  1.00  0.00    -0.172 C  
HETATM    5  O   UNL     1     -11.016   7.278  68.078  1.00  0.00    -0.127 OA 
HETATM    6  C   UNL     1      -8.516  10.504  67.466  1.00  0.00    -0.118 C  
HETATM    7  C   UNL     1     -10.176   8.172  68.016  1.00  0.00    -0.212 C  
HETATM    8  H   UNL     1      -9.473   7.574  66.188  1.00  0.00     0.000 HD 
HETATM    9  C   UNL     1      -8.915   9.527  66.399  1.00  0.00    -0.154 C  
HETATM   10  N   UNL     1      -9.517   8.371  66.823  1.00  0.00    -0.180 N  
HETATM   11  O   UNL     1      -8.704   9.731  65.205  1.00  0.00    -0.141 OA 
BRANCH   3  12
HETATM   12  C   UNL     1     -10.809   9.083  70.334  1.00  0.00    -0.284 A  
HETATM   13  C   UNL     1     -12.814  10.076  71.331  1.00  0.00    -0.519 A  
HETATM   14  N   UNL     1     -13.993   8.971  73.141  1.00  0.00    -1.215 NA 
HETATM   15  C   UNL     1     -11.960   8.031  72.219  1.00  0.00    -0.412 A  
HETATM   16  C   UNL     1     -10.907   8.064  71.299  1.00  0.00    -0.267 A  
HETATM   17  H2  UNL     1     -13.568   8.986  74.067  1.00  0.00     0.000 HD 
HETATM   18  H1  UNL     1     -14.733   9.673  73.117  1.00  0.00     0.000 HD 
HETATM   19  C   UNL     1     -11.764  10.113  70.405  1.00  0.00    -0.390 A  
HETATM   20  C   UNL     1     -12.970   8.989  72.186  1.00  0.00    -0.424 A  
ENDBRANCH   3  12
ENDBRANCH   2   3
TORSDOF 2
ENDMDL
MODEL       54
REMARK 921   NORMALIZED FREE ENERGY PREDICTED BY IDOCK:   -4.59 KCAL/MOL
REMARK 922        TOTAL FREE ENERGY PREDICTED BY IDOCK:   -5.46 KCAL/MOL
REMARK 923 INTER-LIGAND FREE ENERGY PREDICTED BY IDOCK:   -5.27 KCAL/MOL
REMARK 924 INTRA-LIGAND FREE ENERGY PREDICTED BY IDOCK:   -0.19 KCAL/MOL
REMARK 927      BINDING AFFINITY PREDICTED BY RF-SCORE:    0.00 PKD
ROOT
HETATM    1  C   UNL     1     -12.641  13.334  65.550  1.00  0.00    -0.505 C  
HETATM    2  C   UNL     1     -11.326  12.851  66.154  1.00  0.00    -0.356 C  
ENDROOT
BRANCH   2   3
HETATM    3  C   UNL     1     -10.911  13.543  67.497  1.00  0.00    -0.276 C  
HETATM    4  C   UNL     1     -11.892  13.184  68.647  1.00  0.00    -0.363 C  
HETATM    5  O   UNL     1      -8.451  13.454  67.696  1.00  0.00    -0.161 OA 
HETATM    6  C   UNL     1     -11.974  11.693  68.927  1.00  0.00    -0.355 C  
HETATM    7  C   UNL     1      -9.543  12.931  67.901  1.00  0.00    -0.215 C  
HETATM    8  H   UNL     1      -8.735  11.109  68.373  1.00  0.00     0.000 HD 
HETATM    9  C   UNL     1     -10.608  11.129  69.188  1.00  0.00    -0.204 C  
HETATM   10  N   UNL     1      -9.573  11.682  68.481  1.00  0.00    -0.196 N  
HETATM   11  O   UNL     1     -10.415  10.206  69.978  1.00  0.00    -0.264 OA 
BRANCH   3  12
HETATM   12  C   UNL     1     -10.816  15.075  67.277  1.00  0.00    -0.310 A  
HETATM   13  C   UNL     1     -10.655  17.334  68.209  1.00  0.00    -0.383 A  
HETATM   14  N   UNL     1     -10.157  19.242  66.794  1.00  0.00    -0.357 NA 
HETATM   15  C   UNL     1     -10.405  17.022  65.856  1.00  0.00    -0.310 A  
HETATM   16  C   UNL     1     -10.625  15.649  66.008  1.00  0.00    -0.336 A  
HETATM   17  H2  UNL     1     -10.894  19.585  66.179  1.00  0.00     0.000 HD 
HETATM   18  H1  UNL     1     -10.103  19.858  67.605  1.00  0.00     0.000 HD 
HETATM   19  C   UNL     1     -10.872  15.961  68.368  1.00  0.00    -0.316 A  
HETATM   20  C   UNL     1     -10.332  17.863  66.962  1.00  0.00    -0.362 A  
ENDBRANCH   3  12
ENDBRANCH   2   3
TORSDOF 2
ENDMDL
MODEL       55
REMARK 921   NORMALIZED FREE ENERGY PREDICTED BY IDOCK:   -4.54 KCAL/MOL
REMARK 922        TOTAL FREE ENERGY PREDICTED BY IDOCK:   -5.40 KCAL/MOL
REMARK 923 INTER-LIGAND FREE ENERGY PREDICTED BY IDOCK:   -5.36 KCAL/MOL
REMARK 924 INTRA-LIGAND FREE ENERGY PREDICTED BY IDOCK:   -0.04 KCAL/MOL
REMARK 927      BINDING AFFINITY PREDICTED BY RF-SCORE:    0.00 PKD
ROOT
HETATM    1  C   UNL     1      -9.580   7.797  73.318  1.00  0.00    -0.346 C  
HETATM    2  C   UNL     1     -11.020   7.371  73.051  1.00  0.00    -0.422 C  
ENDROOT
BRANCH   2   3
HETATM    3  C   UNL     1     -11.501   7.522  71.568  1.00  0.00    -0.293 C  
HETATM    4  C   UNL     1     -13.047   7.661  71.485  1.00  0.00    -0.379 C  
HETATM    5  O   UNL     1      -9.913   8.987  70.373  1.00  0.00    -0.179 OA 
HETATM    6  C   UNL     1     -13.588   8.859  72.247  1.00  0.00    -0.513 C  
HETATM    7  C   UNL     1     -10.927   8.870  71.055  1.00  0.00    -0.276 C  
HETATM    8  H   UNL     1     -11.033  10.869  71.489  1.00  0.00     0.000 HD 
HETATM    9  C   UNL     1     -12.908  10.121  71.799  1.00  0.00    -0.452 C  
HETATM   10  N   UNL     1     -11.587  10.013  71.451  1.00  0.00    -0.351 N  
HETATM   11  O   UNL     1     -13.488  11.204  71.759  1.00  0.00    -0.307 OA 
BRANCH   3  12
HETATM   12  C   UNL     1     -10.985   6.320  70.736  1.00  0.00    -0.357 A  
HETATM   13  C   UNL     1     -10.525   5.306  68.554  1.00  0.00    -0.147 A  
HETATM   14  N   UNL     1      -9.233   3.260  68.370  1.00  0.00    -0.162 NA 
HETATM   15  C   UNL     1      -9.762   4.212  70.534  1.00  0.00    -0.270 A  
HETATM   16  C   UNL     1     -10.340   5.215  71.319  1.00  0.00    -0.276 A  
HETATM   17  H2  UNL     1      -9.681   2.386  68.644  1.00  0.00     0.000 HD 
HETATM   18  H1  UNL     1      -9.242   3.320  67.352  1.00  0.00     0.000 HD 
HETATM   19  C   UNL     1     -11.103   6.314  69.334  1.00  0.00    -0.477 A  
HETATM   20  C   UNL     1      -9.774   4.293  69.145  1.00  0.00    -0.156 A  
ENDBRANCH   3  12
ENDBRANCH   2   3
TORSDOF 2
ENDMDL
MODEL       56
REMARK 921   NORMALIZED FREE ENERGY PREDICTED BY IDOCK:   -4.52 KCAL/MOL
REMARK 922        TOTAL FREE ENERGY PREDICTED BY IDOCK:   -5.38 KCAL/MOL
REMARK 923 INTER-LIGAND FREE ENERGY PREDICTED BY IDOCK:   -5.06 KCAL/MOL
REMARK 924 INTRA-LIGAND FREE ENERGY PREDICTED BY IDOCK:   -0.31 KCAL/MOL
REMARK 927      BINDING AFFINITY PREDICTED BY RF-SCORE:    0.00 PKD
ROOT
HETATM    1  C   UNL     1     -11.881  12.683  68.129  1.00  0.00    -0.366 C  
HETATM    2  C   UNL     1     -11.095  13.932  67.743  1.00  0.00    -0.281 C  
ENDROOT
BRANCH   2   3
HETATM    3  C   UNL     1     -10.080  13.749  66.565  1.00  0.00    -0.286 C  
HETATM    4  C   UNL     1     -10.808  13.381  65.241  1.00  0.00    -0.318 C  
HETATM    5  O   UNL     1      -8.339  15.490  66.750  1.00  0.00    -0.232 OA 
HETATM    6  C   UNL     1     -11.816  14.428  64.796  1.00  0.00    -0.439 C  
HETATM    7  C   UNL     1      -9.435  15.138  66.321  1.00  0.00    -0.309 C  
HETATM    8  H   UNL     1      -9.990  17.038  65.793  1.00  0.00     0.000 HD 
HETATM    9  C   UNL     1     -11.166  15.778  64.698  1.00  0.00    -0.363 C  
HETATM   10  N   UNL     1     -10.185  16.053  65.614  1.00  0.00    -0.374 N  
HETATM   11  O   UNL     1     -11.499  16.610  63.855  1.00  0.00    -1.186 OA 
BRANCH   3  12
HETATM   12  C   UNL     1      -9.025  12.682  66.957  1.00  0.00    -0.216 A  
HETATM   13  C   UNL     1      -7.455  11.773  68.603  1.00  0.00    -0.120 A  
HETATM   14  N   UNL     1      -6.427   9.598  68.286  1.00  0.00    -0.056 NA 
HETATM   15  C   UNL     1      -7.909  10.533  66.614  1.00  0.00    -0.125 A  
HETATM   16  C   UNL     1      -8.764  11.547  66.169  1.00  0.00    -0.131 A  
HETATM   17  H2  UNL     1      -5.689   9.516  67.587  1.00  0.00     0.000 HD 
HETATM   18  H1  UNL     1      -5.993   9.644  69.207  1.00  0.00     0.000 HD 
HETATM   19  C   UNL     1      -8.312  12.789  68.165  1.00  0.00    -0.172 A  
HETATM   20  C   UNL     1      -7.316  10.596  67.871  1.00  0.00    -0.089 A  
ENDBRANCH   3  12
ENDBRANCH   2   3
TORSDOF 2
ENDMDL
MODEL       57
REMARK 921   NORMALIZED FREE ENERGY PREDICTED BY IDOCK:   -4.50 KCAL/MOL
REMARK 922        TOTAL FREE ENERGY PREDICTED BY IDOCK:   -5.36 KCAL/MOL
REMARK 923 INTER-LIGAND FREE ENERGY PREDICTED BY IDOCK:   -5.28 KCAL/MOL
REMARK 924 INTRA-LIGAND FREE ENERGY PREDICTED BY IDOCK:   -0.08 KCAL/MOL
REMARK 927      BINDING AFFINITY PREDICTED BY RF-SCORE:    0.00 PKD
ROOT
HETATM    1  C   UNL     1     -10.529   9.378  66.819  1.00  0.00    -0.265 C  
HETATM    2  C   UNL     1     -11.114  10.713  67.266  1.00  0.00    -0.313 C  
ENDROOT
BRANCH   2   3
HETATM    3  C   UNL     1     -10.473  11.330  68.556  1.00  0.00    -0.218 C  
HETATM    4  C   UNL     1      -8.924  11.397  68.442  1.00  0.00    -0.172 C  
HETATM    5  O   UNL     1     -11.889  13.204  69.316  1.00  0.00    -0.302 OA 
HETATM    6  C   UNL     1      -8.441  12.231  67.268  1.00  0.00    -0.181 C  
HETATM    7  C   UNL     1     -10.957  12.803  68.625  1.00  0.00    -0.260 C  
HETATM    8  H   UNL     1     -10.851  14.526  67.524  1.00  0.00     0.000 HD 
HETATM    9  C   UNL     1      -9.039  13.608  67.317  1.00  0.00    -0.228 C  
HETATM   10  N   UNL     1     -10.317  13.703  67.802  1.00  0.00    -0.238 N  
HETATM   11  O   UNL     1      -8.432  14.604  66.928  1.00  0.00    -0.217 OA 
BRANCH   3  12
HETATM   12  C   UNL     1     -10.926  10.514  69.794  1.00  0.00    -0.350 A  
HETATM   13  C   UNL     1     -12.727   9.683  71.230  1.00  0.00    -0.443 A  
HETATM   14  N   UNL     1     -12.306   7.990  72.917  1.00  0.00    -0.638 NA 
HETATM   15  C   UNL     1     -10.505   8.874  71.560  1.00  0.00    -0.393 A  
HETATM   16  C   UNL     1     -10.044   9.706  70.534  1.00  0.00    -0.338 A  
HETATM   17  H2  UNL     1     -11.809   8.271  73.762  1.00  0.00     0.000 HD 
HETATM   18  H1  UNL     1     -13.300   7.928  73.136  1.00  0.00     0.000 HD 
HETATM   19  C   UNL     1     -12.272  10.515  70.201  1.00  0.00    -0.358 A  
HETATM   20  C   UNL     1     -11.862   8.791  71.859  1.00  0.00    -0.367 A  
ENDBRANCH   3  12
ENDBRANCH   2   3
TORSDOF 2
ENDMDL
MODEL       58
REMARK 921   NORMALIZED FREE ENERGY PREDICTED BY IDOCK:   -4.47 KCAL/MOL
REMARK 922        TOTAL FREE ENERGY PREDICTED BY IDOCK:   -5.33 KCAL/MOL
REMARK 923 INTER-LIGAND FREE ENERGY PREDICTED BY IDOCK:   -5.33 KCAL/MOL
REMARK 924 INTRA-LIGAND FREE ENERGY PREDICTED BY IDOCK:    0.00 KCAL/MOL
REMARK 927      BINDING AFFINITY PREDICTED BY RF-SCORE:    0.00 PKD
ROOT
HETATM    1  C   UNL     1     -10.661  19.535  66.204  1.00  0.00    -0.585 C  
HETATM    2  C   UNL     1      -9.222  19.070  66.007  1.00  0.00    -0.077 C  
ENDROOT
BRANCH   2   3
HETATM    3  C   UNL     1      -8.772  17.874  66.914  1.00  0.00    -0.258 C  
HETATM    4  C   UNL     1      -7.223  17.794  67.018  1.00  0.00    -0.209 C  
HETATM    5  O   UNL     1     -10.300  17.739  68.848  1.00  0.00    -0.368 OA 
HETATM    6  C   UNL     1      -6.591  19.049  67.598  1.00  0.00    -0.216 C  
HETATM    7  C   UNL     1      -9.277  18.195  68.345  1.00  0.00    -0.306 C  
HETATM    8  H   UNL     1      -9.039  19.625  69.792  1.00  0.00     0.000 HD 
HETATM    9  C   UNL     1      -7.206  19.384  68.927  1.00  0.00    -0.362 C  
HETATM   10  N   UNL     1      -8.539  19.105  69.071  1.00  0.00    -0.268 N  
HETATM   11  O   UNL     1      -6.562  19.898  69.839  1.00  0.00    -0.347 OA 
BRANCH   3  12
HETATM   12  C   UNL     1      -9.381  16.558  66.367  1.00  0.00    -0.316 A  
HETATM   13  C   UNL     1     -10.934  15.421  64.852  1.00  0.00    -0.453 A  
HETATM   14  N   UNL     1     -10.829  13.020  64.519  1.00  0.00    -0.349 NA 
HETATM   15  C   UNL     1      -9.351  14.128  66.085  1.00  0.00    -0.166 A  
HETATM   16  C   UNL     1      -8.871  15.290  66.699  1.00  0.00    -0.328 A  
HETATM   17  H2  UNL     1     -11.173  12.418  65.267  1.00  0.00     0.000 HD 
HETATM   18  H1  UNL     1     -11.543  13.067  63.792  1.00  0.00     0.000 HD 
HETATM   19  C   UNL     1     -10.457  16.587  65.461  1.00  0.00    -0.320 A  
HETATM   20  C   UNL     1     -10.325  14.192  65.093  1.00  0.00    -0.405 A  
ENDBRANCH   3  12
ENDBRANCH   2   3
TORSDOF 2
ENDMDL
MODEL       59
REMARK 921   NORMALIZED FREE ENERGY PREDICTED BY IDOCK:   -4.46 KCAL/MOL
REMARK 922        TOTAL FREE ENERGY PREDICTED BY IDOCK:   -5.32 KCAL/MOL
REMARK 923 INTER-LIGAND FREE ENERGY PREDICTED BY IDOCK:   -5.41 KCAL/MOL
REMARK 924 INTRA-LIGAND FREE ENERGY PREDICTED BY IDOCK:    0.09 KCAL/MOL
REMARK 927      BINDING AFFINITY PREDICTED BY RF-SCORE:    0.00 PKD
ROOT
HETATM    1  C   UNL     1      -8.875   7.065  69.230  1.00  0.00    -0.139 C  
HETATM    2  C   UNL     1      -9.861   7.944  68.467  1.00  0.00    -0.186 C  
ENDROOT
BRANCH   2   3
HETATM    3  C   UNL     1     -10.118   9.359  69.087  1.00  0.00    -0.200 C  
HETATM    4  C   UNL     1      -8.821   9.951  69.707  1.00  0.00    -0.229 C  
HETATM    5  O   UNL     1     -11.630  10.609  67.588  1.00  0.00    -0.492 OA 
HETATM    6  C   UNL     1      -7.689  10.107  68.705  1.00  0.00    -0.088 C  
HETATM    7  C   UNL     1     -10.486  10.295  67.906  1.00  0.00    -0.212 C  
HETATM    8  H   UNL     1      -9.664  11.001  66.167  1.00  0.00     0.000 HD 
HETATM    9  C   UNL     1      -8.139  10.916  67.523  1.00  0.00    -0.116 C  
HETATM   10  N   UNL     1      -9.443  10.755  67.132  1.00  0.00    -0.159 N  
HETATM   11  O   UNL     1      -7.384  11.674  66.917  1.00  0.00    -0.143 OA 
BRANCH   3  12
HETATM   12  C   UNL     1     -11.262   9.264  70.128  1.00  0.00    -0.237 A  
HETATM   13  C   UNL     1     -12.646   7.904  71.624  1.00  0.00    -0.344 A  
HETATM   14  N   UNL     1     -14.102   8.936  73.268  1.00  0.00    -1.248 NA 
HETATM   15  C   UNL     1     -12.803  10.284  71.731  1.00  0.00    -0.565 A  
HETATM   16  C   UNL     1     -11.870  10.398  70.694  1.00  0.00    -0.445 A  
HETATM   17  H2  UNL     1     -14.957   9.380  72.937  1.00  0.00     0.000 HD 
HETATM   18  H1  UNL     1     -14.343   8.025  73.659  1.00  0.00     0.000 HD 
HETATM   19  C   UNL     1     -11.710   8.012  70.589  1.00  0.00    -0.158 A  
HETATM   20  C   UNL     1     -13.134   9.041  72.263  1.00  0.00    -0.445 A  
ENDBRANCH   3  12
ENDBRANCH   2   3
TORSDOF 2
ENDMDL
MODEL       60
REMARK 921   NORMALIZED FREE ENERGY PREDICTED BY IDOCK:   -4.43 KCAL/MOL
REMARK 922        TOTAL FREE ENERGY PREDICTED BY IDOCK:   -5.28 KCAL/MOL
REMARK 923 INTER-LIGAND FREE ENERGY PREDICTED BY IDOCK:   -4.85 KCAL/MOL
REMARK 924 INTRA-LIGAND FREE ENERGY PREDICTED BY IDOCK:   -0.43 KCAL/MOL
REMARK 927      BINDING AFFINITY PREDICTED BY RF-SCORE:    0.00 PKD
ROOT
HETATM    1  C   UNL     1      -7.993  12.429  68.309  1.00  0.00    -0.160 C  
HETATM    2  C   UNL     1      -8.458  11.169  67.585  1.00  0.00    -0.122 C  
ENDROOT
BRANCH   2   3
HETATM    3  C   UNL     1     -10.010  10.971  67.513  1.00  0.00    -0.199 C  
HETATM    4  C   UNL     1     -10.720  12.242  66.967  1.00  0.00    -0.263 C  
HETATM    5  O   UNL     1     -10.472   8.679  66.720  1.00  0.00    -0.291 OA 
HETATM    6  C   UNL     1     -10.261  12.638  65.573  1.00  0.00    -0.298 C  
HETATM    7  C   UNL     1     -10.262   9.860  66.459  1.00  0.00    -0.222 C  
HETATM    8  H   UNL     1      -9.937   9.505  64.468  1.00  0.00     0.000 HD 
HETATM    9  C   UNL     1     -10.409  11.486  64.622  1.00  0.00    -0.297 C  
HETATM   10  N   UNL     1     -10.186  10.235  65.135  1.00  0.00    -0.289 N  
HETATM   11  O   UNL     1     -10.698  11.643  63.437  1.00  0.00    -0.386 OA 
BRANCH   3  12
HETATM   12  C   UNL     1     -10.542  10.571  68.913  1.00  0.00    -0.243 A  
HETATM   13  C   UNL     1     -12.380  10.501  70.531  1.00  0.00    -0.432 A  
HETATM   14  N   UNL     1     -12.217   9.173  72.556  1.00  0.00    -0.194 NA 
HETATM   15  C   UNL     1     -10.364   9.311  71.002  1.00  0.00    -0.388 A  
HETATM   16  C   UNL     1      -9.806   9.771  69.805  1.00  0.00    -0.262 A  
HETATM   17  H2  UNL     1     -11.617   9.516  73.305  1.00  0.00     0.000 HD 
HETATM   18  H1  UNL     1     -13.185   9.384  72.799  1.00  0.00     0.000 HD 
HETATM   19  C   UNL     1     -11.828  10.961  69.330  1.00  0.00    -0.400 A  
HETATM   20  C   UNL     1     -11.685   9.600  71.334  1.00  0.00    -0.404 A  
ENDBRANCH   3  12
ENDBRANCH   2   3
TORSDOF 2
ENDMDL
MODEL       61
REMARK 921   NORMALIZED FREE ENERGY PREDICTED BY IDOCK:   -4.41 KCAL/MOL
REMARK 922        TOTAL FREE ENERGY PREDICTED BY IDOCK:   -5.26 KCAL/MOL
REMARK 923 INTER-LIGAND FREE ENERGY PREDICTED BY IDOCK:   -5.09 KCAL/MOL
REMARK 924 INTRA-LIGAND FREE ENERGY PREDICTED BY IDOCK:   -0.17 KCAL/MOL
REMARK 927      BINDING AFFINITY PREDICTED BY RF-SCORE:    0.00 PKD
ROOT
HETATM    1  C   UNL     1      -8.667   9.486  68.513  1.00  0.00    -0.124 C  
HETATM    2  C   UNL     1     -10.021   8.836  68.245  1.00  0.00    -0.202 C  
ENDROOT
BRANCH   2   3
HETATM    3  C   UNL     1     -10.314   7.534  69.065  1.00  0.00    -0.217 C  
HETATM    4  C   UNL     1     -10.938   6.428  68.168  1.00  0.00    -0.393 C  
HETATM    5  O   UNL     1      -8.445   7.157  70.633  1.00  0.00    -0.134 OA 
HETATM    6  C   UNL     1     -10.050   6.024  67.003  1.00  0.00    -0.220 C  
HETATM    7  C   UNL     1      -8.938   6.983  69.522  1.00  0.00    -0.143 C  
HETATM    8  H   UNL     1      -7.190   6.296  68.703  1.00  0.00     0.000 HD 
HETATM    9  C   UNL     1      -8.689   5.620  67.492  1.00  0.00    -0.107 C  
HETATM   10  N   UNL     1      -8.203   6.298  68.579  1.00  0.00    -0.112 N  
HETATM   11  O   UNL     1      -8.026   4.740  66.945  1.00  0.00    -0.101 OA 
BRANCH   3  12
HETATM   12  C   UNL     1     -11.227   7.881  70.269  1.00  0.00    -0.206 A  
HETATM   13  C   UNL     1     -12.282   9.566  71.701  1.00  0.00    -0.477 A  
HETATM   14  N   UNL     1     -14.013   8.955  73.288  1.00  0.00    -1.217 NA 
HETATM   15  C   UNL     1     -12.909   7.275  71.938  1.00  0.00    -0.299 A  
HETATM   16  C   UNL     1     -11.991   6.914  70.947  1.00  0.00    -0.430 A  
HETATM   17  H2  UNL     1     -13.732   8.462  74.135  1.00  0.00     0.000 HD 
HETATM   18  H1  UNL     1     -14.172   9.934  73.526  1.00  0.00     0.000 HD 
HETATM   19  C   UNL     1     -11.364   9.212  70.706  1.00  0.00    -0.337 A  
HETATM   20  C   UNL     1     -13.125   8.610  72.263  1.00  0.00    -0.372 A  
ENDBRANCH   3  12
ENDBRANCH   2   3
TORSDOF 2
ENDMDL
MODEL       62
REMARK 921   NORMALIZED FREE ENERGY PREDICTED BY IDOCK:   -4.40 KCAL/MOL
REMARK 922        TOTAL FREE ENERGY PREDICTED BY IDOCK:   -5.25 KCAL/MOL
REMARK 923 INTER-LIGAND FREE ENERGY PREDICTED BY IDOCK:   -5.48 KCAL/MOL
REMARK 924 INTRA-LIGAND FREE ENERGY PREDICTED BY IDOCK:    0.23 KCAL/MOL
REMARK 927      BINDING AFFINITY PREDICTED BY RF-SCORE:    0.00 PKD
ROOT
HETATM    1  C   UNL     1      -9.058  14.075  68.452  1.00  0.00    -0.191 C  
HETATM    2  C   UNL     1      -9.841  12.801  68.750  1.00  0.00     0.020 C  
ENDROOT
BRANCH   2   3
HETATM    3  C   UNL     1     -11.382  12.880  68.475  1.00  0.00    -0.324 C  
HETATM    4  C   UNL     1     -12.136  11.690  69.130  1.00  0.00    -0.315 C  
HETATM    5  O   UNL     1     -12.090  15.238  68.657  1.00  0.00    -0.263 OA 
HETATM    6  C   UNL     1     -11.961  11.620  70.638  1.00  0.00    -0.356 C  
HETATM    7  C   UNL     1     -11.892  14.154  69.199  1.00  0.00    -0.341 C  
HETATM    8  H   UNL     1     -12.002  14.926  71.093  1.00  0.00     0.000 HD 
HETATM    9  C   UNL     1     -12.351  12.922  71.275  1.00  0.00    -0.078 C  
HETATM   10  N   UNL     1     -12.077  14.059  70.561  1.00  0.00    -0.337 N  
HETATM   11  O   UNL     1     -12.872  12.982  72.387  1.00  0.00    -0.202 OA 
BRANCH   3  12
HETATM   12  C   UNL     1     -11.627  12.947  66.946  1.00  0.00    -0.425 A  
HETATM   13  C   UNL     1     -12.659  14.056  65.020  1.00  0.00    -0.416 A  
HETATM   14  N   UNL     1     -12.041  13.459  62.751  1.00  0.00    -0.705 NA 
HETATM   15  C   UNL     1     -11.085  12.299  64.650  1.00  0.00    -0.358 A  
HETATM   16  C   UNL     1     -10.947  12.123  66.031  1.00  0.00    -0.332 A  
HETATM   17  H2  UNL     1     -12.383  12.573  62.380  1.00  0.00     0.000 HD 
HETATM   18  H1  UNL     1     -12.619  14.209  62.372  1.00  0.00     0.000 HD 
HETATM   19  C   UNL     1     -12.522  13.887  66.403  1.00  0.00    -0.414 A  
HETATM   20  C   UNL     1     -11.874  13.322  64.134  1.00  0.00    -0.443 A  
ENDBRANCH   3  12
ENDBRANCH   2   3
TORSDOF 2
ENDMDL
MODEL       63
REMARK 921   NORMALIZED FREE ENERGY PREDICTED BY IDOCK:   -4.38 KCAL/MOL
REMARK 922        TOTAL FREE ENERGY PREDICTED BY IDOCK:   -5.23 KCAL/MOL
REMARK 923 INTER-LIGAND FREE ENERGY PREDICTED BY IDOCK:   -4.89 KCAL/MOL
REMARK 924 INTRA-LIGAND FREE ENERGY PREDICTED BY IDOCK:   -0.34 KCAL/MOL
REMARK 927      BINDING AFFINITY PREDICTED BY RF-SCORE:    0.00 PKD
ROOT
HETATM    1  C   UNL     1      -8.271   7.188  71.642  1.00  0.00    -0.103 C  
HETATM    2  C   UNL     1      -9.035   6.707  70.412  1.00  0.00    -0.152 C  
ENDROOT
BRANCH   2   3
HETATM    3  C   UNL     1      -9.848   7.811  69.653  1.00  0.00    -0.182 C  
HETATM    4  C   UNL     1      -8.978   9.071  69.384  1.00  0.00    -0.145 C  
HETATM    5  O   UNL     1     -11.261   6.713  67.952  1.00  0.00    -0.251 OA 
HETATM    6  C   UNL     1      -7.741   8.782  68.550  1.00  0.00    -0.099 C  
HETATM    7  C   UNL     1     -10.187   7.224  68.258  1.00  0.00    -0.180 C  
HETATM    8  H   UNL     1      -9.224   6.524  66.591  1.00  0.00     0.000 HD 
HETATM    9  C   UNL     1      -8.117   8.101  67.266  1.00  0.00    -0.121 C  
HETATM   10  N   UNL     1      -9.177   7.235  67.320  1.00  0.00    -0.128 N  
HETATM   11  O   UNL     1      -7.503   8.287  66.216  1.00  0.00    -0.077 OA 
BRANCH   3  12
HETATM   12  C   UNL     1     -11.125   8.155  70.462  1.00  0.00    -0.257 A  
HETATM   13  C   UNL     1     -13.029   7.417  71.814  1.00  0.00    -0.365 A  
HETATM   14  N   UNL     1     -14.402   9.011  73.023  1.00  0.00    -1.139 NA 
HETATM   15  C   UNL     1     -12.575   9.752  71.616  1.00  0.00    -0.509 A  
HETATM   16  C   UNL     1     -11.496   9.476  70.769  1.00  0.00    -0.378 A  
HETATM   17  H2  UNL     1     -15.050   9.587  72.486  1.00  0.00     0.000 HD 
HETATM   18  H1  UNL     1     -14.930   8.258  73.462  1.00  0.00     0.000 HD 
HETATM   19  C   UNL     1     -11.949   7.134  70.970  1.00  0.00    -0.387 A  
HETATM   20  C   UNL     1     -13.296   8.723  72.214  1.00  0.00    -0.419 A  
ENDBRANCH   3  12
ENDBRANCH   2   3
TORSDOF 2
ENDMDL
MODEL       64
REMARK 921   NORMALIZED FREE ENERGY PREDICTED BY IDOCK:   -4.37 KCAL/MOL
REMARK 922        TOTAL FREE ENERGY PREDICTED BY IDOCK:   -5.22 KCAL/MOL
REMARK 923 INTER-LIGAND FREE ENERGY PREDICTED BY IDOCK:   -5.08 KCAL/MOL
REMARK 924 INTRA-LIGAND FREE ENERGY PREDICTED BY IDOCK:   -0.14 KCAL/MOL
REMARK 927      BINDING AFFINITY PREDICTED BY RF-SCORE:    0.00 PKD
ROOT
HETATM    1  C   UNL     1      -9.524   7.145  69.220  1.00  0.00    -0.152 C  
HETATM    2  C   UNL     1     -10.870   7.751  69.602  1.00  0.00    -0.185 C  
ENDROOT
BRANCH   2   3
HETATM    3  C   UNL     1     -10.799   9.047  70.478  1.00  0.00    -0.296 C  
HETATM    4  C   UNL     1     -11.651   8.907  71.771  1.00  0.00    -0.422 C  
HETATM    5  O   UNL     1      -8.481   9.897  70.433  1.00  0.00    -0.145 OA 
HETATM    6  C   UNL     1     -11.217   7.752  72.657  1.00  0.00    -0.438 C  
HETATM    7  C   UNL     1      -9.327   9.175  70.954  1.00  0.00    -0.269 C  
HETATM    8  H   UNL     1      -7.955   8.130  72.058  1.00  0.00     0.000 HD 
HETATM    9  C   UNL     1      -9.755   7.858  72.984  1.00  0.00    -0.283 C  
HETATM   10  N   UNL     1      -8.945   8.370  72.004  1.00  0.00    -0.202 N  
HETATM   11  O   UNL     1      -9.292   7.491  74.062  1.00  0.00    -0.263 OA 
BRANCH   3  12
HETATM   12  C   UNL     1     -11.239  10.266  69.628  1.00  0.00    -0.322 A  
HETATM   13  C   UNL     1     -11.951  12.607  69.504  1.00  0.00    -0.332 A  
HETATM   14  N   UNL     1     -12.070  13.771  67.378  1.00  0.00    -0.398 NA 
HETATM   15  C   UNL     1     -11.453  11.431  67.487  1.00  0.00    -0.336 A  
HETATM   16  C   UNL     1     -11.181  10.272  68.222  1.00  0.00    -0.295 A  
HETATM   17  H2  UNL     1     -12.839  13.540  66.750  1.00  0.00     0.000 HD 
HETATM   18  H1  UNL     1     -12.291  14.649  67.846  1.00  0.00     0.000 HD 
HETATM   19  C   UNL     1     -11.677  11.452  70.246  1.00  0.00    -0.397 A  
HETATM   20  C   UNL     1     -11.755  12.630  68.125  1.00  0.00    -0.347 A  
ENDBRANCH   3  12
ENDBRANCH   2   3
TORSDOF 2
ENDMDL
MODEL       65
REMARK 921   NORMALIZED FREE ENERGY PREDICTED BY IDOCK:   -4.36 KCAL/MOL
REMARK 922        TOTAL FREE ENERGY PREDICTED BY IDOCK:   -5.20 KCAL/MOL
REMARK 923 INTER-LIGAND FREE ENERGY PREDICTED BY IDOCK:   -4.79 KCAL/MOL
REMARK 924 INTRA-LIGAND FREE ENERGY PREDICTED BY IDOCK:   -0.41 KCAL/MOL
REMARK 927      BINDING AFFINITY PREDICTED BY RF-SCORE:    0.00 PKD
ROOT
HETATM    1  C   UNL     1      -9.316   7.678  66.941  1.00  0.00    -0.203 C  
HETATM    2  C   UNL     1     -10.454   8.662  67.190  1.00  0.00    -0.360 C  
ENDROOT
BRANCH   2   3
HETATM    3  C   UNL     1     -10.243   9.642  68.394  1.00  0.00    -0.214 C  
HETATM    4  C   UNL     1      -8.887  10.394  68.282  1.00  0.00    -0.135 C  
HETATM    5  O   UNL     1     -12.397  10.737  68.900  1.00  0.00    -0.433 OA 
HETATM    6  C   UNL     1      -8.758  11.221  67.014  1.00  0.00    -0.152 C  
HETATM    7  C   UNL     1     -11.342  10.731  68.272  1.00  0.00    -0.309 C  
HETATM    8  H   UNL     1     -11.955  12.179  66.960  1.00  0.00     0.000 HD 
HETATM    9  C   UNL     1      -9.914  12.170  66.883  1.00  0.00    -0.204 C  
HETATM   10  N   UNL     1     -11.126  11.726  67.344  1.00  0.00    -0.263 N  
HETATM   11  O   UNL     1      -9.799  13.284  66.374  1.00  0.00    -0.269 OA 
BRANCH   3  12
HETATM   12  C   UNL     1     -10.356   8.853  69.723  1.00  0.00    -0.213 A  
HETATM   13  C   UNL     1      -9.920   8.697  72.129  1.00  0.00    -0.386 A  
HETATM   14  N   UNL     1     -10.956   6.970  73.482  1.00  0.00    -0.556 NA 
HETATM   15  C   UNL     1     -11.318   7.066  71.089  1.00  0.00    -0.319 A  
HETATM   16  C   UNL     1     -11.122   7.680  69.847  1.00  0.00    -0.160 A  
HETATM   17  H2  UNL     1     -10.604   6.017  73.391  1.00  0.00     0.000 HD 
HETATM   18  H1  UNL     1     -10.570   7.375  74.334  1.00  0.00     0.000 HD 
HETATM   19  C   UNL     1      -9.722   9.318  70.890  1.00  0.00    -0.346 A  
HETATM   20  C   UNL     1     -10.791   7.618  72.252  1.00  0.00    -0.267 A  
ENDBRANCH   3  12
ENDBRANCH   2   3
TORSDOF 2
ENDMDL
MODEL       66
REMARK 921   NORMALIZED FREE ENERGY PREDICTED BY IDOCK:   -4.36 KCAL/MOL
REMARK 922        TOTAL FREE ENERGY PREDICTED BY IDOCK:   -5.20 KCAL/MOL
REMARK 923 INTER-LIGAND FREE ENERGY PREDICTED BY IDOCK:   -4.78 KCAL/MOL
REMARK 924 INTRA-LIGAND FREE ENERGY PREDICTED BY IDOCK:   -0.42 KCAL/MOL
REMARK 927      BINDING AFFINITY PREDICTED BY RF-SCORE:    0.00 PKD
ROOT
HETATM    1  C   UNL     1     -12.571  12.792  65.048  1.00  0.00    -0.538 C  
HETATM    2  C   UNL     1     -12.368  13.646  66.296  1.00  0.00    -0.464 C  
ENDROOT
BRANCH   2   3
HETATM    3  C   UNL     1     -10.877  13.895  66.704  1.00  0.00    -0.289 C  
HETATM    4  C   UNL     1     -10.028  14.367  65.490  1.00  0.00    -0.359 C  
HETATM    5  O   UNL     1     -10.841  14.975  68.924  1.00  0.00    -0.226 OA 
HETATM    6  C   UNL     1     -10.534  15.656  64.865  1.00  0.00    -0.261 C  
HETATM    7  C   UNL     1     -10.887  15.083  67.702  1.00  0.00    -0.291 C  
HETATM    8  H   UNL     1     -11.427  17.058  67.759  1.00  0.00     0.000 HD 
HETATM    9  C   UNL     1     -10.644  16.738  65.901  1.00  0.00    -0.248 C  
HETATM   10  N   UNL     1     -11.014  16.344  67.160  1.00  0.00    -0.161 N  
HETATM   11  O   UNL     1     -10.434  17.922  65.642  1.00  0.00    -0.610 OA 
BRANCH   3  12
HETATM   12  C   UNL     1     -10.299  12.607  67.345  1.00  0.00    -0.224 A  
HETATM   13  C   UNL     1     -10.658  10.508  68.555  1.00  0.00    -0.234 A  
HETATM   14  N   UNL     1      -8.881   8.870  68.778  1.00  0.00    -0.137 NA 
HETATM   15  C   UNL     1      -8.497  10.983  67.658  1.00  0.00    -0.121 A  
HETATM   16  C   UNL     1      -8.957  12.217  67.187  1.00  0.00    -0.189 A  
HETATM   17  H2  UNL     1      -8.122   9.074  69.427  1.00  0.00     0.000 HD 
HETATM   18  H1  UNL     1      -9.516   8.209  69.225  1.00  0.00     0.000 HD 
HETATM   19  C   UNL     1     -11.125  11.740  68.082  1.00  0.00    -0.297 A  
HETATM   20  C   UNL     1      -9.363  10.081  68.269  1.00  0.00    -0.132 A  
ENDBRANCH   3  12
ENDBRANCH   2   3
TORSDOF 2
ENDMDL
MODEL       67
REMARK 921   NORMALIZED FREE ENERGY PREDICTED BY IDOCK:   -4.34 KCAL/MOL
REMARK 922        TOTAL FREE ENERGY PREDICTED BY IDOCK:   -5.18 KCAL/MOL
REMARK 923 INTER-LIGAND FREE ENERGY PREDICTED BY IDOCK:   -5.02 KCAL/MOL
REMARK 924 INTRA-LIGAND FREE ENERGY PREDICTED BY IDOCK:   -0.16 KCAL/MOL
REMARK 927      BINDING AFFINITY PREDICTED BY RF-SCORE:    0.00 PKD
ROOT
HETATM    1  C   UNL     1     -10.838  16.417  70.096  1.00  0.00    -0.265 C  
HETATM    2  C   UNL     1     -11.818  15.591  69.270  1.00  0.00    -0.372 C  
ENDROOT
BRANCH   2   3
HETATM    3  C   UNL     1     -11.183  14.410  68.459  1.00  0.00    -0.286 C  
HETATM    4  C   UNL     1     -11.641  14.432  66.973  1.00  0.00    -0.402 C  
HETATM    5  O   UNL     1      -8.839  14.132  69.183  1.00  0.00     0.046 OA 
HETATM    6  C   UNL     1     -11.271  15.714  66.247  1.00  0.00    -0.033 C  
HETATM    7  C   UNL     1      -9.653  14.666  68.434  1.00  0.00    -0.217 C  
HETATM    8  H   UNL     1      -8.325  16.079  67.774  1.00  0.00     0.000 HD 
HETATM    9  C   UNL     1      -9.797  15.979  66.362  1.00  0.00    -0.288 C  
HETATM   10  N   UNL     1      -9.199  15.608  67.537  1.00  0.00    -0.199 N  
HETATM   11  O   UNL     1      -9.152  16.517  65.463  1.00  0.00    -0.404 OA 
BRANCH   3  12
HETATM   12  C   UNL     1     -11.534  13.067  69.150  1.00  0.00    -0.353 A  
HETATM   13  C   UNL     1     -12.538  11.861  71.030  1.00  0.00    -0.381 A  
HETATM   14  N   UNL     1     -12.893   9.462  70.935  1.00  0.00    -0.523 NA 
HETATM   15  C   UNL     1     -11.818  10.638  69.110  1.00  0.00    -0.287 A  
HETATM   16  C   UNL     1     -11.365  11.822  68.518  1.00  0.00    -0.328 A  
HETATM   17  H2  UNL     1     -12.078   8.855  71.025  1.00  0.00     0.000 HD 
HETATM   18  H1  UNL     1     -13.382   9.476  71.829  1.00  0.00     0.000 HD 
HETATM   19  C   UNL     1     -12.090  13.049  70.442  1.00  0.00    -0.391 A  
HETATM   20  C   UNL     1     -12.485  10.657  70.331  1.00  0.00    -0.338 A  
ENDBRANCH   3  12
ENDBRANCH   2   3
TORSDOF 2
ENDMDL
MODEL       68
REMARK 921   NORMALIZED FREE ENERGY PREDICTED BY IDOCK:   -4.33 KCAL/MOL
REMARK 922        TOTAL FREE ENERGY PREDICTED BY IDOCK:   -5.17 KCAL/MOL
REMARK 923 INTER-LIGAND FREE ENERGY PREDICTED BY IDOCK:   -4.88 KCAL/MOL
REMARK 924 INTRA-LIGAND FREE ENERGY PREDICTED BY IDOCK:   -0.29 KCAL/MOL
REMARK 927      BINDING AFFINITY PREDICTED BY RF-SCORE:    0.00 PKD
ROOT
HETATM    1  C   UNL     1      -7.908   9.836  69.899  1.00  0.00    -0.168 C  
HETATM    2  C   UNL     1      -9.186   9.428  70.624  1.00  0.00    -0.303 C  
ENDROOT
BRANCH   2   3
HETATM    3  C   UNL     1     -10.419   9.141  69.701  1.00  0.00    -0.230 C  
HETATM    4  C   UNL     1     -10.044   8.186  68.533  1.00  0.00    -0.220 C  
HETATM    5  O   UNL     1     -12.418   8.869  71.125  1.00  0.00    -0.291 OA 
HETATM    6  C   UNL     1      -9.520   6.838  69.000  1.00  0.00    -0.133 C  
HETATM    7  C   UNL     1     -11.446   8.366  70.568  1.00  0.00    -0.179 C  
HETATM    8  H   UNL     1     -11.585   6.609  71.613  1.00  0.00     0.000 HD 
HETATM    9  C   UNL     1     -10.498   6.188  69.936  1.00  0.00    -0.233 C  
HETATM   10  N   UNL     1     -11.202   7.024  70.763  1.00  0.00    -0.271 N  
HETATM   11  O   UNL     1     -10.656   4.969  69.981  1.00  0.00    -0.245 OA 
BRANCH   3  12
HETATM   12  C   UNL     1     -10.996  10.484  69.184  1.00  0.00    -0.286 A  
HETATM   13  C   UNL     1     -11.700  12.788  69.627  1.00  0.00    -0.372 A  
HETATM   14  N   UNL     1     -12.190  14.320  67.810  1.00  0.00    -0.598 NA 
HETATM   15  C   UNL     1     -11.582  12.017  67.371  1.00  0.00    -0.388 A  
HETATM   16  C   UNL     1     -11.192  10.750  67.817  1.00  0.00    -0.385 A  
HETATM   17  H2  UNL     1     -13.062  14.189  67.297  1.00  0.00     0.000 HD 
HETATM   18  H1  UNL     1     -12.317  15.092  68.465  1.00  0.00     0.000 HD 
HETATM   19  C   UNL     1     -11.306  11.524  70.080  1.00  0.00    -0.222 A  
HETATM   20  C   UNL     1     -11.755  13.070  68.264  1.00  0.00    -0.353 A  
ENDBRANCH   3  12
ENDBRANCH   2   3
TORSDOF 2
ENDMDL
MODEL       69
REMARK 921   NORMALIZED FREE ENERGY PREDICTED BY IDOCK:   -4.32 KCAL/MOL
REMARK 922        TOTAL FREE ENERGY PREDICTED BY IDOCK:   -5.16 KCAL/MOL
REMARK 923 INTER-LIGAND FREE ENERGY PREDICTED BY IDOCK:   -5.00 KCAL/MOL
REMARK 924 INTRA-LIGAND FREE ENERGY PREDICTED BY IDOCK:   -0.16 KCAL/MOL
REMARK 927      BINDING AFFINITY PREDICTED BY RF-SCORE:    0.00 PKD
ROOT
HETATM    1  C   UNL     1     -12.905  13.770  65.322  1.00  0.00    -0.430 C  
HETATM    2  C   UNL     1     -12.281  14.131  66.666  1.00  0.00    -0.450 C  
ENDROOT
BRANCH   2   3
HETATM    3  C   UNL     1     -10.747  13.840  66.794  1.00  0.00    -0.276 C  
HETATM    4  C   UNL     1     -10.408  13.174  68.157  1.00  0.00    -0.247 C  
HETATM    5  O   UNL     1      -9.918  13.032  64.613  1.00  0.00    -0.240 OA 
HETATM    6  C   UNL     1     -11.127  11.853  68.378  1.00  0.00    -0.292 C  
HETATM    7  C   UNL     1     -10.409  12.782  65.710  1.00  0.00    -0.281 C  
HETATM    8  H   UNL     1     -10.919  10.866  65.197  1.00  0.00     0.000 HD 
HETATM    9  C   UNL     1     -10.866  10.912  67.238  1.00  0.00    -0.287 C  
HETATM   10  N   UNL     1     -10.744  11.476  65.995  1.00  0.00    -0.276 N  
HETATM   11  O   UNL     1     -10.783   9.695  67.394  1.00  0.00    -0.275 OA 
BRANCH   3  12
HETATM   12  C   UNL     1      -9.956  15.156  66.583  1.00  0.00    -0.261 A  
HETATM   13  C   UNL     1      -9.947  17.565  66.138  1.00  0.00    -0.280 A  
HETATM   14  N   UNL     1      -7.922  18.879  66.387  1.00  0.00    -0.278 NA 
HETATM   15  C   UNL     1      -7.907  16.483  66.742  1.00  0.00    -0.296 A  
HETATM   16  C   UNL     1      -8.571  15.253  66.805  1.00  0.00    -0.300 A  
HETATM   17  H2  UNL     1      -7.198  18.780  65.676  1.00  0.00     0.000 HD 
HETATM   18  H1  UNL     1      -8.434  19.742  66.206  1.00  0.00     0.000 HD 
HETATM   19  C   UNL     1     -10.618  16.338  66.203  1.00  0.00    -0.272 A  
HETATM   20  C   UNL     1      -8.604  17.661  66.493  1.00  0.00    -0.259 A  
ENDBRANCH   3  12
ENDBRANCH   2   3
TORSDOF 2
ENDMDL
MODEL       70
REMARK 921   NORMALIZED FREE ENERGY PREDICTED BY IDOCK:   -4.31 KCAL/MOL
REMARK 922        TOTAL FREE ENERGY PREDICTED BY IDOCK:   -5.15 KCAL/MOL
REMARK 923 INTER-LIGAND FREE ENERGY PREDICTED BY IDOCK:   -5.36 KCAL/MOL
REMARK 924 INTRA-LIGAND FREE ENERGY PREDICTED BY IDOCK:    0.21 KCAL/MOL
REMARK 927      BINDING AFFINITY PREDICTED BY RF-SCORE:    0.00 PKD
ROOT
HETATM    1  C   UNL     1     -11.812  12.464  68.033  1.00  0.00    -0.376 C  
HETATM    2  C   UNL     1     -11.810  12.221  66.527  1.00  0.00    -0.378 C  
ENDROOT
BRANCH   2   3
HETATM    3  C   UNL     1     -10.494  12.632  65.783  1.00  0.00    -0.299 C  
HETATM    4  C   UNL     1      -9.240  12.018  66.468  1.00  0.00    -0.216 C  
HETATM    5  O   UNL     1     -10.915  12.566  63.351  1.00  0.00    -0.452 OA 
HETATM    6  C   UNL     1      -9.263  10.500  66.519  1.00  0.00    -0.183 C  
HETATM    7  C   UNL     1     -10.566  11.984  64.375  1.00  0.00    -0.318 C  
HETATM    8  H   UNL     1     -10.688  10.125  63.524  1.00  0.00     0.000 HD 
HETATM    9  C   UNL     1      -9.461   9.929  65.144  1.00  0.00    -0.275 C  
HETATM   10  N   UNL     1     -10.266  10.642  64.296  1.00  0.00    -0.353 N  
HETATM   11  O   UNL     1      -8.948   8.868  64.791  1.00  0.00    -0.157 OA 
BRANCH   3  12
HETATM   12  C   UNL     1     -10.409  14.177  65.705  1.00  0.00    -0.348 A  
HETATM   13  C   UNL     1     -11.156  16.284  64.702  1.00  0.00    -0.259 A  
HETATM   14  N   UNL     1     -10.552  18.421  65.679  1.00  0.00    -0.596 NA 
HETATM   15  C   UNL     1      -9.738  16.344  66.621  1.00  0.00    -0.272 A  
HETATM   16  C   UNL     1      -9.684  14.946  66.633  1.00  0.00    -0.276 A  
HETATM   17  H2  UNL     1      -9.593  18.746  65.562  1.00  0.00     0.000 HD 
HETATM   18  H1  UNL     1     -11.143  18.918  65.012  1.00  0.00     0.000 HD 
HETATM   19  C   UNL     1     -11.109  14.885  64.711  1.00  0.00    -0.395 A  
HETATM   20  C   UNL     1     -10.543  17.022  65.711  1.00  0.00    -0.211 A  
ENDBRANCH   3  12
ENDBRANCH   2   3
TORSDOF 2
ENDMDL
MODEL       71
REMARK 921   NORMALIZED FREE ENERGY PREDICTED BY IDOCK:   -4.28 KCAL/MOL
REMARK 922        TOTAL FREE ENERGY PREDICTED BY IDOCK:   -5.11 KCAL/MOL
REMARK 923 INTER-LIGAND FREE ENERGY PREDICTED BY IDOCK:   -4.99 KCAL/MOL
REMARK 924 INTRA-LIGAND FREE ENERGY PREDICTED BY IDOCK:   -0.12 KCAL/MOL
REMARK 927      BINDING AFFINITY PREDICTED BY RF-SCORE:    0.00 PKD
ROOT
HETATM    1  C   UNL     1     -12.733   9.704  71.368  1.00  0.00    -0.466 C  
HETATM    2  C   UNL     1     -11.210   9.768  71.364  1.00  0.00    -0.368 C  
ENDROOT
BRANCH   2   3
HETATM    3  C   UNL     1     -10.484   8.459  70.900  1.00  0.00    -0.235 C  
HETATM    4  C   UNL     1      -9.119   8.281  71.622  1.00  0.00    -0.242 C  
HETATM    5  O   UNL     1     -12.169   6.670  70.662  1.00  0.00    -0.377 OA 
HETATM    6  C   UNL     1      -9.242   8.204  73.135  1.00  0.00    -0.336 C  
HETATM    7  C   UNL     1     -11.370   7.276  71.371  1.00  0.00    -0.255 C  
HETATM    8  H   UNL     1     -12.098   6.477  73.111  1.00  0.00     0.000 HD 
HETATM    9  C   UNL     1     -10.207   7.125  73.531  1.00  0.00    -0.351 C  
HETATM   10  N   UNL     1     -11.280   6.928  72.701  1.00  0.00    -0.268 N  
HETATM   11  O   UNL     1     -10.066   6.457  74.554  1.00  0.00    -0.332 OA 
BRANCH   3  12
HETATM   12  C   UNL     1     -10.322   8.482  69.359  1.00  0.00    -0.218 A  
HETATM   13  C   UNL     1     -10.430   9.712  67.243  1.00  0.00    -0.323 A  
HETATM   14  N   UNL     1      -9.528   8.769  65.197  1.00  0.00    -0.395 NA 
HETATM   15  C   UNL     1      -9.500   7.513  67.268  1.00  0.00    -0.186 A  
HETATM   16  C   UNL     1      -9.761   7.411  68.638  1.00  0.00    -0.152 A  
HETATM   17  H2  UNL     1     -10.050   8.017  64.747  1.00  0.00     0.000 HD 
HETATM   18  H1  UNL     1      -9.712   9.635  64.690  1.00  0.00     0.000 HD 
HETATM   19  C   UNL     1     -10.691   9.617  68.615  1.00  0.00    -0.233 A  
HETATM   20  C   UNL     1      -9.751   8.694  66.577  1.00  0.00    -0.255 A  
ENDBRANCH   3  12
ENDBRANCH   2   3
TORSDOF 2
ENDMDL
MODEL       72
REMARK 921   NORMALIZED FREE ENERGY PREDICTED BY IDOCK:   -4.27 KCAL/MOL
REMARK 922        TOTAL FREE ENERGY PREDICTED BY IDOCK:   -5.10 KCAL/MOL
REMARK 923 INTER-LIGAND FREE ENERGY PREDICTED BY IDOCK:   -4.87 KCAL/MOL
REMARK 924 INTRA-LIGAND FREE ENERGY PREDICTED BY IDOCK:   -0.23 KCAL/MOL
REMARK 927      BINDING AFFINITY PREDICTED BY RF-SCORE:    0.00 PKD
ROOT
HETATM    1  C   UNL     1     -11.250  14.086  64.978  1.00  0.00    -0.352 C  
HETATM    2  C   UNL     1     -10.185  13.905  66.055  1.00  0.00    -0.317 C  
ENDROOT
BRANCH   2   3
HETATM    3  C   UNL     1     -10.362  12.646  66.970  1.00  0.00    -0.241 C  
HETATM    4  C   UNL     1     -11.028  11.473  66.197  1.00  0.00    -0.320 C  
HETATM    5  O   UNL     1      -8.348  12.411  68.379  1.00  0.00    -0.167 OA 
HETATM    6  C   UNL     1     -10.235  11.025  64.980  1.00  0.00    -0.360 C  
HETATM    7  C   UNL     1      -8.933  12.160  67.329  1.00  0.00    -0.184 C  
HETATM    8  H   UNL     1      -7.245  11.474  66.394  1.00  0.00     0.000 HD 
HETATM    9  C   UNL     1      -8.824  10.687  65.365  1.00  0.00    -0.189 C  
HETATM   10  N   UNL     1      -8.264  11.441  66.363  1.00  0.00    -0.154 N  
HETATM   11  O   UNL     1      -8.185   9.795  64.809  1.00  0.00    -0.132 OA 
BRANCH   3  12
HETATM   12  C   UNL     1     -11.173  13.038  68.231  1.00  0.00    -0.309 A  
HETATM   13  C   UNL     1     -12.276  12.384  70.318  1.00  0.00    -0.345 A  
HETATM   14  N   UNL     1     -13.044  14.051  71.907  1.00  0.00    -0.362 NA 
HETATM   15  C   UNL     1     -12.034  14.703  69.803  1.00  0.00    -0.378 A  
HETATM   16  C   UNL     1     -11.420  14.376  68.590  1.00  0.00    -0.316 A  
HETATM   17  H2  UNL     1     -13.880  14.585  71.672  1.00  0.00     0.000 HD 
HETATM   18  H1  UNL     1     -13.303  13.327  72.576  1.00  0.00     0.000 HD 
HETATM   19  C   UNL     1     -11.660  12.051  69.107  1.00  0.00    -0.370 A  
HETATM   20  C   UNL     1     -12.389  13.714  70.716  1.00  0.00    -0.371 A  
ENDBRANCH   3  12
ENDBRANCH   2   3
TORSDOF 2
ENDMDL
MODEL       73
REMARK 921   NORMALIZED FREE ENERGY PREDICTED BY IDOCK:   -4.24 KCAL/MOL
REMARK 922        TOTAL FREE ENERGY PREDICTED BY IDOCK:   -5.08 KCAL/MOL
REMARK 923 INTER-LIGAND FREE ENERGY PREDICTED BY IDOCK:   -4.65 KCAL/MOL
REMARK 924 INTRA-LIGAND FREE ENERGY PREDICTED BY IDOCK:   -0.42 KCAL/MOL
REMARK 927      BINDING AFFINITY PREDICTED BY RF-SCORE:    0.00 PKD
ROOT
HETATM    1  C   UNL     1     -11.858  11.290  70.026  1.00  0.00    -0.448 C  
HETATM    2  C   UNL     1     -11.902  11.412  68.507  1.00  0.00    -0.364 C  
ENDROOT
BRANCH   2   3
HETATM    3  C   UNL     1     -10.632  12.048  67.847  1.00  0.00    -0.227 C  
HETATM    4  C   UNL     1      -9.343  11.267  68.229  1.00  0.00    -0.180 C  
HETATM    5  O   UNL     1     -11.205  12.735  65.545  1.00  0.00    -0.283 OA 
HETATM    6  C   UNL     1      -9.375   9.807  67.807  1.00  0.00    -0.148 C  
HETATM    7  C   UNL     1     -10.797  11.868  66.314  1.00  0.00    -0.282 C  
HETATM    8  H   UNL     1     -10.987  10.363  64.938  1.00  0.00     0.000 HD 
HETATM    9  C   UNL     1      -9.663   9.688  66.338  1.00  0.00    -0.224 C  
HETATM   10  N   UNL     1     -10.513  10.620  65.804  1.00  0.00    -0.205 N  
HETATM   11  O   UNL     1      -9.182   8.796  65.642  1.00  0.00    -0.217 OA 
BRANCH   3  12
HETATM   12  C   UNL     1     -10.540  13.542  68.247  1.00  0.00    -0.259 A  
HETATM   13  C   UNL     1      -9.179  15.538  68.654  1.00  0.00    -0.202 A  
HETATM   14  N   UNL     1     -10.205  17.718  68.942  1.00  0.00    -0.374 NA 
HETATM   15  C   UNL     1     -11.558  15.733  68.630  1.00  0.00    -0.392 A  
HETATM   16  C   UNL     1     -11.675  14.358  68.404  1.00  0.00    -0.367 A  
HETATM   17  H2  UNL     1     -10.684  17.908  69.822  1.00  0.00     0.000 HD 
HETATM   18  H1  UNL     1      -9.291  18.170  68.971  1.00  0.00     0.000 HD 
HETATM   19  C   UNL     1      -9.289  14.162  68.425  1.00  0.00    -0.208 A  
HETATM   20  C   UNL     1     -10.311  16.349  68.670  1.00  0.00    -0.273 A  
ENDBRANCH   3  12
ENDBRANCH   2   3
TORSDOF 2
ENDMDL
MODEL       74
REMARK 921   NORMALIZED FREE ENERGY PREDICTED BY IDOCK:   -4.23 KCAL/MOL
REMARK 922        TOTAL FREE ENERGY PREDICTED BY IDOCK:   -5.06 KCAL/MOL
REMARK 923 INTER-LIGAND FREE ENERGY PREDICTED BY IDOCK:   -4.63 KCAL/MOL
REMARK 924 INTRA-LIGAND FREE ENERGY PREDICTED BY IDOCK:   -0.43 KCAL/MOL
REMARK 927      BINDING AFFINITY PREDICTED BY RF-SCORE:    0.00 PKD
ROOT
HETATM    1  C   UNL     1      -8.731   8.247  71.451  1.00  0.00    -0.197 C  
HETATM    2  C   UNL     1      -9.988   9.108  71.515  1.00  0.00    -0.358 C  
ENDROOT
BRANCH   2   3
HETATM    3  C   UNL     1     -10.960   8.968  70.295  1.00  0.00    -0.274 C  
HETATM    4  C   UNL     1     -11.278   7.477  69.991  1.00  0.00    -0.173 C  
HETATM    5  O   UNL     1     -12.668  10.745  70.444  1.00  0.00    -0.327 OA 
HETATM    6  C   UNL     1     -11.926   6.749  71.156  1.00  0.00    -0.421 C  
HETATM    7  C   UNL     1     -12.306   9.607  70.730  1.00  0.00    -0.201 C  
HETATM    8  H   UNL     1     -13.757   9.355  72.153  1.00  0.00     0.000 HD 
HETATM    9  C   UNL     1     -13.154   7.479  71.618  1.00  0.00    -0.358 C  
HETATM   10  N   UNL     1     -13.117   8.846  71.543  1.00  0.00    -0.337 N  
HETATM   11  O   UNL     1     -14.142   6.894  72.060  1.00  0.00    -0.240 OA 
BRANCH   3  12
HETATM   12  C   UNL     1     -10.348   9.688  69.066  1.00  0.00    -0.218 A  
HETATM   13  C   UNL     1     -10.218   9.975  66.637  1.00  0.00    -0.288 A  
HETATM   14  N   UNL     1      -9.041  11.858  65.658  1.00  0.00    -0.422 NA 
HETATM   15  C   UNL     1      -9.092  11.529  68.057  1.00  0.00    -0.174 A  
HETATM   16  C   UNL     1      -9.517  10.816  69.184  1.00  0.00    -0.151 A  
HETATM   17  H2  UNL     1      -8.021  11.846  65.677  1.00  0.00     0.000 HD 
HETATM   18  H1  UNL     1      -9.347  11.592  64.723  1.00  0.00     0.000 HD 
HETATM   19  C   UNL     1     -10.649   9.260  67.760  1.00  0.00    -0.307 A  
HETATM   20  C   UNL     1      -9.509  11.165  66.780  1.00  0.00    -0.184 A  
ENDBRANCH   3  12
ENDBRANCH   2   3
TORSDOF 2
ENDMDL
MODEL       75
REMARK 921   NORMALIZED FREE ENERGY PREDICTED BY IDOCK:   -4.21 KCAL/MOL
REMARK 922        TOTAL FREE ENERGY PREDICTED BY IDOCK:   -5.03 KCAL/MOL
REMARK 923 INTER-LIGAND FREE ENERGY PREDICTED BY IDOCK:   -5.01 KCAL/MOL
REMARK 924 INTRA-LIGAND FREE ENERGY PREDICTED BY IDOCK:   -0.02 KCAL/MOL
REMARK 927      BINDING AFFINITY PREDICTED BY RF-SCORE:    0.00 PKD
ROOT
HETATM    1  C   UNL     1     -12.160  12.795  68.952  1.00  0.00    -0.175 C  
HETATM    2  C   UNL     1     -10.888  13.616  68.769  1.00  0.00    -0.279 C  
ENDROOT
BRANCH   2   3
HETATM    3  C   UNL     1     -10.570  14.043  67.296  1.00  0.00    -0.273 C  
HETATM    4  C   UNL     1      -9.188  13.500  66.834  1.00  0.00    -0.254 C  
HETATM    5  O   UNL     1     -12.642  13.871  65.965  1.00  0.00    -0.467 OA 
HETATM    6  C   UNL     1      -9.088  11.984  66.885  1.00  0.00    -0.196 C  
HETATM    7  C   UNL     1     -11.622  13.341  66.399  1.00  0.00    -0.347 C  
HETATM    8  H   UNL     1     -12.236  11.447  65.914  1.00  0.00     0.000 HD 
HETATM    9  C   UNL     1     -10.204  11.355  66.103  1.00  0.00    -0.239 C  
HETATM   10  N   UNL     1     -11.409  12.008  66.124  1.00  0.00    -0.345 N  
HETATM   11  O   UNL     1     -10.064  10.300  65.486  1.00  0.00    -0.286 OA 
BRANCH   3  12
HETATM   12  C   UNL     1     -10.649  15.587  67.181  1.00  0.00    -0.300 A  
HETATM   13  C   UNL     1     -10.921  17.772  68.255  1.00  0.00    -0.006 A  
HETATM   14  N   UNL     1     -10.486  19.828  67.041  1.00  0.00    -0.459 NA 
HETATM   15  C   UNL     1     -10.303  17.673  65.951  1.00  0.00    -0.261 A  
HETATM   16  C   UNL     1     -10.358  16.275  65.990  1.00  0.00    -0.363 A  
HETATM   17  H2  UNL     1     -11.168  20.124  66.344  1.00  0.00     0.000 HD 
HETATM   18  H1  UNL     1     -10.629  20.382  67.885  1.00  0.00     0.000 HD 
HETATM   19  C   UNL     1     -10.975  16.374  68.301  1.00  0.00    -0.355 A  
HETATM   20  C   UNL     1     -10.499  18.429  67.102  1.00  0.00    -0.404 A  
ENDBRANCH   3  12
ENDBRANCH   2   3
TORSDOF 2
ENDMDL
MODEL       76
REMARK 921   NORMALIZED FREE ENERGY PREDICTED BY IDOCK:   -4.20 KCAL/MOL
REMARK 922        TOTAL FREE ENERGY PREDICTED BY IDOCK:   -5.02 KCAL/MOL
REMARK 923 INTER-LIGAND FREE ENERGY PREDICTED BY IDOCK:   -4.69 KCAL/MOL
REMARK 924 INTRA-LIGAND FREE ENERGY PREDICTED BY IDOCK:   -0.33 KCAL/MOL
REMARK 927      BINDING AFFINITY PREDICTED BY RF-SCORE:    0.00 PKD
ROOT
HETATM    1  C   UNL     1      -8.288   8.380  72.752  1.00  0.00    -0.203 C  
HETATM    2  C   UNL     1      -9.779   8.063  72.787  1.00  0.00    -0.348 C  
ENDROOT
BRANCH   2   3
HETATM    3  C   UNL     1     -10.376   7.489  71.457  1.00  0.00    -0.216 C  
HETATM    4  C   UNL     1      -9.433   6.427  70.826  1.00  0.00    -0.179 C  
HETATM    5  O   UNL     1     -12.807   7.180  71.757  1.00  0.00    -0.345 OA 
HETATM    6  C   UNL     1      -9.164   5.241  71.737  1.00  0.00    -0.160 C  
HETATM    7  C   UNL     1     -11.669   6.727  71.849  1.00  0.00    -0.310 C  
HETATM    8  H   UNL     1     -12.247   5.142  73.011  1.00  0.00     0.000 HD 
HETATM    9  C   UNL     1     -10.454   4.617  72.187  1.00  0.00    -0.148 C  
HETATM   10  N   UNL     1     -11.506   5.471  72.391  1.00  0.00    -0.244 N  
HETATM   11  O   UNL     1     -10.569   3.409  72.383  1.00  0.00    -0.079 OA 
BRANCH   3  12
HETATM   12  C   UNL     1     -10.666   8.656  70.479  1.00  0.00    -0.252 A  
HETATM   13  C   UNL     1     -10.770   9.511  68.186  1.00  0.00    -0.247 A  
HETATM   14  N   UNL     1     -11.810  11.646  67.690  1.00  0.00    -0.615 NA 
HETATM   15  C   UNL     1     -11.629  10.846  69.969  1.00  0.00    -0.424 A  
HETATM   16  C   UNL     1     -11.251   9.866  70.893  1.00  0.00    -0.433 A  
HETATM   17  H2  UNL     1     -11.305  12.494  67.947  1.00  0.00     0.000 HD 
HETATM   18  H1  UNL     1     -11.695  11.495  66.688  1.00  0.00     0.000 HD 
HETATM   19  C   UNL     1     -10.393   8.525  69.105  1.00  0.00    -0.227 A  
HETATM   20  C   UNL     1     -11.471  10.640  68.602  1.00  0.00    -0.263 A  
ENDBRANCH   3  12
ENDBRANCH   2   3
TORSDOF 2
ENDMDL
MODEL       77
REMARK 921   NORMALIZED FREE ENERGY PREDICTED BY IDOCK:   -4.17 KCAL/MOL
REMARK 922        TOTAL FREE ENERGY PREDICTED BY IDOCK:   -4.99 KCAL/MOL
REMARK 923 INTER-LIGAND FREE ENERGY PREDICTED BY IDOCK:   -4.92 KCAL/MOL
REMARK 924 INTRA-LIGAND FREE ENERGY PREDICTED BY IDOCK:   -0.08 KCAL/MOL
REMARK 927      BINDING AFFINITY PREDICTED BY RF-SCORE:    0.00 PKD
ROOT
HETATM    1  C   UNL     1      -9.399  12.911  66.767  1.00  0.00    -0.243 C  
HETATM    2  C   UNL     1     -10.339  14.111  66.825  1.00  0.00    -0.274 C  
ENDROOT
BRANCH   2   3
HETATM    3  C   UNL     1      -9.976  15.197  67.894  1.00  0.00    -0.221 C  
HETATM    4  C   UNL     1      -8.459  15.172  68.235  1.00  0.00    -0.152 C  
HETATM    5  O   UNL     1     -11.249  17.251  67.389  1.00  0.00    -0.021 OA 
HETATM    6  C   UNL     1      -7.566  15.423  67.032  1.00  0.00    -0.195 C  
HETATM    7  C   UNL     1     -10.238  16.573  67.228  1.00  0.00    -0.287 C  
HETATM    8  H   UNL     1      -9.593  17.671  65.624  1.00  0.00     0.000 HD 
HETATM    9  C   UNL     1      -7.946  16.707  66.351  1.00  0.00    -0.325 C  
HETATM   10  N   UNL     1      -9.278  17.028  66.351  1.00  0.00    -0.267 N  
HETATM   11  O   UNL     1      -7.118  17.433  65.804  1.00  0.00    -0.316 OA 
BRANCH   3  12
HETATM   12  C   UNL     1     -10.853  14.988  69.155  1.00  0.00    -0.251 A  
HETATM   13  C   UNL     1     -12.521  13.669  70.370  1.00  0.00    -0.364 A  
HETATM   14  N   UNL     1     -12.999  14.100  72.710  1.00  0.00    -0.445 NA 
HETATM   15  C   UNL     1     -11.414  15.465  71.488  1.00  0.00    -0.478 A  
HETATM   16  C   UNL     1     -10.707  15.764  70.319  1.00  0.00    -0.342 A  
HETATM   17  H2  UNL     1     -13.540  14.933  72.941  1.00  0.00     0.000 HD 
HETATM   18  H1  UNL     1     -13.620  13.292  72.756  1.00  0.00     0.000 HD 
HETATM   19  C   UNL     1     -11.814  13.961  69.199  1.00  0.00    -0.401 A  
HETATM   20  C   UNL     1     -12.262  14.362  71.549  1.00  0.00    -0.334 A  
ENDBRANCH   3  12
ENDBRANCH   2   3
TORSDOF 2
ENDMDL
MODEL       78
REMARK 921   NORMALIZED FREE ENERGY PREDICTED BY IDOCK:   -4.10 KCAL/MOL
REMARK 922        TOTAL FREE ENERGY PREDICTED BY IDOCK:   -4.92 KCAL/MOL
REMARK 923 INTER-LIGAND FREE ENERGY PREDICTED BY IDOCK:   -4.58 KCAL/MOL
REMARK 924 INTRA-LIGAND FREE ENERGY PREDICTED BY IDOCK:   -0.34 KCAL/MOL
REMARK 927      BINDING AFFINITY PREDICTED BY RF-SCORE:    0.00 PKD
ROOT
HETATM    1  C   UNL     1     -12.103  15.187  70.002  1.00  0.00    -0.384 C  
HETATM    2  C   UNL     1     -11.949  15.379  68.497  1.00  0.00    -0.205 C  
ENDROOT
BRANCH   2   3
HETATM    3  C   UNL     1     -10.602  14.861  67.888  1.00  0.00    -0.254 C  
HETATM    4  C   UNL     1     -10.436  13.330  68.101  1.00  0.00    -0.251 C  
HETATM    5  O   UNL     1     -10.221  16.010  65.736  1.00  0.00    -0.333 OA 
HETATM    6  C   UNL     1     -11.548  12.509  67.472  1.00  0.00    -0.424 C  
HETATM    7  C   UNL     1     -10.707  15.066  66.353  1.00  0.00    -0.322 C  
HETATM    8  H   UNL     1     -11.868  14.456  64.780  1.00  0.00     0.000 HD 
HETATM    9  C   UNL     1     -11.689  12.838  66.013  1.00  0.00    -0.418 C  
HETATM   10  N   UNL     1     -11.450  14.139  65.655  1.00  0.00    -0.318 N  
HETATM   11  O   UNL     1     -12.017  12.000  65.176  1.00  0.00    -0.309 OA 
BRANCH   3  12
HETATM   12  C   UNL     1      -9.422  15.659  68.498  1.00  0.00    -0.200 A  
HETATM   13  C   UNL     1      -7.183  15.687  69.490  1.00  0.00    -0.198 A  
HETATM   14  N   UNL     1      -5.982  17.771  69.816  1.00  0.00    -0.243 NA 
HETATM   15  C   UNL     1      -8.232  17.754  68.918  1.00  0.00    -0.147 A  
HETATM   16  C   UNL     1      -9.369  17.065  68.486  1.00  0.00    -0.265 A  
HETATM   17  H2  UNL     1      -6.286  18.385  70.571  1.00  0.00     0.000 HD 
HETATM   18  H1  UNL     1      -5.150  17.269  70.126  1.00  0.00     0.000 HD 
HETATM   19  C   UNL     1      -8.317  14.991  69.056  1.00  0.00    -0.194 A  
HETATM   20  C   UNL     1      -7.097  17.069  69.342  1.00  0.00    -0.113 A  
ENDBRANCH   3  12
ENDBRANCH   2   3
TORSDOF 2
ENDMDL
MODEL       79
REMARK 921   NORMALIZED FREE ENERGY PREDICTED BY IDOCK:   -4.08 KCAL/MOL
REMARK 922        TOTAL FREE ENERGY PREDICTED BY IDOCK:   -4.89 KCAL/MOL
REMARK 923 INTER-LIGAND FREE ENERGY PREDICTED BY IDOCK:   -4.56 KCAL/MOL
REMARK 924 INTRA-LIGAND FREE ENERGY PREDICTED BY IDOCK:   -0.34 KCAL/MOL
REMARK 927      BINDING AFFINITY PREDICTED BY RF-SCORE:    0.00 PKD
ROOT
HETATM    1  C   UNL     1     -12.736   9.596  71.134  1.00  0.00    -0.407 C  
HETATM    2  C   UNL     1     -11.278  10.013  70.967  1.00  0.00    -0.387 C  
ENDROOT
BRANCH   2   3
HETATM    3  C   UNL     1     -10.306   8.881  70.492  1.00  0.00    -0.246 C  
HETATM    4  C   UNL     1     -10.649   8.407  69.051  1.00  0.00    -0.172 C  
HETATM    5  O   UNL     1      -8.026   9.430  71.263  1.00  0.00    -0.328 OA 
HETATM    6  C   UNL     1     -10.572   9.517  68.017  1.00  0.00    -0.282 C  
HETATM    7  C   UNL     1      -8.896   9.523  70.402  1.00  0.00    -0.234 C  
HETATM    8  H   UNL     1      -7.934  11.026  69.397  1.00  0.00     0.000 HD 
HETATM    9  C   UNL     1      -9.228  10.186  68.059  1.00  0.00    -0.138 C  
HETATM   10  N   UNL     1      -8.638  10.295  69.291  1.00  0.00    -0.163 N  
HETATM   11  O   UNL     1      -8.683  10.634  67.052  1.00  0.00    -0.127 OA 
BRANCH   3  12
HETATM   12  C   UNL     1     -10.345   7.711  71.508  1.00  0.00    -0.223 A  
HETATM   13  C   UNL     1     -10.544   6.931  73.821  1.00  0.00    -0.333 A  
HETATM   14  N   UNL     1     -10.864   4.580  74.329  1.00  0.00    -0.304 NA 
HETATM   15  C   UNL     1     -10.578   5.336  72.045  1.00  0.00    -0.279 A  
HETATM   16  C   UNL     1     -10.404   6.363  71.111  1.00  0.00    -0.244 A  
HETATM   17  H2  UNL     1     -10.065   3.955  74.223  1.00  0.00     0.000 HD 
HETATM   18  H1  UNL     1     -10.981   4.787  75.320  1.00  0.00     0.000 HD 
HETATM   19  C   UNL     1     -10.373   7.963  72.891  1.00  0.00    -0.413 A  
HETATM   20  C   UNL     1     -10.736   5.618  73.399  1.00  0.00    -0.278 A  
ENDBRANCH   3  12
ENDBRANCH   2   3
TORSDOF 2
ENDMDL
MODEL       80
REMARK 921   NORMALIZED FREE ENERGY PREDICTED BY IDOCK:   -4.08 KCAL/MOL
REMARK 922        TOTAL FREE ENERGY PREDICTED BY IDOCK:   -4.89 KCAL/MOL
REMARK 923 INTER-LIGAND FREE ENERGY PREDICTED BY IDOCK:   -4.72 KCAL/MOL
REMARK 924 INTRA-LIGAND FREE ENERGY PREDICTED BY IDOCK:   -0.17 KCAL/MOL
REMARK 927      BINDING AFFINITY PREDICTED BY RF-SCORE:    0.00 PKD
ROOT
HETATM    1  C   UNL     1     -12.017  12.256  69.516  1.00  0.00    -0.333 C  
HETATM    2  C   UNL     1     -11.164  13.163  68.635  1.00  0.00    -0.314 C  
ENDROOT
BRANCH   2   3
HETATM    3  C   UNL     1     -10.649  12.515  67.305  1.00  0.00    -0.246 C  
HETATM    4  C   UNL     1     -11.768  12.467  66.227  1.00  0.00    -0.457 C  
HETATM    5  O   UNL     1      -8.351  13.315  66.882  1.00  0.00    -0.129 OA 
HETATM    6  C   UNL     1     -12.317  13.837  65.866  1.00  0.00    -0.516 C  
HETATM    7  C   UNL     1      -9.562  13.470  66.745  1.00  0.00    -0.267 C  
HETATM    8  H   UNL     1      -9.378  15.403  66.092  1.00  0.00     0.000 HD 
HETATM    9  C   UNL     1     -11.207  14.758  65.450  1.00  0.00    -0.347 C  
HETATM   10  N   UNL     1     -10.007  14.600  66.094  1.00  0.00    -0.289 N  
HETATM   11  O   UNL     1     -11.356  15.626  64.592  1.00  0.00    -0.431 OA 
BRANCH   3  12
HETATM   12  C   UNL     1     -10.080  11.105  67.608  1.00  0.00    -0.203 A  
HETATM   13  C   UNL     1      -8.761   9.627  69.049  1.00  0.00    -0.142 A  
HETATM   14  N   UNL     1      -8.803   7.219  68.748  1.00  0.00    -0.128 NA 
HETATM   15  C   UNL     1     -10.037   8.684  67.265  1.00  0.00    -0.310 A  
HETATM   16  C   UNL     1     -10.459   9.962  66.883  1.00  0.00    -0.284 A  
HETATM   17  H2  UNL     1      -8.303   6.829  67.949  1.00  0.00     0.000 HD 
HETATM   18  H1  UNL     1      -8.230   7.083  69.581  1.00  0.00     0.000 HD 
HETATM   19  C   UNL     1      -9.182  10.908  68.673  1.00  0.00    -0.187 A  
HETATM   20  C   UNL     1      -9.256   8.498  68.402  1.00  0.00    -0.135 A  
ENDBRANCH   3  12
ENDBRANCH   2   3
TORSDOF 2
ENDMDL
MODEL       81
REMARK 921   NORMALIZED FREE ENERGY PREDICTED BY IDOCK:   -4.07 KCAL/MOL
REMARK 922        TOTAL FREE ENERGY PREDICTED BY IDOCK:   -4.88 KCAL/MOL
REMARK 923 INTER-LIGAND FREE ENERGY PREDICTED BY IDOCK:   -4.50 KCAL/MOL
REMARK 924 INTRA-LIGAND FREE ENERGY PREDICTED BY IDOCK:   -0.38 KCAL/MOL
REMARK 927      BINDING AFFINITY PREDICTED BY RF-SCORE:    0.00 PKD
ROOT
HETATM    1  C   UNL     1      -9.951   9.586  68.100  1.00  0.00    -0.191 C  
HETATM    2  C   UNL     1     -10.409   9.767  66.657  1.00  0.00    -0.276 C  
ENDROOT
BRANCH   2   3
HETATM    3  C   UNL     1      -9.781  10.987  65.901  1.00  0.00    -0.267 C  
HETATM    4  C   UNL     1      -8.228  10.952  65.959  1.00  0.00    -0.155 C  
HETATM    5  O   UNL     1     -11.082  11.386  63.841  1.00  0.00    -0.384 OA 
HETATM    6  C   UNL     1      -7.630   9.698  65.344  1.00  0.00    -0.111 C  
HETATM    7  C   UNL     1     -10.153  10.814  64.404  1.00  0.00    -0.353 C  
HETATM    8  H   UNL     1      -9.865   9.482  62.876  1.00  0.00     0.000 HD 
HETATM    9  C   UNL     1      -8.121   9.512  63.938  1.00  0.00    -0.152 C  
HETATM   10  N   UNL     1      -9.409   9.906  63.683  1.00  0.00    -0.252 N  
HETATM   11  O   UNL     1      -7.423   9.018  63.055  1.00  0.00    -0.099 OA 
BRANCH   3  12
HETATM   12  C   UNL     1     -10.350  12.303  66.490  1.00  0.00    -0.250 A  
HETATM   13  C   UNL     1     -12.244  13.562  67.400  1.00  0.00    -0.278 A  
HETATM   14  N   UNL     1     -11.918  15.713  68.475  1.00  0.00    -0.509 NA 
HETATM   15  C   UNL     1     -10.056  14.512  67.497  1.00  0.00    -0.228 A  
HETATM   16  C   UNL     1      -9.534  13.393  66.840  1.00  0.00    -0.253 A  
HETATM   17  H2  UNL     1     -11.713  16.517  67.882  1.00  0.00     0.000 HD 
HETATM   18  H1  UNL     1     -12.902  15.754  68.742  1.00  0.00     0.000 HD 
HETATM   19  C   UNL     1     -11.727  12.438  66.746  1.00  0.00    -0.430 A  
HETATM   20  C   UNL     1     -11.398  14.569  67.860  1.00  0.00    -0.310 A  
ENDBRANCH   3  12
ENDBRANCH   2   3
TORSDOF 2
ENDMDL
MODEL       82
REMARK 921   NORMALIZED FREE ENERGY PREDICTED BY IDOCK:   -4.07 KCAL/MOL
REMARK 922        TOTAL FREE ENERGY PREDICTED BY IDOCK:   -4.88 KCAL/MOL
REMARK 923 INTER-LIGAND FREE ENERGY PREDICTED BY IDOCK:   -4.72 KCAL/MOL
REMARK 924 INTRA-LIGAND FREE ENERGY PREDICTED BY IDOCK:   -0.16 KCAL/MOL
REMARK 927      BINDING AFFINITY PREDICTED BY RF-SCORE:    0.00 PKD
ROOT
HETATM    1  C   UNL     1      -6.305  18.227  69.124  1.00  0.00    -0.252 C  
HETATM    2  C   UNL     1      -7.704  18.659  68.696  1.00  0.00    -0.344 C  
ENDROOT
BRANCH   2   3
HETATM    3  C   UNL     1      -8.232  18.008  67.373  1.00  0.00    -0.226 C  
HETATM    4  C   UNL     1      -8.810  19.079  66.405  1.00  0.00    -0.326 C  
HETATM    5  O   UNL     1      -6.661  16.230  66.692  1.00  0.00    -0.263 OA 
HETATM    6  C   UNL     1      -7.797  20.137  66.002  1.00  0.00    -0.251 C  
HETATM    7  C   UNL     1      -6.995  17.411  66.653  1.00  0.00    -0.233 C  
HETATM    8  H   UNL     1      -5.213  18.030  65.855  1.00  0.00     0.000 HD 
HETATM    9  C   UNL     1      -6.567  19.497  65.426  1.00  0.00    -0.280 C  
HETATM   10  N   UNL     1      -6.191  18.296  65.969  1.00  0.00    -0.201 N  
HETATM   11  O   UNL     1      -5.911  20.020  64.526  1.00  0.00    -0.228 OA 
BRANCH   3  12
HETATM   12  C   UNL     1      -9.280  16.920  67.720  1.00  0.00    -0.230 A  
HETATM   13  C   UNL     1     -10.451  15.577  69.402  1.00  0.00    -0.253 A  
HETATM   14  N   UNL     1     -12.395  14.248  68.814  1.00  0.00    -0.573 NA 
HETATM   15  C   UNL     1     -11.186  15.504  67.132  1.00  0.00    -0.204 A  
HETATM   16  C   UNL     1     -10.160  16.381  66.764  1.00  0.00    -0.287 A  
HETATM   17  H2  UNL     1     -12.244  13.390  68.284  1.00  0.00     0.000 HD 
HETATM   18  H1  UNL     1     -12.547  13.999  69.791  1.00  0.00     0.000 HD 
HETATM   19  C   UNL     1      -9.424  16.458  69.041  1.00  0.00    -0.258 A  
HETATM   20  C   UNL     1     -11.394  15.162  68.465  1.00  0.00    -0.309 A  
ENDBRANCH   3  12
ENDBRANCH   2   3
TORSDOF 2
ENDMDL
MODEL       83
REMARK 921   NORMALIZED FREE ENERGY PREDICTED BY IDOCK:   -4.05 KCAL/MOL
REMARK 922        TOTAL FREE ENERGY PREDICTED BY IDOCK:   -4.86 KCAL/MOL
REMARK 923 INTER-LIGAND FREE ENERGY PREDICTED BY IDOCK:   -4.47 KCAL/MOL
REMARK 924 INTRA-LIGAND FREE ENERGY PREDICTED BY IDOCK:   -0.39 KCAL/MOL
REMARK 927      BINDING AFFINITY PREDICTED BY RF-SCORE:    0.00 PKD
ROOT
HETATM    1  C   UNL     1      -6.689  14.864  68.212  1.00  0.00    -0.113 C  
HETATM    2  C   UNL     1      -7.760  15.265  67.203  1.00  0.00    -0.238 C  
ENDROOT
BRANCH   2   3
HETATM    3  C   UNL     1      -9.230  15.254  67.744  1.00  0.00    -0.187 C  
HETATM    4  C   UNL     1      -9.351  16.051  69.073  1.00  0.00    -0.239 C  
HETATM    5  O   UNL     1     -10.771  15.508  65.831  1.00  0.00    -0.321 OA 
HETATM    6  C   UNL     1      -8.941  17.508  68.943  1.00  0.00    -0.144 C  
HETATM    7  C   UNL     1     -10.085  16.029  66.706  1.00  0.00    -0.268 C  
HETATM    8  H   UNL     1     -10.206  17.899  65.879  1.00  0.00     0.000 HD 
HETATM    9  C   UNL     1      -9.710  18.177  67.841  1.00  0.00    -0.299 C  
HETATM   10  N   UNL     1     -10.014  17.404  66.751  1.00  0.00    -0.294 N  
HETATM   11  O   UNL     1     -10.042  19.360  67.892  1.00  0.00    -0.348 OA 
BRANCH   3  12
HETATM   12  C   UNL     1      -9.706  13.788  67.906  1.00  0.00    -0.229 A  
HETATM   13  C   UNL     1     -11.324  12.181  68.802  1.00  0.00    -0.339 A  
HETATM   14  N   UNL     1     -11.320   9.864  68.081  1.00  0.00    -0.531 NA 
HETATM   15  C   UNL     1      -9.663  11.429  67.261  1.00  0.00    -0.201 A  
HETATM   16  C   UNL     1      -9.125  12.719  67.201  1.00  0.00    -0.219 A  
HETATM   17  H2  UNL     1     -10.577   9.257  68.428  1.00  0.00     0.000 HD 
HETATM   18  H1  UNL     1     -12.166   9.672  68.617  1.00  0.00     0.000 HD 
HETATM   19  C   UNL     1     -10.792  13.475  68.744  1.00  0.00    -0.279 A  
HETATM   20  C   UNL     1     -10.818  11.167  67.992  1.00  0.00    -0.225 A  
ENDBRANCH   3  12
ENDBRANCH   2   3
TORSDOF 2
ENDMDL
MODEL       84
REMARK 921   NORMALIZED FREE ENERGY PREDICTED BY IDOCK:   -4.04 KCAL/MOL
REMARK 922        TOTAL FREE ENERGY PREDICTED BY IDOCK:   -4.85 KCAL/MOL
REMARK 923 INTER-LIGAND FREE ENERGY PREDICTED BY IDOCK:   -4.80 KCAL/MOL
REMARK 924 INTRA-LIGAND FREE ENERGY PREDICTED BY IDOCK:   -0.05 KCAL/MOL
REMARK 927      BINDING AFFINITY PREDICTED BY RF-SCORE:    0.00 PKD
ROOT
HETATM    1  C   UNL     1      -8.267  12.934  68.257  1.00  0.00    -0.153 C  
HETATM    2  C   UNL     1      -9.617  12.620  67.622  1.00  0.00    -0.188 C  
ENDROOT
BRANCH   2   3
HETATM    3  C   UNL     1     -10.371  11.386  68.223  1.00  0.00    -0.209 C  
HETATM    4  C   UNL     1     -11.142  10.601  67.124  1.00  0.00    -0.267 C  
HETATM    5  O   UNL     1      -8.919  10.330  69.918  1.00  0.00    -0.133 OA 
HETATM    6  C   UNL     1     -10.243  10.073  66.018  1.00  0.00    -0.277 C  
HETATM    7  C   UNL     1      -9.278  10.417  68.747  1.00  0.00    -0.172 C  
HETATM    8  H   UNL     1      -7.690   9.336  68.037  1.00  0.00     0.000 HD 
HETATM    9  C   UNL     1      -9.130   9.245  66.592  1.00  0.00    -0.143 C  
HETATM   10  N   UNL     1      -8.635   9.643  67.806  1.00  0.00    -0.125 N  
HETATM   11  O   UNL     1      -8.665   8.269  66.007  1.00  0.00    -0.138 OA 
BRANCH   3  12
HETATM   12  C   UNL     1     -11.313  11.863  69.358  1.00  0.00    -0.327 A  
HETATM   13  C   UNL     1     -12.678  11.346  71.325  1.00  0.00    -0.498 A  
HETATM   14  N   UNL     1     -13.573  13.111  72.729  1.00  0.00    -0.685 NA 
HETATM   15  C   UNL     1     -12.300  13.628  70.734  1.00  0.00    -0.446 A  
HETATM   16  C   UNL     1     -11.557  13.223  69.620  1.00  0.00    -0.329 A  
HETATM   17  H2  UNL     1     -14.358  13.654  72.370  1.00  0.00     0.000 HD 
HETATM   18  H1  UNL     1     -13.934  12.429  73.396  1.00  0.00     0.000 HD 
HETATM   19  C   UNL     1     -11.932  10.934  70.214  1.00  0.00    -0.448 A  
HETATM   20  C   UNL     1     -12.793  12.696  71.643  1.00  0.00    -0.264 A  
ENDBRANCH   3  12
ENDBRANCH   2   3
TORSDOF 2
ENDMDL
MODEL       85
REMARK 921   NORMALIZED FREE ENERGY PREDICTED BY IDOCK:   -4.02 KCAL/MOL
REMARK 922        TOTAL FREE ENERGY PREDICTED BY IDOCK:   -4.83 KCAL/MOL
REMARK 923 INTER-LIGAND FREE ENERGY PREDICTED BY IDOCK:   -4.68 KCAL/MOL
REMARK 924 INTRA-LIGAND FREE ENERGY PREDICTED BY IDOCK:   -0.14 KCAL/MOL
REMARK 927      BINDING AFFINITY PREDICTED BY RF-SCORE:    0.00 PKD
ROOT
HETATM    1  C   UNL     1     -12.137  13.538  66.489  1.00  0.00    -0.460 C  
HETATM    2  C   UNL     1     -11.846  14.684  67.452  1.00  0.00    -0.374 C  
ENDROOT
BRANCH   2   3
HETATM    3  C   UNL     1     -10.679  14.430  68.466  1.00  0.00    -0.258 C  
HETATM    4  C   UNL     1     -11.021  14.987  69.876  1.00  0.00    -0.282 C  
HETATM    5  O   UNL     1      -9.759  12.176  68.053  1.00  0.00    -0.191 OA 
HETATM    6  C   UNL     1     -12.272  14.372  70.480  1.00  0.00    -0.411 C  
HETATM    7  C   UNL     1     -10.571  12.891  68.633  1.00  0.00    -0.234 C  
HETATM    8  H   UNL     1     -11.714  11.313  69.267  1.00  0.00     0.000 HD 
HETATM    9  C   UNL     1     -12.166  12.874  70.503  1.00  0.00    -0.314 C  
HETATM   10  N   UNL     1     -11.500  12.293  69.457  1.00  0.00    -0.269 N  
HETATM   11  O   UNL     1     -12.661  12.192  71.398  1.00  0.00    -0.358 OA 
BRANCH   3  12
HETATM   12  C   UNL     1      -9.370  15.043  67.906  1.00  0.00    -0.183 A  
HETATM   13  C   UNL     1      -8.231  16.402  66.216  1.00  0.00    -0.343 A  
HETATM   14  N   UNL     1      -5.924  17.095  66.511  1.00  0.00    -0.219 NA 
HETATM   15  C   UNL     1      -7.019  15.677  68.141  1.00  0.00    -0.127 A  
HETATM   16  C   UNL     1      -8.150  14.997  68.604  1.00  0.00    -0.153 A  
HETATM   17  H2  UNL     1      -5.195  16.393  66.388  1.00  0.00     0.000 HD 
HETATM   18  H1  UNL     1      -5.964  17.667  65.667  1.00  0.00     0.000 HD 
HETATM   19  C   UNL     1      -9.367  15.726  66.676  1.00  0.00    -0.284 A  
HETATM   20  C   UNL     1      -7.074  16.456  66.989  1.00  0.00    -0.224 A  
ENDBRANCH   3  12
ENDBRANCH   2   3
TORSDOF 2
ENDMDL
MODEL       86
REMARK 921   NORMALIZED FREE ENERGY PREDICTED BY IDOCK:   -4.00 KCAL/MOL
REMARK 922        TOTAL FREE ENERGY PREDICTED BY IDOCK:   -4.81 KCAL/MOL
REMARK 923 INTER-LIGAND FREE ENERGY PREDICTED BY IDOCK:   -4.77 KCAL/MOL
REMARK 924 INTRA-LIGAND FREE ENERGY PREDICTED BY IDOCK:   -0.04 KCAL/MOL
REMARK 927      BINDING AFFINITY PREDICTED BY RF-SCORE:    0.00 PKD
ROOT
HETATM    1  C   UNL     1      -7.479  13.828  68.035  1.00  0.00    -0.139 C  
HETATM    2  C   UNL     1      -8.662  14.091  67.110  1.00  0.00    -0.234 C  
ENDROOT
BRANCH   2   3
HETATM    3  C   UNL     1      -9.970  13.299  67.450  1.00  0.00    -0.233 C  
HETATM    4  C   UNL     1     -10.924  13.227  66.225  1.00  0.00    -0.296 C  
HETATM    5  O   UNL     1      -9.369  11.358  68.854  1.00  0.00    -0.142 OA 
HETATM    6  C   UNL     1     -10.302  12.552  65.015  1.00  0.00    -0.323 C  
HETATM    7  C   UNL     1      -9.536  11.837  67.735  1.00  0.00    -0.181 C  
HETATM    8  H   UNL     1      -8.617  10.275  66.780  1.00  0.00     0.000 HD 
HETATM    9  C   UNL     1      -9.786  11.189  65.377  1.00  0.00    -0.242 C  
HETATM   10  N   UNL     1      -9.269  11.047  66.638  1.00  0.00    -0.164 N  
HETATM   11  O   UNL     1      -9.804  10.246  64.589  1.00  0.00    -0.313 OA 
BRANCH   3  12
HETATM   12  C   UNL     1     -10.657  13.947  68.679  1.00  0.00    -0.265 A  
HETATM   13  C   UNL     1     -10.973  15.888  70.141  1.00  0.00    -0.369 A  
HETATM   14  N   UNL     1     -12.768  15.949  71.773  1.00  0.00    -0.465 NA 
HETATM   15  C   UNL     1     -12.404  13.993  70.391  1.00  0.00    -0.429 A  
HETATM   16  C   UNL     1     -11.710  13.327  69.375  1.00  0.00    -0.383 A  
HETATM   17  H2  UNL     1     -12.671  15.377  72.611  1.00  0.00     0.000 HD 
HETATM   18  H1  UNL     1     -12.544  16.914  72.016  1.00  0.00     0.000 HD 
HETATM   19  C   UNL     1     -10.277  15.228  69.121  1.00  0.00    -0.242 A  
HETATM   20  C   UNL     1     -12.098  15.309  70.724  1.00  0.00    -0.351 A  
ENDBRANCH   3  12
ENDBRANCH   2   3
TORSDOF 2
ENDMDL
MODEL       87
REMARK 921   NORMALIZED FREE ENERGY PREDICTED BY IDOCK:   -3.99 KCAL/MOL
REMARK 922        TOTAL FREE ENERGY PREDICTED BY IDOCK:   -4.79 KCAL/MOL
REMARK 923 INTER-LIGAND FREE ENERGY PREDICTED BY IDOCK:   -4.53 KCAL/MOL
REMARK 924 INTRA-LIGAND FREE ENERGY PREDICTED BY IDOCK:   -0.26 KCAL/MOL
REMARK 927      BINDING AFFINITY PREDICTED BY RF-SCORE:    0.00 PKD
ROOT
HETATM    1  C   UNL     1      -7.861   9.044  69.072  1.00  0.00    -0.090 C  
HETATM    2  C   UNL     1      -8.809   7.862  69.246  1.00  0.00    -0.142 C  
ENDROOT
BRANCH   2   3
HETATM    3  C   UNL     1     -10.273   8.097  68.741  1.00  0.00    -0.221 C  
HETATM    4  C   UNL     1     -10.309   8.371  67.212  1.00  0.00    -0.369 C  
HETATM    5  O   UNL     1     -11.766   6.506  69.899  1.00  0.00    -0.406 OA 
HETATM    6  C   UNL     1      -9.734   7.236  66.382  1.00  0.00    -0.148 C  
HETATM    7  C   UNL     1     -11.029   6.758  68.949  1.00  0.00    -0.218 C  
HETATM    8  H   UNL     1     -10.931   4.807  68.332  1.00  0.00     0.000 HD 
HETATM    9  C   UNL     1     -10.417   5.940  66.714  1.00  0.00    -0.281 C  
HETATM   10  N   UNL     1     -10.801   5.768  68.018  1.00  0.00    -0.218 N  
HETATM   11  O   UNL     1     -10.611   5.063  65.874  1.00  0.00    -0.256 OA 
BRANCH   3  12
HETATM   12  C   UNL     1     -10.915   9.254  69.549  1.00  0.00    -0.169 A  
HETATM   13  C   UNL     1     -12.096  11.399  69.587  1.00  0.00    -0.373 A  
HETATM   14  N   UNL     1     -13.045  12.272  71.643  1.00  0.00    -0.380 NA 
HETATM   15  C   UNL     1     -11.800  10.195  71.627  1.00  0.00    -0.236 A  
HETATM   16  C   UNL     1     -11.095   9.198  70.943  1.00  0.00    -0.356 A  
HETATM   17  H2  UNL     1     -12.405  12.652  72.341  1.00  0.00     0.000 HD 
HETATM   18  H1  UNL     1     -13.471  13.052  71.142  1.00  0.00     0.000 HD 
HETATM   19  C   UNL     1     -11.394  10.404  68.897  1.00  0.00    -0.278 A  
HETATM   20  C   UNL     1     -12.381  11.258  70.943  1.00  0.00    -0.388 A  
ENDBRANCH   3  12
ENDBRANCH   2   3
TORSDOF 2
ENDMDL
MODEL       88
REMARK 921   NORMALIZED FREE ENERGY PREDICTED BY IDOCK:   -3.94 KCAL/MOL
REMARK 922        TOTAL FREE ENERGY PREDICTED BY IDOCK:   -4.74 KCAL/MOL
REMARK 923 INTER-LIGAND FREE ENERGY PREDICTED BY IDOCK:   -4.36 KCAL/MOL
REMARK 924 INTRA-LIGAND FREE ENERGY PREDICTED BY IDOCK:   -0.38 KCAL/MOL
REMARK 927      BINDING AFFINITY PREDICTED BY RF-SCORE:    0.00 PKD
ROOT
HETATM    1  C   UNL     1     -11.894  11.389  68.554  1.00  0.00    -0.364 C  
HETATM    2  C   UNL     1     -10.629  12.241  68.559  1.00  0.00    -0.254 C  
ENDROOT
BRANCH   2   3
HETATM    3  C   UNL     1     -10.093  12.655  67.147  1.00  0.00    -0.224 C  
HETATM    4  C   UNL     1     -11.186  13.388  66.318  1.00  0.00    -0.322 C  
HETATM    5  O   UNL     1      -7.771  13.457  67.393  1.00  0.00    -0.161 OA 
HETATM    6  C   UNL     1     -11.699  14.654  66.984  1.00  0.00    -0.379 C  
HETATM    7  C   UNL     1      -8.974  13.702  67.392  1.00  0.00    -0.218 C  
HETATM    8  H   UNL     1      -8.738  15.556  68.230  1.00  0.00     0.000 HD 
HETATM    9  C   UNL     1     -10.562  15.577  67.312  1.00  0.00    -0.299 C  
HETATM   10  N   UNL     1      -9.382  14.986  67.682  1.00  0.00    -0.192 N  
HETATM   11  O   UNL     1     -10.673  16.801  67.273  1.00  0.00    -0.298 OA 
BRANCH   3  12
HETATM   12  C   UNL     1      -9.559  11.399  66.412  1.00  0.00    -0.228 A  
HETATM   13  C   UNL     1      -8.735   9.094  66.500  1.00  0.00    -0.142 A  
HETATM   14  N   UNL     1      -8.468   7.780  64.477  1.00  0.00    -0.373 NA 
HETATM   15  C   UNL     1      -9.197  10.088  64.379  1.00  0.00    -0.316 A  
HETATM   16  C   UNL     1      -9.555  11.284  65.010  1.00  0.00    -0.267 A  
HETATM   17  H2  UNL     1      -7.683   8.001  63.864  1.00  0.00     0.000 HD 
HETATM   18  H1  UNL     1      -8.227   6.951  65.020  1.00  0.00     0.000 HD 
HETATM   19  C   UNL     1      -9.095  10.287  67.137  1.00  0.00    -0.156 A  
HETATM   20  C   UNL     1      -8.868   8.957  65.120  1.00  0.00    -0.166 A  
ENDBRANCH   3  12
ENDBRANCH   2   3
TORSDOF 2
ENDMDL
MODEL       89
REMARK 921   NORMALIZED FREE ENERGY PREDICTED BY IDOCK:   -3.92 KCAL/MOL
REMARK 922        TOTAL FREE ENERGY PREDICTED BY IDOCK:   -4.71 KCAL/MOL
REMARK 923 INTER-LIGAND FREE ENERGY PREDICTED BY IDOCK:   -4.91 KCAL/MOL
REMARK 924 INTRA-LIGAND FREE ENERGY PREDICTED BY IDOCK:    0.20 KCAL/MOL
REMARK 927      BINDING AFFINITY PREDICTED BY RF-SCORE:    0.00 PKD
ROOT
HETATM    1  C   UNL     1      -7.724   9.810  67.990  1.00  0.00    -0.083 C  
HETATM    2  C   UNL     1      -8.572   8.618  67.560  1.00  0.00    -0.135 C  
ENDROOT
BRANCH   2   3
HETATM    3  C   UNL     1     -10.119   8.863  67.549  1.00  0.00    -0.285 C  
HETATM    4  C   UNL     1     -10.894   7.579  67.141  1.00  0.00    -0.298 C  
HETATM    5  O   UNL     1     -10.703  10.277  69.487  1.00  0.00    -0.215 OA 
HETATM    6  C   UNL     1     -10.641   6.402  68.068  1.00  0.00    -0.315 C  
HETATM    7  C   UNL     1     -10.528   9.156  69.017  1.00  0.00    -0.221 C  
HETATM    8  H   UNL     1     -10.499   8.241  70.849  1.00  0.00     0.000 HD 
HETATM    9  C   UNL     1     -10.933   6.779  69.492  1.00  0.00    -0.279 C  
HETATM   10  N   UNL     1     -10.644   8.068  69.855  1.00  0.00    -0.240 N  
HETATM   11  O   UNL     1     -11.391   5.979  70.306  1.00  0.00    -0.353 OA 
BRANCH   3  12
HETATM   12  C   UNL     1     -10.443  10.054  66.610  1.00  0.00    -0.244 A  
HETATM   13  C   UNL     1     -10.384  11.056  64.376  1.00  0.00    -0.424 A  
HETATM   14  N   UNL     1     -11.633  13.075  63.874  1.00  0.00    -0.426 NA 
HETATM   15  C   UNL     1     -11.622  12.137  66.107  1.00  0.00    -0.418 A  
HETATM   16  C   UNL     1     -11.231  11.146  67.014  1.00  0.00    -0.291 A  
HETATM   17  H2  UNL     1     -11.281  13.958  64.242  1.00  0.00     0.000 HD 
HETATM   18  H1  UNL     1     -11.378  13.014  62.888  1.00  0.00     0.000 HD 
HETATM   19  C   UNL     1      -9.992  10.060  65.278  1.00  0.00    -0.368 A  
HETATM   20  C   UNL     1     -11.274  12.054  64.762  1.00  0.00    -0.318 A  
ENDBRANCH   3  12
ENDBRANCH   2   3
TORSDOF 2
ENDMDL
MODEL       90
REMARK 921   NORMALIZED FREE ENERGY PREDICTED BY IDOCK:   -3.90 KCAL/MOL
REMARK 922        TOTAL FREE ENERGY PREDICTED BY IDOCK:   -4.69 KCAL/MOL
REMARK 923 INTER-LIGAND FREE ENERGY PREDICTED BY IDOCK:   -4.54 KCAL/MOL
REMARK 924 INTRA-LIGAND FREE ENERGY PREDICTED BY IDOCK:   -0.15 KCAL/MOL
REMARK 927      BINDING AFFINITY PREDICTED BY RF-SCORE:    0.00 PKD
ROOT
HETATM    1  C   UNL     1      -9.485   7.278  67.829  1.00  0.00    -0.143 C  
HETATM    2  C   UNL     1     -10.621   8.287  67.952  1.00  0.00    -0.212 C  
ENDROOT
BRANCH   2   3
HETATM    3  C   UNL     1     -10.225   9.674  68.562  1.00  0.00    -0.216 C  
HETATM    4  C   UNL     1     -11.241  10.129  69.646  1.00  0.00    -0.310 C  
HETATM    5  O   UNL     1      -7.773   9.732  68.849  1.00  0.00    -0.078 OA 
HETATM    6  C   UNL     1     -11.360   9.155  70.807  1.00  0.00    -0.337 C  
HETATM    7  C   UNL     1      -8.880   9.459  69.305  1.00  0.00    -0.150 C  
HETATM    8  H   UNL     1      -8.121   8.353  70.853  1.00  0.00     0.000 HD 
HETATM    9  C   UNL     1     -10.011   8.886  71.410  1.00  0.00    -0.308 C  
HETATM   10  N   UNL     1      -8.948   8.864  70.546  1.00  0.00    -0.174 N  
HETATM   11  O   UNL     1      -9.857   8.676  72.612  1.00  0.00    -0.250 OA 
BRANCH   3  12
HETATM   12  C   UNL     1     -10.094  10.717  67.422  1.00  0.00    -0.231 A  
HETATM   13  C   UNL     1     -10.243  11.269  65.040  1.00  0.00    -0.339 A  
HETATM   14  N   UNL     1     -10.157  13.572  64.279  1.00  0.00    -0.771 NA 
HETATM   15  C   UNL     1      -9.920  13.023  66.626  1.00  0.00    -0.250 A  
HETATM   16  C   UNL     1      -9.895  12.088  67.666  1.00  0.00    -0.191 A  
HETATM   17  H2  UNL     1      -9.255  14.047  64.298  1.00  0.00     0.000 HD 
HETATM   18  H1  UNL     1     -10.348  13.285  63.319  1.00  0.00     0.000 HD 
HETATM   19  C   UNL     1     -10.222  10.328  66.076  1.00  0.00    -0.298 A  
HETATM   20  C   UNL     1     -10.180  12.632  65.316  1.00  0.00    -0.284 A  
ENDBRANCH   3  12
ENDBRANCH   2   3
TORSDOF 2
ENDMDL
MODEL       91
REMARK 921   NORMALIZED FREE ENERGY PREDICTED BY IDOCK:   -3.90 KCAL/MOL
REMARK 922        TOTAL FREE ENERGY PREDICTED BY IDOCK:   -4.69 KCAL/MOL
REMARK 923 INTER-LIGAND FREE ENERGY PREDICTED BY IDOCK:   -4.59 KCAL/MOL
REMARK 924 INTRA-LIGAND FREE ENERGY PREDICTED BY IDOCK:   -0.10 KCAL/MOL
REMARK 927      BINDING AFFINITY PREDICTED BY RF-SCORE:    0.00 PKD
ROOT
HETATM    1  C   UNL     1      -8.376  12.646  68.394  1.00  0.00    -0.125 C  
HETATM    2  C   UNL     1      -9.420  13.746  68.233  1.00  0.00    -0.214 C  
ENDROOT
BRANCH   2   3
HETATM    3  C   UNL     1     -10.851  13.258  67.822  1.00  0.00    -0.268 C  
HETATM    4  C   UNL     1     -11.472  12.340  68.911  1.00  0.00    -0.355 C  
HETATM    5  O   UNL     1     -12.042  15.137  66.751  1.00  0.00    -0.020 OA 
HETATM    6  C   UNL     1     -11.609  13.017  70.265  1.00  0.00    -0.060 C  
HETATM    7  C   UNL     1     -11.748  14.523  67.773  1.00  0.00    -0.374 C  
HETATM    8  H   UNL     1     -12.409  16.008  69.020  1.00  0.00     0.000 HD 
HETATM    9  C   UNL     1     -12.379  14.299  70.138  1.00  0.00    -0.353 C  
HETATM   10  N   UNL     1     -12.194  15.011  68.982  1.00  0.00    -0.184 N  
HETATM   11  O   UNL     1     -13.125  14.711  71.024  1.00  0.00    -0.343 OA 
BRANCH   3  12
HETATM   12  C   UNL     1     -10.775  12.550  66.445  1.00  0.00    -0.275 A  
HETATM   13  C   UNL     1     -10.270  12.640  64.050  1.00  0.00    -0.363 A  
HETATM   14  N   UNL     1     -10.151  10.616  62.717  1.00  0.00    -0.746 NA 
HETATM   15  C   UNL     1     -10.738  10.530  65.065  1.00  0.00     0.027 A  
HETATM   16  C   UNL     1     -10.948  11.162  66.295  1.00  0.00    -0.227 A  
HETATM   17  H2  UNL     1     -11.026  10.148  62.479  1.00  0.00     0.000 HD 
HETATM   18  H1  UNL     1      -9.839  11.144  61.902  1.00  0.00     0.000 HD 
HETATM   19  C   UNL     1     -10.476  13.277  65.279  1.00  0.00    -0.324 A  
HETATM   20  C   UNL     1     -10.314  11.251  63.953  1.00  0.00    -0.381 A  
ENDBRANCH   3  12
ENDBRANCH   2   3
TORSDOF 2
ENDMDL
MODEL       92
REMARK 921   NORMALIZED FREE ENERGY PREDICTED BY IDOCK:   -3.89 KCAL/MOL
REMARK 922        TOTAL FREE ENERGY PREDICTED BY IDOCK:   -4.68 KCAL/MOL
REMARK 923 INTER-LIGAND FREE ENERGY PREDICTED BY IDOCK:   -4.52 KCAL/MOL
REMARK 924 INTRA-LIGAND FREE ENERGY PREDICTED BY IDOCK:   -0.16 KCAL/MOL
REMARK 927      BINDING AFFINITY PREDICTED BY RF-SCORE:    0.00 PKD
ROOT
HETATM    1  C   UNL     1     -10.351   5.530  66.993  1.00  0.00    -0.306 C  
HETATM    2  C   UNL     1     -10.969   6.924  67.013  1.00  0.00    -0.404 C  
ENDROOT
BRANCH   2   3
HETATM    3  C   UNL     1     -10.145   8.013  67.781  1.00  0.00    -0.250 C  
HETATM    4  C   UNL     1      -8.618   7.840  67.545  1.00  0.00    -0.122 C  
HETATM    5  O   UNL     1     -11.339  10.167  67.606  1.00  0.00    -0.282 OA 
HETATM    6  C   UNL     1      -8.219   7.935  66.082  1.00  0.00    -0.117 C  
HETATM    7  C   UNL     1     -10.520   9.377  67.144  1.00  0.00    -0.244 C  
HETATM    8  H   UNL     1     -10.428  10.321  65.329  1.00  0.00     0.000 HD 
HETATM    9  C   UNL     1      -8.716   9.219  65.483  1.00  0.00    -0.175 C  
HETATM   10  N   UNL     1      -9.921   9.683  65.942  1.00  0.00    -0.294 N  
HETATM   11  O   UNL     1      -8.093   9.824  64.612  1.00  0.00    -0.132 OA 
BRANCH   3  12
HETATM   12  C   UNL     1     -10.505   7.960  69.288  1.00  0.00    -0.221 A  
HETATM   13  C   UNL     1     -11.714   6.895  71.133  1.00  0.00    -0.381 A  
HETATM   14  N   UNL     1     -11.244   7.477  73.442  1.00  0.00    -0.610 NA 
HETATM   15  C   UNL     1     -10.111   8.596  71.617  1.00  0.00    -0.365 A  
HETATM   16  C   UNL     1      -9.865   8.763  70.250  1.00  0.00    -0.198 A  
HETATM   17  H2  UNL     1     -11.582   8.376  73.785  1.00  0.00     0.000 HD 
HETATM   18  H1  UNL     1     -11.875   6.749  73.777  1.00  0.00     0.000 HD 
HETATM   19  C   UNL     1     -11.470   7.054  69.764  1.00  0.00    -0.177 A  
HETATM   20  C   UNL     1     -10.972   7.603  72.075  1.00  0.00    -0.246 A  
ENDBRANCH   3  12
ENDBRANCH   2   3
TORSDOF 2
ENDMDL
MODEL       93
REMARK 921   NORMALIZED FREE ENERGY PREDICTED BY IDOCK:   -3.89 KCAL/MOL
REMARK 922        TOTAL FREE ENERGY PREDICTED BY IDOCK:   -4.68 KCAL/MOL
REMARK 923 INTER-LIGAND FREE ENERGY PREDICTED BY IDOCK:   -4.50 KCAL/MOL
REMARK 924 INTRA-LIGAND FREE ENERGY PREDICTED BY IDOCK:   -0.17 KCAL/MOL
REMARK 927      BINDING AFFINITY PREDICTED BY RF-SCORE:    0.00 PKD
ROOT
HETATM    1  C   UNL     1     -10.214   5.469  69.277  1.00  0.00    -0.315 C  
HETATM    2  C   UNL     1     -11.255   6.581  69.349  1.00  0.00    -0.418 C  
ENDROOT
BRANCH   2   3
HETATM    3  C   UNL     1     -10.728   7.961  69.872  1.00  0.00    -0.244 C  
HETATM    4  C   UNL     1     -11.729   8.610  70.868  1.00  0.00    -0.287 C  
HETATM    5  O   UNL     1      -8.299   7.771  70.275  1.00  0.00    -0.123 OA 
HETATM    6  C   UNL     1     -12.005   7.751  72.091  1.00  0.00    -0.362 C  
HETATM    7  C   UNL     1      -9.448   7.658  70.695  1.00  0.00    -0.163 C  
HETATM    8  H   UNL     1      -8.883   6.603  72.357  1.00  0.00     0.000 HD 
HETATM    9  C   UNL     1     -10.722   7.384  72.778  1.00  0.00    -0.314 C  
HETATM   10  N   UNL     1      -9.634   7.176  71.972  1.00  0.00    -0.144 N  
HETATM   11  O   UNL     1     -10.641   7.255  73.999  1.00  0.00    -0.313 OA 
BRANCH   3  12
HETATM   12  C   UNL     1     -10.433   8.888  68.665  1.00  0.00    -0.223 A  
HETATM   13  C   UNL     1      -9.789  11.088  67.802  1.00  0.00    -0.190 A  
HETATM   14  N   UNL     1      -9.222  11.401  65.463  1.00  0.00    -0.300 NA 
HETATM   15  C   UNL     1      -9.945   9.244  66.295  1.00  0.00    -0.357 A  
HETATM   16  C   UNL     1     -10.347   8.412  67.344  1.00  0.00    -0.355 A  
HETATM   17  H2  UNL     1      -9.981  11.395  64.783  1.00  0.00     0.000 HD 
HETATM   18  H1  UNL     1      -8.953  12.369  65.635  1.00  0.00     0.000 HD 
HETATM   19  C   UNL     1     -10.188  10.260  68.857  1.00  0.00    -0.220 A  
HETATM   20  C   UNL     1      -9.579  10.566  66.528  1.00  0.00    -0.174 A  
ENDBRANCH   3  12
ENDBRANCH   2   3
TORSDOF 2
ENDMDL
MODEL       94
REMARK 921   NORMALIZED FREE ENERGY PREDICTED BY IDOCK:   -3.85 KCAL/MOL
REMARK 922        TOTAL FREE ENERGY PREDICTED BY IDOCK:   -4.64 KCAL/MOL
REMARK 923 INTER-LIGAND FREE ENERGY PREDICTED BY IDOCK:   -4.32 KCAL/MOL
REMARK 924 INTRA-LIGAND FREE ENERGY PREDICTED BY IDOCK:   -0.31 KCAL/MOL
REMARK 927      BINDING AFFINITY PREDICTED BY RF-SCORE:    0.00 PKD
ROOT
HETATM    1  C   UNL     1      -7.904   8.163  70.604  1.00  0.00    -0.091 C  
HETATM    2  C   UNL     1      -8.901   9.225  70.153  1.00  0.00    -0.235 C  
ENDROOT
BRANCH   2   3
HETATM    3  C   UNL     1     -10.286   8.682  69.662  1.00  0.00    -0.208 C  
HETATM    4  C   UNL     1     -11.108   8.080  70.836  1.00  0.00    -0.271 C  
HETATM    5  O   UNL     1     -11.200  10.257  67.995  1.00  0.00    -0.293 OA 
HETATM    6  C   UNL     1     -11.395   9.078  71.945  1.00  0.00    -0.438 C  
HETATM    7  C   UNL     1     -11.091   9.913  69.169  1.00  0.00    -0.159 C  
HETATM    8  H   UNL     1     -11.834  11.677  69.898  1.00  0.00     0.000 HD 
HETATM    9  C   UNL     1     -12.062  10.304  71.392  1.00  0.00    -0.362 C  
HETATM   10  N   UNL     1     -11.674  10.698  70.138  1.00  0.00    -0.303 N  
HETATM   11  O   UNL     1     -12.901  10.941  72.027  1.00  0.00    -0.393 OA 
BRANCH   3  12
HETATM   12  C   UNL     1     -10.058   7.648  68.529  1.00  0.00    -0.205 A  
HETATM   13  C   UNL     1     -10.643   5.521  67.463  1.00  0.00    -0.252 A  
HETATM   14  N   UNL     1      -9.798   4.947  65.262  1.00  0.00    -0.359 NA 
HETATM   15  C   UNL     1      -9.145   7.011  66.351  1.00  0.00    -0.189 A  
HETATM   16  C   UNL     1      -9.224   7.903  67.425  1.00  0.00    -0.160 A  
HETATM   17  H2  UNL     1      -8.817   4.678  65.183  1.00  0.00     0.000 HD 
HETATM   18  H1  UNL     1     -10.365   4.101  65.240  1.00  0.00     0.000 HD 
HETATM   19  C   UNL     1     -10.729   6.412  68.540  1.00  0.00    -0.347 A  
HETATM   20  C   UNL     1      -9.920   5.855  66.321  1.00  0.00    -0.058 A  
ENDBRANCH   3  12
ENDBRANCH   2   3
TORSDOF 2
ENDMDL
MODEL       95
REMARK 921   NORMALIZED FREE ENERGY PREDICTED BY IDOCK:   -3.83 KCAL/MOL
REMARK 922        TOTAL FREE ENERGY PREDICTED BY IDOCK:   -4.61 KCAL/MOL
REMARK 923 INTER-LIGAND FREE ENERGY PREDICTED BY IDOCK:   -4.92 KCAL/MOL
REMARK 924 INTRA-LIGAND FREE ENERGY PREDICTED BY IDOCK:    0.31 KCAL/MOL
REMARK 927      BINDING AFFINITY PREDICTED BY RF-SCORE:    0.00 PKD
ROOT
HETATM    1  C   UNL     1     -10.686  12.185  63.613  1.00  0.00    -0.518 C  
HETATM    2  C   UNL     1     -11.482  11.985  64.899  1.00  0.00    -0.352 C  
ENDROOT
BRANCH   2   3
HETATM    3  C   UNL     1     -10.635  11.966  66.216  1.00  0.00    -0.289 C  
HETATM    4  C   UNL     1      -9.612  13.137  66.250  1.00  0.00    -0.241 C  
HETATM    5  O   UNL     1     -12.122  11.372  68.096  1.00  0.00    -0.623 OA 
HETATM    6  C   UNL     1     -10.262  14.508  66.163  1.00  0.00    -0.317 C  
HETATM    7  C   UNL     1     -11.626  12.237  67.379  1.00  0.00    -0.355 C  
HETATM    8  H   UNL     1     -12.919  13.695  68.011  1.00  0.00     0.000 HD 
HETATM    9  C   UNL     1     -11.301  14.669  67.234  1.00  0.00    -0.353 C  
HETATM   10  N   UNL     1     -12.010  13.546  67.571  1.00  0.00    -0.362 N  
HETATM   11  O   UNL     1     -11.527  15.749  67.777  1.00  0.00    -0.290 OA 
BRANCH   3  12
HETATM   12  C   UNL     1      -9.939  10.589  66.359  1.00  0.00    -0.271 A  
HETATM   13  C   UNL     1      -8.983   8.845  67.790  1.00  0.00    -0.140 A  
HETATM   14  N   UNL     1      -8.397   6.668  66.893  1.00  0.00    -0.113 NA 
HETATM   15  C   UNL     1      -9.258   8.419  65.457  1.00  0.00    -0.057 A  
HETATM   16  C   UNL     1      -9.764   9.711  65.274  1.00  0.00    -0.330 A  
HETATM   17  H2  UNL     1      -7.562   6.600  66.311  1.00  0.00     0.000 HD 
HETATM   18  H1  UNL     1      -8.168   6.321  67.824  1.00  0.00     0.000 HD 
HETATM   19  C   UNL     1      -9.491  10.138  67.614  1.00  0.00    -0.166 A  
HETATM   20  C   UNL     1      -8.945   7.946  66.728  1.00  0.00    -0.145 A  
ENDBRANCH   3  12
ENDBRANCH   2   3
TORSDOF 2
ENDMDL
MODEL       96
REMARK 921   NORMALIZED FREE ENERGY PREDICTED BY IDOCK:   -3.83 KCAL/MOL
REMARK 922        TOTAL FREE ENERGY PREDICTED BY IDOCK:   -4.61 KCAL/MOL
REMARK 923 INTER-LIGAND FREE ENERGY PREDICTED BY IDOCK:   -4.20 KCAL/MOL
REMARK 924 INTRA-LIGAND FREE ENERGY PREDICTED BY IDOCK:   -0.41 KCAL/MOL
REMARK 927      BINDING AFFINITY PREDICTED BY RF-SCORE:    0.00 PKD
ROOT
HETATM    1  C   UNL     1      -8.346  10.099  69.333  1.00  0.00    -0.174 C  
HETATM    2  C   UNL     1      -9.511   9.534  70.138  1.00  0.00    -0.287 C  
ENDROOT
BRANCH   2   3
HETATM    3  C   UNL     1      -9.449   7.994  70.419  1.00  0.00    -0.166 C  
HETATM    4  C   UNL     1      -8.053   7.572  70.956  1.00  0.00    -0.100 C  
HETATM    5  O   UNL     1     -11.591   7.294  71.427  1.00  0.00    -0.257 OA 
HETATM    6  C   UNL     1      -7.667   8.271  72.248  1.00  0.00    -0.168 C  
HETATM    7  C   UNL     1     -10.448   7.718  71.574  1.00  0.00    -0.205 C  
HETATM    8  H   UNL     1     -10.749   8.251  73.528  1.00  0.00     0.000 HD 
HETATM    9  C   UNL     1      -8.728   8.076  73.292  1.00  0.00    -0.245 C  
HETATM   10  N   UNL     1     -10.023   8.030  72.846  1.00  0.00    -0.285 N  
HETATM   11  O   UNL     1      -8.465   7.979  74.490  1.00  0.00    -0.209 OA 
BRANCH   3  12
HETATM   12  C   UNL     1      -9.828   7.222  69.129  1.00  0.00    -0.166 A  
HETATM   13  C   UNL     1      -9.868   5.128  67.858  1.00  0.00    -0.199 A  
HETATM   14  N   UNL     1     -11.170   4.923  65.821  1.00  0.00    -0.893 NA 
HETATM   15  C   UNL     1     -11.061   7.021  67.026  1.00  0.00    -0.247 A  
HETATM   16  C   UNL     1     -10.620   7.785  68.112  1.00  0.00    -0.182 A  
HETATM   17  H2  UNL     1     -10.820   5.386  64.982  1.00  0.00     0.000 HD 
HETATM   18  H1  UNL     1     -10.951   3.929  65.754  1.00  0.00     0.000 HD 
HETATM   19  C   UNL     1      -9.426   5.886  68.949  1.00  0.00    -0.146 A  
HETATM   20  C   UNL     1     -10.761   5.665  66.935  1.00  0.00    -0.272 A  
ENDBRANCH   3  12
ENDBRANCH   2   3
TORSDOF 2
ENDMDL
MODEL       97
REMARK 921   NORMALIZED FREE ENERGY PREDICTED BY IDOCK:   -3.81 KCAL/MOL
REMARK 922        TOTAL FREE ENERGY PREDICTED BY IDOCK:   -4.59 KCAL/MOL
REMARK 923 INTER-LIGAND FREE ENERGY PREDICTED BY IDOCK:   -4.18 KCAL/MOL
REMARK 924 INTRA-LIGAND FREE ENERGY PREDICTED BY IDOCK:   -0.41 KCAL/MOL
REMARK 927      BINDING AFFINITY PREDICTED BY RF-SCORE:    0.00 PKD
ROOT
HETATM    1  C   UNL     1      -7.437   8.798  69.673  1.00  0.00    -0.071 C  
HETATM    2  C   UNL     1      -8.308   8.390  68.490  1.00  0.00    -0.131 C  
ENDROOT
BRANCH   2   3
HETATM    3  C   UNL     1      -9.830   8.736  68.626  1.00  0.00    -0.180 C  
HETATM    4  C   UNL     1     -10.044  10.249  68.913  1.00  0.00    -0.216 C  
HETATM    5  O   UNL     1     -11.081   7.458  66.924  1.00  0.00    -0.236 OA 
HETATM    6  C   UNL     1      -9.481  11.154  67.829  1.00  0.00    -0.173 C  
HETATM    7  C   UNL     1     -10.466   8.475  67.235  1.00  0.00    -0.296 C  
HETATM    8  H   UNL     1     -10.299   9.132  65.303  1.00  0.00     0.000 HD 
HETATM    9  C   UNL     1     -10.035  10.775  66.485  1.00  0.00    -0.213 C  
HETATM   10  N   UNL     1     -10.268   9.442  66.274  1.00  0.00    -0.254 N  
HETATM   11  O   UNL     1     -10.255  11.605  65.605  1.00  0.00    -0.224 OA 
BRANCH   3  12
HETATM   12  C   UNL     1     -10.462   7.847  69.728  1.00  0.00    -0.233 A  
HETATM   13  C   UNL     1     -10.541   5.715  70.931  1.00  0.00    -0.328 A  
HETATM   14  N   UNL     1     -11.841   5.471  72.965  1.00  0.00    -0.542 NA 
HETATM   15  C   UNL     1     -11.837   7.554  71.729  1.00  0.00    -0.327 A  
HETATM   16  C   UNL     1     -11.389   8.341  70.663  1.00  0.00    -0.257 A  
HETATM   17  H2  UNL     1     -12.856   5.421  72.880  1.00  0.00     0.000 HD 
HETATM   18  H1  UNL     1     -11.485   4.526  73.106  1.00  0.00     0.000 HD 
HETATM   19  C   UNL     1     -10.086   6.498  69.864  1.00  0.00    -0.202 A  
HETATM   20  C   UNL     1     -11.351   6.264  71.921  1.00  0.00    -0.299 A  
ENDBRANCH   3  12
ENDBRANCH   2   3
TORSDOF 2
ENDMDL
MODEL       98
REMARK 921   NORMALIZED FREE ENERGY PREDICTED BY IDOCK:   -3.81 KCAL/MOL
REMARK 922        TOTAL FREE ENERGY PREDICTED BY IDOCK:   -4.59 KCAL/MOL
REMARK 923 INTER-LIGAND FREE ENERGY PREDICTED BY IDOCK:   -4.89 KCAL/MOL
REMARK 924 INTRA-LIGAND FREE ENERGY PREDICTED BY IDOCK:    0.30 KCAL/MOL
REMARK 927      BINDING AFFINITY PREDICTED BY RF-SCORE:    0.00 PKD
ROOT
HETATM    1  C   UNL     1     -11.774  11.910  68.445  1.00  0.00    -0.387 C  
HETATM    2  C   UNL     1     -11.219  11.794  67.029  1.00  0.00    -0.382 C  
ENDROOT
BRANCH   2   3
HETATM    3  C   UNL     1     -10.508  13.076  66.480  1.00  0.00    -0.284 C  
HETATM    4  C   UNL     1      -9.967  12.852  65.040  1.00  0.00    -0.163 C  
HETATM    5  O   UNL     1     -11.809  15.055  67.178  1.00  0.00    -0.288 OA 
HETATM    6  C   UNL     1     -11.050  12.486  64.039  1.00  0.00    -0.449 C  
HETATM    7  C   UNL     1     -11.604  14.167  66.355  1.00  0.00    -0.369 C  
HETATM    8  H   UNL     1     -13.365  14.493  65.362  1.00  0.00     0.000 HD 
HETATM    9  C   UNL     1     -12.147  13.511  64.050  1.00  0.00    -0.441 C  
HETATM   10  N   UNL     1     -12.436  14.084  65.260  1.00  0.00    -0.464 N  
HETATM   11  O   UNL     1     -12.774  13.817  63.037  1.00  0.00    -0.671 OA 
BRANCH   3  12
HETATM   12  C   UNL     1      -9.382  13.498  67.459  1.00  0.00    -0.220 A  
HETATM   13  C   UNL     1      -8.422  15.158  68.983  1.00  0.00    -0.214 A  
HETATM   14  N   UNL     1      -6.574  14.593  70.450  1.00  0.00    -0.294 NA 
HETATM   15  C   UNL     1      -7.461  12.975  68.881  1.00  0.00     0.014 A  
HETATM   16  C   UNL     1      -8.381  12.609  67.893  1.00  0.00    -0.172 A  
HETATM   17  H2  UNL     1      -5.648  14.491  70.034  1.00  0.00     0.000 HD 
HETATM   18  H1  UNL     1      -6.623  15.506  70.901  1.00  0.00     0.000 HD 
HETATM   19  C   UNL     1      -9.348  14.797  67.997  1.00  0.00    -0.196 A  
HETATM   20  C   UNL     1      -7.528  14.222  69.496  1.00  0.00     0.091 A  
ENDBRANCH   3  12
ENDBRANCH   2   3
TORSDOF 2
ENDMDL
MODEL       99
REMARK 921   NORMALIZED FREE ENERGY PREDICTED BY IDOCK:   -3.77 KCAL/MOL
REMARK 922        TOTAL FREE ENERGY PREDICTED BY IDOCK:   -4.54 KCAL/MOL
REMARK 923 INTER-LIGAND FREE ENERGY PREDICTED BY IDOCK:   -4.80 KCAL/MOL
REMARK 924 INTRA-LIGAND FREE ENERGY PREDICTED BY IDOCK:    0.25 KCAL/MOL
REMARK 927      BINDING AFFINITY PREDICTED BY RF-SCORE:    0.00 PKD
ROOT
HETATM    1  C   UNL     1      -7.689   8.452  70.382  1.00  0.00    -0.078 C  
HETATM    2  C   UNL     1      -8.755   9.534  70.523  1.00  0.00    -0.247 C  
ENDROOT
BRANCH   2   3
HETATM    3  C   UNL     1     -10.236   9.025  70.498  1.00  0.00    -0.268 C  
HETATM    4  C   UNL     1     -11.235  10.170  70.828  1.00  0.00    -0.414 C  
HETATM    5  O   UNL     1     -10.497   7.461  68.605  1.00  0.00    -0.196 OA 
HETATM    6  C   UNL     1     -11.155  11.338  69.859  1.00  0.00    -0.183 C  
HETATM    7  C   UNL     1     -10.534   8.612  69.033  1.00  0.00    -0.199 C  
HETATM    8  H   UNL     1     -10.596   9.450  67.165  1.00  0.00     0.000 HD 
HETATM    9  C   UNL     1     -11.325  10.863  68.445  1.00  0.00    -0.304 C  
HETATM   10  N   UNL     1     -10.805   9.631  68.146  1.00  0.00    -0.222 N  
HETATM   11  O   UNL     1     -11.883  11.542  67.585  1.00  0.00    -0.595 OA 
BRANCH   3  12
HETATM   12  C   UNL     1     -10.385   7.832  71.477  1.00  0.00    -0.227 A  
HETATM   13  C   UNL     1     -10.375   6.969  73.769  1.00  0.00    -0.408 A  
HETATM   14  N   UNL     1     -11.160   4.728  74.269  1.00  0.00    -0.310 NA 
HETATM   15  C   UNL     1     -11.087   5.546  71.990  1.00  0.00    -0.249 A  
HETATM   16  C   UNL     1     -10.830   6.563  71.065  1.00  0.00    -0.301 A  
HETATM   17  H2  UNL     1     -10.563   3.943  74.008  1.00  0.00     0.000 HD 
HETATM   18  H1  UNL     1     -11.056   4.890  75.270  1.00  0.00     0.000 HD 
HETATM   19  C   UNL     1     -10.120   7.992  72.849  1.00  0.00    -0.376 A  
HETATM   20  C   UNL     1     -10.944   5.767  73.357  1.00  0.00    -0.222 A  
ENDBRANCH   3  12
ENDBRANCH   2   3
TORSDOF 2
ENDMDL
MODEL      100
REMARK 921   NORMALIZED FREE ENERGY PREDICTED BY IDOCK:   -3.76 KCAL/MOL
REMARK 922        TOTAL FREE ENERGY PREDICTED BY IDOCK:   -4.54 KCAL/MOL
REMARK 923 INTER-LIGAND FREE ENERGY PREDICTED BY IDOCK:   -4.14 KCAL/MOL
REMARK 924 INTRA-LIGAND FREE ENERGY PREDICTED BY IDOCK:   -0.39 KCAL/MOL
REMARK 927      BINDING AFFINITY PREDICTED BY RF-SCORE:    0.00 PKD
ROOT
HETATM    1  C   UNL     1     -10.550  14.049  65.458  1.00  0.00    -0.327 C  
HETATM    2  C   UNL     1      -9.300  14.304  66.293  1.00  0.00    -0.236 C  
ENDROOT
BRANCH   2   3
HETATM    3  C   UNL     1      -9.213  13.503  67.636  1.00  0.00    -0.214 C  
HETATM    4  C   UNL     1      -9.299  11.970  67.388  1.00  0.00    -0.178 C  
HETATM    5  O   UNL     1      -7.529  14.580  69.085  1.00  0.00    -0.130 OA 
HETATM    6  C   UNL     1      -8.194  11.442  66.488  1.00  0.00    -0.152 C  
HETATM    7  C   UNL     1      -7.795  13.760  68.210  1.00  0.00    -0.144 C  
HETATM    8  H   UNL     1      -5.834  13.470  67.695  1.00  0.00     0.000 HD 
HETATM    9  C   UNL     1      -6.846  11.828  67.025  1.00  0.00    -0.137 C  
HETATM   10  N   UNL     1      -6.761  13.046  67.646  1.00  0.00    -0.146 N  
HETATM   11  O   UNL     1      -5.858  11.106  66.905  1.00  0.00    -0.065 OA 
BRANCH   3  12
HETATM   12  C   UNL     1     -10.325  13.994  68.598  1.00  0.00    -0.238 A  
HETATM   13  C   UNL     1     -11.688  15.823  69.489  1.00  0.00    -0.369 A  
HETATM   14  N   UNL     1     -13.614  15.381  70.897  1.00  0.00    -0.771 NA 
HETATM   15  C   UNL     1     -12.216  13.575  70.091  1.00  0.00    -0.400 A  
HETATM   16  C   UNL     1     -11.132  13.112  69.338  1.00  0.00    -0.140 A  
HETATM   17  H2  UNL     1     -13.446  15.085  71.858  1.00  0.00     0.000 HD 
HETATM   18  H1  UNL     1     -13.863  16.370  70.906  1.00  0.00     0.000 HD 
HETATM   19  C   UNL     1     -10.604  15.366  68.732  1.00  0.00    -0.235 A  
HETATM   20  C   UNL     1     -12.556  14.924  70.104  1.00  0.00    -0.264 A  
ENDBRANCH   3  12
ENDBRANCH   2   3
TORSDOF 2
ENDMDL
MODEL      101
REMARK 921   NORMALIZED FREE ENERGY PREDICTED BY IDOCK:   -3.76 KCAL/MOL
REMARK 922        TOTAL FREE ENERGY PREDICTED BY IDOCK:   -4.53 KCAL/MOL
REMARK 923 INTER-LIGAND FREE ENERGY PREDICTED BY IDOCK:   -4.12 KCAL/MOL
REMARK 924 INTRA-LIGAND FREE ENERGY PREDICTED BY IDOCK:   -0.41 KCAL/MOL
REMARK 927      BINDING AFFINITY PREDICTED BY RF-SCORE:    0.00 PKD
ROOT
HETATM    1  C   UNL     1     -10.222   7.604  67.445  1.00  0.00    -0.320 C  
HETATM    2  C   UNL     1      -9.162   7.614  68.542  1.00  0.00    -0.143 C  
ENDROOT
BRANCH   2   3
HETATM    3  C   UNL     1      -9.561   6.883  69.868  1.00  0.00    -0.156 C  
HETATM    4  C   UNL     1     -10.095   5.450  69.588  1.00  0.00    -0.319 C  
HETATM    5  O   UNL     1      -7.882   7.423  71.597  1.00  0.00    -0.085 OA 
HETATM    6  C   UNL     1      -9.088   4.560  68.879  1.00  0.00    -0.171 C  
HETATM    7  C   UNL     1      -8.250   6.696  70.678  1.00  0.00    -0.124 C  
HETATM    8  H   UNL     1      -6.432   5.772  70.497  1.00  0.00     0.000 HD 
HETATM    9  C   UNL     1      -7.795   4.514  69.642  1.00  0.00    -0.058 C  
HETATM   10  N   UNL     1      -7.424   5.666  70.286  1.00  0.00    -0.078 N  
HETATM   11  O   UNL     1      -7.087   3.510  69.680  1.00  0.00    -0.041 OA 
BRANCH   3  12
HETATM   12  C   UNL     1     -10.597   7.744  70.636  1.00  0.00    -0.222 A  
HETATM   13  C   UNL     1     -11.480   9.949  71.234  1.00  0.00    -0.435 A  
HETATM   14  N   UNL     1     -13.613  10.180  72.369  1.00  0.00    -0.578 NA 
HETATM   15  C   UNL     1     -12.701   7.994  71.859  1.00  0.00    -0.354 A  
HETATM   16  C   UNL     1     -11.709   7.186  71.293  1.00  0.00    -0.342 A  
HETATM   17  H2  UNL     1     -13.658   9.932  73.357  1.00  0.00     0.000 HD 
HETATM   18  H1  UNL     1     -13.568  11.196  72.295  1.00  0.00     0.000 HD 
HETATM   19  C   UNL     1     -10.486   9.146  70.663  1.00  0.00    -0.305 A  
HETATM   20  C   UNL     1     -12.639   9.381  71.759  1.00  0.00    -0.387 A  
ENDBRANCH   3  12
ENDBRANCH   2   3
TORSDOF 2
ENDMDL
MODEL      102
REMARK 921   NORMALIZED FREE ENERGY PREDICTED BY IDOCK:   -3.71 KCAL/MOL
REMARK 922        TOTAL FREE ENERGY PREDICTED BY IDOCK:   -4.48 KCAL/MOL
REMARK 923 INTER-LIGAND FREE ENERGY PREDICTED BY IDOCK:   -4.07 KCAL/MOL
REMARK 924 INTRA-LIGAND FREE ENERGY PREDICTED BY IDOCK:   -0.41 KCAL/MOL
REMARK 927      BINDING AFFINITY PREDICTED BY RF-SCORE:    0.00 PKD
ROOT
HETATM    1  C   UNL     1     -13.509   7.003  71.381  1.00  0.00    -0.323 C  
HETATM    2  C   UNL     1     -12.307   7.732  71.971  1.00  0.00    -0.328 C  
ENDROOT
BRANCH   2   3
HETATM    3  C   UNL     1     -10.907   7.224  71.485  1.00  0.00    -0.248 C  
HETATM    4  C   UNL     1     -10.798   7.263  69.934  1.00  0.00    -0.264 C  
HETATM    5  O   UNL     1      -9.180   8.096  73.018  1.00  0.00    -0.247 OA 
HETATM    6  C   UNL     1     -10.989   8.652  69.351  1.00  0.00    -0.034 C  
HETATM    7  C   UNL     1      -9.863   8.245  72.008  1.00  0.00    -0.257 C  
HETATM    8  H   UNL     1      -9.409  10.234  71.829  1.00  0.00     0.000 HD 
HETATM    9  C   UNL     1     -10.037   9.626  69.983  1.00  0.00    -0.252 C  
HETATM   10  N   UNL     1      -9.747   9.425  71.307  1.00  0.00    -0.221 N  
HETATM   11  O   UNL     1      -9.551  10.570  69.363  1.00  0.00    -0.207 OA 
BRANCH   3  12
HETATM   12  C   UNL     1     -10.656   5.800  72.044  1.00  0.00    -0.276 A  
HETATM   13  C   UNL     1     -11.048   4.115  73.778  1.00  0.00    -0.305 A  
HETATM   14  N   UNL     1     -10.360   1.809  73.464  1.00  0.00    -0.095 NA 
HETATM   15  C   UNL     1      -9.891   3.491  71.785  1.00  0.00    -0.230 A  
HETATM   16  C   UNL     1      -9.983   4.805  71.314  1.00  0.00    -0.270 A  
HETATM   17  H2  UNL     1      -9.366   1.594  73.528  1.00  0.00     0.000 HD 
HETATM   18  H1  UNL     1     -10.805   1.534  74.339  1.00  0.00     0.000 HD 
HETATM   19  C   UNL     1     -11.145   5.431  73.310  1.00  0.00    -0.352 A  
HETATM   20  C   UNL     1     -10.498   3.116  72.980  1.00  0.00    -0.163 A  
ENDBRANCH   3  12
ENDBRANCH   2   3
TORSDOF 2
ENDMDL
MODEL      103
REMARK 921   NORMALIZED FREE ENERGY PREDICTED BY IDOCK:   -3.71 KCAL/MOL
REMARK 922        TOTAL FREE ENERGY PREDICTED BY IDOCK:   -4.47 KCAL/MOL
REMARK 923 INTER-LIGAND FREE ENERGY PREDICTED BY IDOCK:   -4.05 KCAL/MOL
REMARK 924 INTRA-LIGAND FREE ENERGY PREDICTED BY IDOCK:   -0.42 KCAL/MOL
REMARK 927      BINDING AFFINITY PREDICTED BY RF-SCORE:    0.00 PKD
ROOT
HETATM    1  C   UNL     1      -6.436  17.836  65.961  1.00  0.00    -0.294 C  
HETATM    2  C   UNL     1      -7.868  17.396  66.247  1.00  0.00    -0.330 C  
ENDROOT
BRANCH   2   3
HETATM    3  C   UNL     1      -8.205  17.148  67.757  1.00  0.00    -0.200 C  
HETATM    4  C   UNL     1      -7.757  18.345  68.641  1.00  0.00    -0.321 C  
HETATM    5  O   UNL     1     -10.424  16.074  67.898  1.00  0.00    -0.274 OA 
HETATM    6  C   UNL     1      -8.412  19.660  68.253  1.00  0.00    -0.355 C  
HETATM    7  C   UNL     1      -9.753  17.102  67.859  1.00  0.00    -0.270 C  
HETATM    8  H   UNL     1     -11.370  18.308  67.503  1.00  0.00     0.000 HD 
HETATM    9  C   UNL     1      -9.908  19.524  68.247  1.00  0.00    -0.416 C  
HETATM   10  N   UNL     1     -10.409  18.313  67.847  1.00  0.00    -0.385 N  
HETATM   11  O   UNL     1     -10.655  20.447  68.564  1.00  0.00    -0.195 OA 
BRANCH   3  12
HETATM   12  C   UNL     1      -7.556  15.818  68.216  1.00  0.00    -0.127 A  
HETATM   13  C   UNL     1      -6.591  14.447  70.002  1.00  0.00    -0.116 A  
HETATM   14  N   UNL     1      -6.139  12.086  69.665  1.00  0.00    -0.116 NA 
HETATM   15  C   UNL     1      -7.009  13.459  67.869  1.00  0.00    -0.141 A  
HETATM   16  C   UNL     1      -7.473  14.686  67.385  1.00  0.00    -0.212 A  
HETATM   17  H2  UNL     1      -5.340  11.831  69.085  1.00  0.00     0.000 HD 
HETATM   18  H1  UNL     1      -5.873  11.975  70.643  1.00  0.00     0.000 HD 
HETATM   19  C   UNL     1      -7.058  15.676  69.524  1.00  0.00    -0.195 A  
HETATM   20  C   UNL     1      -6.645  13.307  69.204  1.00  0.00    -0.105 A  
ENDBRANCH   3  12
ENDBRANCH   2   3
TORSDOF 2
ENDMDL
MODEL      104
REMARK 921   NORMALIZED FREE ENERGY PREDICTED BY IDOCK:   -3.70 KCAL/MOL
REMARK 922        TOTAL FREE ENERGY PREDICTED BY IDOCK:   -4.47 KCAL/MOL
REMARK 923 INTER-LIGAND FREE ENERGY PREDICTED BY IDOCK:   -4.39 KCAL/MOL
REMARK 924 INTRA-LIGAND FREE ENERGY PREDICTED BY IDOCK:   -0.08 KCAL/MOL
REMARK 927      BINDING AFFINITY PREDICTED BY RF-SCORE:    0.00 PKD
ROOT
HETATM    1  C   UNL     1     -10.882  12.066  69.233  1.00  0.00    -0.130 C  
HETATM    2  C   UNL     1     -11.479  10.785  68.660  1.00  0.00    -0.365 C  
ENDROOT
BRANCH   2   3
HETATM    3  C   UNL     1     -10.553   9.523  68.729  1.00  0.00    -0.240 C  
HETATM    4  C   UNL     1     -10.442   8.825  67.344  1.00  0.00    -0.349 C  
HETATM    5  O   UNL     1      -8.622  10.045  70.175  1.00  0.00    -0.168 OA 
HETATM    6  C   UNL     1      -9.879   9.725  66.258  1.00  0.00    -0.315 C  
HETATM    7  C   UNL     1      -9.128  10.042  69.056  1.00  0.00    -0.171 C  
HETATM    8  H   UNL     1      -7.701  11.274  68.256  1.00  0.00     0.000 HD 
HETATM    9  C   UNL     1      -8.558  10.299  66.680  1.00  0.00    -0.127 C  
HETATM   10  N   UNL     1      -8.413  10.586  68.012  1.00  0.00    -0.118 N  
HETATM   11  O   UNL     1      -7.651  10.523  65.880  1.00  0.00    -0.141 OA 
BRANCH   3  12
HETATM   12  C   UNL     1     -11.082   8.558  69.820  1.00  0.00    -0.067 A  
HETATM   13  C   UNL     1     -11.308   6.280  70.693  1.00  0.00    -0.409 A  
HETATM   14  N   UNL     1     -12.135   5.874  72.938  1.00  0.00    -0.491 NA 
HETATM   15  C   UNL     1     -11.998   8.122  72.046  1.00  0.00    -0.390 A  
HETATM   16  C   UNL     1     -11.656   9.011  71.021  1.00  0.00    -0.360 A  
HETATM   17  H2  UNL     1     -13.132   6.002  73.110  1.00  0.00     0.000 HD 
HETATM   18  H1  UNL     1     -11.950   4.875  72.850  1.00  0.00     0.000 HD 
HETATM   19  C   UNL     1     -10.961   7.165  69.665  1.00  0.00    -0.236 A  
HETATM   20  C   UNL     1     -11.747   6.759  71.925  1.00  0.00    -0.310 A  
ENDBRANCH   3  12
ENDBRANCH   2   3
TORSDOF 2
ENDMDL
MODEL      105
REMARK 921   NORMALIZED FREE ENERGY PREDICTED BY IDOCK:   -3.70 KCAL/MOL
REMARK 922        TOTAL FREE ENERGY PREDICTED BY IDOCK:   -4.46 KCAL/MOL
REMARK 923 INTER-LIGAND FREE ENERGY PREDICTED BY IDOCK:   -4.30 KCAL/MOL
REMARK 924 INTRA-LIGAND FREE ENERGY PREDICTED BY IDOCK:   -0.16 KCAL/MOL
REMARK 927      BINDING AFFINITY PREDICTED BY RF-SCORE:    0.00 PKD
ROOT
HETATM    1  C   UNL     1      -9.698  11.287  65.323  1.00  0.00    -0.280 C  
HETATM    2  C   UNL     1     -10.908  11.289  66.251  1.00  0.00    -0.296 C  
ENDROOT
BRANCH   2   3
HETATM    3  C   UNL     1     -10.597  11.022  67.762  1.00  0.00    -0.250 C  
HETATM    4  C   UNL     1      -9.360  11.836  68.238  1.00  0.00    -0.193 C  
HETATM    5  O   UNL     1     -12.733  10.900  68.994  1.00  0.00    -0.239 OA 
HETATM    6  C   UNL     1      -9.530  13.338  68.082  1.00  0.00    -0.222 C  
HETATM    7  C   UNL     1     -11.803  11.578  68.564  1.00  0.00    -0.297 C  
HETATM    8  H   UNL     1     -12.769  13.355  68.886  1.00  0.00     0.000 HD 
HETATM    9  C   UNL     1     -10.780  13.802  68.772  1.00  0.00    -0.249 C  
HETATM   10  N   UNL     1     -11.846  12.942  68.750  1.00  0.00    -0.319 N  
HETATM   11  O   UNL     1     -10.862  14.902  69.316  1.00  0.00    -0.248 OA 
BRANCH   3  12
HETATM   12  C   UNL     1     -10.405   9.500  67.985  1.00  0.00    -0.260 A  
HETATM   13  C   UNL     1     -10.025   7.622  69.512  1.00  0.00    -0.182 A  
HETATM   14  N   UNL     1     -10.267   5.328  68.761  1.00  0.00    -0.179 NA 
HETATM   15  C   UNL     1     -10.556   7.180  67.227  1.00  0.00    -0.398 A  
HETATM   16  C   UNL     1     -10.600   8.553  66.964  1.00  0.00    -0.305 A  
HETATM   17  H2  UNL     1      -9.539   4.942  68.161  1.00  0.00     0.000 HD 
HETATM   18  H1  UNL     1     -10.120   4.979  69.708  1.00  0.00     0.000 HD 
HETATM   19  C   UNL     1     -10.071   8.998  69.256  1.00  0.00    -0.197 A  
HETATM   20  C   UNL     1     -10.355   6.703  68.519  1.00  0.00    -0.192 A  
ENDBRANCH   3  12
ENDBRANCH   2   3
TORSDOF 2
ENDMDL
MODEL      106
REMARK 921   NORMALIZED FREE ENERGY PREDICTED BY IDOCK:   -3.70 KCAL/MOL
REMARK 922        TOTAL FREE ENERGY PREDICTED BY IDOCK:   -4.46 KCAL/MOL
REMARK 923 INTER-LIGAND FREE ENERGY PREDICTED BY IDOCK:   -4.25 KCAL/MOL
REMARK 924 INTRA-LIGAND FREE ENERGY PREDICTED BY IDOCK:   -0.21 KCAL/MOL
REMARK 927      BINDING AFFINITY PREDICTED BY RF-SCORE:    0.00 PKD
ROOT
HETATM    1  C   UNL     1      -7.388  14.627  67.708  1.00  0.00    -0.188 C  
HETATM    2  C   UNL     1      -8.613  13.809  68.101  1.00  0.00    -0.175 C  
ENDROOT
BRANCH   2   3
HETATM    3  C   UNL     1      -8.831  12.491  67.283  1.00  0.00    -0.195 C  
HETATM    4  C   UNL     1      -7.490  11.949  66.712  1.00  0.00    -0.017 C  
HETATM    5  O   UNL     1     -10.496  11.102  68.462  1.00  0.00    -0.175 OA 
HETATM    6  C   UNL     1      -6.461  11.636  67.784  1.00  0.00    -0.067 C  
HETATM    7  C   UNL     1      -9.323  11.422  68.294  1.00  0.00    -0.187 C  
HETATM    8  H   UNL     1      -8.678  10.479  69.994  1.00  0.00     0.000 HD 
HETATM    9  C   UNL     1      -7.032  10.695  68.806  1.00  0.00    -0.068 C  
HETATM   10  N   UNL     1      -8.364  10.840  69.093  1.00  0.00    -0.137 N  
HETATM   11  O   UNL     1      -6.348   9.846  69.375  1.00  0.00    -0.043 OA 
BRANCH   3  12
HETATM   12  C   UNL     1      -9.871  12.750  66.163  1.00  0.00    -0.269 A  
HETATM   13  C   UNL     1     -11.637  14.152  65.206  1.00  0.00    -0.341 A  
HETATM   14  N   UNL     1     -12.467  13.763  62.959  1.00  0.00    -1.000 NA 
HETATM   15  C   UNL     1     -10.785  12.319  63.935  1.00  0.00    -0.463 A  
HETATM   16  C   UNL     1      -9.930  11.978  64.988  1.00  0.00    -0.259 A  
HETATM   17  H2  UNL     1     -13.073  12.957  62.806  1.00  0.00     0.000 HD 
HETATM   18  H1  UNL     1     -13.051  14.598  63.006  1.00  0.00     0.000 HD 
HETATM   19  C   UNL     1     -10.781  13.818  66.262  1.00  0.00    -0.285 A  
HETATM   20  C   UNL     1     -11.582  13.458  64.000  1.00  0.00    -0.385 A  
ENDBRANCH   3  12
ENDBRANCH   2   3
TORSDOF 2
ENDMDL
MODEL      107
REMARK 921   NORMALIZED FREE ENERGY PREDICTED BY IDOCK:   -3.69 KCAL/MOL
REMARK 922        TOTAL FREE ENERGY PREDICTED BY IDOCK:   -4.46 KCAL/MOL
REMARK 923 INTER-LIGAND FREE ENERGY PREDICTED BY IDOCK:   -4.31 KCAL/MOL
REMARK 924 INTRA-LIGAND FREE ENERGY PREDICTED BY IDOCK:   -0.15 KCAL/MOL
REMARK 927      BINDING AFFINITY PREDICTED BY RF-SCORE:    0.00 PKD
ROOT
HETATM    1  C   UNL     1      -9.877   4.564  70.977  1.00  0.00    -0.266 C  
HETATM    2  C   UNL     1      -9.186   5.900  71.229  1.00  0.00    -0.155 C  
ENDROOT
BRANCH   2   3
HETATM    3  C   UNL     1      -9.496   7.024  70.183  1.00  0.00    -0.162 C  
HETATM    4  C   UNL     1      -8.193   7.703  69.676  1.00  0.00    -0.128 C  
HETATM    5  O   UNL     1     -11.315   6.242  68.708  1.00  0.00    -0.356 OA 
HETATM    6  C   UNL     1      -7.229   6.736  69.010  1.00  0.00    -0.091 C  
HETATM    7  C   UNL     1     -10.113   6.316  68.948  1.00  0.00    -0.168 C  
HETATM    8  H   UNL     1      -9.607   4.902  67.555  1.00  0.00     0.000 HD 
HETATM    9  C   UNL     1      -7.913   5.987  67.903  1.00  0.00    -0.106 C  
HETATM   10  N   UNL     1      -9.234   5.682  68.097  1.00  0.00    -0.110 N  
HETATM   11  O   UNL     1      -7.326   5.643  66.879  1.00  0.00    -0.077 OA 
BRANCH   3  12
HETATM   12  C   UNL     1     -10.474   8.051  70.809  1.00  0.00    -0.221 A  
HETATM   13  C   UNL     1     -11.508  10.271  70.777  1.00  0.00    -0.438 A  
HETATM   14  N   UNL     1     -13.406  10.791  72.197  1.00  0.00    -0.579 NA 
HETATM   15  C   UNL     1     -12.330   8.623  72.296  1.00  0.00    -0.449 A  
HETATM   16  C   UNL     1     -11.365   7.717  71.845  1.00  0.00    -0.308 A  
HETATM   17  H2  UNL     1     -13.235  10.923  73.194  1.00  0.00     0.000 HD 
HETATM   18  H1  UNL     1     -13.507  11.710  71.765  1.00  0.00     0.000 HD 
HETATM   19  C   UNL     1     -10.542   9.368  70.320  1.00  0.00    -0.297 A  
HETATM   20  C   UNL     1     -12.467   9.877  71.707  1.00  0.00    -0.397 A  
ENDBRANCH   3  12
ENDBRANCH   2   3
TORSDOF 2
ENDMDL
MODEL      108
REMARK 921   NORMALIZED FREE ENERGY PREDICTED BY IDOCK:   -3.68 KCAL/MOL
REMARK 922        TOTAL FREE ENERGY PREDICTED BY IDOCK:   -4.45 KCAL/MOL
REMARK 923 INTER-LIGAND FREE ENERGY PREDICTED BY IDOCK:   -4.04 KCAL/MOL
REMARK 924 INTRA-LIGAND FREE ENERGY PREDICTED BY IDOCK:   -0.41 KCAL/MOL
REMARK 927      BINDING AFFINITY PREDICTED BY RF-SCORE:    0.00 PKD
ROOT
HETATM    1  C   UNL     1     -10.669   6.583  68.076  1.00  0.00    -0.351 C  
HETATM    2  C   UNL     1     -11.502   6.367  69.335  1.00  0.00    -0.374 C  
ENDROOT
BRANCH   2   3
HETATM    3  C   UNL     1     -10.783   6.713  70.683  1.00  0.00    -0.286 C  
HETATM    4  C   UNL     1     -10.266   8.180  70.690  1.00  0.00    -0.211 C  
HETATM    5  O   UNL     1     -12.050   5.682  72.534  1.00  0.00    -0.221 OA 
HETATM    6  C   UNL     1     -11.368   9.209  70.502  1.00  0.00    -0.300 C  
HETATM    7  C   UNL     1     -11.868   6.642  71.790  1.00  0.00    -0.335 C  
HETATM    8  H   UNL     1     -13.640   7.540  72.289  1.00  0.00     0.000 HD 
HETATM    9  C   UNL     1     -12.453   9.014  71.522  1.00  0.00    -0.331 C  
HETATM   10  N   UNL     1     -12.717   7.722  71.894  1.00  0.00    -0.314 N  
HETATM   11  O   UNL     1     -13.091   9.953  71.994  1.00  0.00    -0.423 OA 
BRANCH   3  12
HETATM   12  C   UNL     1      -9.638   5.698  70.929  1.00  0.00    -0.212 A  
HETATM   13  C   UNL     1      -8.723   3.442  70.656  1.00  0.00    -0.128 A  
HETATM   14  N   UNL     1      -6.408   2.954  71.196  1.00  0.00    -0.018 NA 
HETATM   15  C   UNL     1      -7.333   5.164  71.551  1.00  0.00    -0.086 A  
HETATM   16  C   UNL     1      -8.394   6.072  71.469  1.00  0.00    -0.127 A  
HETATM   17  H2  UNL     1      -6.148   2.903  72.180  1.00  0.00     0.000 HD 
HETATM   18  H1  UNL     1      -6.502   2.003  70.839  1.00  0.00     0.000 HD 
HETATM   19  C   UNL     1      -9.788   4.346  70.568  1.00  0.00    -0.285 A  
HETATM   20  C   UNL     1      -7.462   3.866  71.066  1.00  0.00    -0.040 A  
ENDBRANCH   3  12
ENDBRANCH   2   3
TORSDOF 2
ENDMDL
MODEL      109
REMARK 921   NORMALIZED FREE ENERGY PREDICTED BY IDOCK:   -3.61 KCAL/MOL
REMARK 922        TOTAL FREE ENERGY PREDICTED BY IDOCK:   -4.37 KCAL/MOL
REMARK 923 INTER-LIGAND FREE ENERGY PREDICTED BY IDOCK:   -4.33 KCAL/MOL
REMARK 924 INTRA-LIGAND FREE ENERGY PREDICTED BY IDOCK:   -0.04 KCAL/MOL
REMARK 927      BINDING AFFINITY PREDICTED BY RF-SCORE:    0.00 PKD
ROOT
HETATM    1  C   UNL     1     -11.080   6.059  70.247  1.00  0.00    -0.415 C  
HETATM    2  C   UNL     1     -10.355   7.054  71.148  1.00  0.00    -0.222 C  
ENDROOT
BRANCH   2   3
HETATM    3  C   UNL     1     -10.014   8.433  70.487  1.00  0.00    -0.205 C  
HETATM    4  C   UNL     1      -8.603   8.930  70.910  1.00  0.00    -0.242 C  
HETATM    5  O   UNL     1     -10.836   8.412  68.159  1.00  0.00    -0.085 OA 
HETATM    6  C   UNL     1      -7.486   7.972  70.530  1.00  0.00    -0.071 C  
HETATM    7  C   UNL     1      -9.933   8.179  68.959  1.00  0.00    -0.189 C  
HETATM    8  H   UNL     1      -8.853   7.063  67.624  1.00  0.00     0.000 HD 
HETATM    9  C   UNL     1      -7.532   7.663  69.061  1.00  0.00    -0.095 C  
HETATM   10  N   UNL     1      -8.776   7.598  68.489  1.00  0.00    -0.128 N  
HETATM   11  O   UNL     1      -6.517   7.459  68.399  1.00  0.00    -0.042 OA 
BRANCH   3  12
HETATM   12  C   UNL     1     -11.118   9.460  70.846  1.00  0.00    -0.389 A  
HETATM   13  C   UNL     1     -12.947  10.166  72.315  1.00  0.00    -0.316 A  
HETATM   14  N   UNL     1     -13.899  12.392  72.149  1.00  0.00    -0.260 NA 
HETATM   15  C   UNL     1     -12.153  11.667  70.636  1.00  0.00    -0.432 A  
HETATM   16  C   UNL     1     -11.236  10.704  70.200  1.00  0.00    -0.378 A  
HETATM   17  H2  UNL     1     -14.506  12.594  71.354  1.00  0.00     0.000 HD 
HETATM   18  H1  UNL     1     -14.487  12.226  72.966  1.00  0.00     0.000 HD 
HETATM   19  C   UNL     1     -12.029   9.200  71.885  1.00  0.00    -0.443 A  
HETATM   20  C   UNL     1     -12.955  11.439  71.750  1.00  0.00    -0.414 A  
ENDBRANCH   3  12
ENDBRANCH   2   3
TORSDOF 2
ENDMDL
MODEL      110
REMARK 921   NORMALIZED FREE ENERGY PREDICTED BY IDOCK:   -3.54 KCAL/MOL
REMARK 922        TOTAL FREE ENERGY PREDICTED BY IDOCK:   -4.29 KCAL/MOL
REMARK 923 INTER-LIGAND FREE ENERGY PREDICTED BY IDOCK:   -4.68 KCAL/MOL
REMARK 924 INTRA-LIGAND FREE ENERGY PREDICTED BY IDOCK:    0.40 KCAL/MOL
REMARK 927      BINDING AFFINITY PREDICTED BY RF-SCORE:    0.00 PKD
ROOT
HETATM    1  C   UNL     1     -12.196  15.004  70.006  1.00  0.00    -0.373 C  
HETATM    2  C   UNL     1     -11.766  16.065  68.998  1.00  0.00    -0.322 C  
ENDROOT
BRANCH   2   3
HETATM    3  C   UNL     1     -10.584  15.656  68.056  1.00  0.00    -0.271 C  
HETATM    4  C   UNL     1     -10.593  16.486  66.741  1.00  0.00    -0.224 C  
HETATM    5  O   UNL     1      -8.574  15.273  69.438  1.00  0.00    -0.238 OA 
HETATM    6  C   UNL     1     -10.474  17.983  66.973  1.00  0.00    -0.361 C  
HETATM    7  C   UNL     1      -9.277  16.048  68.795  1.00  0.00    -0.224 C  
HETATM    8  H   UNL     1      -8.353  17.718  69.536  1.00  0.00     0.000 HD 
HETATM    9  C   UNL     1      -9.260  18.295  67.800  1.00  0.00    -0.270 C  
HETATM   10  N   UNL     1      -8.924  17.379  68.762  1.00  0.00    -0.254 N  
HETATM   11  O   UNL     1      -8.603  19.322  67.645  1.00  0.00    -0.286 OA 
BRANCH   3  12
HETATM   12  C   UNL     1     -10.655  14.133  67.775  1.00  0.00    -0.243 A  
HETATM   13  C   UNL     1     -11.491  12.274  66.416  1.00  0.00    -0.434 A  
HETATM   14  N   UNL     1     -10.601  10.031  66.676  1.00  0.00    -0.167 NA 
HETATM   15  C   UNL     1      -9.836  11.848  68.083  1.00  0.00    -0.192 A  
HETATM   16  C   UNL     1      -9.852  13.198  68.452  1.00  0.00    -0.206 A  
HETATM   17  H2  UNL     1     -10.874   9.503  67.505  1.00  0.00     0.000 HD 
HETATM   18  H1  UNL     1     -11.153   9.697  65.887  1.00  0.00     0.000 HD 
HETATM   19  C   UNL     1     -11.508  13.626  66.778  1.00  0.00    -0.370 A  
HETATM   20  C   UNL     1     -10.590  11.392  67.006  1.00  0.00    -0.248 A  
ENDBRANCH   3  12
ENDBRANCH   2   3
TORSDOF 2
ENDMDL
MODEL      111
REMARK 921   NORMALIZED FREE ENERGY PREDICTED BY IDOCK:   -3.53 KCAL/MOL
REMARK 922        TOTAL FREE ENERGY PREDICTED BY IDOCK:   -4.28 KCAL/MOL
REMARK 923 INTER-LIGAND FREE ENERGY PREDICTED BY IDOCK:   -3.86 KCAL/MOL
REMARK 924 INTRA-LIGAND FREE ENERGY PREDICTED BY IDOCK:   -0.42 KCAL/MOL
REMARK 927      BINDING AFFINITY PREDICTED BY RF-SCORE:    0.00 PKD
ROOT
HETATM    1  C   UNL     1     -10.084  10.747  64.360  1.00  0.00    -0.419 C  
HETATM    2  C   UNL     1      -9.009  10.686  65.441  1.00  0.00    -0.208 C  
ENDROOT
BRANCH   2   3
HETATM    3  C   UNL     1      -9.531  10.795  66.913  1.00  0.00    -0.192 C  
HETATM    4  C   UNL     1     -10.731   9.838  67.162  1.00  0.00    -0.273 C  
HETATM    5  O   UNL     1      -7.587  11.000  68.421  1.00  0.00    -0.095 OA 
HETATM    6  C   UNL     1     -10.396   8.376  66.921  1.00  0.00    -0.378 C  
HETATM    7  C   UNL     1      -8.385  10.282  67.825  1.00  0.00    -0.110 C  
HETATM    8  H   UNL     1      -7.296   8.576  68.141  1.00  0.00     0.000 HD 
HETATM    9  C   UNL     1      -9.202   7.966  67.733  1.00  0.00    -0.137 C  
HETATM   10  N   UNL     1      -8.232   8.916  67.915  1.00  0.00    -0.110 N  
HETATM   11  O   UNL     1      -9.080   6.836  68.202  1.00  0.00    -0.126 OA 
BRANCH   3  12
HETATM   12  C   UNL     1      -9.898  12.270  67.219  1.00  0.00    -0.208 A  
HETATM   13  C   UNL     1      -9.589  14.658  66.770  1.00  0.00    -0.266 A  
HETATM   14  N   UNL     1     -11.105  16.313  67.691  1.00  0.00    -0.243 NA 
HETATM   15  C   UNL     1     -11.361  13.961  68.210  1.00  0.00    -0.325 A  
HETATM   16  C   UNL     1     -10.966  12.627  68.061  1.00  0.00    -0.266 A  
HETATM   17  H2  UNL     1     -11.033  16.526  68.686  1.00  0.00     0.000 HD 
HETATM   18  H1  UNL     1     -10.644  17.059  67.170  1.00  0.00     0.000 HD 
HETATM   19  C   UNL     1      -9.191  13.325  66.615  1.00  0.00    -0.222 A  
HETATM   20  C   UNL     1     -10.731  14.978  67.499  1.00  0.00    -0.284 A  
ENDBRANCH   3  12
ENDBRANCH   2   3
TORSDOF 2
ENDMDL
MODEL      112
REMARK 921   NORMALIZED FREE ENERGY PREDICTED BY IDOCK:   -3.49 KCAL/MOL
REMARK 922        TOTAL FREE ENERGY PREDICTED BY IDOCK:   -4.23 KCAL/MOL
REMARK 923 INTER-LIGAND FREE ENERGY PREDICTED BY IDOCK:   -3.82 KCAL/MOL
REMARK 924 INTRA-LIGAND FREE ENERGY PREDICTED BY IDOCK:   -0.41 KCAL/MOL
REMARK 927      BINDING AFFINITY PREDICTED BY RF-SCORE:    0.00 PKD
ROOT
HETATM    1  C   UNL     1      -9.416   9.047  66.532  1.00  0.00    -0.266 C  
HETATM    2  C   UNL     1     -10.280   8.488  67.658  1.00  0.00    -0.297 C  
ENDROOT
BRANCH   2   3
HETATM    3  C   UNL     1      -9.657   7.289  68.450  1.00  0.00    -0.139 C  
HETATM    4  C   UNL     1      -8.275   7.665  69.055  1.00  0.00    -0.127 C  
HETATM    5  O   UNL     1     -11.457   6.158  69.706  1.00  0.00    -0.433 OA 
HETATM    6  C   UNL     1      -8.337   8.842  70.015  1.00  0.00    -0.127 C  
HETATM    7  C   UNL     1     -10.592   7.029  69.661  1.00  0.00    -0.234 C  
HETATM    8  H   UNL     1     -11.292   8.003  71.321  1.00  0.00     0.000 HD 
HETATM    9  C   UNL     1      -9.349   8.589  71.095  1.00  0.00    -0.196 C  
HETATM   10  N   UNL     1     -10.466   7.883  70.734  1.00  0.00    -0.208 N  
HETATM   11  O   UNL     1      -9.204   9.004  72.244  1.00  0.00    -0.344 OA 
BRANCH   3  12
HETATM   12  C   UNL     1      -9.560   6.054  67.518  1.00  0.00    -0.116 A  
HETATM   13  C   UNL     1      -8.394   4.010  66.838  1.00  0.00    -0.100 A  
HETATM   14  N   UNL     1      -9.415   2.439  65.295  1.00  0.00    -0.340 NA 
HETATM   15  C   UNL     1     -10.532   4.502  65.896  1.00  0.00    -0.262 A  
HETATM   16  C   UNL     1     -10.584   5.696  66.623  1.00  0.00    -0.361 A  
HETATM   17  H2  UNL     1      -9.461   2.699  64.310  1.00  0.00     0.000 HD 
HETATM   18  H1  UNL     1      -8.643   1.783  65.417  1.00  0.00     0.000 HD 
HETATM   19  C   UNL     1      -8.443   5.201  67.571  1.00  0.00    -0.105 A  
HETATM   20  C   UNL     1      -9.479   3.608  66.062  1.00  0.00    -0.160 A  
ENDBRANCH   3  12
ENDBRANCH   2   3
TORSDOF 2
ENDMDL
MODEL      113
REMARK 921   NORMALIZED FREE ENERGY PREDICTED BY IDOCK:   -3.46 KCAL/MOL
REMARK 922        TOTAL FREE ENERGY PREDICTED BY IDOCK:   -4.20 KCAL/MOL
REMARK 923 INTER-LIGAND FREE ENERGY PREDICTED BY IDOCK:   -3.77 KCAL/MOL
REMARK 924 INTRA-LIGAND FREE ENERGY PREDICTED BY IDOCK:   -0.43 KCAL/MOL
REMARK 927      BINDING AFFINITY PREDICTED BY RF-SCORE:    0.00 PKD
ROOT
HETATM    1  C   UNL     1     -10.714   6.214  66.846  1.00  0.00    -0.413 C  
HETATM    2  C   UNL     1     -10.707   7.615  67.449  1.00  0.00    -0.318 C  
ENDROOT
BRANCH   2   3
HETATM    3  C   UNL     1      -9.655   7.852  68.585  1.00  0.00    -0.155 C  
HETATM    4  C   UNL     1      -8.224   7.455  68.125  1.00  0.00    -0.124 C  
HETATM    5  O   UNL     1     -10.204   9.968  69.733  1.00  0.00    -0.223 OA 
HETATM    6  C   UNL     1      -7.743   8.231  66.911  1.00  0.00    -0.095 C  
HETATM    7  C   UNL     1      -9.611   9.383  68.830  1.00  0.00    -0.154 C  
HETATM    8  H   UNL     1      -9.176  11.107  67.813  1.00  0.00     0.000 HD 
HETATM    9  C   UNL     1      -7.840   9.709  67.157  1.00  0.00    -0.091 C  
HETATM   10  N   UNL     1      -8.893  10.134  67.924  1.00  0.00    -0.125 N  
HETATM   11  O   UNL     1      -7.034  10.510  66.687  1.00  0.00    -0.099 OA 
BRANCH   3  12
HETATM   12  C   UNL     1     -10.088   7.076  69.855  1.00  0.00    -0.202 A  
HETATM   13  C   UNL     1      -9.487   5.912  71.925  1.00  0.00    -0.166 A  
HETATM   14  N   UNL     1     -11.177   5.293  73.552  1.00  0.00    -0.462 NA 
HETATM   15  C   UNL     1     -11.786   6.363  71.466  1.00  0.00    -0.369 A  
HETATM   16  C   UNL     1     -11.434   6.949  70.245  1.00  0.00    -0.373 A  
HETATM   17  H2  UNL     1     -11.790   4.509  73.330  1.00  0.00     0.000 HD 
HETATM   18  H1  UNL     1     -10.463   4.968  74.204  1.00  0.00     0.000 HD 
HETATM   19  C   UNL     1      -9.128   6.500  70.706  1.00  0.00    -0.154 A  
HETATM   20  C   UNL     1     -10.811   5.919  72.355  1.00  0.00    -0.244 A  
ENDBRANCH   3  12
ENDBRANCH   2   3
TORSDOF 2
ENDMDL
MODEL      114
REMARK 921   NORMALIZED FREE ENERGY PREDICTED BY IDOCK:   -3.46 KCAL/MOL
REMARK 922        TOTAL FREE ENERGY PREDICTED BY IDOCK:   -4.19 KCAL/MOL
REMARK 923 INTER-LIGAND FREE ENERGY PREDICTED BY IDOCK:   -4.03 KCAL/MOL
REMARK 924 INTRA-LIGAND FREE ENERGY PREDICTED BY IDOCK:   -0.17 KCAL/MOL
REMARK 927      BINDING AFFINITY PREDICTED BY RF-SCORE:    0.00 PKD
ROOT
HETATM    1  C   UNL     1      -7.646  10.331  69.173  1.00  0.00    -0.111 C  
HETATM    2  C   UNL     1      -8.592   9.149  68.987  1.00  0.00    -0.133 C  
ENDROOT
BRANCH   2   3
HETATM    3  C   UNL     1      -8.723   8.193  70.220  1.00  0.00    -0.133 C  
HETATM    4  C   UNL     1      -8.670   6.700  69.789  1.00  0.00    -0.140 C  
HETATM    5  O   UNL     1      -7.418   9.141  72.090  1.00  0.00    -0.330 OA 
HETATM    6  C   UNL     1      -7.383   6.324  69.074  1.00  0.00    -0.085 C  
HETATM    7  C   UNL     1      -7.461   8.426  71.092  1.00  0.00    -0.084 C  
HETATM    8  H   UNL     1      -5.424   8.268  70.950  1.00  0.00     0.000 HD 
HETATM    9  C   UNL     1      -6.190   6.687  69.910  1.00  0.00    -0.038 C  
HETATM   10  N   UNL     1      -6.297   7.822  70.669  1.00  0.00    -0.037 N  
HETATM   11  O   UNL     1      -5.157   6.019  69.909  1.00  0.00    -0.008 OA 
BRANCH   3  12
HETATM   12  C   UNL     1     -10.027   8.524  70.991  1.00  0.00    -0.255 A  
HETATM   13  C   UNL     1     -11.910  10.036  71.399  1.00  0.00    -0.447 A  
HETATM   14  N   UNL     1     -13.806   9.342  72.746  1.00  0.00    -0.783 NA 
HETATM   15  C   UNL     1     -11.905   7.878  72.418  1.00  0.00    -0.402 A  
HETATM   16  C   UNL     1     -10.658   7.603  71.846  1.00  0.00    -0.257 A  
HETATM   17  H2  UNL     1     -13.678   9.284  73.756  1.00  0.00     0.000 HD 
HETATM   18  H1  UNL     1     -14.302  10.208  72.535  1.00  0.00     0.000 HD 
HETATM   19  C   UNL     1     -10.665   9.766  70.820  1.00  0.00    -0.393 A  
HETATM   20  C   UNL     1     -12.581   9.060  72.131  1.00  0.00    -0.391 A  
ENDBRANCH   3  12
ENDBRANCH   2   3
TORSDOF 2
ENDMDL
MODEL      115
REMARK 921   NORMALIZED FREE ENERGY PREDICTED BY IDOCK:   -3.41 KCAL/MOL
REMARK 922        TOTAL FREE ENERGY PREDICTED BY IDOCK:   -4.14 KCAL/MOL
REMARK 923 INTER-LIGAND FREE ENERGY PREDICTED BY IDOCK:   -4.07 KCAL/MOL
REMARK 924 INTRA-LIGAND FREE ENERGY PREDICTED BY IDOCK:   -0.07 KCAL/MOL
REMARK 927      BINDING AFFINITY PREDICTED BY RF-SCORE:    0.00 PKD
ROOT
HETATM    1  C   UNL     1     -10.179  10.461  65.254  1.00  0.00    -0.332 C  
HETATM    2  C   UNL     1      -9.091  10.528  66.320  1.00  0.00    -0.184 C  
ENDROOT
BRANCH   2   3
HETATM    3  C   UNL     1      -9.560  11.025  67.730  1.00  0.00    -0.180 C  
HETATM    4  C   UNL     1      -8.638  12.154  68.269  1.00  0.00    -0.175 C  
HETATM    5  O   UNL     1     -12.027  11.124  67.744  1.00  0.00    -0.630 OA 
HETATM    6  C   UNL     1      -8.589  13.375  67.366  1.00  0.00    -0.204 C  
HETATM    7  C   UNL     1     -10.953  11.677  67.524  1.00  0.00    -0.259 C  
HETATM    8  H   UNL     1     -11.806  13.225  66.489  1.00  0.00     0.000 HD 
HETATM    9  C   UNL     1      -9.974  13.890  67.098  1.00  0.00    -0.239 C  
HETATM   10  N   UNL     1     -10.967  12.951  67.002  1.00  0.00    -0.257 N  
HETATM   11  O   UNL     1     -10.215  15.087  66.952  1.00  0.00    -0.252 OA 
BRANCH   3  12
HETATM   12  C   UNL     1      -9.624   9.820  68.703  1.00  0.00    -0.155 A  
HETATM   13  C   UNL     1      -9.121   7.472  69.191  1.00  0.00    -0.138 A  
HETATM   14  N   UNL     1      -9.387   6.572  71.429  1.00  0.00    -0.152 NA 
HETATM   15  C   UNL     1      -9.971   8.870  70.930  1.00  0.00    -0.304 A  
HETATM   16  C   UNL     1     -10.054   9.943  70.036  1.00  0.00    -0.308 A  
HETATM   17  H2  UNL     1     -10.335   6.404  71.766  1.00  0.00     0.000 HD 
HETATM   18  H1  UNL     1      -8.986   5.680  71.142  1.00  0.00     0.000 HD 
HETATM   19  C   UNL     1      -9.199   8.543  68.293  1.00  0.00    -0.140 A  
HETATM   20  C   UNL     1      -9.423   7.652  70.539  1.00  0.00    -0.164 A  
ENDBRANCH   3  12
ENDBRANCH   2   3
TORSDOF 2
ENDMDL
MODEL      116
REMARK 921   NORMALIZED FREE ENERGY PREDICTED BY IDOCK:   -3.41 KCAL/MOL
REMARK 922        TOTAL FREE ENERGY PREDICTED BY IDOCK:   -4.14 KCAL/MOL
REMARK 923 INTER-LIGAND FREE ENERGY PREDICTED BY IDOCK:   -4.02 KCAL/MOL
REMARK 924 INTRA-LIGAND FREE ENERGY PREDICTED BY IDOCK:   -0.12 KCAL/MOL
REMARK 927      BINDING AFFINITY PREDICTED BY RF-SCORE:    0.00 PKD
ROOT
HETATM    1  C   UNL     1     -11.956  13.333  69.204  1.00  0.00    -0.343 C  
HETATM    2  C   UNL     1     -11.975  11.920  68.631  1.00  0.00    -0.291 C  
ENDROOT
BRANCH   2   3
HETATM    3  C   UNL     1     -10.593  11.379  68.132  1.00  0.00    -0.220 C  
HETATM    4  C   UNL     1     -10.708  10.755  66.713  1.00  0.00    -0.291 C  
HETATM    5  O   UNL     1      -8.836  12.979  68.804  1.00  0.00     0.000 OA 
HETATM    6  C   UNL     1     -11.204  11.733  65.661  1.00  0.00    -0.324 C  
HETATM    7  C   UNL     1      -9.668  12.615  67.977  1.00  0.00    -0.215 C  
HETATM    8  H   UNL     1      -9.577  14.364  66.914  1.00  0.00     0.000 HD 
HETATM    9  C   UNL     1     -10.347  12.966  65.641  1.00  0.00    -0.282 C  
HETATM   10  N   UNL     1      -9.846  13.382  66.846  1.00  0.00    -0.249 N  
HETATM   11  O   UNL     1     -10.113  13.589  64.607  1.00  0.00    -0.344 OA 
BRANCH   3  12
HETATM   12  C   UNL     1     -10.035  10.366  69.164  1.00  0.00    -0.237 A  
HETATM   13  C   UNL     1      -8.256   8.839  69.873  1.00  0.00    -0.118 A  
HETATM   14  N   UNL     1      -8.236   7.888  72.105  1.00  0.00    -0.115 NA 
HETATM   15  C   UNL     1     -10.044   9.326  71.378  1.00  0.00    -0.348 A  
HETATM   16  C   UNL     1     -10.643  10.141  70.412  1.00  0.00    -0.287 A  
HETATM   17  H2  UNL     1      -8.906   7.149  72.316  1.00  0.00     0.000 HD 
HETATM   18  H1  UNL     1      -7.327   7.457  71.938  1.00  0.00     0.000 HD 
HETATM   19  C   UNL     1      -8.849   9.656  68.903  1.00  0.00    -0.136 A  
HETATM   20  C   UNL     1      -8.804   8.738  71.149  1.00  0.00    -0.219 A  
ENDBRANCH   3  12
ENDBRANCH   2   3
TORSDOF 2
ENDMDL
MODEL      117
REMARK 921   NORMALIZED FREE ENERGY PREDICTED BY IDOCK:   -3.40 KCAL/MOL
REMARK 922        TOTAL FREE ENERGY PREDICTED BY IDOCK:   -4.13 KCAL/MOL
REMARK 923 INTER-LIGAND FREE ENERGY PREDICTED BY IDOCK:   -4.27 KCAL/MOL
REMARK 924 INTRA-LIGAND FREE ENERGY PREDICTED BY IDOCK:    0.14 KCAL/MOL
REMARK 927      BINDING AFFINITY PREDICTED BY RF-SCORE:    0.00 PKD
ROOT
HETATM    1  C   UNL     1     -10.862   9.653  67.902  1.00  0.00    -0.272 C  
HETATM    2  C   UNL     1     -10.111  10.921  68.293  1.00  0.00    -0.189 C  
ENDROOT
BRANCH   2   3
HETATM    3  C   UNL     1      -9.241  11.563  67.160  1.00  0.00    -0.171 C  
HETATM    4  C   UNL     1      -8.178  12.536  67.743  1.00  0.00    -0.166 C  
HETATM    5  O   UNL     1      -8.756   9.832  65.467  1.00  0.00    -0.136 OA 
HETATM    6  C   UNL     1      -7.216  11.868  68.710  1.00  0.00    -0.112 C  
HETATM    7  C   UNL     1      -8.443  10.404  66.508  1.00  0.00    -0.132 C  
HETATM    8  H   UNL     1      -7.054   8.990  67.027  1.00  0.00     0.000 HD 
HETATM    9  C   UNL     1      -6.564  10.677  68.069  1.00  0.00    -0.063 C  
HETATM   10  N   UNL     1      -7.333   9.958  67.192  1.00  0.00    -0.090 N  
HETATM   11  O   UNL     1      -5.408  10.342  68.322  1.00  0.00    -0.036 OA 
BRANCH   3  12
HETATM   12  C   UNL     1     -10.170  12.270  66.139  1.00  0.00    -0.263 A  
HETATM   13  C   UNL     1     -10.599  14.144  64.621  1.00  0.00    -0.391 A  
HETATM   14  N   UNL     1     -12.445  14.086  63.047  1.00  0.00    -0.988 NA 
HETATM   15  C   UNL     1     -12.078  12.270  64.608  1.00  0.00    -0.449 A  
HETATM   16  C   UNL     1     -11.335  11.668  65.629  1.00  0.00    -0.233 A  
HETATM   17  H2  UNL     1     -13.388  14.211  63.413  1.00  0.00     0.000 HD 
HETATM   18  H1  UNL     1     -12.144  14.965  62.627  1.00  0.00     0.000 HD 
HETATM   19  C   UNL     1      -9.849  13.545  65.640  1.00  0.00    -0.187 A  
HETATM   20  C   UNL     1     -11.668  13.471  64.036  1.00  0.00    -0.395 A  
ENDBRANCH   3  12
ENDBRANCH   2   3
TORSDOF 2
ENDMDL
MODEL      118
REMARK 921   NORMALIZED FREE ENERGY PREDICTED BY IDOCK:   -3.40 KCAL/MOL
REMARK 922        TOTAL FREE ENERGY PREDICTED BY IDOCK:   -4.13 KCAL/MOL
REMARK 923 INTER-LIGAND FREE ENERGY PREDICTED BY IDOCK:   -4.12 KCAL/MOL
REMARK 924 INTRA-LIGAND FREE ENERGY PREDICTED BY IDOCK:   -0.01 KCAL/MOL
REMARK 927      BINDING AFFINITY PREDICTED BY RF-SCORE:    0.00 PKD
ROOT
HETATM    1  C   UNL     1     -10.596  13.916  64.893  1.00  0.00    -0.436 C  
HETATM    2  C   UNL     1      -9.679  14.185  66.082  1.00  0.00    -0.310 C  
ENDROOT
BRANCH   2   3
HETATM    3  C   UNL     1      -9.923  13.280  67.337  1.00  0.00    -0.233 C  
HETATM    4  C   UNL     1      -9.423  13.967  68.638  1.00  0.00    -0.142 C  
HETATM    5  O   UNL     1     -12.127  12.193  67.103  1.00  0.00    -0.575 OA 
HETATM    6  C   UNL     1     -10.102  15.298  68.916  1.00  0.00    -0.225 C  
HETATM    7  C   UNL     1     -11.461  13.148  67.491  1.00  0.00    -0.328 C  
HETATM    8  H   UNL     1     -13.098  14.339  67.802  1.00  0.00     0.000 HD 
HETATM    9  C   UNL     1     -11.595  15.136  68.931  1.00  0.00    -0.341 C  
HETATM   10  N   UNL     1     -12.118  14.218  68.058  1.00  0.00    -0.311 N  
HETATM   11  O   UNL     1     -12.323  15.798  69.668  1.00  0.00    -0.294 OA 
BRANCH   3  12
HETATM   12  C   UNL     1      -9.244  11.903  67.115  1.00  0.00    -0.183 A  
HETATM   13  C   UNL     1      -8.277  10.248  65.590  1.00  0.00    -0.153 A  
HETATM   14  N   UNL     1      -7.031   8.344  66.433  1.00  0.00    -0.073 NA 
HETATM   15  C   UNL     1      -8.062   9.930  67.947  1.00  0.00    -0.109 A  
HETATM   16  C   UNL     1      -8.793  11.100  68.178  1.00  0.00    -0.148 A  
HETATM   17  H2  UNL     1      -7.555   7.585  66.869  1.00  0.00     0.000 HD 
HETATM   18  H1  UNL     1      -6.782   8.059  65.486  1.00  0.00     0.000 HD 
HETATM   19  C   UNL     1      -9.007  11.421  65.815  1.00  0.00    -0.159 A  
HETATM   20  C   UNL     1      -7.723   9.540  66.654  1.00  0.00    -0.098 A  
ENDBRANCH   3  12
ENDBRANCH   2   3
TORSDOF 2
ENDMDL
MODEL      119
REMARK 921   NORMALIZED FREE ENERGY PREDICTED BY IDOCK:   -3.39 KCAL/MOL
REMARK 922        TOTAL FREE ENERGY PREDICTED BY IDOCK:   -4.12 KCAL/MOL
REMARK 923 INTER-LIGAND FREE ENERGY PREDICTED BY IDOCK:   -3.72 KCAL/MOL
REMARK 924 INTRA-LIGAND FREE ENERGY PREDICTED BY IDOCK:   -0.40 KCAL/MOL
REMARK 927      BINDING AFFINITY PREDICTED BY RF-SCORE:    0.00 PKD
ROOT
HETATM    1  C   UNL     1     -10.650  11.949  68.436  1.00  0.00    -0.239 C  
HETATM    2  C   UNL     1     -11.060  10.487  68.295  1.00  0.00    -0.340 C  
ENDROOT
BRANCH   2   3
HETATM    3  C   UNL     1      -9.882   9.478  68.073  1.00  0.00    -0.181 C  
HETATM    4  C   UNL     1      -8.833   9.569  69.217  1.00  0.00    -0.153 C  
HETATM    5  O   UNL     1     -10.816   7.359  67.216  1.00  0.00    -0.301 OA 
HETATM    6  C   UNL     1      -9.412   9.275  70.591  1.00  0.00    -0.333 C  
HETATM    7  C   UNL     1     -10.497   8.057  68.175  1.00  0.00    -0.167 C  
HETATM    8  H   UNL     1     -11.489   6.887  69.532  1.00  0.00     0.000 HD 
HETATM    9  C   UNL     1     -10.104   7.943  70.598  1.00  0.00    -0.194 C  
HETATM   10  N   UNL     1     -10.747   7.581  69.444  1.00  0.00    -0.220 N  
HETATM   11  O   UNL     1     -10.116   7.212  71.587  1.00  0.00    -0.185 OA 
BRANCH   3  12
HETATM   12  C   UNL     1      -9.244   9.733  66.684  1.00  0.00    -0.184 A  
HETATM   13  C   UNL     1      -7.253   9.811  65.259  1.00  0.00    -0.120 A  
HETATM   14  N   UNL     1      -7.443  10.018  62.848  1.00  0.00    -0.132 NA 
HETATM   15  C   UNL     1      -9.410  10.032  64.262  1.00  0.00    -0.345 A  
HETATM   16  C   UNL     1     -10.009   9.942  65.523  1.00  0.00    -0.363 A  
HETATM   17  H2  UNL     1      -7.709  10.925  62.467  1.00  0.00     0.000 HD 
HETATM   18  H1  UNL     1      -6.436   9.906  62.737  1.00  0.00     0.000 HD 
HETATM   19  C   UNL     1      -7.846   9.717  66.523  1.00  0.00    -0.108 A  
HETATM   20  C   UNL     1      -8.035   9.880  64.109  1.00  0.00    -0.150 A  
ENDBRANCH   3  12
ENDBRANCH   2   3
TORSDOF 2
ENDMDL
MODEL      120
REMARK 921   NORMALIZED FREE ENERGY PREDICTED BY IDOCK:   -3.39 KCAL/MOL
REMARK 922        TOTAL FREE ENERGY PREDICTED BY IDOCK:   -4.12 KCAL/MOL
REMARK 923 INTER-LIGAND FREE ENERGY PREDICTED BY IDOCK:   -3.94 KCAL/MOL
REMARK 924 INTRA-LIGAND FREE ENERGY PREDICTED BY IDOCK:   -0.17 KCAL/MOL
REMARK 927      BINDING AFFINITY PREDICTED BY RF-SCORE:    0.00 PKD
ROOT
HETATM    1  C   UNL     1     -11.770   6.434  70.120  1.00  0.00    -0.372 C  
HETATM    2  C   UNL     1     -10.423   7.143  70.021  1.00  0.00    -0.235 C  
ENDROOT
BRANCH   2   3
HETATM    3  C   UNL     1     -10.077   8.096  71.214  1.00  0.00    -0.240 C  
HETATM    4  C   UNL     1      -9.493   9.446  70.711  1.00  0.00    -0.307 C  
HETATM    5  O   UNL     1     -11.858   7.905  72.913  1.00  0.00    -0.307 OA 
HETATM    6  C   UNL     1     -10.438  10.209  69.798  1.00  0.00    -0.301 C  
HETATM    7  C   UNL     1     -11.423   8.447  71.901  1.00  0.00    -0.318 C  
HETATM    8  H   UNL     1     -13.206   9.352  71.454  1.00  0.00     0.000 HD 
HETATM    9  C   UNL     1     -11.768  10.412  70.465  1.00  0.00    -0.344 C  
HETATM   10  N   UNL     1     -12.201   9.402  71.283  1.00  0.00    -0.327 N  
HETATM   11  O   UNL     1     -12.451  11.417  70.281  1.00  0.00    -0.282 OA 
BRANCH   3  12
HETATM   12  C   UNL     1      -9.105   7.374  72.182  1.00  0.00    -0.156 A  
HETATM   13  C   UNL     1      -7.931   5.334  72.861  1.00  0.00    -0.102 A  
HETATM   14  N   UNL     1      -6.163   5.398  74.522  1.00  0.00    -0.066 NA 
HETATM   15  C   UNL     1      -7.382   7.402  73.919  1.00  0.00    -0.118 A  
HETATM   16  C   UNL     1      -8.352   8.058  73.153  1.00  0.00    -0.253 A  
HETATM   17  H2  UNL     1      -6.429   5.528  75.497  1.00  0.00     0.000 HD 
HETATM   18  H1  UNL     1      -5.958   4.410  74.374  1.00  0.00     0.000 HD 
HETATM   19  C   UNL     1      -8.901   5.985  72.089  1.00  0.00    -0.135 A  
HETATM   20  C   UNL     1      -7.103   6.054  73.718  1.00  0.00    -0.081 A  
ENDBRANCH   3  12
ENDBRANCH   2   3
TORSDOF 2
ENDMDL
MODEL      121
REMARK 921   NORMALIZED FREE ENERGY PREDICTED BY IDOCK:   -3.35 KCAL/MOL
REMARK 922        TOTAL FREE ENERGY PREDICTED BY IDOCK:   -4.08 KCAL/MOL
REMARK 923 INTER-LIGAND FREE ENERGY PREDICTED BY IDOCK:   -3.99 KCAL/MOL
REMARK 924 INTRA-LIGAND FREE ENERGY PREDICTED BY IDOCK:   -0.09 KCAL/MOL
REMARK 927      BINDING AFFINITY PREDICTED BY RF-SCORE:    0.00 PKD
ROOT
HETATM    1  C   UNL     1     -13.259   7.338  71.734  1.00  0.00    -0.368 C  
HETATM    2  C   UNL     1     -12.360   8.477  72.206  1.00  0.00    -0.450 C  
ENDROOT
BRANCH   2   3
HETATM    3  C   UNL     1     -11.136   8.793  71.281  1.00  0.00    -0.348 C  
HETATM    4  C   UNL     1      -9.821   8.912  72.102  1.00  0.00    -0.252 C  
HETATM    5  O   UNL     1     -11.359   7.474  69.206  1.00  0.00     0.070 OA 
HETATM    6  C   UNL     1      -9.476   7.649  72.874  1.00  0.00    -0.262 C  
HETATM    7  C   UNL     1     -10.950   7.558  70.361  1.00  0.00    -0.251 C  
HETATM    8  H   UNL     1     -10.555   5.554  70.512  1.00  0.00     0.000 HD 
HETATM    9  C   UNL     1      -9.432   6.463  71.954  1.00  0.00    -0.152 C  
HETATM   10  N   UNL     1     -10.327   6.462  70.916  1.00  0.00    -0.199 N  
HETATM   11  O   UNL     1      -8.653   5.527  72.122  1.00  0.00    -0.125 OA 
BRANCH   3  12
HETATM   12  C   UNL     1     -11.426  10.081  70.469  1.00  0.00    -0.407 A  
HETATM   13  C   UNL     1     -12.824  12.052  70.066  1.00  0.00     0.405 A  
HETATM   14  N   UNL     1     -12.093  13.825  68.579  1.00  0.00    -0.427 NA 
HETATM   15  C   UNL     1     -10.749  11.836  68.906  1.00  0.00    -0.241 A  
HETATM   16  C   UNL     1     -10.525  10.601  69.522  1.00  0.00    -0.236 A  
HETATM   17  H2  UNL     1     -12.116  13.646  67.575  1.00  0.00     0.000 HD 
HETATM   18  H1  UNL     1     -12.904  14.394  68.822  1.00  0.00     0.000 HD 
HETATM   19  C   UNL     1     -12.604  10.818  70.689  1.00  0.00    -0.446 A  
HETATM   20  C   UNL     1     -11.856  12.612  69.236  1.00  0.00    -0.302 A  
ENDBRANCH   3  12
ENDBRANCH   2   3
TORSDOF 2
ENDMDL
MODEL      122
REMARK 921   NORMALIZED FREE ENERGY PREDICTED BY IDOCK:   -3.30 KCAL/MOL
REMARK 922        TOTAL FREE ENERGY PREDICTED BY IDOCK:   -4.02 KCAL/MOL
REMARK 923 INTER-LIGAND FREE ENERGY PREDICTED BY IDOCK:   -4.01 KCAL/MOL
REMARK 924 INTRA-LIGAND FREE ENERGY PREDICTED BY IDOCK:   -0.01 KCAL/MOL
REMARK 927      BINDING AFFINITY PREDICTED BY RF-SCORE:    0.00 PKD
ROOT
HETATM    1  C   UNL     1      -8.617  13.969  68.142  1.00  0.00    -0.181 C  
HETATM    2  C   UNL     1      -9.720  13.066  68.682  1.00  0.00    -0.051 C  
ENDROOT
BRANCH   2   3
HETATM    3  C   UNL     1     -10.330  12.059  67.649  1.00  0.00    -0.213 C  
HETATM    4  C   UNL     1     -11.835  12.351  67.394  1.00  0.00    -0.360 C  
HETATM    5  O   UNL     1      -8.672  11.669  65.861  1.00  0.00    -0.127 OA 
HETATM    6  C   UNL     1     -12.096  13.747  66.855  1.00  0.00    -0.454 C  
HETATM    7  C   UNL     1      -9.612  12.327  66.299  1.00  0.00    -0.242 C  
HETATM    8  H   UNL     1      -9.358  13.846  64.950  1.00  0.00     0.000 HD 
HETATM    9  C   UNL     1     -11.281  13.997  65.619  1.00  0.00    -0.310 C  
HETATM   10  N   UNL     1     -10.039  13.421  65.579  1.00  0.00    -0.288 N  
HETATM   11  O   UNL     1     -11.687  14.696  64.692  1.00  0.00    -0.404 OA 
BRANCH   3  12
HETATM   12  C   UNL     1     -10.101  10.609  68.148  1.00  0.00    -0.179 A  
HETATM   13  C   UNL     1     -10.469   8.202  67.881  1.00  0.00    -0.259 A  
HETATM   14  N   UNL     1      -9.214   6.589  69.190  1.00  0.00    -0.135 NA 
HETATM   15  C   UNL     1      -8.912   8.970  69.520  1.00  0.00    -0.147 A  
HETATM   16  C   UNL     1      -9.202  10.296  69.184  1.00  0.00    -0.203 A  
HETATM   17  H2  UNL     1      -9.456   6.482  70.174  1.00  0.00     0.000 HD 
HETATM   18  H1  UNL     1      -9.628   5.814  68.672  1.00  0.00     0.000 HD 
HETATM   19  C   UNL     1     -10.761   9.528  67.538  1.00  0.00    -0.311 A  
HETATM   20  C   UNL     1      -9.477   7.912  68.814  1.00  0.00    -0.147 A  
ENDBRANCH   3  12
ENDBRANCH   2   3
TORSDOF 2
ENDMDL
MODEL      123
REMARK 921   NORMALIZED FREE ENERGY PREDICTED BY IDOCK:   -3.24 KCAL/MOL
REMARK 922        TOTAL FREE ENERGY PREDICTED BY IDOCK:   -3.95 KCAL/MOL
REMARK 923 INTER-LIGAND FREE ENERGY PREDICTED BY IDOCK:   -3.83 KCAL/MOL
REMARK 924 INTRA-LIGAND FREE ENERGY PREDICTED BY IDOCK:   -0.12 KCAL/MOL
REMARK 927      BINDING AFFINITY PREDICTED BY RF-SCORE:    0.00 PKD
ROOT
HETATM    1  C   UNL     1     -12.155   7.726  71.272  1.00  0.00    -0.328 C  
HETATM    2  C   UNL     1     -12.033   6.624  70.225  1.00  0.00    -0.302 C  
ENDROOT
BRANCH   2   3
HETATM    3  C   UNL     1     -10.569   6.246  69.816  1.00  0.00    -0.323 C  
HETATM    4  C   UNL     1     -10.514   5.676  68.370  1.00  0.00    -0.263 C  
HETATM    5  O   UNL     1      -9.040   7.981  70.680  1.00  0.00    -0.149 OA 
HETATM    6  C   UNL     1     -11.029   6.645  67.320  1.00  0.00    -0.456 C  
HETATM    7  C   UNL     1      -9.767   7.574  69.778  1.00  0.00    -0.171 C  
HETATM    8  H   UNL     1      -9.778   9.367  68.789  1.00  0.00     0.000 HD 
HETATM    9  C   UNL     1     -10.304   7.956  67.410  1.00  0.00    -0.279 C  
HETATM   10  N   UNL     1      -9.939   8.368  68.665  1.00  0.00    -0.179 N  
HETATM   11  O   UNL     1     -10.059   8.644  66.421  1.00  0.00    -0.284 OA 
BRANCH   3  12
HETATM   12  C   UNL     1      -9.988   5.249  70.851  1.00  0.00    -0.274 A  
HETATM   13  C   UNL     1      -8.176   3.762  71.562  1.00  0.00    -0.072 A  
HETATM   14  N   UNL     1      -8.130   2.821  73.798  1.00  0.00    -0.066 NA 
HETATM   15  C   UNL     1      -9.970   4.218  73.069  1.00  0.00    -0.196 A  
HETATM   16  C   UNL     1     -10.588   5.017  72.101  1.00  0.00    -0.259 A  
HETATM   17  H2  UNL     1      -8.785   2.070  74.014  1.00  0.00     0.000 HD 
HETATM   18  H1  UNL     1      -7.213   2.409  73.631  1.00  0.00     0.000 HD 
HETATM   19  C   UNL     1      -8.788   4.562  70.590  1.00  0.00    -0.140 A  
HETATM   20  C   UNL     1      -8.718   3.655  72.840  1.00  0.00    -0.093 A  
ENDBRANCH   3  12
ENDBRANCH   2   3
TORSDOF 2
ENDMDL
MODEL      124
REMARK 921   NORMALIZED FREE ENERGY PREDICTED BY IDOCK:   -3.24 KCAL/MOL
REMARK 922        TOTAL FREE ENERGY PREDICTED BY IDOCK:   -3.95 KCAL/MOL
REMARK 923 INTER-LIGAND FREE ENERGY PREDICTED BY IDOCK:   -4.22 KCAL/MOL
REMARK 924 INTRA-LIGAND FREE ENERGY PREDICTED BY IDOCK:    0.27 KCAL/MOL
REMARK 927      BINDING AFFINITY PREDICTED BY RF-SCORE:    0.00 PKD
ROOT
HETATM    1  C   UNL     1     -11.558  14.466  69.039  1.00  0.00    -0.330 C  
HETATM    2  C   UNL     1     -11.432  15.170  67.692  1.00  0.00    -0.319 C  
ENDROOT
BRANCH   2   3
HETATM    3  C   UNL     1      -9.967  15.466  67.224  1.00  0.00    -0.226 C  
HETATM    4  C   UNL     1      -9.949  16.318  65.924  1.00  0.00    -0.366 C  
HETATM    5  O   UNL     1      -8.589  15.947  69.215  1.00  0.00    -0.246 OA 
HETATM    6  C   UNL     1     -10.643  17.661  66.073  1.00  0.00    -0.220 C  
HETATM    7  C   UNL     1      -9.326  16.355  68.322  1.00  0.00    -0.210 C  
HETATM    8  H   UNL     1      -9.610  18.182  69.204  1.00  0.00     0.000 HD 
HETATM    9  C   UNL     1     -10.067  18.428  67.229  1.00  0.00    -0.352 C  
HETATM   10  N   UNL     1      -9.665  17.691  68.311  1.00  0.00    -0.300 N  
HETATM   11  O   UNL     1      -9.973  19.654  67.225  1.00  0.00    -0.348 OA 
BRANCH   3  12
HETATM   12  C   UNL     1      -9.205  14.128  67.046  1.00  0.00    -0.249 A  
HETATM   13  C   UNL     1      -7.305  12.690  67.613  1.00  0.00    -0.139 A  
HETATM   14  N   UNL     1      -7.253  10.358  66.943  1.00  0.00    -0.095 NA 
HETATM   15  C   UNL     1      -9.092  11.800  66.303  1.00  0.00    -0.209 A  
HETATM   16  C   UNL     1      -9.738  13.040  66.331  1.00  0.00    -0.268 A  
HETATM   17  H2  UNL     1      -7.076  10.147  65.961  1.00  0.00     0.000 HD 
HETATM   18  H1  UNL     1      -6.391  10.204  67.465  1.00  0.00     0.000 HD 
HETATM   19  C   UNL     1      -7.949  13.932  67.647  1.00  0.00    -0.181 A  
HETATM   20  C   UNL     1      -7.915  11.589  67.015  1.00  0.00    -0.161 A  
ENDBRANCH   3  12
ENDBRANCH   2   3
TORSDOF 2
ENDMDL
MODEL      125
REMARK 921   NORMALIZED FREE ENERGY PREDICTED BY IDOCK:   -3.21 KCAL/MOL
REMARK 922        TOTAL FREE ENERGY PREDICTED BY IDOCK:   -3.92 KCAL/MOL
REMARK 923 INTER-LIGAND FREE ENERGY PREDICTED BY IDOCK:   -3.84 KCAL/MOL
REMARK 924 INTRA-LIGAND FREE ENERGY PREDICTED BY IDOCK:   -0.08 KCAL/MOL
REMARK 927      BINDING AFFINITY PREDICTED BY RF-SCORE:    0.00 PKD
ROOT
HETATM    1  C   UNL     1     -10.823  11.348  63.776  1.00  0.00    -0.468 C  
HETATM    2  C   UNL     1      -9.800  12.365  64.271  1.00  0.00    -0.129 C  
ENDROOT
BRANCH   2   3
HETATM    3  C   UNL     1      -9.998  12.854  65.746  1.00  0.00    -0.261 C  
HETATM    4  C   UNL     1     -10.167  14.398  65.814  1.00  0.00    -0.355 C  
HETATM    5  O   UNL     1     -11.465  11.247  66.914  1.00  0.00    -0.431 OA 
HETATM    6  C   UNL     1     -11.355  14.910  65.017  1.00  0.00    -0.398 C  
HETATM    7  C   UNL     1     -11.348  12.259  66.228  1.00  0.00    -0.345 C  
HETATM    8  H   UNL     1     -13.337  12.325  65.742  1.00  0.00     0.000 HD 
HETATM    9  C   UNL     1     -12.615  14.211  65.437  1.00  0.00    -0.466 C  
HETATM   10  N   UNL     1     -12.492  12.894  65.798  1.00  0.00    -0.372 N  
HETATM   11  O   UNL     1     -13.709  14.771  65.445  1.00  0.00     0.168 OA 
BRANCH   3  12
HETATM   12  C   UNL     1      -8.809  12.366  66.612  1.00  0.00    -0.156 A  
HETATM   13  C   UNL     1      -6.950  10.808  66.959  1.00  0.00    -0.100 A  
HETATM   14  N   UNL     1      -5.298  11.194  68.694  1.00  0.00    -0.043 NA 
HETATM   15  C   UNL     1      -7.184  12.688  68.412  1.00  0.00    -0.111 A  
HETATM   16  C   UNL     1      -8.343  13.077  67.732  1.00  0.00    -0.175 A  
HETATM   17  H2  UNL     1      -5.574  11.027  69.661  1.00  0.00     0.000 HD 
HETATM   18  H1  UNL     1      -4.745  10.398  68.376  1.00  0.00     0.000 HD 
HETATM   19  C   UNL     1      -8.108  11.194  66.273  1.00  0.00    -0.142 A  
HETATM   20  C   UNL     1      -6.430  11.601  67.978  1.00  0.00    -0.055 A  
ENDBRANCH   3  12
ENDBRANCH   2   3
TORSDOF 2
ENDMDL
MODEL      126
REMARK 921   NORMALIZED FREE ENERGY PREDICTED BY IDOCK:   -3.21 KCAL/MOL
REMARK 922        TOTAL FREE ENERGY PREDICTED BY IDOCK:   -3.91 KCAL/MOL
REMARK 923 INTER-LIGAND FREE ENERGY PREDICTED BY IDOCK:   -3.71 KCAL/MOL
REMARK 924 INTRA-LIGAND FREE ENERGY PREDICTED BY IDOCK:   -0.20 KCAL/MOL
REMARK 927      BINDING AFFINITY PREDICTED BY RF-SCORE:    0.00 PKD
ROOT
HETATM    1  C   UNL     1     -10.560   8.311  71.267  1.00  0.00    -0.269 C  
HETATM    2  C   UNL     1      -9.659   9.225  70.444  1.00  0.00    -0.292 C  
ENDROOT
BRANCH   2   3
HETATM    3  C   UNL     1      -9.934   9.228  68.902  1.00  0.00    -0.190 C  
HETATM    4  C   UNL     1     -11.230  10.014  68.559  1.00  0.00    -0.180 C  
HETATM    5  O   UNL     1      -7.784   9.518  67.722  1.00  0.00    -0.088 OA 
HETATM    6  C   UNL     1     -11.190  11.467  69.002  1.00  0.00    -0.319 C  
HETATM    7  C   UNL     1      -8.771  10.023  68.250  1.00  0.00    -0.119 C  
HETATM    8  H   UNL     1      -7.957  11.901  68.296  1.00  0.00     0.000 HD 
HETATM    9  C   UNL     1      -9.978  12.155  68.444  1.00  0.00    -0.206 C  
HETATM   10  N   UNL     1      -8.843  11.396  68.328  1.00  0.00    -0.162 N  
HETATM   11  O   UNL     1      -9.983  13.342  68.122  1.00  0.00    -0.223 OA 
BRANCH   3  12
HETATM   12  C   UNL     1      -9.993   7.766  68.389  1.00  0.00    -0.195 A  
HETATM   13  C   UNL     1     -10.849   6.127  66.782  1.00  0.00    -0.360 A  
HETATM   14  N   UNL     1      -9.921   3.888  66.660  1.00  0.00    -0.374 NA 
HETATM   15  C   UNL     1      -9.134   5.477  68.310  1.00  0.00    -0.113 A  
HETATM   16  C   UNL     1      -9.156   6.752  68.886  1.00  0.00    -0.133 A  
HETATM   17  H2  UNL     1     -10.159   3.232  67.404  1.00  0.00     0.000 HD 
HETATM   18  H1  UNL     1     -10.494   3.671  65.845  1.00  0.00     0.000 HD 
HETATM   19  C   UNL     1     -10.873   7.406  67.351  1.00  0.00    -0.299 A  
HETATM   20  C   UNL     1      -9.917   5.180  67.199  1.00  0.00    -0.191 A  
ENDBRANCH   3  12
ENDBRANCH   2   3
TORSDOF 2
ENDMDL
MODEL      127
REMARK 921   NORMALIZED FREE ENERGY PREDICTED BY IDOCK:   -3.20 KCAL/MOL
REMARK 922        TOTAL FREE ENERGY PREDICTED BY IDOCK:   -3.91 KCAL/MOL
REMARK 923 INTER-LIGAND FREE ENERGY PREDICTED BY IDOCK:   -4.12 KCAL/MOL
REMARK 924 INTRA-LIGAND FREE ENERGY PREDICTED BY IDOCK:    0.21 KCAL/MOL
REMARK 927      BINDING AFFINITY PREDICTED BY RF-SCORE:    0.00 PKD
ROOT
HETATM    1  C   UNL     1     -10.530   9.005  71.659  1.00  0.00    -0.426 C  
HETATM    2  C   UNL     1     -11.198   8.636  70.340  1.00  0.00    -0.236 C  
ENDROOT
BRANCH   2   3
HETATM    3  C   UNL     1     -10.244   8.567  69.099  1.00  0.00    -0.218 C  
HETATM    4  C   UNL     1      -8.752   8.513  69.534  1.00  0.00    -0.136 C  
HETATM    5  O   UNL     1     -11.252   7.068  67.416  1.00  0.00    -0.241 OA 
HETATM    6  C   UNL     1      -8.423   7.316  70.410  1.00  0.00    -0.139 C  
HETATM    7  C   UNL     1     -10.531   7.212  68.399  1.00  0.00    -0.197 C  
HETATM    8  H   UNL     1     -10.451   5.206  68.805  1.00  0.00     0.000 HD 
HETATM    9  C   UNL     1      -8.836   6.039  69.737  1.00  0.00    -0.134 C  
HETATM   10  N   UNL     1      -9.970   6.091  68.970  1.00  0.00    -0.149 N  
HETATM   11  O   UNL     1      -8.209   4.990  69.872  1.00  0.00    -0.073 OA 
BRANCH   3  12
HETATM   12  C   UNL     1     -10.528   9.772  68.166  1.00  0.00    -0.258 A  
HETATM   13  C   UNL     1     -10.269  10.861  65.987  1.00  0.00    -0.311 A  
HETATM   14  N   UNL     1     -11.573  12.822  65.402  1.00  0.00    -0.340 NA 
HETATM   15  C   UNL     1     -11.767  11.801  67.590  1.00  0.00    -0.320 A  
HETATM   16  C   UNL     1     -11.425  10.801  68.506  1.00  0.00    -0.362 A  
HETATM   17  H2  UNL     1     -11.322  13.709  65.837  1.00  0.00     0.000 HD 
HETATM   18  H1  UNL     1     -11.201  12.814  64.453  1.00  0.00     0.000 HD 
HETATM   19  C   UNL     1      -9.925   9.855  66.898  1.00  0.00    -0.268 A  
HETATM   20  C   UNL     1     -11.259  11.790  66.295  1.00  0.00    -0.312 A  
ENDBRANCH   3  12
ENDBRANCH   2   3
TORSDOF 2
ENDMDL
MODEL      128
REMARK 921   NORMALIZED FREE ENERGY PREDICTED BY IDOCK:   -3.20 KCAL/MOL
REMARK 922        TOTAL FREE ENERGY PREDICTED BY IDOCK:   -3.91 KCAL/MOL
REMARK 923 INTER-LIGAND FREE ENERGY PREDICTED BY IDOCK:   -3.98 KCAL/MOL
REMARK 924 INTRA-LIGAND FREE ENERGY PREDICTED BY IDOCK:    0.07 KCAL/MOL
REMARK 927      BINDING AFFINITY PREDICTED BY RF-SCORE:    0.00 PKD
ROOT
HETATM    1  C   UNL     1      -8.310   5.705  72.015  1.00  0.00    -0.122 C  
HETATM    2  C   UNL     1      -9.830   5.779  71.910  1.00  0.00    -0.195 C  
ENDROOT
BRANCH   2   3
HETATM    3  C   UNL     1     -10.382   6.332  70.552  1.00  0.00    -0.255 C  
HETATM    4  C   UNL     1     -11.907   6.624  70.637  1.00  0.00    -0.443 C  
HETATM    5  O   UNL     1      -8.722   7.897  69.609  1.00  0.00    -0.133 OA 
HETATM    6  C   UNL     1     -12.267   7.642  71.707  1.00  0.00    -0.341 C  
HETATM    7  C   UNL     1      -9.700   7.707  70.327  1.00  0.00    -0.179 C  
HETATM    8  H   UNL     1      -9.563   9.540  71.231  1.00  0.00     0.000 HD 
HETATM    9  C   UNL     1     -11.485   8.909  71.514  1.00  0.00    -0.321 C  
HETATM   10  N   UNL     1     -10.207   8.772  71.038  1.00  0.00    -0.218 N  
HETATM   11  O   UNL     1     -11.947  10.016  71.783  1.00  0.00    -0.354 OA 
BRANCH   3  12
HETATM   12  C   UNL     1     -10.051   5.329  69.417  1.00  0.00    -0.311 A  
HETATM   13  C   UNL     1      -9.608   3.031  68.695  1.00  0.00    -0.094 A  
HETATM   14  N   UNL     1      -9.538   2.448  66.340  1.00  0.00    -0.359 NA 
HETATM   15  C   UNL     1      -9.887   4.738  67.050  1.00  0.00    -0.224 A  
HETATM   16  C   UNL     1     -10.053   5.692  68.059  1.00  0.00    -0.211 A  
HETATM   17  H2  UNL     1      -8.723   2.738  65.800  1.00  0.00     0.000 HD 
HETATM   18  H1  UNL     1      -9.438   1.458  66.565  1.00  0.00     0.000 HD 
HETATM   19  C   UNL     1      -9.777   3.980  69.709  1.00  0.00    -0.254 A  
HETATM   20  C   UNL     1      -9.750   3.387  67.356  1.00  0.00     0.037 A  
ENDBRANCH   3  12
ENDBRANCH   2   3
TORSDOF 2
ENDMDL
MODEL      129
REMARK 921   NORMALIZED FREE ENERGY PREDICTED BY IDOCK:   -3.10 KCAL/MOL
REMARK 922        TOTAL FREE ENERGY PREDICTED BY IDOCK:   -3.79 KCAL/MOL
REMARK 923 INTER-LIGAND FREE ENERGY PREDICTED BY IDOCK:   -4.29 KCAL/MOL
REMARK 924 INTRA-LIGAND FREE ENERGY PREDICTED BY IDOCK:    0.49 KCAL/MOL
REMARK 927      BINDING AFFINITY PREDICTED BY RF-SCORE:    0.00 PKD
ROOT
HETATM    1  C   UNL     1      -9.810  11.894  66.919  1.00  0.00    -0.217 C  
HETATM    2  C   UNL     1     -10.954  12.816  67.326  1.00  0.00    -0.294 C  
ENDROOT
BRANCH   2   3
HETATM    3  C   UNL     1     -10.847  13.426  68.764  1.00  0.00    -0.275 C  
HETATM    4  C   UNL     1      -9.364  13.593  69.200  1.00  0.00     0.431 C  
HETATM    5  O   UNL     1     -12.567  15.181  69.002  1.00  0.00     0.043 OA 
HETATM    6  C   UNL     1      -8.563  14.496  68.278  1.00  0.00    -0.171 C  
HETATM    7  C   UNL     1     -11.427  14.863  68.676  1.00  0.00    -0.306 C  
HETATM    8  H   UNL     1     -11.066  16.627  67.700  1.00  0.00     0.000 HD 
HETATM    9  C   UNL     1      -9.235  15.830  68.130  1.00  0.00    -0.189 C  
HETATM   10  N   UNL     1     -10.605  15.829  68.138  1.00  0.00    -0.266 N  
HETATM   11  O   UNL     1      -8.603  16.875  67.989  1.00  0.00    -0.204 OA 
BRANCH   3  12
HETATM   12  C   UNL     1     -11.643  12.541  69.757  1.00  0.00    -0.291 A  
HETATM   13  C   UNL     1     -12.225  10.317  70.602  1.00  0.00    -0.422 A  
HETATM   14  N   UNL     1     -13.460  10.046  72.674  1.00  0.00    -0.518 NA 
HETATM   15  C   UNL     1     -12.964  12.248  71.795  1.00  0.00    -0.431 A  
HETATM   16  C   UNL     1     -12.371  13.075  70.836  1.00  0.00    -0.376 A  
HETATM   17  H2  UNL     1     -14.456  10.267  72.669  1.00  0.00     0.000 HD 
HETATM   18  H1  UNL     1     -13.356   9.033  72.630  1.00  0.00     0.000 HD 
HETATM   19  C   UNL     1     -11.626  11.139  69.641  1.00  0.00    -0.398 A  
HETATM   20  C   UNL     1     -12.823  10.865  71.734  1.00  0.00    -0.404 A  
ENDBRANCH   3  12
ENDBRANCH   2   3
TORSDOF 2
ENDMDL
MODEL      130
REMARK 921   NORMALIZED FREE ENERGY PREDICTED BY IDOCK:   -3.08 KCAL/MOL
REMARK 922        TOTAL FREE ENERGY PREDICTED BY IDOCK:   -3.77 KCAL/MOL
REMARK 923 INTER-LIGAND FREE ENERGY PREDICTED BY IDOCK:   -4.29 KCAL/MOL
REMARK 924 INTRA-LIGAND FREE ENERGY PREDICTED BY IDOCK:    0.52 KCAL/MOL
REMARK 927      BINDING AFFINITY PREDICTED BY RF-SCORE:    0.00 PKD
ROOT
HETATM    1  C   UNL     1      -8.112   9.994  69.636  1.00  0.00    -0.180 C  
HETATM    2  C   UNL     1      -9.041  10.991  68.952  1.00  0.00    -0.132 C  
ENDROOT
BRANCH   2   3
HETATM    3  C   UNL     1     -10.518  10.506  68.754  1.00  0.00    -0.216 C  
HETATM    4  C   UNL     1     -11.525  11.447  69.473  1.00  0.00    -0.381 C  
HETATM    5  O   UNL     1     -10.778   9.715  66.429  1.00  0.00    -0.075 OA 
HETATM    6  C   UNL     1     -11.463  12.884  68.983  1.00  0.00    -0.358 C  
HETATM    7  C   UNL     1     -10.823  10.638  67.238  1.00  0.00    -0.287 C  
HETATM    8  H   UNL     1     -10.908  12.084  65.790  1.00  0.00     0.000 HD 
HETATM    9  C   UNL     1     -11.640  12.942  67.493  1.00  0.00    -0.356 C  
HETATM   10  N   UNL     1     -11.111  11.902  66.773  1.00  0.00    -0.292 N  
HETATM   11  O   UNL     1     -12.212  13.875  66.932  1.00  0.00    -0.424 OA 
BRANCH   3  12
HETATM   12  C   UNL     1     -10.647   9.041  69.244  1.00  0.00    -0.226 A  
HETATM   13  C   UNL     1     -10.204   6.656  68.907  1.00  0.00    -0.195 A  
HETATM   14  N   UNL     1     -10.592   5.046  70.681  1.00  0.00    -0.152 NA 
HETATM   15  C   UNL     1     -11.116   7.391  70.987  1.00  0.00    -0.277 A  
HETATM   16  C   UNL     1     -11.139   8.708  70.519  1.00  0.00    -0.268 A  
HETATM   17  H2  UNL     1     -11.557   4.800  70.900  1.00  0.00     0.000 HD 
HETATM   18  H1  UNL     1     -10.190   4.296  70.118  1.00  0.00     0.000 HD 
HETATM   19  C   UNL     1     -10.221   7.973  68.434  1.00  0.00    -0.239 A  
HETATM   20  C   UNL     1     -10.568   6.367  70.220  1.00  0.00    -0.237 A  
ENDBRANCH   3  12
ENDBRANCH   2   3
TORSDOF 2
ENDMDL
MODEL      131
REMARK 921   NORMALIZED FREE ENERGY PREDICTED BY IDOCK:   -3.07 KCAL/MOL
REMARK 922        TOTAL FREE ENERGY PREDICTED BY IDOCK:   -3.77 KCAL/MOL
REMARK 923 INTER-LIGAND FREE ENERGY PREDICTED BY IDOCK:   -3.38 KCAL/MOL
REMARK 924 INTRA-LIGAND FREE ENERGY PREDICTED BY IDOCK:   -0.39 KCAL/MOL
REMARK 927      BINDING AFFINITY PREDICTED BY RF-SCORE:    0.00 PKD
ROOT
HETATM    1  C   UNL     1     -11.697   6.700  69.929  1.00  0.00    -0.333 C  
HETATM    2  C   UNL     1     -10.282   7.223  69.705  1.00  0.00    -0.214 C  
ENDROOT
BRANCH   2   3
HETATM    3  C   UNL     1      -9.769   7.158  68.226  1.00  0.00    -0.148 C  
HETATM    4  C   UNL     1     -10.650   8.023  67.282  1.00  0.00    -0.360 C  
HETATM    5  O   UNL     1      -7.300   7.208  68.250  1.00  0.00    -0.094 OA 
HETATM    6  C   UNL     1     -10.689   9.492  67.671  1.00  0.00    -0.314 C  
HETATM    7  C   UNL     1      -8.365   7.819  68.219  1.00  0.00    -0.125 C  
HETATM    8  H   UNL     1      -7.497   9.627  68.638  1.00  0.00     0.000 HD 
HETATM    9  C   UNL     1      -9.298  10.048  67.772  1.00  0.00    -0.140 C  
HETATM   10  N   UNL     1      -8.331   9.196  68.236  1.00  0.00    -0.119 N  
HETATM   11  O   UNL     1      -9.030  11.211  67.474  1.00  0.00    -0.138 OA 
BRANCH   3  12
HETATM   12  C   UNL     1      -9.713   5.679  67.767  1.00  0.00    -0.140 A  
HETATM   13  C   UNL     1      -9.866   4.019  65.971  1.00  0.00    -0.177 A  
HETATM   14  N   UNL     1      -9.192   1.716  66.331  1.00  0.00    -0.315 NA 
HETATM   15  C   UNL     1      -9.123   3.333  68.133  1.00  0.00    -0.214 A  
HETATM   16  C   UNL     1      -9.296   4.636  68.613  1.00  0.00    -0.193 A  
HETATM   17  H2  UNL     1      -9.805   1.121  66.887  1.00  0.00     0.000 HD 
HETATM   18  H1  UNL     1      -9.338   1.496  65.346  1.00  0.00     0.000 HD 
HETATM   19  C   UNL     1     -10.038   5.325  66.444  1.00  0.00    -0.257 A  
HETATM   20  C   UNL     1      -9.323   3.032  66.790  1.00  0.00    -0.094 A  
ENDBRANCH   3  12
ENDBRANCH   2   3
TORSDOF 2
ENDMDL
MODEL      132
REMARK 921   NORMALIZED FREE ENERGY PREDICTED BY IDOCK:   -3.06 KCAL/MOL
REMARK 922        TOTAL FREE ENERGY PREDICTED BY IDOCK:   -3.75 KCAL/MOL
REMARK 923 INTER-LIGAND FREE ENERGY PREDICTED BY IDOCK:   -3.82 KCAL/MOL
REMARK 924 INTRA-LIGAND FREE ENERGY PREDICTED BY IDOCK:    0.07 KCAL/MOL
REMARK 927      BINDING AFFINITY PREDICTED BY RF-SCORE:    0.00 PKD
ROOT
HETATM    1  C   UNL     1     -12.443  11.223  69.491  1.00  0.00    -0.127 C  
HETATM    2  C   UNL     1     -10.998  11.689  69.633  1.00  0.00    -0.097 C  
ENDROOT
BRANCH   2   3
HETATM    3  C   UNL     1     -10.093  11.466  68.374  1.00  0.00    -0.207 C  
HETATM    4  C   UNL     1      -8.617  11.195  68.778  1.00  0.00    -0.133 C  
HETATM    5  O   UNL     1     -11.352  10.118  66.733  1.00  0.00     0.028 OA 
HETATM    6  C   UNL     1      -8.449   9.971  69.663  1.00  0.00    -0.193 C  
HETATM    7  C   UNL     1     -10.594  10.163  67.699  1.00  0.00    -0.265 C  
HETATM    8  H   UNL     1     -10.805   8.171  68.130  1.00  0.00     0.000 HD 
HETATM    9  C   UNL     1      -9.063   8.763  69.016  1.00  0.00    -0.141 C  
HETATM   10  N   UNL     1     -10.194   8.976  68.273  1.00  0.00    -0.197 N  
HETATM   11  O   UNL     1      -8.596   7.634  69.152  1.00  0.00    -0.137 OA 
BRANCH   3  12
HETATM   12  C   UNL     1     -10.217  12.690  67.431  1.00  0.00    -0.219 A  
HETATM   13  C   UNL     1     -11.597  14.439  66.412  1.00  0.00    -0.383 A  
HETATM   14  N   UNL     1     -10.590  16.279  65.192  1.00  0.00    -0.638 NA 
HETATM   15  C   UNL     1      -9.228  14.504  66.120  1.00  0.00    -0.175 A  
HETATM   16  C   UNL     1      -9.099  13.320  66.854  1.00  0.00    -0.235 A  
HETATM   17  H2  UNL     1     -10.211  16.087  64.265  1.00  0.00     0.000 HD 
HETATM   18  H1  UNL     1     -11.497  16.731  65.080  1.00  0.00     0.000 HD 
HETATM   19  C   UNL     1     -11.474  13.257  67.151  1.00  0.00    -0.380 A  
HETATM   20  C   UNL     1     -10.467  15.120  65.967  1.00  0.00    -0.319 A  
ENDBRANCH   3  12
ENDBRANCH   2   3
TORSDOF 2
ENDMDL
MODEL      133
REMARK 921   NORMALIZED FREE ENERGY PREDICTED BY IDOCK:   -3.05 KCAL/MOL
REMARK 922        TOTAL FREE ENERGY PREDICTED BY IDOCK:   -3.74 KCAL/MOL
REMARK 923 INTER-LIGAND FREE ENERGY PREDICTED BY IDOCK:   -3.35 KCAL/MOL
REMARK 924 INTRA-LIGAND FREE ENERGY PREDICTED BY IDOCK:   -0.39 KCAL/MOL
REMARK 927      BINDING AFFINITY PREDICTED BY RF-SCORE:    0.00 PKD
ROOT
HETATM    1  C   UNL     1      -7.476   8.178  69.936  1.00  0.00    -0.069 C  
HETATM    2  C   UNL     1      -8.076   8.887  68.727  1.00  0.00    -0.114 C  
ENDROOT
BRANCH   2   3
HETATM    3  C   UNL     1      -9.565   8.520  68.404  1.00  0.00    -0.157 C  
HETATM    4  C   UNL     1     -10.458   8.607  69.674  1.00  0.00    -0.220 C  
HETATM    5  O   UNL     1     -10.160   9.508  66.221  1.00  0.00    -0.269 OA 
HETATM    6  C   UNL     1     -10.471   9.988  70.308  1.00  0.00    -0.331 C  
HETATM    7  C   UNL     1     -10.089   9.619  67.442  1.00  0.00    -0.204 C  
HETATM    8  H   UNL     1     -10.387  11.645  67.413  1.00  0.00     0.000 HD 
HETATM    9  C   UNL     1     -10.864  11.029  69.300  1.00  0.00    -0.238 C  
HETATM   10  N   UNL     1     -10.443  10.822  68.013  1.00  0.00    -0.183 N  
HETATM   11  O   UNL     1     -11.513  12.028  69.603  1.00  0.00    -0.283 OA 
BRANCH   3  12
HETATM   12  C   UNL     1      -9.618   7.112  67.758  1.00  0.00    -0.146 A  
HETATM   13  C   UNL     1      -8.600   5.411  66.320  1.00  0.00    -0.122 A  
HETATM   14  N   UNL     1      -9.462   3.143  66.257  1.00  0.00    -0.370 NA 
HETATM   15  C   UNL     1     -10.526   4.846  67.612  1.00  0.00    -0.013 A  
HETATM   16  C   UNL     1     -10.585   6.153  68.107  1.00  0.00    -0.328 A  
HETATM   17  H2  UNL     1     -10.342   2.980  65.768  1.00  0.00     0.000 HD 
HETATM   18  H1  UNL     1      -8.698   2.846  65.650  1.00  0.00     0.000 HD 
HETATM   19  C   UNL     1      -8.651   6.719  66.815  1.00  0.00    -0.119 A  
HETATM   20  C   UNL     1      -9.485   4.440  66.783  1.00  0.00    -0.180 A  
ENDBRANCH   3  12
ENDBRANCH   2   3
TORSDOF 2
ENDMDL
MODEL      134
REMARK 921   NORMALIZED FREE ENERGY PREDICTED BY IDOCK:   -3.00 KCAL/MOL
REMARK 922        TOTAL FREE ENERGY PREDICTED BY IDOCK:   -3.68 KCAL/MOL
REMARK 923 INTER-LIGAND FREE ENERGY PREDICTED BY IDOCK:   -3.41 KCAL/MOL
REMARK 924 INTRA-LIGAND FREE ENERGY PREDICTED BY IDOCK:   -0.28 KCAL/MOL
REMARK 927      BINDING AFFINITY PREDICTED BY RF-SCORE:    0.00 PKD
ROOT
HETATM    1  C   UNL     1      -9.663   9.450  70.456  1.00  0.00    -0.331 C  
HETATM    2  C   UNL     1      -8.942  10.454  69.563  1.00  0.00    -0.127 C  
ENDROOT
BRANCH   2   3
HETATM    3  C   UNL     1      -9.603  10.707  68.166  1.00  0.00    -0.165 C  
HETATM    4  C   UNL     1     -11.146  10.529  68.228  1.00  0.00    -0.340 C  
HETATM    5  O   UNL     1      -8.472  12.624  67.098  1.00  0.00    -0.184 OA 
HETATM    6  C   UNL     1     -11.823  11.468  69.212  1.00  0.00    -0.414 C  
HETATM    7  C   UNL     1      -9.363  12.202  67.830  1.00  0.00    -0.192 C  
HETATM    8  H   UNL     1      -9.809  14.054  68.583  1.00  0.00     0.000 HD 
HETATM    9  C   UNL     1     -11.456  12.894  68.918  1.00  0.00    -0.304 C  
HETATM   10  N   UNL     1     -10.185  13.115  68.454  1.00  0.00    -0.248 N  
HETATM   11  O   UNL     1     -12.237  13.827  69.096  1.00  0.00    -0.344 OA 
BRANCH   3  12
HETATM   12  C   UNL     1      -8.957   9.768  67.115  1.00  0.00    -0.148 A  
HETATM   13  C   UNL     1      -7.164   8.221  66.486  1.00  0.00    -0.076 A  
HETATM   14  N   UNL     1      -7.319   6.874  64.474  1.00  0.00    -0.084 NA 
HETATM   15  C   UNL     1      -9.051   8.468  65.045  1.00  0.00     0.095 A  
HETATM   16  C   UNL     1      -9.595   9.424  65.910  1.00  0.00    -0.338 A  
HETATM   17  H2  UNL     1      -7.185   7.340  63.576  1.00  0.00     0.000 HD 
HETATM   18  H1  UNL     1      -6.458   6.382  64.710  1.00  0.00     0.000 HD 
HETATM   19  C   UNL     1      -7.704   9.175  67.357  1.00  0.00    -0.092 A  
HETATM   20  C   UNL     1      -7.876   7.796  65.368  1.00  0.00    -0.114 A  
ENDBRANCH   3  12
ENDBRANCH   2   3
TORSDOF 2
ENDMDL
MODEL      135
REMARK 921   NORMALIZED FREE ENERGY PREDICTED BY IDOCK:   -2.98 KCAL/MOL
REMARK 922        TOTAL FREE ENERGY PREDICTED BY IDOCK:   -3.67 KCAL/MOL
REMARK 923 INTER-LIGAND FREE ENERGY PREDICTED BY IDOCK:   -3.51 KCAL/MOL
REMARK 924 INTRA-LIGAND FREE ENERGY PREDICTED BY IDOCK:   -0.16 KCAL/MOL
REMARK 927      BINDING AFFINITY PREDICTED BY RF-SCORE:    0.00 PKD
ROOT
HETATM    1  C   UNL     1      -7.367   6.622  70.311  1.00  0.00    -0.085 C  
HETATM    2  C   UNL     1      -8.624   6.346  69.493  1.00  0.00    -0.133 C  
ENDROOT
BRANCH   2   3
HETATM    3  C   UNL     1      -9.542   7.588  69.231  1.00  0.00    -0.158 C  
HETATM    4  C   UNL     1     -11.043   7.237  69.434  1.00  0.00    -0.092 C  
HETATM    5  O   UNL     1      -8.446   9.586  70.180  1.00  0.00    -0.171 OA 
HETATM    6  C   UNL     1     -11.362   6.741  70.835  1.00  0.00    -0.363 C  
HETATM    7  C   UNL     1      -9.198   8.627  70.331  1.00  0.00    -0.170 C  
HETATM    8  H   UNL     1      -9.232   8.799  72.371  1.00  0.00     0.000 HD 
HETATM    9  C   UNL     1     -10.895   7.728  71.864  1.00  0.00    -0.235 C  
HETATM   10  N   UNL     1      -9.742   8.411  71.578  1.00  0.00    -0.190 N  
HETATM   11  O   UNL     1     -11.495   7.912  72.922  1.00  0.00    -0.403 OA 
BRANCH   3  12
HETATM   12  C   UNL     1      -9.266   8.138  67.809  1.00  0.00    -0.143 A  
HETATM   13  C   UNL     1      -8.060   7.982  65.682  1.00  0.00    -0.121 A  
HETATM   14  N   UNL     1      -8.722   9.313  63.765  1.00  0.00    -0.331 NA 
HETATM   15  C   UNL     1      -9.860   9.536  65.891  1.00  0.00    -0.360 A  
HETATM   16  C   UNL     1     -10.042   9.156  67.225  1.00  0.00    -0.295 A  
HETATM   17  H2  UNL     1      -8.502  10.309  63.776  1.00  0.00     0.000 HD 
HETATM   18  H1  UNL     1      -8.038   8.841  63.173  1.00  0.00     0.000 HD 
HETATM   19  C   UNL     1      -8.240   7.594  67.015  1.00  0.00    -0.117 A  
HETATM   20  C   UNL     1      -8.926   8.893  65.084  1.00  0.00    -0.137 A  
ENDBRANCH   3  12
ENDBRANCH   2   3
TORSDOF 2
ENDMDL
MODEL      136
REMARK 921   NORMALIZED FREE ENERGY PREDICTED BY IDOCK:   -2.94 KCAL/MOL
REMARK 922        TOTAL FREE ENERGY PREDICTED BY IDOCK:   -3.62 KCAL/MOL
REMARK 923 INTER-LIGAND FREE ENERGY PREDICTED BY IDOCK:   -3.23 KCAL/MOL
REMARK 924 INTRA-LIGAND FREE ENERGY PREDICTED BY IDOCK:   -0.39 KCAL/MOL
REMARK 927      BINDING AFFINITY PREDICTED BY RF-SCORE:    0.00 PKD
ROOT
HETATM    1  C   UNL     1      -8.284   8.286  73.153  1.00  0.00    -0.233 C  
HETATM    2  C   UNL     1      -8.593   7.850  71.725  1.00  0.00    -0.151 C  
ENDROOT
BRANCH   2   3
HETATM    3  C   UNL     1      -9.933   7.059  71.540  1.00  0.00    -0.187 C  
HETATM    4  C   UNL     1     -11.093   7.715  72.341  1.00  0.00    -0.362 C  
HETATM    5  O   UNL     1     -10.105   6.348  69.182  1.00  0.00    -0.153 OA 
HETATM    6  C   UNL     1     -11.370   9.152  71.933  1.00  0.00    -0.416 C  
HETATM    7  C   UNL     1     -10.320   7.196  70.044  1.00  0.00    -0.208 C  
HETATM    8  H   UNL     1     -10.780   8.658  68.686  1.00  0.00     0.000 HD 
HETATM    9  C   UNL     1     -11.615   9.244  70.455  1.00  0.00    -0.173 C  
HETATM   10  N   UNL     1     -10.898   8.387  69.662  1.00  0.00    -0.195 N  
HETATM   11  O   UNL     1     -12.401  10.054  69.965  1.00  0.00    -0.084 OA 
BRANCH   3  12
HETATM   12  C   UNL     1      -9.716   5.580  71.949  1.00  0.00    -0.197 A  
HETATM   13  C   UNL     1      -8.218   3.657  72.198  1.00  0.00    -0.072 A  
HETATM   14  N   UNL     1      -8.917   1.671  73.404  1.00  0.00    -0.065 NA 
HETATM   15  C   UNL     1     -10.432   3.534  73.083  1.00  0.00    -0.258 A  
HETATM   16  C   UNL     1     -10.702   4.820  72.603  1.00  0.00    -0.263 A  
HETATM   17  H2  UNL     1      -9.585   1.048  72.952  1.00  0.00     0.000 HD 
HETATM   18  H1  UNL     1      -7.987   1.263  73.316  1.00  0.00     0.000 HD 
HETATM   19  C   UNL     1      -8.481   4.946  71.718  1.00  0.00    -0.124 A  
HETATM   20  C   UNL     1      -9.163   2.976  72.961  1.00  0.00    -0.090 A  
ENDBRANCH   3  12
ENDBRANCH   2   3
TORSDOF 2
ENDMDL
MODEL      137
REMARK 921   NORMALIZED FREE ENERGY PREDICTED BY IDOCK:   -2.86 KCAL/MOL
REMARK 922        TOTAL FREE ENERGY PREDICTED BY IDOCK:   -3.53 KCAL/MOL
REMARK 923 INTER-LIGAND FREE ENERGY PREDICTED BY IDOCK:   -3.12 KCAL/MOL
REMARK 924 INTRA-LIGAND FREE ENERGY PREDICTED BY IDOCK:   -0.41 KCAL/MOL
REMARK 927      BINDING AFFINITY PREDICTED BY RF-SCORE:    0.00 PKD
ROOT
HETATM    1  C   UNL     1      -7.386   7.870  69.365  1.00  0.00    -0.081 C  
HETATM    2  C   UNL     1      -8.709   7.226  68.962  1.00  0.00    -0.132 C  
ENDROOT
BRANCH   2   3
HETATM    3  C   UNL     1      -8.939   7.073  67.420  1.00  0.00    -0.117 C  
HETATM    4  C   UNL     1      -7.772   6.297  66.747  1.00  0.00    -0.100 C  
HETATM    5  O   UNL     1     -11.329   6.596  67.027  1.00  0.00    -0.348 OA 
HETATM    6  C   UNL     1      -7.578   4.897  67.304  1.00  0.00    -0.087 C  
HETATM    7  C   UNL     1     -10.195   6.179  67.250  1.00  0.00    -0.191 C  
HETATM    8  H   UNL     1     -10.833   4.291  67.720  1.00  0.00     0.000 HD 
HETATM    9  C   UNL     1      -8.859   4.117  67.230  1.00  0.00    -0.116 C  
HETATM   10  N   UNL     1     -10.017   4.824  67.421  1.00  0.00    -0.175 N  
HETATM   11  O   UNL     1      -8.881   2.904  67.028  1.00  0.00    -0.123 OA 
BRANCH   3  12
HETATM   12  C   UNL     1      -9.137   8.475  66.789  1.00  0.00    -0.186 A  
HETATM   13  C   UNL     1      -9.865  10.804  67.009  1.00  0.00    -0.221 A  
HETATM   14  N   UNL     1      -9.355  12.444  65.294  1.00  0.00    -0.429 NA 
HETATM   15  C   UNL     1      -8.712  10.123  65.032  1.00  0.00    -0.190 A  
HETATM   16  C   UNL     1      -8.640   8.813  65.518  1.00  0.00    -0.198 A  
HETATM   17  H2  UNL     1      -9.878  12.399  64.420  1.00  0.00     0.000 HD 
HETATM   18  H1  UNL     1      -9.746  13.194  65.863  1.00  0.00     0.000 HD 
HETATM   19  C   UNL     1      -9.793   9.496  67.502  1.00  0.00    -0.213 A  
HETATM   20  C   UNL     1      -9.247  11.147  65.809  1.00  0.00    -0.215 A  
ENDBRANCH   3  12
ENDBRANCH   2   3
TORSDOF 2
ENDMDL
MODEL      138
REMARK 921   NORMALIZED FREE ENERGY PREDICTED BY IDOCK:   -2.86 KCAL/MOL
REMARK 922        TOTAL FREE ENERGY PREDICTED BY IDOCK:   -3.53 KCAL/MOL
REMARK 923 INTER-LIGAND FREE ENERGY PREDICTED BY IDOCK:   -3.70 KCAL/MOL
REMARK 924 INTRA-LIGAND FREE ENERGY PREDICTED BY IDOCK:    0.17 KCAL/MOL
REMARK 927      BINDING AFFINITY PREDICTED BY RF-SCORE:    0.00 PKD
ROOT
HETATM    1  C   UNL     1     -12.688  11.002  69.997  1.00  0.00    -0.157 C  
HETATM    2  C   UNL     1     -11.332  10.463  70.443  1.00  0.00    -0.417 C  
ENDROOT
BRANCH   2   3
HETATM    3  C   UNL     1     -10.475   9.788  69.319  1.00  0.00    -0.236 C  
HETATM    4  C   UNL     1     -11.131   9.968  67.921  1.00  0.00    -0.260 C  
HETATM    5  O   UNL     1      -8.089  10.205  69.795  1.00  0.00    -0.168 OA 
HETATM    6  C   UNL     1     -11.311  11.423  67.523  1.00  0.00    -0.362 C  
HETATM    7  C   UNL     1      -9.135  10.566  69.262  1.00  0.00    -0.145 C  
HETATM    8  H   UNL     1      -8.454  12.464  68.898  1.00  0.00     0.000 HD 
HETATM    9  C   UNL     1     -10.006  12.159  67.606  1.00  0.00    -0.197 C  
HETATM   10  N   UNL     1      -9.151  11.778  68.607  1.00  0.00    -0.124 N  
HETATM   11  O   UNL     1      -9.713  13.071  66.834  1.00  0.00    -0.225 OA 
BRANCH   3  12
HETATM   12  C   UNL     1     -10.261   8.292  69.667  1.00  0.00    -0.209 A  
HETATM   13  C   UNL     1     -10.295   6.483  71.319  1.00  0.00    -0.234 A  
HETATM   14  N   UNL     1     -10.092   4.162  70.641  1.00  0.00    -0.106 NA 
HETATM   15  C   UNL     1      -9.967   5.953  69.014  1.00  0.00    -0.211 A  
HETATM   16  C   UNL     1     -10.019   7.312  68.687  1.00  0.00    -0.169 A  
HETATM   17  H2  UNL     1      -9.174   3.829  70.346  1.00  0.00     0.000 HD 
HETATM   18  H1  UNL     1     -10.256   3.845  71.596  1.00  0.00     0.000 HD 
HETATM   19  C   UNL     1     -10.351   7.845  70.997  1.00  0.00    -0.221 A  
HETATM   20  C   UNL     1     -10.191   5.521  70.318  1.00  0.00    -0.255 A  
ENDBRANCH   3  12
ENDBRANCH   2   3
TORSDOF 2
ENDMDL
MODEL      139
REMARK 921   NORMALIZED FREE ENERGY PREDICTED BY IDOCK:   -2.85 KCAL/MOL
REMARK 922        TOTAL FREE ENERGY PREDICTED BY IDOCK:   -3.52 KCAL/MOL
REMARK 923 INTER-LIGAND FREE ENERGY PREDICTED BY IDOCK:   -3.46 KCAL/MOL
REMARK 924 INTRA-LIGAND FREE ENERGY PREDICTED BY IDOCK:   -0.06 KCAL/MOL
REMARK 927      BINDING AFFINITY PREDICTED BY RF-SCORE:    0.00 PKD
ROOT
HETATM    1  C   UNL     1     -11.553   6.349  69.933  1.00  0.00    -0.422 C  
HETATM    2  C   UNL     1     -10.257   5.653  69.533  1.00  0.00    -0.320 C  
ENDROOT
BRANCH   2   3
HETATM    3  C   UNL     1      -9.432   6.364  68.407  1.00  0.00    -0.119 C  
HETATM    4  C   UNL     1      -8.490   5.366  67.677  1.00  0.00    -0.105 C  
HETATM    5  O   UNL     1     -10.908   7.972  67.252  1.00  0.00    -0.261 OA 
HETATM    6  C   UNL     1      -9.227   4.210  67.021  1.00  0.00    -0.173 C  
HETATM    7  C   UNL     1     -10.459   6.833  67.341  1.00  0.00    -0.262 C  
HETATM    8  H   UNL     1     -11.855   6.035  66.073  1.00  0.00     0.000 HD 
HETATM    9  C   UNL     1     -10.293   4.721  66.095  1.00  0.00    -0.300 C  
HETATM   10  N   UNL     1     -10.932   5.872  66.474  1.00  0.00    -0.178 N  
HETATM   11  O   UNL     1     -10.599   4.138  65.057  1.00  0.00    -0.240 OA 
BRANCH   3  12
HETATM   12  C   UNL     1      -8.649   7.554  69.018  1.00  0.00    -0.136 A  
HETATM   13  C   UNL     1      -8.133   8.972  70.947  1.00  0.00    -0.203 A  
HETATM   14  N   UNL     1      -6.272  10.529  70.897  1.00  0.00    -0.338 NA 
HETATM   15  C   UNL     1      -6.835   9.193  68.956  1.00  0.00    -0.055 A  
HETATM   16  C   UNL     1      -7.616   8.216  68.330  1.00  0.00    -0.105 A  
HETATM   17  H2  UNL     1      -6.375  11.379  70.343  1.00  0.00     0.000 HD 
HETATM   18  H1  UNL     1      -6.414  10.766  71.878  1.00  0.00     0.000 HD 
HETATM   19  C   UNL     1      -8.916   7.991  70.328  1.00  0.00    -0.147 A  
HETATM   20  C   UNL     1      -7.030   9.517  70.295  1.00  0.00    -0.099 A  
ENDBRANCH   3  12
ENDBRANCH   2   3
TORSDOF 2
ENDMDL
MODEL      140
REMARK 921   NORMALIZED FREE ENERGY PREDICTED BY IDOCK:   -2.81 KCAL/MOL
REMARK 922        TOTAL FREE ENERGY PREDICTED BY IDOCK:   -3.47 KCAL/MOL
REMARK 923 INTER-LIGAND FREE ENERGY PREDICTED BY IDOCK:   -3.06 KCAL/MOL
REMARK 924 INTRA-LIGAND FREE ENERGY PREDICTED BY IDOCK:   -0.41 KCAL/MOL
REMARK 927      BINDING AFFINITY PREDICTED BY RF-SCORE:    0.00 PKD
ROOT
HETATM    1  C   UNL     1      -9.449   9.495  70.441  1.00  0.00    -0.317 C  
HETATM    2  C   UNL     1      -8.833  10.170  69.220  1.00  0.00    -0.191 C  
ENDROOT
BRANCH   2   3
HETATM    3  C   UNL     1      -9.298   9.604  67.835  1.00  0.00    -0.141 C  
HETATM    4  C   UNL     1     -10.836   9.384  67.799  1.00  0.00    -0.223 C  
HETATM    5  O   UNL     1      -8.019  10.742  66.055  1.00  0.00    -0.156 OA 
HETATM    6  C   UNL     1     -11.633  10.654  68.046  1.00  0.00    -0.182 C  
HETATM    7  C   UNL     1      -9.004  10.711  66.788  1.00  0.00    -0.138 C  
HETATM    8  H   UNL     1      -9.535  12.648  66.384  1.00  0.00     0.000 HD 
HETATM    9  C   UNL     1     -11.220  11.732  67.086  1.00  0.00    -0.316 C  
HETATM   10  N   UNL     1      -9.897  11.759  66.729  1.00  0.00    -0.196 N  
HETATM   11  O   UNL     1     -12.012  12.565  66.648  1.00  0.00    -0.527 OA 
BRANCH   3  12
HETATM   12  C   UNL     1      -8.522   8.298  67.528  1.00  0.00    -0.130 A  
HETATM   13  C   UNL     1      -8.355   6.179  66.309  1.00  0.00    -0.124 A  
HETATM   14  N   UNL     1      -6.300   4.888  66.316  1.00  0.00    -0.035 NA 
HETATM   15  C   UNL     1      -6.491   6.936  67.595  1.00  0.00    -0.050 A  
HETATM   16  C   UNL     1      -7.219   8.060  68.000  1.00  0.00    -0.094 A  
HETATM   17  H2  UNL     1      -6.060   4.378  67.166  1.00  0.00     0.000 HD 
HETATM   18  H1  UNL     1      -6.688   4.226  65.644  1.00  0.00     0.000 HD 
HETATM   19  C   UNL     1      -9.087   7.304  66.708  1.00  0.00    -0.172 A  
HETATM   20  C   UNL     1      -7.020   6.032  66.679  1.00  0.00    -0.067 A  
ENDBRANCH   3  12
ENDBRANCH   2   3
TORSDOF 2
ENDMDL
MODEL      141
REMARK 921   NORMALIZED FREE ENERGY PREDICTED BY IDOCK:   -2.75 KCAL/MOL
REMARK 922        TOTAL FREE ENERGY PREDICTED BY IDOCK:   -3.40 KCAL/MOL
REMARK 923 INTER-LIGAND FREE ENERGY PREDICTED BY IDOCK:   -3.52 KCAL/MOL
REMARK 924 INTRA-LIGAND FREE ENERGY PREDICTED BY IDOCK:    0.12 KCAL/MOL
REMARK 927      BINDING AFFINITY PREDICTED BY RF-SCORE:    0.00 PKD
ROOT
HETATM    1  C   UNL     1     -10.560   9.085  71.955  1.00  0.00    -0.388 C  
HETATM    2  C   UNL     1     -11.128   8.282  70.789  1.00  0.00    -0.280 C  
ENDROOT
BRANCH   2   3
HETATM    3  C   UNL     1     -10.082   7.444  69.979  1.00  0.00    -0.191 C  
HETATM    4  C   UNL     1      -8.739   7.313  70.751  1.00  0.00    -0.146 C  
HETATM    5  O   UNL     1     -11.254   5.554  68.906  1.00  0.00     0.042 OA 
HETATM    6  C   UNL     1      -8.886   6.642  72.106  1.00  0.00    -0.134 C  
HETATM    7  C   UNL     1     -10.655   6.006  69.878  1.00  0.00    -0.279 C  
HETATM    8  H   UNL     1     -11.212   4.466  71.109  1.00  0.00     0.000 HD 
HETATM    9  C   UNL     1      -9.560   5.308  71.965  1.00  0.00    -0.153 C  
HETATM   10  N   UNL     1     -10.521   5.208  70.994  1.00  0.00    -0.204 N  
HETATM   11  O   UNL     1      -9.286   4.351  72.687  1.00  0.00    -0.123 OA 
BRANCH   3  12
HETATM   12  C   UNL     1      -9.883   8.086  68.582  1.00  0.00    -0.182 A  
HETATM   13  C   UNL     1      -8.879   8.010  66.348  1.00  0.00    -0.183 A  
HETATM   14  N   UNL     1      -9.586   9.541  64.603  1.00  0.00    -0.424 NA 
HETATM   15  C   UNL     1     -10.516   9.678  66.836  1.00  0.00    -0.282 A  
HETATM   16  C   UNL     1     -10.616   9.205  68.149  1.00  0.00    -0.235 A  
HETATM   17  H2  UNL     1      -9.282  10.513  64.669  1.00  0.00     0.000 HD 
HETATM   18  H1  UNL     1      -8.997   9.068  63.918  1.00  0.00     0.000 HD 
HETATM   19  C   UNL     1      -8.977   7.530  67.659  1.00  0.00    -0.127 A  
HETATM   20  C   UNL     1      -9.713   9.032  65.901  1.00  0.00    -0.236 A  
ENDBRANCH   3  12
ENDBRANCH   2   3
TORSDOF 2
ENDMDL
MODEL      142
REMARK 921   NORMALIZED FREE ENERGY PREDICTED BY IDOCK:   -2.75 KCAL/MOL
REMARK 922        TOTAL FREE ENERGY PREDICTED BY IDOCK:   -3.40 KCAL/MOL
REMARK 923 INTER-LIGAND FREE ENERGY PREDICTED BY IDOCK:   -4.44 KCAL/MOL
REMARK 924 INTRA-LIGAND FREE ENERGY PREDICTED BY IDOCK:    1.04 KCAL/MOL
REMARK 927      BINDING AFFINITY PREDICTED BY RF-SCORE:    0.00 PKD
ROOT
HETATM    1  C   UNL     1     -12.478   8.191  71.280  1.00  0.00    -0.269 C  
HETATM    2  C   UNL     1     -11.914   6.789  71.076  1.00  0.00    -0.431 C  
ENDROOT
BRANCH   2   3
HETATM    3  C   UNL     1     -10.442   6.728  70.543  1.00  0.00    -0.238 C  
HETATM    4  C   UNL     1      -9.808   8.146  70.466  1.00  0.00    -0.194 C  
HETATM    5  O   UNL     1      -9.328   4.764  71.541  1.00  0.00    -0.137 OA 
HETATM    6  C   UNL     1      -9.762   8.859  71.807  1.00  0.00    -0.365 C  
HETATM    7  C   UNL     1      -9.622   5.954  71.609  1.00  0.00    -0.152 C  
HETATM    8  H   UNL     1      -9.097   6.113  73.582  1.00  0.00     0.000 HD 
HETATM    9  C   UNL     1      -9.067   8.012  72.833  1.00  0.00    -0.248 C  
HETATM   10  N   UNL     1      -9.251   6.658  72.734  1.00  0.00    -0.136 N  
HETATM   11  O   UNL     1      -8.380   8.495  73.731  1.00  0.00    -0.362 OA 
BRANCH   3  12
HETATM   12  C   UNL     1     -10.424   6.014  69.168  1.00  0.00    -0.321 A  
HETATM   13  C   UNL     1     -10.838   6.071  66.754  1.00  0.00    -0.356 A  
HETATM   14  N   UNL     1     -10.043   4.296  65.303  1.00  0.00    -0.227 NA 
HETATM   15  C   UNL     1      -9.710   4.192  67.700  1.00  0.00    -0.176 A  
HETATM   16  C   UNL     1      -9.836   4.751  68.976  1.00  0.00    -0.239 A  
HETATM   17  H2  UNL     1     -10.533   3.402  65.331  1.00  0.00     0.000 HD 
HETATM   18  H1  UNL     1     -10.352   4.805  64.474  1.00  0.00     0.000 HD 
HETATM   19  C   UNL     1     -10.963   6.637  68.028  1.00  0.00    -0.332 A  
HETATM   20  C   UNL     1     -10.132   4.885  66.569  1.00  0.00    -0.255 A  
ENDBRANCH   3  12
ENDBRANCH   2   3
TORSDOF 2
ENDMDL
MODEL      143
REMARK 921   NORMALIZED FREE ENERGY PREDICTED BY IDOCK:   -2.72 KCAL/MOL
REMARK 922        TOTAL FREE ENERGY PREDICTED BY IDOCK:   -3.38 KCAL/MOL
REMARK 923 INTER-LIGAND FREE ENERGY PREDICTED BY IDOCK:   -3.27 KCAL/MOL
REMARK 924 INTRA-LIGAND FREE ENERGY PREDICTED BY IDOCK:   -0.11 KCAL/MOL
REMARK 927      BINDING AFFINITY PREDICTED BY RF-SCORE:    0.00 PKD
ROOT
HETATM    1  C   UNL     1     -11.635  10.976  66.837  1.00  0.00     0.217 C  
HETATM    2  C   UNL     1     -10.739  11.093  68.065  1.00  0.00    -0.254 C  
ENDROOT
BRANCH   2   3
HETATM    3  C   UNL     1      -9.744  12.303  68.058  1.00  0.00    -0.205 C  
HETATM    4  C   UNL     1      -8.367  11.909  68.663  1.00  0.00    -0.058 C  
HETATM    5  O   UNL     1     -10.023  13.535  65.937  1.00  0.00    -0.294 OA 
HETATM    6  C   UNL     1      -7.685  10.773  67.919  1.00  0.00    -0.100 C  
HETATM    7  C   UNL     1      -9.471  12.638  66.568  1.00  0.00    -0.247 C  
HETATM    8  H   UNL     1      -8.695  11.751  64.892  1.00  0.00     0.000 HD 
HETATM    9  C   UNL     1      -7.559  11.098  66.459  1.00  0.00    -0.135 C  
HETATM   10  N   UNL     1      -8.581  11.823  65.904  1.00  0.00     0.043 N  
HETATM   11  O   UNL     1      -6.605  10.724  65.779  1.00  0.00    -0.120 OA 
BRANCH   3  12
HETATM   12  C   UNL     1     -10.383  13.497  68.811  1.00  0.00    -0.169 A  
HETATM   13  C   UNL     1     -12.116  14.362  70.311  1.00  0.00    -0.396 A  
HETATM   14  N   UNL     1     -11.976  16.605  71.228  1.00  0.00    -0.352 NA 
HETATM   15  C   UNL     1     -10.308  15.785  69.675  1.00  0.00    -0.290 A  
HETATM   16  C   UNL     1      -9.780  14.766  68.874  1.00  0.00    -0.215 A  
HETATM   17  H2  UNL     1     -12.172  17.388  70.605  1.00  0.00     0.000 HD 
HETATM   18  H1  UNL     1     -12.798  16.443  71.809  1.00  0.00     0.000 HD 
HETATM   19  C   UNL     1     -11.591  13.338  69.515  1.00  0.00    -0.349 A  
HETATM   20  C   UNL     1     -11.431  15.564  70.467  1.00  0.00    -0.347 A  
ENDBRANCH   3  12
ENDBRANCH   2   3
TORSDOF 2
ENDMDL
MODEL      144
REMARK 921   NORMALIZED FREE ENERGY PREDICTED BY IDOCK:   -2.72 KCAL/MOL
REMARK 922        TOTAL FREE ENERGY PREDICTED BY IDOCK:   -3.37 KCAL/MOL
REMARK 923 INTER-LIGAND FREE ENERGY PREDICTED BY IDOCK:   -3.20 KCAL/MOL
REMARK 924 INTRA-LIGAND FREE ENERGY PREDICTED BY IDOCK:   -0.17 KCAL/MOL
REMARK 927      BINDING AFFINITY PREDICTED BY RF-SCORE:    0.00 PKD
ROOT
HETATM    1  C   UNL     1      -9.898   8.546  68.345  1.00  0.00    -0.189 C  
HETATM    2  C   UNL     1      -9.086   8.207  69.590  1.00  0.00    -0.151 C  
ENDROOT
BRANCH   2   3
HETATM    3  C   UNL     1      -9.598   6.975  70.412  1.00  0.00    -0.169 C  
HETATM    4  C   UNL     1      -9.465   7.219  71.941  1.00  0.00    -0.163 C  
HETATM    5  O   UNL     1     -11.630   6.094  69.320  1.00  0.00    -0.329 OA 
HETATM    6  C   UNL     1     -10.245   8.429  72.429  1.00  0.00    -0.399 C  
HETATM    7  C   UNL     1     -11.120   6.863  70.132  1.00  0.00    -0.299 C  
HETATM    8  H   UNL     1     -12.829   7.966  70.368  1.00  0.00     0.000 HD 
HETATM    9  C   UNL     1     -11.686   8.328  72.022  1.00  0.00    -0.346 C  
HETATM   10  N   UNL     1     -11.939   7.736  70.812  1.00  0.00    -0.210 N  
HETATM   11  O   UNL     1     -12.600   8.764  72.718  1.00  0.00    -0.316 OA 
BRANCH   3  12
HETATM   12  C   UNL     1      -8.831   5.705  69.963  1.00  0.00    -0.136 A  
HETATM   13  C   UNL     1      -8.388   3.309  70.214  1.00  0.00    -0.085 A  
HETATM   14  N   UNL     1      -7.092   2.094  68.561  1.00  0.00    -0.043 NA 
HETATM   15  C   UNL     1      -7.453   4.480  68.356  1.00  0.00    -0.065 A  
HETATM   16  C   UNL     1      -8.020   5.674  68.814  1.00  0.00    -0.097 A  
HETATM   17  H2  UNL     1      -6.083   2.243  68.541  1.00  0.00     0.000 HD 
HETATM   18  H1  UNL     1      -7.275   1.209  69.034  1.00  0.00     0.000 HD 
HETATM   19  C   UNL     1      -8.961   4.499  70.676  1.00  0.00    -0.155 A  
HETATM   20  C   UNL     1      -7.702   3.273  69.002  1.00  0.00    -0.051 A  
ENDBRANCH   3  12
ENDBRANCH   2   3
TORSDOF 2
ENDMDL
MODEL      145
REMARK 921   NORMALIZED FREE ENERGY PREDICTED BY IDOCK:   -2.72 KCAL/MOL
REMARK 922        TOTAL FREE ENERGY PREDICTED BY IDOCK:   -3.37 KCAL/MOL
REMARK 923 INTER-LIGAND FREE ENERGY PREDICTED BY IDOCK:   -3.24 KCAL/MOL
REMARK 924 INTRA-LIGAND FREE ENERGY PREDICTED BY IDOCK:   -0.13 KCAL/MOL
REMARK 927      BINDING AFFINITY PREDICTED BY RF-SCORE:    0.00 PKD
ROOT
HETATM    1  C   UNL     1      -9.496   2.674  68.115  1.00  0.00    -0.217 C  
HETATM    2  C   UNL     1      -8.813   3.859  68.790  1.00  0.00    -0.152 C  
ENDROOT
BRANCH   2   3
HETATM    3  C   UNL     1      -8.931   5.224  68.031  1.00  0.00    -0.113 C  
HETATM    4  C   UNL     1      -7.531   5.837  67.745  1.00  0.00    -0.078 C  
HETATM    5  O   UNL     1     -10.730   5.034  66.351  1.00  0.00    -0.300 OA 
HETATM    6  C   UNL     1      -6.641   4.939  66.901  1.00  0.00    -0.050 C  
HETATM    7  C   UNL     1      -9.545   4.903  66.643  1.00  0.00    -0.163 C  
HETATM    8  H   UNL     1      -9.114   3.799  64.972  1.00  0.00     0.000 HD 
HETATM    9  C   UNL     1      -7.334   4.557  65.626  1.00  0.00    -0.080 C  
HETATM   10  N   UNL     1      -8.691   4.380  65.696  1.00  0.00    -0.119 N  
HETATM   11  O   UNL     1      -6.727   4.390  64.570  1.00  0.00    -0.042 OA 
BRANCH   3  12
HETATM   12  C   UNL     1      -9.826   6.190  68.849  1.00  0.00    -0.167 A  
HETATM   13  C   UNL     1     -11.391   6.562  70.697  1.00  0.00    -0.409 A  
HETATM   14  N   UNL     1     -11.993   8.806  71.397  1.00  0.00    -0.297 NA 
HETATM   15  C   UNL     1     -10.515   8.441  69.513  1.00  0.00    -0.225 A  
HETATM   16  C   UNL     1      -9.802   7.584  68.668  1.00  0.00    -0.169 A  
HETATM   17  H2  UNL     1     -12.624   9.339  70.800  1.00  0.00     0.000 HD 
HETATM   18  H1  UNL     1     -12.528   8.441  72.185  1.00  0.00     0.000 HD 
HETATM   19  C   UNL     1     -10.676   5.700  69.857  1.00  0.00    -0.399 A  
HETATM   20  C   UNL     1     -11.246   7.943  70.587  1.00  0.00    -0.263 A  
ENDBRANCH   3  12
ENDBRANCH   2   3
TORSDOF 2
ENDMDL
MODEL      146
REMARK 921   NORMALIZED FREE ENERGY PREDICTED BY IDOCK:   -2.69 KCAL/MOL
REMARK 922        TOTAL FREE ENERGY PREDICTED BY IDOCK:   -3.34 KCAL/MOL
REMARK 923 INTER-LIGAND FREE ENERGY PREDICTED BY IDOCK:   -3.17 KCAL/MOL
REMARK 924 INTRA-LIGAND FREE ENERGY PREDICTED BY IDOCK:   -0.17 KCAL/MOL
REMARK 927      BINDING AFFINITY PREDICTED BY RF-SCORE:    0.00 PKD
ROOT
HETATM    1  C   UNL     1     -11.236   6.270  69.319  1.00  0.00    -0.458 C  
HETATM    2  C   UNL     1     -11.284   6.874  67.919  1.00  0.00    -0.103 C  
ENDROOT
BRANCH   2   3
HETATM    3  C   UNL     1      -9.894   7.228  67.292  1.00  0.00    -0.224 C  
HETATM    4  C   UNL     1      -9.953   8.564  66.498  1.00  0.00    -0.350 C  
HETATM    5  O   UNL     1      -8.130   6.665  68.925  1.00  0.00    -0.113 OA 
HETATM    6  C   UNL     1     -10.369   9.752  67.348  1.00  0.00    -0.297 C  
HETATM    7  C   UNL     1      -8.929   7.484  68.479  1.00  0.00    -0.128 C  
HETATM    8  H   UNL     1      -8.736   8.747  70.080  1.00  0.00     0.000 HD 
HETATM    9  C   UNL     1      -9.478   9.879  68.551  1.00  0.00    -0.146 C  
HETATM   10  N   UNL     1      -9.028   8.708  69.103  1.00  0.00    -0.141 N  
HETATM   11  O   UNL     1      -9.176  10.967  69.036  1.00  0.00    -0.151 OA 
BRANCH   3  12
HETATM   12  C   UNL     1      -9.417   6.051  66.403  1.00  0.00    -0.174 A  
HETATM   13  C   UNL     1      -9.708   3.750  65.614  1.00  0.00    -0.144 A  
HETATM   14  N   UNL     1      -8.444   2.903  63.724  1.00  0.00    -0.086 NA 
HETATM   15  C   UNL     1      -8.089   5.150  64.557  1.00  0.00    -0.120 A  
HETATM   16  C   UNL     1      -8.403   6.190  65.439  1.00  0.00    -0.150 A  
HETATM   17  H2  UNL     1      -7.456   2.693  63.865  1.00  0.00     0.000 HD 
HETATM   18  H1  UNL     1      -8.963   2.026  63.740  1.00  0.00     0.000 HD 
HETATM   19  C   UNL     1     -10.029   4.787  66.497  1.00  0.00    -0.262 A  
HETATM   20  C   UNL     1      -8.797   3.952  64.580  1.00  0.00    -0.123 A  
ENDBRANCH   3  12
ENDBRANCH   2   3
TORSDOF 2
ENDMDL
MODEL      147
REMARK 921   NORMALIZED FREE ENERGY PREDICTED BY IDOCK:   -2.68 KCAL/MOL
REMARK 922        TOTAL FREE ENERGY PREDICTED BY IDOCK:   -3.33 KCAL/MOL
REMARK 923 INTER-LIGAND FREE ENERGY PREDICTED BY IDOCK:   -3.18 KCAL/MOL
REMARK 924 INTRA-LIGAND FREE ENERGY PREDICTED BY IDOCK:   -0.15 KCAL/MOL
REMARK 927      BINDING AFFINITY PREDICTED BY RF-SCORE:    0.00 PKD
ROOT
HETATM    1  C   UNL     1      -6.925   8.701  67.988  1.00  0.00    -0.075 C  
HETATM    2  C   UNL     1      -7.696   7.399  67.799  1.00  0.00    -0.112 C  
ENDROOT
BRANCH   2   3
HETATM    3  C   UNL     1      -9.076   7.535  67.071  1.00  0.00    -0.156 C  
HETATM    4  C   UNL     1      -8.897   7.639  65.530  1.00  0.00    -0.029 C  
HETATM    5  O   UNL     1     -10.699   6.041  68.179  1.00  0.00    -0.242 OA 
HETATM    6  C   UNL     1      -8.195   6.436  64.922  1.00  0.00    -0.110 C  
HETATM    7  C   UNL     1      -9.837   6.206  67.320  1.00  0.00    -0.134 C  
HETATM    8  H   UNL     1      -9.629   4.203  66.947  1.00  0.00     0.000 HD 
HETATM    9  C   UNL     1      -8.903   5.166  65.299  1.00  0.00    -0.152 C  
HETATM   10  N   UNL     1      -9.467   5.128  66.547  1.00  0.00    -0.139 N  
HETATM   11  O   UNL     1      -8.965   4.197  64.544  1.00  0.00    -0.130 OA 
BRANCH   3  12
HETATM   12  C   UNL     1      -9.840   8.756  67.645  1.00  0.00    -0.228 A  
HETATM   13  C   UNL     1     -11.055  10.850  67.273  1.00  0.00    -0.350 A  
HETATM   14  N   UNL     1     -12.284  11.922  69.070  1.00  0.00    -0.218 NA 
HETATM   15  C   UNL     1     -11.010   9.900  69.463  1.00  0.00    -0.274 A  
HETATM   16  C   UNL     1     -10.202   8.856  69.000  1.00  0.00    -0.217 A  
HETATM   17  H2  UNL     1     -11.749  12.401  69.795  1.00  0.00     0.000 HD 
HETATM   18  H1  UNL     1     -12.654  12.624  68.429  1.00  0.00     0.000 HD 
HETATM   19  C   UNL     1     -10.250   9.806  66.803  1.00  0.00    -0.300 A  
HETATM   20  C   UNL     1     -11.515  10.857  68.588  1.00  0.00    -0.311 A  
ENDBRANCH   3  12
ENDBRANCH   2   3
TORSDOF 2
ENDMDL
MODEL      148
REMARK 921   NORMALIZED FREE ENERGY PREDICTED BY IDOCK:   -2.67 KCAL/MOL
REMARK 922        TOTAL FREE ENERGY PREDICTED BY IDOCK:   -3.31 KCAL/MOL
REMARK 923 INTER-LIGAND FREE ENERGY PREDICTED BY IDOCK:   -2.99 KCAL/MOL
REMARK 924 INTRA-LIGAND FREE ENERGY PREDICTED BY IDOCK:   -0.32 KCAL/MOL
REMARK 927      BINDING AFFINITY PREDICTED BY RF-SCORE:    0.00 PKD
ROOT
HETATM    1  C   UNL     1     -10.323   7.039  71.604  1.00  0.00    -0.216 C  
HETATM    2  C   UNL     1      -8.921   6.756  71.073  1.00  0.00    -0.145 C  
ENDROOT
BRANCH   2   3
HETATM    3  C   UNL     1      -8.602   7.364  69.665  1.00  0.00    -0.137 C  
HETATM    4  C   UNL     1      -8.952   8.878  69.608  1.00  0.00    -0.147 C  
HETATM    5  O   UNL     1      -6.475   6.402  68.860  1.00  0.00    -0.039 OA 
HETATM    6  C   UNL     1      -8.195   9.711  70.629  1.00  0.00    -0.054 C  
HETATM    7  C   UNL     1      -7.063   7.278  69.489  1.00  0.00    -0.074 C  
HETATM    8  H   UNL     1      -5.356   7.974  70.382  1.00  0.00     0.000 HD 
HETATM    9  C   UNL     1      -6.716   9.493  70.495  1.00  0.00    -0.101 C  
HETATM   10  N   UNL     1      -6.312   8.233  70.139  1.00  0.00    -0.035 N  
HETATM   11  O   UNL     1      -5.896  10.385  70.709  1.00  0.00    -0.093 OA 
BRANCH   3  12
HETATM   12  C   UNL     1      -9.354   6.557  68.575  1.00  0.00    -0.123 A  
HETATM   13  C   UNL     1     -10.687   6.520  66.520  1.00  0.00    -0.099 A  
HETATM   14  N   UNL     1     -11.100   4.445  65.332  1.00  0.00    -0.858 NA 
HETATM   15  C   UNL     1      -9.858   4.466  67.411  1.00  0.00    -0.193 A  
HETATM   16  C   UNL     1      -9.284   5.156  68.484  1.00  0.00    -0.145 A  
HETATM   17  H2  UNL     1     -11.768   3.789  65.735  1.00  0.00     0.000 HD 
HETATM   18  H1  UNL     1     -11.562   4.946  64.573  1.00  0.00     0.000 HD 
HETATM   19  C   UNL     1     -10.111   7.216  67.589  1.00  0.00    -0.229 A  
HETATM   20  C   UNL     1     -10.490   5.149  66.376  1.00  0.00    -0.303 A  
ENDBRANCH   3  12
ENDBRANCH   2   3
TORSDOF 2
ENDMDL
MODEL      149
REMARK 921   NORMALIZED FREE ENERGY PREDICTED BY IDOCK:   -2.66 KCAL/MOL
REMARK 922        TOTAL FREE ENERGY PREDICTED BY IDOCK:   -3.31 KCAL/MOL
REMARK 923 INTER-LIGAND FREE ENERGY PREDICTED BY IDOCK:   -3.36 KCAL/MOL
REMARK 924 INTRA-LIGAND FREE ENERGY PREDICTED BY IDOCK:    0.05 KCAL/MOL
REMARK 927      BINDING AFFINITY PREDICTED BY RF-SCORE:    0.00 PKD
ROOT
HETATM    1  C   UNL     1     -12.519  10.833  70.046  1.00  0.00    -0.317 C  
HETATM    2  C   UNL     1     -11.007  10.962  70.197  1.00  0.00    -0.153 C  
ENDROOT
BRANCH   2   3
HETATM    3  C   UNL     1     -10.158  10.232  69.102  1.00  0.00    -0.232 C  
HETATM    4  C   UNL     1      -8.683  10.048  69.557  1.00  0.00    -0.205 C  
HETATM    5  O   UNL     1     -11.535   8.439  68.108  1.00  0.00     0.733 OA 
HETATM    6  C   UNL     1      -8.542   9.239  70.836  1.00  0.00    -0.220 C  
HETATM    7  C   UNL     1     -10.743   8.800  68.975  1.00  0.00    -0.112 C  
HETATM    8  H   UNL     1     -11.032   7.132  70.127  1.00  0.00     0.000 HD 
HETATM    9  C   UNL     1      -9.234   7.913  70.700  1.00  0.00    -0.157 C  
HETATM   10  N   UNL     1     -10.380   7.895  69.948  1.00  0.00    -0.218 N  
HETATM   11  O   UNL     1      -8.817   6.893  71.245  1.00  0.00    -0.134 OA 
BRANCH   3  12
HETATM   12  C   UNL     1     -10.256  11.017  67.769  1.00  0.00    -0.210 A  
HETATM   13  C   UNL     1     -10.372  13.158  66.585  1.00  0.00    -0.265 A  
HETATM   14  N   UNL     1     -10.121  13.273  64.174  1.00  0.00    -0.767 NA 
HETATM   15  C   UNL     1     -10.095  11.145  65.332  1.00  0.00    -0.317 A  
HETATM   16  C   UNL     1     -10.142  10.396  66.512  1.00  0.00    -0.285 A  
HETATM   17  H2  UNL     1     -10.898  12.951  63.597  1.00  0.00     0.000 HD 
HETATM   18  H1  UNL     1     -10.141  14.292  64.198  1.00  0.00     0.000 HD 
HETATM   19  C   UNL     1     -10.416  12.414  67.770  1.00  0.00    -0.231 A  
HETATM   20  C   UNL     1     -10.123  12.536  65.364  1.00  0.00    -0.267 A  
ENDBRANCH   3  12
ENDBRANCH   2   3
TORSDOF 2
ENDMDL
MODEL      150
REMARK 921   NORMALIZED FREE ENERGY PREDICTED BY IDOCK:   -2.64 KCAL/MOL
REMARK 922        TOTAL FREE ENERGY PREDICTED BY IDOCK:   -3.29 KCAL/MOL
REMARK 923 INTER-LIGAND FREE ENERGY PREDICTED BY IDOCK:   -5.14 KCAL/MOL
REMARK 924 INTRA-LIGAND FREE ENERGY PREDICTED BY IDOCK:    1.85 KCAL/MOL
REMARK 927      BINDING AFFINITY PREDICTED BY RF-SCORE:    0.00 PKD
ROOT
HETATM    1  C   UNL     1     -14.411  15.621  71.023  1.00  0.00     0.287 C  
HETATM    2  C   UNL     1     -13.578  14.637  70.208  1.00  0.00     0.544 C  
ENDROOT
BRANCH   2   3
HETATM    3  C   UNL     1     -12.436  13.910  70.997  1.00  0.00    -0.452 C  
HETATM    4  C   UNL     1     -11.269  14.882  71.330  1.00  0.00    -0.160 C  
HETATM    5  O   UNL     1     -13.467  12.371  72.630  1.00  0.00    -0.322 OA 
HETATM    6  C   UNL     1     -11.698  16.072  72.172  1.00  0.00    -0.587 C  
HETATM    7  C   UNL     1     -13.042  13.493  72.362  1.00  0.00    -0.393 C  
HETATM    8  H   UNL     1     -13.888  14.356  74.016  1.00  0.00     0.000 HD 
HETATM    9  C   UNL     1     -12.391  15.612  73.422  1.00  0.00    -0.519 C  
HETATM   10  N   UNL     1     -13.156  14.481  73.316  1.00  0.00    -0.469 N  
HETATM   11  O   UNL     1     -12.301  16.219  74.488  1.00  0.00    -0.674 OA 
BRANCH   3  12
HETATM   12  C   UNL     1     -11.949  12.685  70.182  1.00  0.00    -0.375 A  
HETATM   13  C   UNL     1     -11.571  10.269  70.025  1.00  0.00    -0.349 A  
HETATM   14  N   UNL     1     -11.019   9.222  67.907  1.00  0.00    -0.500 NA 
HETATM   15  C   UNL     1     -11.304  11.621  68.075  1.00  0.00    -0.366 A  
HETATM   16  C   UNL     1     -11.606  12.766  68.820  1.00  0.00    -0.353 A  
HETATM   17  H2  UNL     1     -10.078   9.358  67.537  1.00  0.00     0.000 HD 
HETATM   18  H1  UNL     1     -11.067   8.294  68.327  1.00  0.00     0.000 HD 
HETATM   19  C   UNL     1     -11.878  11.411  70.774  1.00  0.00    -0.232 A  
HETATM   20  C   UNL     1     -11.368  10.355  68.650  1.00  0.00    -0.216 A  
ENDBRANCH   3  12
ENDBRANCH   2   3
TORSDOF 2
ENDMDL
MODEL      151
REMARK 921   NORMALIZED FREE ENERGY PREDICTED BY IDOCK:   -2.62 KCAL/MOL
REMARK 922        TOTAL FREE ENERGY PREDICTED BY IDOCK:   -3.26 KCAL/MOL
REMARK 923 INTER-LIGAND FREE ENERGY PREDICTED BY IDOCK:   -3.16 KCAL/MOL
REMARK 924 INTRA-LIGAND FREE ENERGY PREDICTED BY IDOCK:   -0.10 KCAL/MOL
REMARK 927      BINDING AFFINITY PREDICTED BY RF-SCORE:    0.00 PKD
ROOT
HETATM    1  C   UNL     1      -6.910   6.538  70.113  1.00  0.00    -0.058 C  
HETATM    2  C   UNL     1      -8.183   6.597  69.275  1.00  0.00    -0.124 C  
ENDROOT
BRANCH   2   3
HETATM    3  C   UNL     1      -9.035   7.901  69.439  1.00  0.00    -0.145 C  
HETATM    4  C   UNL     1     -10.529   7.650  69.094  1.00  0.00    -0.220 C  
HETATM    5  O   UNL     1      -8.262   9.094  71.458  1.00  0.00    -0.334 OA 
HETATM    6  C   UNL     1     -11.179   6.587  69.963  1.00  0.00    -0.453 C  
HETATM    7  C   UNL     1      -9.004   8.258  70.949  1.00  0.00    -0.151 C  
HETATM    8  H   UNL     1      -9.555   7.450  72.748  1.00  0.00     0.000 HD 
HETATM    9  C   UNL     1     -11.010   6.919  71.418  1.00  0.00    -0.240 C  
HETATM   10  N   UNL     1      -9.839   7.535  71.772  1.00  0.00    -0.163 N  
HETATM   11  O   UNL     1     -11.862   6.642  72.261  1.00  0.00    -0.291 OA 
BRANCH   3  12
HETATM   12  C   UNL     1      -8.423   9.027  68.566  1.00  0.00    -0.128 A  
HETATM   13  C   UNL     1      -8.568  11.286  67.630  1.00  0.00    -0.124 A  
HETATM   14  N   UNL     1      -6.664  12.313  66.532  1.00  0.00    -0.345 NA 
HETATM   15  C   UNL     1      -6.544  10.046  67.377  1.00  0.00    -0.069 A  
HETATM   16  C   UNL     1      -7.119   8.959  68.044  1.00  0.00    -0.079 A  
HETATM   17  H2  UNL     1      -6.413  11.980  65.601  1.00  0.00     0.000 HD 
HETATM   18  H1  UNL     1      -7.167  13.194  66.432  1.00  0.00     0.000 HD 
HETATM   19  C   UNL     1      -9.148  10.203  68.301  1.00  0.00    -0.122 A  
HETATM   20  C   UNL     1      -7.232  11.248  67.241  1.00  0.00    -0.114 A  
ENDBRANCH   3  12
ENDBRANCH   2   3
TORSDOF 2
ENDMDL
MODEL      152
REMARK 921   NORMALIZED FREE ENERGY PREDICTED BY IDOCK:   -2.62 KCAL/MOL
REMARK 922        TOTAL FREE ENERGY PREDICTED BY IDOCK:   -3.26 KCAL/MOL
REMARK 923 INTER-LIGAND FREE ENERGY PREDICTED BY IDOCK:   -3.62 KCAL/MOL
REMARK 924 INTRA-LIGAND FREE ENERGY PREDICTED BY IDOCK:    0.37 KCAL/MOL
REMARK 927      BINDING AFFINITY PREDICTED BY RF-SCORE:    0.00 PKD
ROOT
HETATM    1  C   UNL     1      -9.561  19.235  65.916  1.00  0.00    -0.094 C  
HETATM    2  C   UNL     1      -9.582  17.710  65.956  1.00  0.00    -0.123 C  
ENDROOT
BRANCH   2   3
HETATM    3  C   UNL     1      -9.186  17.069  67.329  1.00  0.00    -0.225 C  
HETATM    4  C   UNL     1     -10.428  16.876  68.244  1.00  0.00    -0.352 C  
HETATM    5  O   UNL     1      -7.482  15.330  66.920  1.00  0.00    -0.153 OA 
HETATM    6  C   UNL     1     -11.494  15.983  67.633  1.00  0.00    -0.016 C  
HETATM    7  C   UNL     1      -8.666  15.642  67.014  1.00  0.00    -0.230 C  
HETATM    8  H   UNL     1      -9.334  13.894  66.180  1.00  0.00     0.000 HD 
HETATM    9  C   UNL     1     -10.909  14.660  67.231  1.00  0.00    -0.305 C  
HETATM   10  N   UNL     1      -9.619  14.677  66.768  1.00  0.00    -0.242 N  
HETATM   11  O   UNL     1     -11.547  13.610  67.291  1.00  0.00    -0.318 OA 
BRANCH   3  12
HETATM   12  C   UNL     1      -8.101  17.943  68.009  1.00  0.00    -0.252 A  
HETATM   13  C   UNL     1      -5.766  18.667  68.162  1.00  0.00    -0.191 A  
HETATM   14  N   UNL     1      -5.131  20.572  69.524  1.00  0.00    -0.243 NA 
HETATM   15  C   UNL     1      -7.427  19.804  69.445  1.00  0.00    -0.139 A  
HETATM   16  C   UNL     1      -8.409  18.939  68.952  1.00  0.00    -0.273 A  
HETATM   17  H2  UNL     1      -5.125  20.455  70.537  1.00  0.00     0.000 HD 
HETATM   18  H1  UNL     1      -4.169  20.519  69.190  1.00  0.00     0.000 HD 
HETATM   19  C   UNL     1      -6.745  17.800  67.663  1.00  0.00    -0.192 A  
HETATM   20  C   UNL     1      -6.114  19.732  68.989  1.00  0.00    -0.276 A  
ENDBRANCH   3  12
ENDBRANCH   2   3
TORSDOF 2
ENDMDL
MODEL      153
REMARK 921   NORMALIZED FREE ENERGY PREDICTED BY IDOCK:   -2.61 KCAL/MOL
REMARK 922        TOTAL FREE ENERGY PREDICTED BY IDOCK:   -3.25 KCAL/MOL
REMARK 923 INTER-LIGAND FREE ENERGY PREDICTED BY IDOCK:   -2.93 KCAL/MOL
REMARK 924 INTRA-LIGAND FREE ENERGY PREDICTED BY IDOCK:   -0.32 KCAL/MOL
REMARK 927      BINDING AFFINITY PREDICTED BY RF-SCORE:    0.00 PKD
ROOT
HETATM    1  C   UNL     1     -10.276   8.616  66.529  1.00  0.00    -0.295 C  
HETATM    2  C   UNL     1      -8.839   9.065  66.771  1.00  0.00    -0.144 C  
ENDROOT
BRANCH   2   3
HETATM    3  C   UNL     1      -8.664  10.232  67.801  1.00  0.00    -0.121 C  
HETATM    4  C   UNL     1      -9.037   9.778  69.241  1.00  0.00    -0.189 C  
HETATM    5  O   UNL     1      -6.613  11.483  67.230  1.00  0.00    -0.089 OA 
HETATM    6  C   UNL     1      -8.196   8.617  69.744  1.00  0.00    -0.121 C  
HETATM    7  C   UNL     1      -7.148  10.561  67.840  1.00  0.00    -0.083 C  
HETATM    8  H   UNL     1      -5.372   9.647  68.293  1.00  0.00     0.000 HD 
HETATM    9  C   UNL     1      -6.733   8.942  69.642  1.00  0.00    -0.046 C  
HETATM   10  N   UNL     1      -6.351   9.711  68.574  1.00  0.00    -0.047 N  
HETATM   11  O   UNL     1      -5.908   8.531  70.456  1.00  0.00    -0.028 OA 
BRANCH   3  12
HETATM   12  C   UNL     1      -9.508  11.450  67.345  1.00  0.00    -0.174 A  
HETATM   13  C   UNL     1     -10.814  13.444  67.910  1.00  0.00    -0.263 A  
HETATM   14  N   UNL     1     -11.493  15.025  66.199  1.00  0.00    -0.280 NA 
HETATM   15  C   UNL     1     -10.279  13.009  65.625  1.00  0.00    -0.296 A  
HETATM   16  C   UNL     1      -9.627  11.828  65.995  1.00  0.00    -0.248 A  
HETATM   17  H2  UNL     1     -12.247  14.752  65.569  1.00  0.00     0.000 HD 
HETATM   18  H1  UNL     1     -11.876  15.656  66.903  1.00  0.00     0.000 HD 
HETATM   19  C   UNL     1     -10.160  12.265  68.288  1.00  0.00    -0.218 A  
HETATM   20  C   UNL     1     -10.802  13.870  66.585  1.00  0.00    -0.289 A  
ENDBRANCH   3  12
ENDBRANCH   2   3
TORSDOF 2
ENDMDL
MODEL      154
REMARK 921   NORMALIZED FREE ENERGY PREDICTED BY IDOCK:   -2.60 KCAL/MOL
REMARK 922        TOTAL FREE ENERGY PREDICTED BY IDOCK:   -3.24 KCAL/MOL
REMARK 923 INTER-LIGAND FREE ENERGY PREDICTED BY IDOCK:   -2.98 KCAL/MOL
REMARK 924 INTRA-LIGAND FREE ENERGY PREDICTED BY IDOCK:   -0.26 KCAL/MOL
REMARK 927      BINDING AFFINITY PREDICTED BY RF-SCORE:    0.00 PKD
ROOT
HETATM    1  C   UNL     1     -11.456  10.868  67.928  1.00  0.00    -0.344 C  
HETATM    2  C   UNL     1      -9.958  11.093  68.109  1.00  0.00    -0.189 C  
ENDROOT
BRANCH   2   3
HETATM    3  C   UNL     1      -9.145  11.294  66.785  1.00  0.00    -0.181 C  
HETATM    4  C   UNL     1      -9.993  12.020  65.703  1.00  0.00    -0.270 C  
HETATM    5  O   UNL     1      -6.828  11.909  67.374  1.00  0.00    -0.105 OA 
HETATM    6  C   UNL     1     -10.474  13.395  66.137  1.00  0.00    -0.295 C  
HETATM    7  C   UNL     1      -7.979  12.258  67.128  1.00  0.00    -0.161 C  
HETATM    8  H   UNL     1      -7.692  14.167  67.812  1.00  0.00     0.000 HD 
HETATM    9  C   UNL     1      -9.317  14.245  66.577  1.00  0.00    -0.271 C  
HETATM   10  N   UNL     1      -8.290  13.598  67.213  1.00  0.00    -0.184 N  
HETATM   11  O   UNL     1      -9.288  15.461  66.400  1.00  0.00    -0.253 OA 
BRANCH   3  12
HETATM   12  C   UNL     1      -8.631   9.919  66.286  1.00  0.00    -0.137 A  
HETATM   13  C   UNL     1      -7.501   8.585  64.570  1.00  0.00    -0.105 A  
HETATM   14  N   UNL     1      -6.835   6.292  65.002  1.00  0.00    -0.049 NA 
HETATM   15  C   UNL     1      -8.032   7.579  66.669  1.00  0.00    -0.110 A  
HETATM   16  C   UNL     1      -8.628   8.770  67.097  1.00  0.00    -0.119 A  
HETATM   17  H2  UNL     1      -7.564   5.579  65.027  1.00  0.00     0.000 HD 
HETATM   18  H1  UNL     1      -6.362   6.235  64.100  1.00  0.00     0.000 HD 
HETATM   19  C   UNL     1      -8.092   9.781  64.994  1.00  0.00    -0.134 A  
HETATM   20  C   UNL     1      -7.387   7.502  65.438  1.00  0.00    -0.071 A  
ENDBRANCH   3  12
ENDBRANCH   2   3
TORSDOF 2
ENDMDL
MODEL      155
REMARK 921   NORMALIZED FREE ENERGY PREDICTED BY IDOCK:   -2.60 KCAL/MOL
REMARK 922        TOTAL FREE ENERGY PREDICTED BY IDOCK:   -3.24 KCAL/MOL
REMARK 923 INTER-LIGAND FREE ENERGY PREDICTED BY IDOCK:   -3.20 KCAL/MOL
REMARK 924 INTRA-LIGAND FREE ENERGY PREDICTED BY IDOCK:   -0.04 KCAL/MOL
REMARK 927      BINDING AFFINITY PREDICTED BY RF-SCORE:    0.00 PKD
ROOT
HETATM    1  C   UNL     1      -7.475   7.079  66.245  1.00  0.00    -0.080 C  
HETATM    2  C   UNL     1      -8.995   6.959  66.281  1.00  0.00    -0.172 C  
ENDROOT
BRANCH   2   3
HETATM    3  C   UNL     1      -9.557   5.815  67.192  1.00  0.00    -0.134 C  
HETATM    4  C   UNL     1     -10.756   5.091  66.518  1.00  0.00    -0.205 C  
HETATM    5  O   UNL     1      -7.654   4.651  68.251  1.00  0.00    -0.075 OA 
HETATM    6  C   UNL     1     -10.406   4.459  65.181  1.00  0.00    -0.196 C  
HETATM    7  C   UNL     1      -8.431   4.753  67.306  1.00  0.00    -0.105 C  
HETATM    8  H   UNL     1      -7.340   3.509  66.098  1.00  0.00     0.000 HD 
HETATM    9  C   UNL     1      -9.230   3.535  65.326  1.00  0.00    -0.153 C  
HETATM   10  N   UNL     1      -8.271   3.904  66.232  1.00  0.00    -0.104 N  
HETATM   11  O   UNL     1      -9.113   2.509  64.660  1.00  0.00    -0.120 OA 
BRANCH   3  12
HETATM   12  C   UNL     1      -9.941   6.401  68.574  1.00  0.00    -0.155 A  
HETATM   13  C   UNL     1      -9.559   8.046  70.349  1.00  0.00    -0.174 A  
HETATM   14  N   UNL     1     -11.153   8.335  72.155  1.00  0.00    -0.303 NA 
HETATM   15  C   UNL     1     -11.490   6.646  70.451  1.00  0.00    -0.444 A  
HETATM   16  C   UNL     1     -11.094   6.003  69.274  1.00  0.00    -0.424 A  
HETATM   17  H2  UNL     1     -11.192   7.616  72.877  1.00  0.00     0.000 HD 
HETATM   18  H1  UNL     1     -10.629   9.129  72.521  1.00  0.00     0.000 HD 
HETATM   19  C   UNL     1      -9.159   7.408  69.168  1.00  0.00    -0.134 A  
HETATM   20  C   UNL     1     -10.773   7.729  70.952  1.00  0.00    -0.221 A  
ENDBRANCH   3  12
ENDBRANCH   2   3
TORSDOF 2
ENDMDL
MODEL      156
REMARK 921   NORMALIZED FREE ENERGY PREDICTED BY IDOCK:   -2.59 KCAL/MOL
REMARK 922        TOTAL FREE ENERGY PREDICTED BY IDOCK:   -3.23 KCAL/MOL
REMARK 923 INTER-LIGAND FREE ENERGY PREDICTED BY IDOCK:   -2.80 KCAL/MOL
REMARK 924 INTRA-LIGAND FREE ENERGY PREDICTED BY IDOCK:   -0.43 KCAL/MOL
REMARK 927      BINDING AFFINITY PREDICTED BY RF-SCORE:    0.00 PKD
ROOT
HETATM    1  C   UNL     1     -10.504   7.372  72.674  1.00  0.00    -0.303 C  
HETATM    2  C   UNL     1      -9.492   7.254  71.539  1.00  0.00    -0.160 C  
ENDROOT
BRANCH   2   3
HETATM    3  C   UNL     1      -9.444   5.861  70.825  1.00  0.00    -0.192 C  
HETATM    4  C   UNL     1     -10.858   5.410  70.363  1.00  0.00    -0.208 C  
HETATM    5  O   UNL     1      -7.430   5.780  69.398  1.00  0.00    -0.076 OA 
HETATM    6  C   UNL     1     -11.513   6.379  69.393  1.00  0.00    -0.374 C  
HETATM    7  C   UNL     1      -8.618   6.061  69.526  1.00  0.00    -0.119 C  
HETATM    8  H   UNL     1      -8.687   7.154  67.795  1.00  0.00     0.000 HD 
HETATM    9  C   UNL     1     -10.617   6.635  68.216  1.00  0.00    -0.241 C  
HETATM   10  N   UNL     1      -9.270   6.651  68.465  1.00  0.00    -0.128 N  
HETATM   11  O   UNL     1     -11.056   6.838  67.085  1.00  0.00    -0.384 OA 
BRANCH   3  12
HETATM   12  C   UNL     1      -8.789   4.822  71.771  1.00  0.00    -0.139 A  
HETATM   13  C   UNL     1      -8.492   2.491  72.464  1.00  0.00    -0.064 A  
HETATM   14  N   UNL     1      -6.756   1.863  74.039  1.00  0.00    -0.021 NA 
HETATM   15  C   UNL     1      -7.105   4.180  73.425  1.00  0.00    -0.064 A  
HETATM   16  C   UNL     1      -7.773   5.160  72.683  1.00  0.00    -0.098 A  
HETATM   17  H2  UNL     1      -6.893   2.102  75.021  1.00  0.00     0.000 HD 
HETATM   18  H1  UNL     1      -6.971   0.874  73.917  1.00  0.00     0.000 HD 
HETATM   19  C   UNL     1      -9.162   3.467  71.717  1.00  0.00    -0.185 A  
HETATM   20  C   UNL     1      -7.399   2.830  73.258  1.00  0.00    -0.045 A  
ENDBRANCH   3  12
ENDBRANCH   2   3
TORSDOF 2
ENDMDL
MODEL      157
REMARK 921   NORMALIZED FREE ENERGY PREDICTED BY IDOCK:   -2.49 KCAL/MOL
REMARK 922        TOTAL FREE ENERGY PREDICTED BY IDOCK:   -3.11 KCAL/MOL
REMARK 923 INTER-LIGAND FREE ENERGY PREDICTED BY IDOCK:   -3.06 KCAL/MOL
REMARK 924 INTRA-LIGAND FREE ENERGY PREDICTED BY IDOCK:   -0.05 KCAL/MOL
REMARK 927      BINDING AFFINITY PREDICTED BY RF-SCORE:    0.00 PKD
ROOT
HETATM    1  C   UNL     1      -9.795   9.291  69.052  1.00  0.00    -0.168 C  
HETATM    2  C   UNL     1      -9.282   8.105  68.242  1.00  0.00    -0.134 C  
ENDROOT
BRANCH   2   3
HETATM    3  C   UNL     1      -9.713   6.695  68.771  1.00  0.00    -0.130 C  
HETATM    4  C   UNL     1     -11.081   6.260  68.175  1.00  0.00    -0.364 C  
HETATM    5  O   UNL     1      -7.715   5.245  68.857  1.00  0.00    -0.080 OA 
HETATM    6  C   UNL     1     -11.080   6.180  66.658  1.00  0.00    -0.124 C  
HETATM    7  C   UNL     1      -8.671   5.683  68.222  1.00  0.00    -0.106 C  
HETATM    8  H   UNL     1      -7.967   5.000  66.424  1.00  0.00     0.000 HD 
HETATM    9  C   UNL     1      -9.974   5.287  66.176  1.00  0.00    -0.165 C  
HETATM   10  N   UNL     1      -8.814   5.302  66.906  1.00  0.00    -0.111 N  
HETATM   11  O   UNL     1     -10.082   4.587  65.171  1.00  0.00    -0.184 OA 
BRANCH   3  12
HETATM   12  C   UNL     1      -9.739   6.714  70.321  1.00  0.00    -0.182 A  
HETATM   13  C   UNL     1     -10.877   6.161  72.419  1.00  0.00    -0.281 A  
HETATM   14  N   UNL     1      -9.736   6.354  74.552  1.00  0.00    -0.280 NA 
HETATM   15  C   UNL     1      -8.638   6.986  72.488  1.00  0.00    -0.132 A  
HETATM   16  C   UNL     1      -8.634   7.110  71.094  1.00  0.00    -0.129 A  
HETATM   17  H2  UNL     1      -9.576   7.289  74.925  1.00  0.00     0.000 HD 
HETATM   18  H1  UNL     1     -10.533   5.946  75.040  1.00  0.00     0.000 HD 
HETATM   19  C   UNL     1     -10.878   6.280  71.024  1.00  0.00    -0.326 A  
HETATM   20  C   UNL     1      -9.725   6.430  73.154  1.00  0.00    -0.160 A  
ENDBRANCH   3  12
ENDBRANCH   2   3
TORSDOF 2
ENDMDL
MODEL      158
REMARK 921   NORMALIZED FREE ENERGY PREDICTED BY IDOCK:   -2.42 KCAL/MOL
REMARK 922        TOTAL FREE ENERGY PREDICTED BY IDOCK:   -3.04 KCAL/MOL
REMARK 923 INTER-LIGAND FREE ENERGY PREDICTED BY IDOCK:   -2.66 KCAL/MOL
REMARK 924 INTRA-LIGAND FREE ENERGY PREDICTED BY IDOCK:   -0.37 KCAL/MOL
REMARK 927      BINDING AFFINITY PREDICTED BY RF-SCORE:    0.00 PKD
ROOT
HETATM    1  C   UNL     1     -11.294   6.380  69.696  1.00  0.00    -0.479 C  
HETATM    2  C   UNL     1     -10.287   7.470  70.045  1.00  0.00    -0.222 C  
ENDROOT
BRANCH   2   3
HETATM    3  C   UNL     1      -9.331   7.900  68.880  1.00  0.00    -0.150 C  
HETATM    4  C   UNL     1     -10.127   8.501  67.687  1.00  0.00    -0.271 C  
HETATM    5  O   UNL     1      -7.314   8.931  69.860  1.00  0.00    -0.049 OA 
HETATM    6  C   UNL     1     -10.942   9.727  68.063  1.00  0.00    -0.236 C  
HETATM    7  C   UNL     1      -8.458   9.057  69.433  1.00  0.00    -0.117 C  
HETATM    8  H   UNL     1      -8.681  10.945  70.194  1.00  0.00     0.000 HD 
HETATM    9  C   UNL     1     -10.070  10.765  68.707  1.00  0.00    -0.191 C  
HETATM   10  N   UNL     1      -9.046  10.301  69.492  1.00  0.00    -0.197 N  
HETATM   11  O   UNL     1     -10.262  11.970  68.563  1.00  0.00    -0.215 OA 
BRANCH   3  12
HETATM   12  C   UNL     1      -8.473   6.684  68.446  1.00  0.00    -0.125 A  
HETATM   13  C   UNL     1      -7.185   5.520  66.718  1.00  0.00    -0.078 A  
HETATM   14  N   UNL     1      -5.791   3.611  67.266  1.00  0.00    -0.023 NA 
HETATM   15  C   UNL     1      -7.133   4.703  68.961  1.00  0.00    -0.052 A  
HETATM   16  C   UNL     1      -8.019   5.712  69.355  1.00  0.00    -0.099 A  
HETATM   17  H2  UNL     1      -6.254   2.725  67.469  1.00  0.00     0.000 HD 
HETATM   18  H1  UNL     1      -5.430   3.572  66.313  1.00  0.00     0.000 HD 
HETATM   19  C   UNL     1      -8.069   6.533  67.107  1.00  0.00    -0.113 A  
HETATM   20  C   UNL     1      -6.641   4.651  67.660  1.00  0.00    -0.047 A  
ENDBRANCH   3  12
ENDBRANCH   2   3
TORSDOF 2
ENDMDL
MODEL      159
REMARK 921   NORMALIZED FREE ENERGY PREDICTED BY IDOCK:   -2.40 KCAL/MOL
REMARK 922        TOTAL FREE ENERGY PREDICTED BY IDOCK:   -3.02 KCAL/MOL
REMARK 923 INTER-LIGAND FREE ENERGY PREDICTED BY IDOCK:   -2.60 KCAL/MOL
REMARK 924 INTRA-LIGAND FREE ENERGY PREDICTED BY IDOCK:   -0.42 KCAL/MOL
REMARK 927      BINDING AFFINITY PREDICTED BY RF-SCORE:    0.00 PKD
ROOT
HETATM    1  C   UNL     1      -6.045   8.685  68.044  1.00  0.00    -0.051 C  
HETATM    2  C   UNL     1      -6.908   8.512  69.290  1.00  0.00    -0.050 C  
ENDROOT
BRANCH   2   3
HETATM    3  C   UNL     1      -8.412   8.166  69.023  1.00  0.00    -0.129 C  
HETATM    4  C   UNL     1      -8.554   6.893  68.143  1.00  0.00    -0.123 C  
HETATM    5  O   UNL     1      -9.689   8.566  71.098  1.00  0.00    -0.174 OA 
HETATM    6  C   UNL     1      -7.922   5.658  68.763  1.00  0.00    -0.097 C  
HETATM    7  C   UNL     1      -9.030   7.801  70.399  1.00  0.00    -0.147 C  
HETATM    8  H   UNL     1      -8.787   6.423  71.894  1.00  0.00     0.000 HD 
HETATM    9  C   UNL     1      -8.464   5.423  70.143  1.00  0.00    -0.119 C  
HETATM   10  N   UNL     1      -8.762   6.539  70.881  1.00  0.00    -0.135 N  
HETATM   11  O   UNL     1      -8.622   4.295  70.607  1.00  0.00    -0.076 OA 
BRANCH   3  12
HETATM   12  C   UNL     1      -9.113   9.391  68.381  1.00  0.00    -0.128 A  
HETATM   13  C   UNL     1     -10.834  10.296  66.890  1.00  0.00    -0.205 A  
HETATM   14  N   UNL     1     -11.359  12.665  66.875  1.00  0.00    -0.301 NA 
HETATM   15  C   UNL     1      -9.596  11.787  68.285  1.00  0.00    -0.199 A  
HETATM   16  C   UNL     1      -8.850  10.713  68.782  1.00  0.00    -0.161 A  
HETATM   17  H2  UNL     1     -10.693  13.299  66.434  1.00  0.00     0.000 HD 
HETATM   18  H1  UNL     1     -12.132  12.512  66.228  1.00  0.00     0.000 HD 
HETATM   19  C   UNL     1     -10.093   9.217  67.387  1.00  0.00    -0.289 A  
HETATM   20  C   UNL     1     -10.650  11.579  67.401  1.00  0.00    -0.214 A  
ENDBRANCH   3  12
ENDBRANCH   2   3
TORSDOF 2
ENDMDL
MODEL      160
REMARK 921   NORMALIZED FREE ENERGY PREDICTED BY IDOCK:   -2.40 KCAL/MOL
REMARK 922        TOTAL FREE ENERGY PREDICTED BY IDOCK:   -3.02 KCAL/MOL
REMARK 923 INTER-LIGAND FREE ENERGY PREDICTED BY IDOCK:   -2.60 KCAL/MOL
REMARK 924 INTRA-LIGAND FREE ENERGY PREDICTED BY IDOCK:   -0.41 KCAL/MOL
REMARK 927      BINDING AFFINITY PREDICTED BY RF-SCORE:    0.00 PKD
ROOT
HETATM    1  C   UNL     1     -11.129   6.047  69.527  1.00  0.00    -0.468 C  
HETATM    2  C   UNL     1     -10.510   5.392  68.297  1.00  0.00    -0.191 C  
ENDROOT
BRANCH   2   3
HETATM    3  C   UNL     1      -9.019   5.775  68.011  1.00  0.00    -0.111 C  
HETATM    4  C   UNL     1      -8.148   5.664  69.294  1.00  0.00    -0.096 C  
HETATM    5  O   UNL     1      -8.377   4.842  65.817  1.00  0.00    -0.114 OA 
HETATM    6  C   UNL     1      -8.137   4.269  69.897  1.00  0.00    -0.061 C  
HETATM    7  C   UNL     1      -8.470   4.702  67.033  1.00  0.00    -0.105 C  
HETATM    8  H   UNL     1      -8.158   2.679  66.963  1.00  0.00     0.000 HD 
HETATM    9  C   UNL     1      -7.719   3.254  68.872  1.00  0.00    -0.051 C  
HETATM   10  N   UNL     1      -8.118   3.488  67.582  1.00  0.00    -0.081 N  
HETATM   11  O   UNL     1      -7.069   2.252  69.163  1.00  0.00    -0.042 OA 
BRANCH   3  12
HETATM   12  C   UNL     1      -8.963   7.198  67.398  1.00  0.00    -0.122 A  
HETATM   13  C   UNL     1     -10.080   9.035  66.225  1.00  0.00    -0.311 A  
HETATM   14  N   UNL     1      -9.043  11.222  66.046  1.00  0.00    -0.206 NA 
HETATM   15  C   UNL     1      -7.898   9.383  67.128  1.00  0.00    -0.098 A  
HETATM   16  C   UNL     1      -7.864   8.057  67.573  1.00  0.00    -0.118 A  
HETATM   17  H2  UNL     1      -8.263  11.329  65.398  1.00  0.00     0.000 HD 
HETATM   18  H1  UNL     1      -9.879  11.607  65.607  1.00  0.00     0.000 HD 
HETATM   19  C   UNL     1     -10.054   7.709  66.671  1.00  0.00    -0.278 A  
HETATM   20  C   UNL     1      -9.038   9.908  66.528  1.00  0.00    -0.152 A  
ENDBRANCH   3  12
ENDBRANCH   2   3
TORSDOF 2
ENDMDL
MODEL      161
REMARK 921   NORMALIZED FREE ENERGY PREDICTED BY IDOCK:   -2.39 KCAL/MOL
REMARK 922        TOTAL FREE ENERGY PREDICTED BY IDOCK:   -3.01 KCAL/MOL
REMARK 923 INTER-LIGAND FREE ENERGY PREDICTED BY IDOCK:   -2.96 KCAL/MOL
REMARK 924 INTRA-LIGAND FREE ENERGY PREDICTED BY IDOCK:   -0.05 KCAL/MOL
REMARK 927      BINDING AFFINITY PREDICTED BY RF-SCORE:    0.00 PKD
ROOT
HETATM    1  C   UNL     1     -10.832   5.493  70.890  1.00  0.00    -0.246 C  
HETATM    2  C   UNL     1      -9.450   5.892  70.383  1.00  0.00    -0.192 C  
ENDROOT
BRANCH   2   3
HETATM    3  C   UNL     1      -9.048   7.385  70.632  1.00  0.00    -0.156 C  
HETATM    4  C   UNL     1      -9.812   7.982  71.848  1.00  0.00    -0.251 C  
HETATM    5  O   UNL     1      -6.616   7.613  70.276  1.00  0.00    -0.038 OA 
HETATM    6  C   UNL     1      -9.557   7.235  73.146  1.00  0.00    -0.237 C  
HETATM    7  C   UNL     1      -7.550   7.375  71.036  1.00  0.00    -0.086 C  
HETATM    8  H   UNL     1      -6.342   6.612  72.503  1.00  0.00     0.000 HD 
HETATM    9  C   UNL     1      -8.084   7.146  73.424  1.00  0.00    -0.108 C  
HETATM   10  N   UNL     1      -7.263   7.017  72.335  1.00  0.00    -0.072 N  
HETATM   11  O   UNL     1      -7.626   7.169  74.565  1.00  0.00    -0.115 OA 
BRANCH   3  12
HETATM   12  C   UNL     1      -9.293   8.205  69.339  1.00  0.00    -0.155 A  
HETATM   13  C   UNL     1     -10.184   8.337  67.061  1.00  0.00    -0.380 A  
HETATM   14  N   UNL     1     -10.369  10.464  65.908  1.00  0.00    -0.225 NA 
HETATM   15  C   UNL     1      -9.405  10.326  68.126  1.00  0.00    -0.144 A  
HETATM   16  C   UNL     1      -9.045   9.587  69.258  1.00  0.00    -0.161 A  
HETATM   17  H2  UNL     1      -9.513  10.895  65.561  1.00  0.00     0.000 HD 
HETATM   18  H1  UNL     1     -10.847  10.022  65.123  1.00  0.00     0.000 HD 
HETATM   19  C   UNL     1      -9.830   7.592  68.192  1.00  0.00    -0.179 A  
HETATM   20  C   UNL     1     -10.056   9.723  67.054  1.00  0.00    -0.218 A  
ENDBRANCH   3  12
ENDBRANCH   2   3
TORSDOF 2
ENDMDL
MODEL      162
REMARK 921   NORMALIZED FREE ENERGY PREDICTED BY IDOCK:   -2.39 KCAL/MOL
REMARK 922        TOTAL FREE ENERGY PREDICTED BY IDOCK:   -3.00 KCAL/MOL
REMARK 923 INTER-LIGAND FREE ENERGY PREDICTED BY IDOCK:   -2.83 KCAL/MOL
REMARK 924 INTRA-LIGAND FREE ENERGY PREDICTED BY IDOCK:   -0.16 KCAL/MOL
REMARK 927      BINDING AFFINITY PREDICTED BY RF-SCORE:    0.00 PKD
ROOT
HETATM    1  C   UNL     1     -11.659   6.367  69.758  1.00  0.00    -0.397 C  
HETATM    2  C   UNL     1     -10.198   5.947  69.637  1.00  0.00    -0.281 C  
ENDROOT
BRANCH   2   3
HETATM    3  C   UNL     1      -9.234   6.552  70.713  1.00  0.00    -0.156 C  
HETATM    4  C   UNL     1      -7.953   7.143  70.059  1.00  0.00    -0.118 C  
HETATM    5  O   UNL     1     -10.590   7.725  72.410  1.00  0.00    -0.235 OA 
HETATM    6  C   UNL     1      -8.242   8.247  69.057  1.00  0.00    -0.119 C  
HETATM    7  C   UNL     1      -9.981   7.757  71.344  1.00  0.00    -0.178 C  
HETATM    8  H   UNL     1     -10.782   9.556  70.782  1.00  0.00     0.000 HD 
HETATM    9  C   UNL     1      -9.074   9.327  69.686  1.00  0.00    -0.167 C  
HETATM   10  N   UNL     1      -9.998   8.925  70.614  1.00  0.00    -0.200 N  
HETATM   11  O   UNL     1      -8.955  10.513  69.381  1.00  0.00    -0.170 OA 
BRANCH   3  12
HETATM   12  C   UNL     1      -8.895   5.466  71.766  1.00  0.00    -0.142 A  
HETATM   13  C   UNL     1      -9.306   3.245  72.715  1.00  0.00    -0.137 A  
HETATM   14  N   UNL     1      -7.786   2.274  74.338  1.00  0.00    -0.045 NA 
HETATM   15  C   UNL     1      -7.425   4.506  73.469  1.00  0.00    -0.082 A  
HETATM   16  C   UNL     1      -7.786   5.562  72.626  1.00  0.00    -0.102 A  
HETATM   17  H2  UNL     1      -7.801   2.645  75.288  1.00  0.00     0.000 HD 
HETATM   18  H1  UNL     1      -8.303   1.395  74.329  1.00  0.00     0.000 HD 
HETATM   19  C   UNL     1      -9.671   4.297  71.867  1.00  0.00    -0.231 A  
HETATM   20  C   UNL     1      -8.130   3.306  73.457  1.00  0.00    -0.074 A  
ENDBRANCH   3  12
ENDBRANCH   2   3
TORSDOF 2
ENDMDL
MODEL      163
REMARK 921   NORMALIZED FREE ENERGY PREDICTED BY IDOCK:   -2.35 KCAL/MOL
REMARK 922        TOTAL FREE ENERGY PREDICTED BY IDOCK:   -2.96 KCAL/MOL
REMARK 923 INTER-LIGAND FREE ENERGY PREDICTED BY IDOCK:   -2.90 KCAL/MOL
REMARK 924 INTRA-LIGAND FREE ENERGY PREDICTED BY IDOCK:   -0.06 KCAL/MOL
REMARK 927      BINDING AFFINITY PREDICTED BY RF-SCORE:    0.00 PKD
ROOT
HETATM    1  C   UNL     1      -9.403   3.067  67.771  1.00  0.00    -0.251 C  
HETATM    2  C   UNL     1      -8.293   4.068  67.466  1.00  0.00    -0.098 C  
ENDROOT
BRANCH   2   3
HETATM    3  C   UNL     1      -8.666   5.190  66.439  1.00  0.00    -0.113 C  
HETATM    4  C   UNL     1      -7.453   5.560  65.539  1.00  0.00    -0.074 C  
HETATM    5  O   UNL     1     -10.940   4.750  65.586  1.00  0.00    -0.244 OA 
HETATM    6  C   UNL     1      -6.918   4.387  64.735  1.00  0.00    -0.050 C  
HETATM    7  C   UNL     1      -9.728   4.580  65.487  1.00  0.00    -0.195 C  
HETATM    8  H   UNL     1      -9.914   3.038  64.151  1.00  0.00     0.000 HD 
HETATM    9  C   UNL     1      -8.016   3.756  63.928  1.00  0.00    -0.088 C  
HETATM   10  N   UNL     1      -9.262   3.742  64.497  1.00  0.00    -0.135 N  
HETATM   11  O   UNL     1      -7.817   3.257  62.822  1.00  0.00    -0.065 OA 
BRANCH   3  12
HETATM   12  C   UNL     1      -9.214   6.423  67.203  1.00  0.00    -0.128 A  
HETATM   13  C   UNL     1     -10.432   8.548  67.182  1.00  0.00    -0.370 A  
HETATM   14  N   UNL     1     -11.097   9.632  69.248  1.00  0.00    -0.401 NA 
HETATM   15  C   UNL     1      -9.815   7.577  69.274  1.00  0.00    -0.170 A  
HETATM   16  C   UNL     1      -9.190   6.519  68.606  1.00  0.00    -0.127 A  
HETATM   17  H2  UNL     1     -10.373  10.092  69.801  1.00  0.00     0.000 HD 
HETATM   18  H1  UNL     1     -11.611  10.348  68.734  1.00  0.00     0.000 HD 
HETATM   19  C   UNL     1      -9.811   7.490  66.508  1.00  0.00    -0.226 A  
HETATM   20  C   UNL     1     -10.515   8.554  68.572  1.00  0.00    -0.167 A  
ENDBRANCH   3  12
ENDBRANCH   2   3
TORSDOF 2
ENDMDL
MODEL      164
REMARK 921   NORMALIZED FREE ENERGY PREDICTED BY IDOCK:   -2.30 KCAL/MOL
REMARK 922        TOTAL FREE ENERGY PREDICTED BY IDOCK:   -2.91 KCAL/MOL
REMARK 923 INTER-LIGAND FREE ENERGY PREDICTED BY IDOCK:   -3.08 KCAL/MOL
REMARK 924 INTRA-LIGAND FREE ENERGY PREDICTED BY IDOCK:    0.18 KCAL/MOL
REMARK 927      BINDING AFFINITY PREDICTED BY RF-SCORE:    0.00 PKD
ROOT
HETATM    1  C   UNL     1      -6.809   9.218  68.851  1.00  0.00    -0.056 C  
HETATM    2  C   UNL     1      -8.009   9.291  69.789  1.00  0.00    -0.103 C  
ENDROOT
BRANCH   2   3
HETATM    3  C   UNL     1      -9.234   8.403  69.382  1.00  0.00    -0.154 C  
HETATM    4  C   UNL     1     -10.537   8.879  70.084  1.00  0.00    -0.243 C  
HETATM    5  O   UNL     1      -9.065   7.889  66.973  1.00  0.00    -0.129 OA 
HETATM    6  C   UNL     1     -10.908  10.316  69.757  1.00  0.00    -0.332 C  
HETATM    7  C   UNL     1      -9.461   8.635  67.865  1.00  0.00    -0.139 C  
HETATM    8  H   UNL     1      -9.906  10.164  66.577  1.00  0.00     0.000 HD 
HETATM    9  C   UNL     1     -10.991  10.515  68.271  1.00  0.00    -0.263 C  
HETATM   10  N   UNL     1     -10.107   9.798  67.508  1.00  0.00    -0.184 N  
HETATM   11  O   UNL     1     -11.792  11.291  67.754  1.00  0.00    -0.610 OA 
BRANCH   3  12
HETATM   12  C   UNL     1      -8.918   6.919  69.699  1.00  0.00    -0.144 A  
HETATM   13  C   UNL     1      -7.292   5.093  69.852  1.00  0.00    -0.060 A  
HETATM   14  N   UNL     1      -7.866   2.989  70.917  1.00  0.00    -0.046 NA 
HETATM   15  C   UNL     1      -9.503   4.759  70.688  1.00  0.00    -0.238 A  
HETATM   16  C   UNL     1      -9.857   6.051  70.286  1.00  0.00    -0.221 A  
HETATM   17  H2  UNL     1      -8.482   2.352  70.413  1.00  0.00     0.000 HD 
HETATM   18  H1  UNL     1      -6.908   2.653  70.819  1.00  0.00     0.000 HD 
HETATM   19  C   UNL     1      -7.639   6.388  69.451  1.00  0.00    -0.095 A  
HETATM   20  C   UNL     1      -8.197   4.300  70.553  1.00  0.00    -0.066 A  
ENDBRANCH   3  12
ENDBRANCH   2   3
TORSDOF 2
ENDMDL
MODEL      165
REMARK 921   NORMALIZED FREE ENERGY PREDICTED BY IDOCK:   -2.30 KCAL/MOL
REMARK 922        TOTAL FREE ENERGY PREDICTED BY IDOCK:   -2.90 KCAL/MOL
REMARK 923 INTER-LIGAND FREE ENERGY PREDICTED BY IDOCK:   -2.59 KCAL/MOL
REMARK 924 INTRA-LIGAND FREE ENERGY PREDICTED BY IDOCK:   -0.31 KCAL/MOL
REMARK 927      BINDING AFFINITY PREDICTED BY RF-SCORE:    0.00 PKD
ROOT
HETATM    1  C   UNL     1     -10.209   8.074  67.192  1.00  0.00    -0.362 C  
HETATM    2  C   UNL     1     -10.019   8.018  68.704  1.00  0.00    -0.200 C  
ENDROOT
BRANCH   2   3
HETATM    3  C   UNL     1      -8.658   7.411  69.187  1.00  0.00    -0.136 C  
HETATM    4  C   UNL     1      -7.451   8.091  68.480  1.00  0.00    -0.102 C  
HETATM    5  O   UNL     1      -8.795   7.015  71.620  1.00  0.00    -0.130 OA 
HETATM    6  C   UNL     1      -7.376   9.589  68.723  1.00  0.00    -0.074 C  
HETATM    7  C   UNL     1      -8.526   7.771  70.690  1.00  0.00    -0.126 C  
HETATM    8  H   UNL     1      -8.424   9.429  71.888  1.00  0.00     0.000 HD 
HETATM    9  C   UNL     1      -7.378   9.886  70.195  1.00  0.00    -0.160 C  
HETATM   10  N   UNL     1      -8.128   9.056  70.986  1.00  0.00    -0.163 N  
HETATM   11  O   UNL     1      -6.758  10.833  70.677  1.00  0.00    -0.310 OA 
BRANCH   3  12
HETATM   12  C   UNL     1      -8.670   5.878  68.958  1.00  0.00    -0.114 A  
HETATM   13  C   UNL     1      -7.532   3.851  68.186  1.00  0.00    -0.062 A  
HETATM   14  N   UNL     1      -8.439   1.649  68.654  1.00  0.00    -0.056 NA 
HETATM   15  C   UNL     1      -9.612   3.654  69.340  1.00  0.00    -0.196 A  
HETATM   16  C   UNL     1      -9.696   5.046  69.440  1.00  0.00    -0.254 A  
HETATM   17  H2  UNL     1      -9.258   1.348  68.127  1.00  0.00     0.000 HD 
HETATM   18  H1  UNL     1      -7.616   1.200  68.252  1.00  0.00     0.000 HD 
HETATM   19  C   UNL     1      -7.608   5.245  68.287  1.00  0.00    -0.080 A  
HETATM   20  C   UNL     1      -8.490   3.041  68.790  1.00  0.00    -0.068 A  
ENDBRANCH   3  12
ENDBRANCH   2   3
TORSDOF 2
ENDMDL
MODEL      166
REMARK 921   NORMALIZED FREE ENERGY PREDICTED BY IDOCK:   -2.26 KCAL/MOL
REMARK 922        TOTAL FREE ENERGY PREDICTED BY IDOCK:   -2.85 KCAL/MOL
REMARK 923 INTER-LIGAND FREE ENERGY PREDICTED BY IDOCK:   -2.86 KCAL/MOL
REMARK 924 INTRA-LIGAND FREE ENERGY PREDICTED BY IDOCK:    0.00 KCAL/MOL
REMARK 927      BINDING AFFINITY PREDICTED BY RF-SCORE:    0.00 PKD
ROOT
HETATM    1  C   UNL     1      -6.985  11.412  66.892  1.00  0.00    -0.140 C  
HETATM    2  C   UNL     1      -7.109   9.999  67.450  1.00  0.00    -0.084 C  
ENDROOT
BRANCH   2   3
HETATM    3  C   UNL     1      -8.519   9.336  67.294  1.00  0.00    -0.125 C  
HETATM    4  C   UNL     1      -9.362  10.050  66.199  1.00  0.00    -0.220 C  
HETATM    5  O   UNL     1      -8.259   6.887  67.464  1.00  0.00    -0.114 OA 
HETATM    6  C   UNL     1      -8.711  10.029  64.827  1.00  0.00    -0.206 C  
HETATM    7  C   UNL     1      -8.273   7.898  66.767  1.00  0.00    -0.116 C  
HETATM    8  H   UNL     1      -7.445   6.957  65.147  1.00  0.00     0.000 HD 
HETATM    9  C   UNL     1      -8.379   8.622  64.421  1.00  0.00    -0.139 C  
HETATM   10  N   UNL     1      -7.995   7.771  65.424  1.00  0.00    -0.117 N  
HETATM   11  O   UNL     1      -8.428   8.244  63.252  1.00  0.00    -0.092 OA 
BRANCH   3  12
HETATM   12  C   UNL     1      -9.240   9.334  68.666  1.00  0.00    -0.135 A  
HETATM   13  C   UNL     1     -11.323   9.342  69.955  1.00  0.00    -0.137 A  
HETATM   14  N   UNL     1     -11.319   8.929  72.347  1.00  0.00    -0.220 NA 
HETATM   15  C   UNL     1      -9.249   9.010  71.090  1.00  0.00    -0.326 A  
HETATM   16  C   UNL     1      -8.559   9.145  69.881  1.00  0.00    -0.155 A  
HETATM   17  H2  UNL     1     -10.978   9.670  72.958  1.00  0.00     0.000 HD 
HETATM   18  H1  UNL     1     -12.338   8.936  72.372  1.00  0.00     0.000 HD 
HETATM   19  C   UNL     1     -10.638   9.475  68.742  1.00  0.00    -0.240 A  
HETATM   20  C   UNL     1     -10.641   9.020  71.126  1.00  0.00    -0.290 A  
ENDBRANCH   3  12
ENDBRANCH   2   3
TORSDOF 2
ENDMDL
MODEL      167
REMARK 921   NORMALIZED FREE ENERGY PREDICTED BY IDOCK:   -2.18 KCAL/MOL
REMARK 922        TOTAL FREE ENERGY PREDICTED BY IDOCK:   -2.77 KCAL/MOL
REMARK 923 INTER-LIGAND FREE ENERGY PREDICTED BY IDOCK:   -4.22 KCAL/MOL
REMARK 924 INTRA-LIGAND FREE ENERGY PREDICTED BY IDOCK:    1.45 KCAL/MOL
REMARK 927      BINDING AFFINITY PREDICTED BY RF-SCORE:    0.00 PKD
ROOT
HETATM    1  C   UNL     1      -6.924  17.272  65.993  1.00  0.00    -0.166 C  
HETATM    2  C   UNL     1      -8.307  16.681  66.241  1.00  0.00    -0.360 C  
ENDROOT
BRANCH   2   3
HETATM    3  C   UNL     1      -8.659  16.403  67.742  1.00  0.00    -0.172 C  
HETATM    4  C   UNL     1      -7.405  16.530  68.652  1.00  0.00    -0.194 C  
HETATM    5  O   UNL     1     -10.843  17.442  68.242  1.00  0.00    -0.355 OA 
HETATM    6  C   UNL     1      -6.757  17.903  68.598  1.00  0.00    -0.239 C  
HETATM    7  C   UNL     1      -9.620  17.538  68.186  1.00  0.00    -0.294 C  
HETATM    8  H   UNL     1      -9.635  19.578  68.367  1.00  0.00     0.000 HD 
HETATM    9  C   UNL     1      -7.762  18.973  68.913  1.00  0.00    -0.309 C  
HETATM   10  N   UNL     1      -9.044  18.754  68.482  1.00  0.00    -0.334 N  
HETATM   11  O   UNL     1      -7.461  20.005  69.510  1.00  0.00    -0.138 OA 
BRANCH   3  12
HETATM   12  C   UNL     1      -9.320  15.006  67.864  1.00  0.00    -0.183 A  
HETATM   13  C   UNL     1     -11.332  13.610  67.801  1.00  0.00    -0.336 A  
HETATM   14  N   UNL     1     -11.179  11.189  67.780  1.00  0.00    -0.279 NA 
HETATM   15  C   UNL     1      -9.190  12.564  67.932  1.00  0.00    -0.200 A  
HETATM   16  C   UNL     1      -8.572  13.819  67.964  1.00  0.00    -0.177 A  
HETATM   17  H2  UNL     1     -10.922  10.719  68.648  1.00  0.00     0.000 HD 
HETATM   18  H1  UNL     1     -12.187  11.103  67.656  1.00  0.00     0.000 HD 
HETATM   19  C   UNL     1     -10.719  14.869  67.829  1.00  0.00    -0.271 A  
HETATM   20  C   UNL     1     -10.567  12.448  67.764  1.00  0.00    -0.217 A  
ENDBRANCH   3  12
ENDBRANCH   2   3
TORSDOF 2
ENDMDL
MODEL      168
REMARK 921   NORMALIZED FREE ENERGY PREDICTED BY IDOCK:   -2.16 KCAL/MOL
REMARK 922        TOTAL FREE ENERGY PREDICTED BY IDOCK:   -2.75 KCAL/MOL
REMARK 923 INTER-LIGAND FREE ENERGY PREDICTED BY IDOCK:   -3.24 KCAL/MOL
REMARK 924 INTRA-LIGAND FREE ENERGY PREDICTED BY IDOCK:    0.49 KCAL/MOL
REMARK 927      BINDING AFFINITY PREDICTED BY RF-SCORE:    0.00 PKD
ROOT
HETATM    1  C   UNL     1      -6.558   8.635  66.631  1.00  0.00    -0.060 C  
HETATM    2  C   UNL     1      -6.907   7.179  66.342  1.00  0.00    -0.061 C  
ENDROOT
BRANCH   2   3
HETATM    3  C   UNL     1      -8.227   6.954  65.528  1.00  0.00    -0.135 C  
HETATM    4  C   UNL     1      -8.042   5.860  64.440  1.00  0.00    -0.128 C  
HETATM    5  O   UNL     1     -10.137   7.047  67.090  1.00  0.00    -0.177 OA 
HETATM    6  C   UNL     1      -7.638   4.509  65.005  1.00  0.00    -0.077 C  
HETATM    7  C   UNL     1      -9.268   6.385  66.528  1.00  0.00    -0.155 C  
HETATM    8  H   UNL     1      -9.523   4.760  67.748  1.00  0.00     0.000 HD 
HETATM    9  C   UNL     1      -8.612   4.064  66.058  1.00  0.00    -0.110 C  
HETATM   10  N   UNL     1      -9.159   5.048  66.839  1.00  0.00    -0.116 N  
HETATM   11  O   UNL     1      -8.899   2.881  66.233  1.00  0.00    -0.131 OA 
BRANCH   3  12
HETATM   12  C   UNL     1      -8.689   8.302  64.917  1.00  0.00    -0.008 A  
HETATM   13  C   UNL     1      -8.931   9.761  62.964  1.00  0.00    -0.271 A  
HETATM   14  N   UNL     1     -10.270  11.782  63.067  1.00  0.00    -0.637 NA 
HETATM   15  C   UNL     1      -9.959  10.390  65.025  1.00  0.00    -0.399 A  
HETATM   16  C   UNL     1      -9.438   9.247  65.641  1.00  0.00    -0.324 A  
HETATM   17  H2  UNL     1      -9.890  12.581  63.574  1.00  0.00     0.000 HD 
HETATM   18  H1  UNL     1     -10.141  11.945  62.069  1.00  0.00     0.000 HD 
HETATM   19  C   UNL     1      -8.410   8.614  63.574  1.00  0.00    -0.117 A  
HETATM   20  C   UNL     1      -9.783  10.612  63.662  1.00  0.00    -0.330 A  
ENDBRANCH   3  12
ENDBRANCH   2   3
TORSDOF 2
ENDMDL
MODEL      169
REMARK 921   NORMALIZED FREE ENERGY PREDICTED BY IDOCK:   -2.15 KCAL/MOL
REMARK 922        TOTAL FREE ENERGY PREDICTED BY IDOCK:   -2.73 KCAL/MOL
REMARK 923 INTER-LIGAND FREE ENERGY PREDICTED BY IDOCK:   -2.67 KCAL/MOL
REMARK 924 INTRA-LIGAND FREE ENERGY PREDICTED BY IDOCK:   -0.06 KCAL/MOL
REMARK 927      BINDING AFFINITY PREDICTED BY RF-SCORE:    0.00 PKD
ROOT
HETATM    1  C   UNL     1     -11.034  10.948  68.189  1.00  0.00    -0.302 C  
HETATM    2  C   UNL     1      -9.621  10.777  68.737  1.00  0.00    -0.194 C  
ENDROOT
BRANCH   2   3
HETATM    3  C   UNL     1      -8.467  11.144  67.744  1.00  0.00    -0.124 C  
HETATM    4  C   UNL     1      -7.291  10.132  67.842  1.00  0.00    -0.087 C  
HETATM    5  O   UNL     1      -9.471  11.899  65.618  1.00  0.00    -0.228 OA 
HETATM    6  C   UNL     1      -7.700   8.701  67.534  1.00  0.00    -0.098 C  
HETATM    7  C   UNL     1      -9.049  10.980  66.315  1.00  0.00    -0.182 C  
HETATM    8  H   UNL     1      -9.859   9.523  65.125  1.00  0.00     0.000 HD 
HETATM    9  C   UNL     1      -8.370   8.621  66.193  1.00  0.00    -0.125 C  
HETATM   10  N   UNL     1      -9.141   9.694  65.829  1.00  0.00    -0.171 N  
HETATM   11  O   UNL     1      -8.257   7.642  65.457  1.00  0.00    -0.123 OA 
BRANCH   3  12
HETATM   12  C   UNL     1      -8.000  12.597  68.014  1.00  0.00    -0.155 A  
HETATM   13  C   UNL     1      -8.502  14.865  68.793  1.00  0.00    -0.172 A  
HETATM   14  N   UNL     1      -6.733  16.483  69.164  1.00  0.00    -0.201 NA 
HETATM   15  C   UNL     1      -6.241  14.271  68.309  1.00  0.00    -0.117 A  
HETATM   16  C   UNL     1      -6.652  12.990  67.926  1.00  0.00    -0.131 A  
HETATM   17  H2  UNL     1      -6.287  16.900  68.347  1.00  0.00     0.000 HD 
HETATM   18  H1  UNL     1      -7.398  17.157  69.545  1.00  0.00     0.000 HD 
HETATM   19  C   UNL     1      -8.920  13.584  68.414  1.00  0.00    -0.146 A  
HETATM   20  C   UNL     1      -7.149  15.190  68.827  1.00  0.00    -0.117 A  
ENDBRANCH   3  12
ENDBRANCH   2   3
TORSDOF 2
ENDMDL
MODEL      170
REMARK 921   NORMALIZED FREE ENERGY PREDICTED BY IDOCK:   -2.14 KCAL/MOL
REMARK 922        TOTAL FREE ENERGY PREDICTED BY IDOCK:   -2.72 KCAL/MOL
REMARK 923 INTER-LIGAND FREE ENERGY PREDICTED BY IDOCK:   -2.32 KCAL/MOL
REMARK 924 INTRA-LIGAND FREE ENERGY PREDICTED BY IDOCK:   -0.40 KCAL/MOL
REMARK 927      BINDING AFFINITY PREDICTED BY RF-SCORE:    0.00 PKD
ROOT
HETATM    1  C   UNL     1      -9.343   7.733  65.901  1.00  0.00    -0.026 C  
HETATM    2  C   UNL     1      -9.780   8.420  67.190  1.00  0.00    -0.250 C  
ENDROOT
BRANCH   2   3
HETATM    3  C   UNL     1      -8.756   8.343  68.373  1.00  0.00    -0.136 C  
HETATM    4  C   UNL     1      -7.312   8.662  67.893  1.00  0.00    -0.092 C  
HETATM    5  O   UNL     1      -9.799   9.333  70.380  1.00  0.00    -0.205 OA 
HETATM    6  C   UNL     1      -7.172  10.044  67.277  1.00  0.00    -0.086 C  
HETATM    7  C   UNL     1      -9.135   9.481  69.357  1.00  0.00    -0.168 C  
HETATM    8  H   UNL     1      -9.296  11.523  69.384  1.00  0.00     0.000 HD 
HETATM    9  C   UNL     1      -7.670  11.097  68.225  1.00  0.00    -0.116 C  
HETATM   10  N   UNL     1      -8.737  10.754  69.013  1.00  0.00    -0.155 N  
HETATM   11  O   UNL     1      -7.169  12.218  68.288  1.00  0.00    -0.085 OA 
BRANCH   3  12
HETATM   12  C   UNL     1      -8.846   6.947  69.040  1.00  0.00    -0.130 A  
HETATM   13  C   UNL     1     -10.154   4.948  69.583  1.00  0.00    -0.300 A  
HETATM   14  N   UNL     1      -9.092   2.960  70.481  1.00  0.00    -0.107 NA 
HETATM   15  C   UNL     1      -7.809   4.965  70.030  1.00  0.00    -0.066 A  
HETATM   16  C   UNL     1      -7.723   6.280  69.560  1.00  0.00    -0.099 A  
HETATM   17  H2  UNL     1      -8.784   2.981  71.454  1.00  0.00     0.000 HD 
HETATM   18  H1  UNL     1      -9.969   2.442  70.433  1.00  0.00     0.000 HD 
HETATM   19  C   UNL     1     -10.073   6.262  69.107  1.00  0.00    -0.204 A  
HETATM   20  C   UNL     1      -9.007   4.259  69.966  1.00  0.00    -0.095 A  
ENDBRANCH   3  12
ENDBRANCH   2   3
TORSDOF 2
ENDMDL
MODEL      171
REMARK 921   NORMALIZED FREE ENERGY PREDICTED BY IDOCK:   -2.12 KCAL/MOL
REMARK 922        TOTAL FREE ENERGY PREDICTED BY IDOCK:   -2.70 KCAL/MOL
REMARK 923 INTER-LIGAND FREE ENERGY PREDICTED BY IDOCK:   -2.32 KCAL/MOL
REMARK 924 INTRA-LIGAND FREE ENERGY PREDICTED BY IDOCK:   -0.38 KCAL/MOL
REMARK 927      BINDING AFFINITY PREDICTED BY RF-SCORE:    0.00 PKD
ROOT
HETATM    1  C   UNL     1     -10.126   8.147  66.793  1.00  0.00    -0.365 C  
HETATM    2  C   UNL     1      -8.860   7.371  66.448  1.00  0.00    -0.176 C  
ENDROOT
BRANCH   2   3
HETATM    3  C   UNL     1      -8.633   6.056  67.269  1.00  0.00    -0.106 C  
HETATM    4  C   UNL     1      -9.914   5.176  67.293  1.00  0.00    -0.218 C  
HETATM    5  O   UNL     1      -6.372   5.199  66.769  1.00  0.00    -0.037 OA 
HETATM    6  C   UNL     1     -10.385   4.757  65.911  1.00  0.00    -0.303 C  
HETATM    7  C   UNL     1      -7.569   5.234  66.495  1.00  0.00    -0.088 C  
HETATM    8  H   UNL     1      -7.316   4.354  64.663  1.00  0.00     0.000 HD 
HETATM    9  C   UNL     1      -9.277   4.076  65.160  1.00  0.00    -0.151 C  
HETATM   10  N   UNL     1      -8.008   4.541  65.389  1.00  0.00    -0.097 N  
HETATM   11  O   UNL     1      -9.484   3.162  64.364  1.00  0.00    -0.134 OA 
BRANCH   3  12
HETATM   12  C   UNL     1      -8.157   6.420  68.698  1.00  0.00    -0.113 A  
HETATM   13  C   UNL     1      -7.255   8.072  70.266  1.00  0.00    -0.053 A  
HETATM   14  N   UNL     1      -7.204   7.638  72.653  1.00  0.00    -0.074 NA 
HETATM   15  C   UNL     1      -8.013   5.967  71.098  1.00  0.00    -0.113 A  
HETATM   16  C   UNL     1      -8.326   5.558  69.797  1.00  0.00    -0.105 A  
HETATM   17  H2  UNL     1      -6.510   6.978  73.004  1.00  0.00     0.000 HD 
HETATM   18  H1  UNL     1      -6.870   8.583  72.841  1.00  0.00     0.000 HD 
HETATM   19  C   UNL     1      -7.569   7.670  68.963  1.00  0.00    -0.104 A  
HETATM   20  C   UNL     1      -7.557   7.256  71.354  1.00  0.00    -0.083 A  
ENDBRANCH   3  12
ENDBRANCH   2   3
TORSDOF 2
ENDMDL
MODEL      172
REMARK 921   NORMALIZED FREE ENERGY PREDICTED BY IDOCK:   -2.12 KCAL/MOL
REMARK 922        TOTAL FREE ENERGY PREDICTED BY IDOCK:   -2.70 KCAL/MOL
REMARK 923 INTER-LIGAND FREE ENERGY PREDICTED BY IDOCK:   -2.54 KCAL/MOL
REMARK 924 INTRA-LIGAND FREE ENERGY PREDICTED BY IDOCK:   -0.16 KCAL/MOL
REMARK 927      BINDING AFFINITY PREDICTED BY RF-SCORE:    0.00 PKD
ROOT
HETATM    1  C   UNL     1      -5.650   8.566  68.316  1.00  0.00    -0.035 C  
HETATM    2  C   UNL     1      -6.826   9.081  69.138  1.00  0.00    -0.054 C  
ENDROOT
BRANCH   2   3
HETATM    3  C   UNL     1      -8.176   9.233  68.357  1.00  0.00    -0.115 C  
HETATM    4  C   UNL     1      -8.233   8.277  67.133  1.00  0.00    -0.119 C  
HETATM    5  O   UNL     1     -10.004   9.499  69.995  1.00  0.00    -0.205 OA 
HETATM    6  C   UNL     1      -8.104   6.810  67.507  1.00  0.00    -0.115 C  
HETATM    7  C   UNL     1      -9.296   8.757  69.319  1.00  0.00    -0.149 C  
HETATM    8  H   UNL     1      -9.859   7.069  70.334  1.00  0.00     0.000 HD 
HETATM    9  C   UNL     1      -9.133   6.434  68.534  1.00  0.00    -0.126 C  
HETATM   10  N   UNL     1      -9.457   7.395  69.455  1.00  0.00    -0.155 N  
HETATM   11  O   UNL     1      -9.652   5.320  68.570  1.00  0.00    -0.122 OA 
BRANCH   3  12
HETATM   12  C   UNL     1      -8.362  10.714  67.940  1.00  0.00    -0.120 A  
HETATM   13  C   UNL     1      -7.564  13.030  67.965  1.00  0.00    -0.139 A  
HETATM   14  N   UNL     1      -8.559  14.714  66.528  1.00  0.00    -0.443 NA 
HETATM   15  C   UNL     1      -9.409  12.447  66.567  1.00  0.00    -0.233 A  
HETATM   16  C   UNL     1      -9.352  11.128  67.030  1.00  0.00    -0.182 A  
HETATM   17  H2  UNL     1      -9.483  15.067  66.774  1.00  0.00     0.000 HD 
HETATM   18  H1  UNL     1      -7.865  15.404  66.818  1.00  0.00     0.000 HD 
HETATM   19  C   UNL     1      -7.500  11.712  68.430  1.00  0.00    -0.107 A  
HETATM   20  C   UNL     1      -8.463  13.387  66.963  1.00  0.00    -0.125 A  
ENDBRANCH   3  12
ENDBRANCH   2   3
TORSDOF 2
ENDMDL
MODEL      173
REMARK 921   NORMALIZED FREE ENERGY PREDICTED BY IDOCK:   -2.10 KCAL/MOL
REMARK 922        TOTAL FREE ENERGY PREDICTED BY IDOCK:   -2.68 KCAL/MOL
REMARK 923 INTER-LIGAND FREE ENERGY PREDICTED BY IDOCK:   -2.53 KCAL/MOL
REMARK 924 INTRA-LIGAND FREE ENERGY PREDICTED BY IDOCK:   -0.16 KCAL/MOL
REMARK 927      BINDING AFFINITY PREDICTED BY RF-SCORE:    0.00 PKD
ROOT
HETATM    1  C   UNL     1      -6.911   3.442  68.268  1.00  0.00    -0.050 C  
HETATM    2  C   UNL     1      -6.930   4.928  67.926  1.00  0.00    -0.061 C  
ENDROOT
BRANCH   2   3
HETATM    3  C   UNL     1      -8.311   5.643  68.112  1.00  0.00    -0.099 C  
HETATM    4  C   UNL     1      -8.661   6.530  66.884  1.00  0.00    -0.114 C  
HETATM    5  O   UNL     1      -9.881   4.054  69.164  1.00  0.00    -0.153 OA 
HETATM    6  C   UNL     1      -8.739   5.752  65.580  1.00  0.00    -0.151 C  
HETATM    7  C   UNL     1      -9.384   4.523  68.143  1.00  0.00    -0.140 C  
HETATM    8  H   UNL     1     -10.108   3.030  66.942  1.00  0.00     0.000 HD 
HETATM    9  C   UNL     1      -9.698   4.604  65.707  1.00  0.00    -0.197 C  
HETATM   10  N   UNL     1      -9.755   3.987  66.929  1.00  0.00    -0.213 N  
HETATM   11  O   UNL     1     -10.389   4.216  64.767  1.00  0.00    -0.229 OA 
BRANCH   3  12
HETATM   12  C   UNL     1      -8.292   6.463  69.427  1.00  0.00    -0.122 A  
HETATM   13  C   UNL     1      -9.246   8.235  70.824  1.00  0.00    -0.174 A  
HETATM   14  N   UNL     1      -8.583   8.497  73.143  1.00  0.00    -0.383 NA 
HETATM   15  C   UNL     1      -7.572   6.800  71.740  1.00  0.00    -0.095 A  
HETATM   16  C   UNL     1      -7.469   6.128  70.518  1.00  0.00    -0.090 A  
HETATM   17  H2  UNL     1      -7.661   8.889  73.335  1.00  0.00     0.000 HD 
HETATM   18  H1  UNL     1      -9.278   9.229  73.283  1.00  0.00     0.000 HD 
HETATM   19  C   UNL     1      -9.150   7.564  69.599  1.00  0.00    -0.140 A  
HETATM   20  C   UNL     1      -8.521   7.801  71.930  1.00  0.00    -0.114 A  
ENDBRANCH   3  12
ENDBRANCH   2   3
TORSDOF 2
ENDMDL
MODEL      174
REMARK 921   NORMALIZED FREE ENERGY PREDICTED BY IDOCK:   -2.04 KCAL/MOL
REMARK 922        TOTAL FREE ENERGY PREDICTED BY IDOCK:   -2.62 KCAL/MOL
REMARK 923 INTER-LIGAND FREE ENERGY PREDICTED BY IDOCK:   -2.36 KCAL/MOL
REMARK 924 INTRA-LIGAND FREE ENERGY PREDICTED BY IDOCK:   -0.26 KCAL/MOL
REMARK 927      BINDING AFFINITY PREDICTED BY RF-SCORE:    0.00 PKD
ROOT
HETATM    1  C   UNL     1      -5.391   8.632  68.229  1.00  0.00    -0.034 C  
HETATM    2  C   UNL     1      -6.613   8.752  69.133  1.00  0.00    -0.047 C  
ENDROOT
BRANCH   2   3
HETATM    3  C   UNL     1      -7.972   8.316  68.487  1.00  0.00    -0.122 C  
HETATM    4  C   UNL     1      -8.040   6.775  68.295  1.00  0.00    -0.115 C  
HETATM    5  O   UNL     1      -9.782   9.670  69.479  1.00  0.00    -0.179 OA 
HETATM    6  C   UNL     1      -7.901   5.999  69.594  1.00  0.00    -0.102 C  
HETATM    7  C   UNL     1      -9.079   8.664  69.517  1.00  0.00    -0.146 C  
HETATM    8  H   UNL     1      -9.624   8.187  71.432  1.00  0.00     0.000 HD 
HETATM    9  C   UNL     1      -8.916   6.463  70.597  1.00  0.00    -0.144 C  
HETATM   10  N   UNL     1      -9.233   7.796  70.575  1.00  0.00    -0.161 N  
HETATM   11  O   UNL     1      -9.431   5.702  71.415  1.00  0.00    -0.146 OA 
BRANCH   3  12
HETATM   12  C   UNL     1      -8.169   9.073  67.148  1.00  0.00    -0.110 A  
HETATM   13  C   UNL     1      -9.121   9.158  64.893  1.00  0.00    -0.190 A  
HETATM   14  N   UNL     1      -9.104  11.212  63.602  1.00  0.00    -0.389 NA 
HETATM   15  C   UNL     1      -8.082  11.109  65.795  1.00  0.00     0.029 A  
HETATM   16  C   UNL     1      -7.768  10.408  66.965  1.00  0.00    -0.105 A  
HETATM   17  H2  UNL     1      -8.217  11.518  63.202  1.00  0.00     0.000 HD 
HETATM   18  H1  UNL     1      -9.657  10.779  62.862  1.00  0.00     0.000 HD 
HETATM   19  C   UNL     1      -8.812   8.453  66.062  1.00  0.00    -0.202 A  
HETATM   20  C   UNL     1      -8.836  10.517  64.786  1.00  0.00    -0.196 A  
ENDBRANCH   3  12
ENDBRANCH   2   3
TORSDOF 2
ENDMDL
MODEL      175
REMARK 921   NORMALIZED FREE ENERGY PREDICTED BY IDOCK:   -1.89 KCAL/MOL
REMARK 922        TOTAL FREE ENERGY PREDICTED BY IDOCK:   -2.44 KCAL/MOL
REMARK 923 INTER-LIGAND FREE ENERGY PREDICTED BY IDOCK:   -2.85 KCAL/MOL
REMARK 924 INTRA-LIGAND FREE ENERGY PREDICTED BY IDOCK:    0.40 KCAL/MOL
REMARK 927      BINDING AFFINITY PREDICTED BY RF-SCORE:    0.00 PKD
ROOT
HETATM    1  C   UNL     1      -5.960   9.804  66.620  1.00  0.00    -0.059 C  
HETATM    2  C   UNL     1      -6.029   9.376  68.082  1.00  0.00    -0.041 C  
ENDROOT
BRANCH   2   3
HETATM    3  C   UNL     1      -7.285   9.880  68.871  1.00  0.00    -0.076 C  
HETATM    4  C   UNL     1      -7.044   9.840  70.406  1.00  0.00    -0.146 C  
HETATM    5  O   UNL     1      -8.242  11.812  67.669  1.00  0.00    -0.131 OA 
HETATM    6  C   UNL     1      -5.870  10.694  70.855  1.00  0.00    -0.041 C  
HETATM    7  C   UNL     1      -7.458  11.379  68.509  1.00  0.00    -0.113 C  
HETATM    8  H   UNL     1      -6.428  13.142  68.657  1.00  0.00     0.000 HD 
HETATM    9  C   UNL     1      -6.029  12.106  70.370  1.00  0.00    -0.103 C  
HETATM   10  N   UNL     1      -6.624  12.270  69.147  1.00  0.00    -0.101 N  
HETATM   11  O   UNL     1      -5.634  13.074  71.018  1.00  0.00    -0.190 OA 
BRANCH   3  12
HETATM   12  C   UNL     1      -8.520   9.039  68.459  1.00  0.00    -0.128 A  
HETATM   13  C   UNL     1     -10.288   8.539  66.839  1.00  0.00    -0.367 A  
HETATM   14  N   UNL     1     -11.656   6.546  67.051  1.00  0.00    -0.627 NA 
HETATM   15  C   UNL     1      -9.970   7.084  68.705  1.00  0.00    -0.156 A  
HETATM   16  C   UNL     1      -8.938   7.903  69.175  1.00  0.00    -0.145 A  
HETATM   17  H2  UNL     1     -12.369   6.531  67.781  1.00  0.00     0.000 HD 
HETATM   18  H1  UNL     1     -12.114   6.738  66.161  1.00  0.00     0.000 HD 
HETATM   19  C   UNL     1      -9.254   9.360  67.303  1.00  0.00    -0.151 A  
HETATM   20  C   UNL     1     -10.595   7.346  67.489  1.00  0.00    -0.269 A  
ENDBRANCH   3  12
ENDBRANCH   2   3
TORSDOF 2
ENDMDL
MODEL      176
REMARK 921   NORMALIZED FREE ENERGY PREDICTED BY IDOCK:   -1.69 KCAL/MOL
REMARK 922        TOTAL FREE ENERGY PREDICTED BY IDOCK:   -2.22 KCAL/MOL
REMARK 923 INTER-LIGAND FREE ENERGY PREDICTED BY IDOCK:   -2.36 KCAL/MOL
REMARK 924 INTRA-LIGAND FREE ENERGY PREDICTED BY IDOCK:    0.14 KCAL/MOL
REMARK 927      BINDING AFFINITY PREDICTED BY RF-SCORE:    0.00 PKD
ROOT
HETATM    1  C   UNL     1      -8.096   3.007  69.172  1.00  0.00    -0.069 C  
HETATM    2  C   UNL     1      -7.273   4.263  69.439  1.00  0.00    -0.051 C  
ENDROOT
BRANCH   2   3
HETATM    3  C   UNL     1      -7.868   5.590  68.858  1.00  0.00    -0.095 C  
HETATM    4  C   UNL     1      -8.679   6.367  69.933  1.00  0.00    -0.142 C  
HETATM    5  O   UNL     1      -6.181   6.625  67.381  1.00  0.00    -0.030 OA 
HETATM    6  C   UNL     1      -7.854   6.748  71.151  1.00  0.00    -0.101 C  
HETATM    7  C   UNL     1      -6.658   6.496  68.505  1.00  0.00    -0.051 C  
HETATM    8  H   UNL     1      -5.068   7.395  69.432  1.00  0.00     0.000 HD 
HETATM    9  C   UNL     1      -6.630   7.515  70.741  1.00  0.00    -0.043 C  
HETATM   10  N   UNL     1      -6.052   7.153  69.553  1.00  0.00    -0.029 N  
HETATM   11  O   UNL     1      -6.151   8.411  71.434  1.00  0.00    -0.035 OA 
BRANCH   3  12
HETATM   12  C   UNL     1      -8.729   5.265  67.611  1.00  0.00    -0.106 A  
HETATM   13  C   UNL     1      -8.960   4.164  65.435  1.00  0.00    -0.132 A  
HETATM   14  N   UNL     1     -11.121   3.981  64.345  1.00  0.00    -0.763 NA 
HETATM   15  C   UNL     1     -10.881   5.149  66.454  1.00  0.00    -0.174 A  
HETATM   16  C   UNL     1     -10.098   5.577  67.531  1.00  0.00    -0.217 A  
HETATM   17  H2  UNL     1     -11.515   4.822  63.923  1.00  0.00     0.000 HD 
HETATM   18  H1  UNL     1     -10.723   3.407  63.603  1.00  0.00     0.000 HD 
HETATM   19  C   UNL     1      -8.172   4.587  66.511  1.00  0.00    -0.103 A  
HETATM   20  C   UNL     1     -10.338   4.365  65.440  1.00  0.00    -0.216 A  
ENDBRANCH   3  12
ENDBRANCH   2   3
TORSDOF 2
ENDMDL
MODEL      177
REMARK 921   NORMALIZED FREE ENERGY PREDICTED BY IDOCK:   -1.21 KCAL/MOL
REMARK 922        TOTAL FREE ENERGY PREDICTED BY IDOCK:   -1.69 KCAL/MOL
REMARK 923 INTER-LIGAND FREE ENERGY PREDICTED BY IDOCK:   -2.27 KCAL/MOL
REMARK 924 INTRA-LIGAND FREE ENERGY PREDICTED BY IDOCK:    0.58 KCAL/MOL
REMARK 927      BINDING AFFINITY PREDICTED BY RF-SCORE:    0.00 PKD
ROOT
HETATM    1  C   UNL     1      -5.946   9.793  66.593  1.00  0.00    -0.059 C  
HETATM    2  C   UNL     1      -6.004   9.331  68.045  1.00  0.00    -0.049 C  
ENDROOT
BRANCH   2   3
HETATM    3  C   UNL     1      -7.232   9.851  68.867  1.00  0.00    -0.076 C  
HETATM    4  C   UNL     1      -7.791   8.748  69.810  1.00  0.00    -0.090 C  
HETATM    5  O   UNL     1      -6.780  12.174  69.568  1.00  0.00    -0.096 OA 
HETATM    6  C   UNL     1      -6.771   8.240  70.815  1.00  0.00    -0.038 C  
HETATM    7  C   UNL     1      -6.696  10.971  69.797  1.00  0.00    -0.136 C  
HETATM    8  H   UNL     1      -5.342  11.214  71.314  1.00  0.00     0.000 HD 
HETATM    9  C   UNL     1      -6.193   9.381  71.602  1.00  0.00     0.023 C  
HETATM   10  N   UNL     1      -6.029  10.565  70.932  1.00  0.00    -0.069 N  
HETATM   11  O   UNL     1      -5.861   9.267  72.781  1.00  0.00    -0.246 OA 
BRANCH   3  12
HETATM   12  C   UNL     1      -8.316  10.378  67.892  1.00  0.00    -0.114 A  
HETATM   13  C   UNL     1      -9.125  12.131  66.384  1.00  0.00    -0.177 A  
HETATM   14  N   UNL     1     -11.013  11.744  64.910  1.00  0.00    -0.304 NA 
HETATM   15  C   UNL     1     -10.272  10.039  66.463  1.00  0.00    -0.291 A  
HETATM   16  C   UNL     1      -9.389   9.585  67.448  1.00  0.00    -0.153 A  
HETATM   17  H2  UNL     1     -11.945  11.718  65.324  1.00  0.00     0.000 HD 
HETATM   18  H1  UNL     1     -10.884  12.654  64.469  1.00  0.00     0.000 HD 
HETATM   19  C   UNL     1      -8.236  11.681  67.367  1.00  0.00    -0.153 A  
HETATM   20  C   UNL     1     -10.096  11.282  65.861  1.00  0.00    -0.245 A  
ENDBRANCH   3  12
ENDBRANCH   2   3
TORSDOF 2
ENDMDL
MODEL      178
REMARK 921   NORMALIZED FREE ENERGY PREDICTED BY IDOCK:   -1.02 KCAL/MOL
REMARK 922        TOTAL FREE ENERGY PREDICTED BY IDOCK:   -1.47 KCAL/MOL
REMARK 923 INTER-LIGAND FREE ENERGY PREDICTED BY IDOCK:   -1.79 KCAL/MOL
REMARK 924 INTRA-LIGAND FREE ENERGY PREDICTED BY IDOCK:    0.32 KCAL/MOL
REMARK 927      BINDING AFFINITY PREDICTED BY RF-SCORE:    0.00 PKD
ROOT
HETATM    1  C   UNL     1     -10.007   7.981  66.146  1.00  0.00     0.021 C  
HETATM    2  C   UNL     1      -9.337   7.503  67.430  1.00  0.00    -0.164 C  
ENDROOT
BRANCH   2   3
HETATM    3  C   UNL     1      -8.408   6.251  67.277  1.00  0.00    -0.109 C  
HETATM    4  C   UNL     1      -8.350   5.765  65.801  1.00  0.00    -0.134 C  
HETATM    5  O   UNL     1      -6.423   6.567  68.711  1.00  0.00    -0.039 OA 
HETATM    6  C   UNL     1      -7.830   6.820  64.839  1.00  0.00    -0.119 C  
HETATM    7  C   UNL     1      -6.972   6.725  67.623  1.00  0.00    -0.083 C  
HETATM    8  H   UNL     1      -5.578   8.071  66.961  1.00  0.00     0.000 HD 
HETATM    9  C   UNL     1      -6.493   7.333  65.291  1.00  0.00    -0.044 C  
HETATM   10  N   UNL     1      -6.298   7.421  66.644  1.00  0.00    -0.043 N  
HETATM   11  O   UNL     1      -5.617   7.678  64.500  1.00  0.00    -0.033 OA 
BRANCH   3  12
HETATM   12  C   UNL     1      -8.895   5.132  68.233  1.00  0.00    -0.107 A  
HETATM   13  C   UNL     1      -8.898   2.772  68.891  1.00  0.00    -0.151 A  
HETATM   14  N   UNL     1      -9.840   2.064  71.012  1.00  0.00    -0.083 NA 
HETATM   15  C   UNL     1      -9.919   4.385  70.325  1.00  0.00    -0.248 A  
HETATM   16  C   UNL     1      -9.613   5.400  69.412  1.00  0.00    -0.203 A  
HETATM   17  H2  UNL     1     -10.855   2.055  71.105  1.00  0.00     0.000 HD 
HETATM   18  H1  UNL     1      -9.524   1.106  70.858  1.00  0.00     0.000 HD 
HETATM   19  C   UNL     1      -8.586   3.784  67.975  1.00  0.00    -0.114 A  
HETATM   20  C   UNL     1      -9.489   3.078  70.114  1.00  0.00    -0.136 A  
ENDBRANCH   3  12
ENDBRANCH   2   3
TORSDOF 2
ENDMDL
MODEL      179
REMARK 921   NORMALIZED FREE ENERGY PREDICTED BY IDOCK:   -0.88 KCAL/MOL
REMARK 922        TOTAL FREE ENERGY PREDICTED BY IDOCK:   -1.31 KCAL/MOL
REMARK 923 INTER-LIGAND FREE ENERGY PREDICTED BY IDOCK:   -1.59 KCAL/MOL
REMARK 924 INTRA-LIGAND FREE ENERGY PREDICTED BY IDOCK:    0.28 KCAL/MOL
REMARK 927      BINDING AFFINITY PREDICTED BY RF-SCORE:    0.00 PKD
ROOT
HETATM    1  C   UNL     1      -9.612   9.353  64.760  1.00  0.00     0.024 C  
HETATM    2  C   UNL     1      -8.978   9.060  66.115  1.00  0.00    -0.216 C  
ENDROOT
BRANCH   2   3
HETATM    3  C   UNL     1      -7.664   8.208  66.071  1.00  0.00    -0.090 C  
HETATM    4  C   UNL     1      -7.220   7.925  64.608  1.00  0.00    -0.079 C  
HETATM    5  O   UNL     1      -6.148   9.011  67.847  1.00  0.00    -0.049 OA 
HETATM    6  C   UNL     1      -6.955   9.186  63.804  1.00  0.00    -0.089 C  
HETATM    7  C   UNL     1      -6.547   9.091  66.689  1.00  0.00    -0.068 C  
HETATM    8  H   UNL     1      -5.617  10.883  66.347  1.00  0.00     0.000 HD 
HETATM    9  C   UNL     1      -5.960  10.063  64.509  1.00  0.00    -0.120 C  
HETATM   10  N   UNL     1      -6.014  10.069  65.878  1.00  0.00    -0.071 N  
HETATM   11  O   UNL     1      -5.148  10.758  63.902  1.00  0.00    -0.165 OA 
BRANCH   3  12
HETATM   12  C   UNL     1      -7.875   6.898  66.873  1.00  0.00    -0.107 A  
HETATM   13  C   UNL     1      -9.354   5.421  68.150  1.00  0.00    -0.131 A  
HETATM   14  N   UNL     1      -8.670   3.168  68.739  1.00  0.00    -0.089 NA 
HETATM   15  C   UNL     1      -7.171   4.657  67.555  1.00  0.00    -0.069 A  
HETATM   16  C   UNL     1      -6.902   5.885  66.941  1.00  0.00    -0.063 A  
HETATM   17  H2  UNL     1      -7.978   3.057  69.480  1.00  0.00     0.000 HD 
HETATM   18  H1  UNL     1      -9.591   2.967  69.129  1.00  0.00     0.000 HD 
HETATM   19  C   UNL     1      -9.091   6.650  67.534  1.00  0.00    -0.116 A  
HETATM   20  C   UNL     1      -8.427   4.383  68.088  1.00  0.00    -0.094 A  
ENDBRANCH   3  12
ENDBRANCH   2   3
TORSDOF 2
ENDMDL
MODEL      180
REMARK 921   NORMALIZED FREE ENERGY PREDICTED BY IDOCK:    0.22 KCAL/MOL
REMARK 922        TOTAL FREE ENERGY PREDICTED BY IDOCK:   -0.09 KCAL/MOL
REMARK 923 INTER-LIGAND FREE ENERGY PREDICTED BY IDOCK:   -0.83 KCAL/MOL
REMARK 924 INTRA-LIGAND FREE ENERGY PREDICTED BY IDOCK:    0.74 KCAL/MOL
REMARK 927      BINDING AFFINITY PREDICTED BY RF-SCORE:    0.00 PKD
ROOT
HETATM    1  C   UNL     1     -14.270  15.696  70.879  1.00  0.00     0.400 C  
HETATM    2  C   UNL     1     -13.650  14.650  69.958  1.00  0.00     1.051 C  
ENDROOT
BRANCH   2   3
HETATM    3  C   UNL     1     -12.320  14.004  70.474  1.00  0.00    -0.437 C  
HETATM    4  C   UNL     1     -12.258  13.999  72.028  1.00  0.00    -0.060 C  
HETATM    5  O   UNL     1     -11.796  12.049  69.060  1.00  0.00    -0.306 OA 
HETATM    6  C   UNL     1     -13.400  13.232  72.674  1.00  0.00    -0.447 C  
HETATM    7  C   UNL     1     -12.361  12.513  70.047  1.00  0.00    -0.084 C  
HETATM    8  H   UNL     1     -13.507  10.842  70.347  1.00  0.00     0.000 HD 
HETATM    9  C   UNL     1     -13.471  11.834  72.132  1.00  0.00    -0.168 C  
HETATM   10  N   UNL     1     -13.139  11.672  70.812  1.00  0.00     0.039 N  
HETATM   11  O   UNL     1     -13.825  10.878  72.819  1.00  0.00     0.639 OA 
BRANCH   3  12
HETATM   12  C   UNL     1     -11.112  14.751  69.853  1.00  0.00    -0.266 A  
HETATM   13  C   UNL     1      -9.153  14.738  68.383  1.00  0.00    -0.188 A  
HETATM   14  N   UNL     1      -8.017  16.799  67.790  1.00  0.00    -0.175 NA 
HETATM   15  C   UNL     1      -9.898  16.805  69.315  1.00  0.00    -0.168 A  
HETATM   16  C   UNL     1     -10.918  16.136  70.000  1.00  0.00    -0.364 A  
HETATM   17  H2  UNL     1      -7.438  17.247  68.500  1.00  0.00     0.000 HD 
HETATM   18  H1  UNL     1      -7.404  16.302  67.144  1.00  0.00     0.000 HD 
HETATM   19  C   UNL     1     -10.173  14.063  69.063  1.00  0.00    -0.100 A  
HETATM   20  C   UNL     1      -9.062  16.127  68.434  1.00  0.00    -0.199 A  
ENDBRANCH   3  12
ENDBRANCH   2   3
TORSDOF 2
ENDMDL
MODEL      181
REMARK 921   NORMALIZED FREE ENERGY PREDICTED BY IDOCK:    8.79 KCAL/MOL
REMARK 922        TOTAL FREE ENERGY PREDICTED BY IDOCK:    9.48 KCAL/MOL
REMARK 923 INTER-LIGAND FREE ENERGY PREDICTED BY IDOCK:    9.21 KCAL/MOL
REMARK 924 INTRA-LIGAND FREE ENERGY PREDICTED BY IDOCK:    0.27 KCAL/MOL
REMARK 927      BINDING AFFINITY PREDICTED BY RF-SCORE:    0.00 PKD
ROOT
HETATM    1  C   UNL     1     -11.142  13.139  64.279  1.00  0.00    -0.426 C  
HETATM    2  C   UNL     1     -10.314  13.330  65.545  1.00  0.00    -0.298 C  
ENDROOT
BRANCH   2   3
HETATM    3  C   UNL     1      -9.459  12.093  65.981  1.00  0.00    -0.215 C  
HETATM    4  C   UNL     1      -9.539  10.949  64.931  1.00  0.00    -0.297 C  
HETATM    5  O   UNL     1      -7.354  12.907  66.983  1.00  0.00    -0.043 OA 
HETATM    6  C   UNL     1      -9.049  11.359  63.553  1.00  0.00    -0.024 C  
HETATM    7  C   UNL     1      -7.979  12.560  65.984  1.00  0.00     1.231 C  
HETATM    8  H   UNL     1      -6.581  13.301  64.684  1.00  0.00     0.000 HD 
HETATM    9  C   UNL     1      -7.659  11.921  63.633  1.00  0.00     3.116 C  
HETATM   10  N   UNL     1      -7.353  12.639  64.760  1.00  0.00     6.393 N  
HETATM   11  O   UNL     1      -6.833  11.768  62.735  1.00  0.00     1.240 OA 
BRANCH   3  12
HETATM   12  C   UNL     1      -9.919  11.620  67.384  1.00  0.00    -0.200 A  
HETATM   13  C   UNL     1     -10.917  12.134  69.561  1.00  0.00    -0.031 A  
HETATM   14  N   UNL     1     -11.574  10.366  71.088  1.00  0.00    -0.300 NA 
HETATM   15  C   UNL     1     -10.505   9.857  68.975  1.00  0.00    -0.227 A  
HETATM   16  C   UNL     1      -9.956  10.264  67.754  1.00  0.00    -0.203 A  
HETATM   17  H2  UNL     1     -10.837   9.864  71.583  1.00  0.00     0.000 HD 
HETATM   18  H1  UNL     1     -11.987  11.042  71.729  1.00  0.00     0.000 HD 
HETATM   19  C   UNL     1     -10.372  12.547  68.340  1.00  0.00    -0.237 A  
HETATM   20  C   UNL     1     -11.069  10.780  69.850  1.00  0.00    -0.271 A  
ENDBRANCH   3  12
ENDBRANCH   2   3
TORSDOF 2
ENDMDL
MODEL      182
REMARK 921   NORMALIZED FREE ENERGY PREDICTED BY IDOCK:   12.72 KCAL/MOL
REMARK 922        TOTAL FREE ENERGY PREDICTED BY IDOCK:   13.88 KCAL/MOL
REMARK 923 INTER-LIGAND FREE ENERGY PREDICTED BY IDOCK:   12.53 KCAL/MOL
REMARK 924 INTRA-LIGAND FREE ENERGY PREDICTED BY IDOCK:    1.35 KCAL/MOL
REMARK 927      BINDING AFFINITY PREDICTED BY RF-SCORE:    0.00 PKD
ROOT
HETATM    1  C   UNL     1      -6.569  11.493  70.862  1.00  0.00     1.396 C  
HETATM    2  C   UNL     1      -7.224  11.726  69.504  1.00  0.00     0.160 C  
ENDROOT
BRANCH   2   3
HETATM    3  C   UNL     1      -8.330  10.691  69.105  1.00  0.00    -0.140 C  
HETATM    4  C   UNL     1      -8.173   9.361  69.895  1.00  0.00    -0.155 C  
HETATM    5  O   UNL     1     -10.468  11.896  68.830  1.00  0.00    -0.212 OA 
HETATM    6  C   UNL     1      -8.260   9.540  71.401  1.00  0.00     0.559 C  
HETATM    7  C   UNL     1      -9.683  11.298  69.561  1.00  0.00     0.441 C  
HETATM    8  H   UNL     1     -10.611  11.906  71.283  1.00  0.00     0.000 HD 
HETATM    9  C   UNL     1      -9.532  10.244  71.777  1.00  0.00     4.569 C  
HETATM   10  N   UNL     1      -9.985  11.197  70.902  1.00  0.00     3.325 N  
HETATM   11  O   UNL     1     -10.136  10.002  72.820  1.00  0.00     3.716 OA 
BRANCH   3  12
HETATM   12  C   UNL     1      -8.287  10.460  67.573  1.00  0.00    -0.114 A  
HETATM   13  C   UNL     1      -9.466  10.016  65.472  1.00  0.00    -0.296 A  
HETATM   14  N   UNL     1      -8.335  10.210  63.334  1.00  0.00    -0.159 NA 
HETATM   15  C   UNL     1      -7.143  10.562  65.413  1.00  0.00    -0.072 A  
HETATM   16  C   UNL     1      -7.120  10.643  66.810  1.00  0.00    -0.118 A  
HETATM   17  H2  UNL     1      -7.672   9.479  63.076  1.00  0.00     0.000 HD 
HETATM   18  H1  UNL     1      -9.207  10.043  62.832  1.00  0.00     0.000 HD 
HETATM   19  C   UNL     1      -9.451  10.098  66.869  1.00  0.00    -0.203 A  
HETATM   20  C   UNL     1      -8.333  10.334  64.728  1.00  0.00    -0.172 A  
ENDBRANCH   3  12
ENDBRANCH   2   3
TORSDOF 2
ENDMDL
MODEL      183
REMARK 921   NORMALIZED FREE ENERGY PREDICTED BY IDOCK:   27.52 KCAL/MOL
REMARK 922        TOTAL FREE ENERGY PREDICTED BY IDOCK:   30.40 KCAL/MOL
REMARK 923 INTER-LIGAND FREE ENERGY PREDICTED BY IDOCK:   30.60 KCAL/MOL
REMARK 924 INTRA-LIGAND FREE ENERGY PREDICTED BY IDOCK:   -0.20 KCAL/MOL
REMARK 927      BINDING AFFINITY PREDICTED BY RF-SCORE:    0.00 PKD
ROOT
HETATM    1  C   UNL     1     -10.102  13.847  72.443  1.00  0.00     8.141 C  
HETATM    2  C   UNL     1      -9.920  12.701  71.454  1.00  0.00    10.968 C  
ENDROOT
BRANCH   2   3
HETATM    3  C   UNL     1      -9.888  13.115  69.944  1.00  0.00     2.136 C  
HETATM    4  C   UNL     1      -8.525  13.758  69.561  1.00  0.00     0.939 C  
HETATM    5  O   UNL     1     -11.009  11.356  68.624  1.00  0.00    -0.190 OA 
HETATM    6  C   UNL     1      -7.338  12.837  69.791  1.00  0.00     0.847 C  
HETATM    7  C   UNL     1      -9.980  11.800  69.126  1.00  0.00     0.177 C  
HETATM    8  H   UNL     1      -8.936  10.058  68.862  1.00  0.00     0.000 HD 
HETATM    9  C   UNL     1      -7.538  11.531  69.078  1.00  0.00    -0.058 C  
HETATM   10  N   UNL     1      -8.823  11.061  69.012  1.00  0.00    -0.110 N  
HETATM   11  O   UNL     1      -6.604  10.896  68.591  1.00  0.00    -0.054 OA 
BRANCH   3  12
HETATM   12  C   UNL     1     -11.076  14.066  69.648  1.00  0.00    -0.154 A  
HETATM   13  C   UNL     1     -13.449  14.620  69.900  1.00  0.00     1.040 A  
HETATM   14  N   UNL     1     -14.307  16.790  69.237  1.00  0.00     5.764 NA 
HETATM   15  C   UNL     1     -11.979  16.214  68.903  1.00  0.00    -0.029 A  
HETATM   16  C   UNL     1     -10.911  15.319  69.032  1.00  0.00    -0.244 A  
HETATM   17  H2  UNL     1     -14.405  16.981  68.240  1.00  0.00     0.000 HD 
HETATM   18  H1  UNL     1     -15.229  16.565  69.611  1.00  0.00     0.000 HD 
HETATM   19  C   UNL     1     -12.384  13.722  70.036  1.00  0.00    -0.364 A  
HETATM   20  C   UNL     1     -13.236  15.906  69.413  1.00  0.00     1.794 A  
ENDBRANCH   3  12
ENDBRANCH   2   3
TORSDOF 2
ENDMDL
MODEL      184
REMARK 921   NORMALIZED FREE ENERGY PREDICTED BY IDOCK:   39.27 KCAL/MOL
REMARK 922        TOTAL FREE ENERGY PREDICTED BY IDOCK:   43.52 KCAL/MOL
REMARK 923 INTER-LIGAND FREE ENERGY PREDICTED BY IDOCK:   42.81 KCAL/MOL
REMARK 924 INTRA-LIGAND FREE ENERGY PREDICTED BY IDOCK:    0.72 KCAL/MOL
REMARK 927      BINDING AFFINITY PREDICTED BY RF-SCORE:    0.00 PKD
ROOT
HETATM    1  C   UNL     1      -7.713  13.668  63.378  1.00  0.00    15.467 C  
HETATM    2  C   UNL     1      -8.117  12.409  64.137  1.00  0.00     4.042 C  
ENDROOT
BRANCH   2   3
HETATM    3  C   UNL     1      -6.957  11.681  64.898  1.00  0.00     2.341 C  
HETATM    4  C   UNL     1      -5.610  12.440  64.736  1.00  0.00     6.214 C  
HETATM    5  O   UNL     1      -7.831  10.853  67.053  1.00  0.00    -0.121 OA 
HETATM    6  C   UNL     1      -5.654  13.866  65.260  1.00  0.00    12.854 C  
HETATM    7  C   UNL     1      -7.307  11.757  66.407  1.00  0.00     0.202 C  
HETATM    8  H   UNL     1      -7.626  13.165  67.860  1.00  0.00     0.000 HD 
HETATM    9  C   UNL     1      -6.119  13.890  66.687  1.00  0.00     2.684 C  
HETATM   10  N   UNL     1      -7.055  12.954  67.041  1.00  0.00     0.061 N  
HETATM   11  O   UNL     1      -5.705  14.712  67.502  1.00  0.00    -0.337 OA 
BRANCH   3  12
HETATM   12  C   UNL     1      -6.857  10.217  64.400  1.00  0.00    -0.106 A  
HETATM   13  C   UNL     1      -5.525   8.405  63.427  1.00  0.00    -0.063 A  
HETATM   14  N   UNL     1      -6.354   6.125  63.380  1.00  0.00    -0.028 NA 
HETATM   15  C   UNL     1      -7.711   7.929  64.260  1.00  0.00    -0.128 A  
HETATM   16  C   UNL     1      -7.883   9.276  64.596  1.00  0.00    -0.120 A  
HETATM   17  H2  UNL     1      -7.089   5.898  62.710  1.00  0.00     0.000 HD 
HETATM   18  H1  UNL     1      -5.467   5.786  63.009  1.00  0.00     0.000 HD 
HETATM   19  C   UNL     1      -5.690   9.754  63.764  1.00  0.00    -0.105 A  
HETATM   20  C   UNL     1      -6.500   7.466  63.754  1.00  0.00    -0.052 A  
ENDBRANCH   3  12
ENDBRANCH   2   3
TORSDOF 2
ENDMDL
