MODEL        1
REMARK 921   NORMALIZED FREE ENERGY PREDICTED BY IDOCK:   -6.24 KCAL/MOL
REMARK 922        TOTAL FREE ENERGY PREDICTED BY IDOCK:   -6.97 KCAL/MOL
REMARK 923 INTER-LIGAND FREE ENERGY PREDICTED BY IDOCK:   -6.61 KCAL/MOL
REMARK 924 INTRA-LIGAND FREE ENERGY PREDICTED BY IDOCK:   -0.36 KCAL/MOL
REMARK 927      BINDING AFFINITY PREDICTED BY RF-SCORE:    0.00 PKD
ROOT
HETATM    1  N   UNL     1      -6.128  14.054  68.335  1.00  0.00    -0.091 NA 
HETATM    2  C   UNL     1      -6.735  13.088  67.416  1.00  0.00    -0.115 C  
HETATM    3  H1  UNL     1      -6.717  14.870  68.502  1.00  0.00     0.000 HD 
HETATM    4  C   UNL     2      -9.781  15.138  68.975  1.00  0.00    -0.234 C  
HETATM    5  H2  UNL     1      -5.202  14.334  68.011  1.00  0.00     0.000 HD 
HETATM    6  C   UNL     3      -7.997  10.840  69.679  1.00  0.00     0.080 C  
HETATM    7  N   UNL     2     -10.320  14.137  68.081  1.00  0.00    -0.234 N  
HETATM    8  O   UNL     3      -8.597  11.173  66.859  1.00  0.00    -0.139 OA 
HETATM    9  N   UNL     3      -8.707   9.913  68.797  1.00  0.00    -0.126 N  
HETATM   10  O   UNL     2      -9.410  15.183  66.246  1.00  0.00    -0.277 OA 
HETATM   11  C   UNL     2     -11.005  13.043  68.548  1.00  0.00    -0.263 A  
HETATM   12  C   UNL     2     -11.570  12.150  67.695  1.00  0.00    -0.343 A  
HETATM   13  C   UNL     3      -8.873  10.117  67.425  1.00  0.00    -0.131 C  
HETATM   14  C   UNL     3      -9.436   8.909  69.371  1.00  0.00    -0.161 A  
HETATM   15  C   UNL     3      -9.504   9.288  65.223  1.00  0.00    -0.164 C  
HETATM   16  C   UNL     2     -11.465  12.238  66.284  1.00  0.00    -0.380 C  
HETATM   17  N   UNL     2     -12.113  11.181  68.484  1.00  0.00    -0.710 NA 
HETATM   18  C   UNL     3     -10.211   8.082  68.626  1.00  0.00    -0.206 A  
HETATM   19  C   UNL     2     -11.792  11.507  69.777  1.00  0.00    -0.357 A  
HETATM   20  N   UNL     2     -10.573  13.228  65.879  1.00  0.00    -0.278 N  
HETATM   21  N   UNL     3     -10.911   7.352  69.537  1.00  0.00    -0.396 NA 
HETATM   22  H   UNL     2     -12.653  10.372  68.174  1.00  0.00     0.000 HD 
HETATM   23  C   UNL     3     -10.256   8.102  67.214  1.00  0.00    -0.278 C  
HETATM   24  O   UNL     2     -12.072  11.478  65.536  1.00  0.00    -0.059 OA 
HETATM   25  O   UNL     3     -11.006   7.353  66.580  1.00  0.00    -0.119 OA 
HETATM   26  N   UNL     3      -9.458   9.092  66.665  1.00  0.00    -0.170 N  
HETATM   27  C   UNL     3     -10.532   7.785  70.782  1.00  0.00    -0.210 A  
HETATM   28  H   UNL     3     -11.591   6.620  69.332  1.00  0.00     0.000 HD 
HETATM   29  C   UNL     2     -10.063  14.245  66.709  1.00  0.00    -0.264 C  
HETATM   30  N   UNL     2     -11.162  12.663  69.845  1.00  0.00     0.055 NA 
HETATM   31  C   UNL     2     -10.039  13.160  64.532  1.00  0.00    -0.220 C  
HETATM   32  N   UNL     3      -9.603   8.711  70.708  1.00  0.00    -0.176 NA 
ENDROOT
BRANCH   2  33
HETATM   33  C   UNL     1      -5.842  11.851  67.162  1.00  0.00    -0.144 C  
HETATM   34  H2  UNL     1      -5.589  12.215  65.149  1.00  0.00     0.000 HD 
HETATM   35  N   UNL     1      -5.849  11.441  65.760  1.00  0.00    -0.494 NA 
HETATM   36  H1  UNL     1      -5.260  10.625  65.593  1.00  0.00     0.000 HD 
ENDBRANCH   2  33
TORSDOF 1
ENDMDL
MODEL        2
REMARK 921   NORMALIZED FREE ENERGY PREDICTED BY IDOCK:   -6.13 KCAL/MOL
REMARK 922        TOTAL FREE ENERGY PREDICTED BY IDOCK:   -6.85 KCAL/MOL
REMARK 923 INTER-LIGAND FREE ENERGY PREDICTED BY IDOCK:   -6.59 KCAL/MOL
REMARK 924 INTRA-LIGAND FREE ENERGY PREDICTED BY IDOCK:   -0.26 KCAL/MOL
REMARK 927      BINDING AFFINITY PREDICTED BY RF-SCORE:    0.00 PKD
ROOT
HETATM    1  N   UNL     1     -10.606   7.193  69.534  1.00  0.00    -0.229 NA 
HETATM    2  C   UNL     1     -10.088   7.271  68.166  1.00  0.00    -0.173 C  
HETATM    3  H1  UNL     1      -9.898   7.396  70.241  1.00  0.00     0.000 HD 
HETATM    4  C   UNL     2      -7.663   9.558  70.357  1.00  0.00    -0.163 C  
HETATM    5  H2  UNL     1     -11.044   6.288  69.707  1.00  0.00     0.000 HD 
HETATM    6  C   UNL     3     -11.150  10.420  67.315  1.00  0.00    -0.179 C  
HETATM    7  N   UNL     2      -7.223   9.623  68.980  1.00  0.00    -0.069 N  
HETATM    8  O   UNL     3      -9.173   8.719  66.042  1.00  0.00    -0.193 OA 
HETATM    9  N   UNL     3     -10.555  10.575  65.987  1.00  0.00    -0.147 N  
HETATM   10  O   UNL     2      -6.595   7.410  69.002  1.00  0.00    -0.042 OA 
HETATM   11  C   UNL     2      -7.376  10.759  68.225  1.00  0.00    -0.086 A  
HETATM   12  C   UNL     2      -6.893  10.830  66.957  1.00  0.00    -0.094 A  
HETATM   13  C   UNL     3      -9.672   9.653  65.418  1.00  0.00    -0.295 C  
HETATM   14  C   UNL     3     -10.689  11.781  65.358  1.00  0.00    -0.283 A  
HETATM   15  C   UNL     3      -8.452   8.807  63.488  1.00  0.00    -0.105 C  
HETATM   16  C   UNL     2      -6.247   9.752  66.301  1.00  0.00    -0.069 C  
HETATM   17  N   UNL     2      -7.261  12.058  66.493  1.00  0.00    -0.365 NA 
HETATM   18  C   UNL     3     -10.069  12.037  64.179  1.00  0.00    -0.313 A  
HETATM   19  C   UNL     2      -8.005  12.642  67.485  1.00  0.00    -0.174 A  
HETATM   20  N   UNL     2      -6.328   8.565  67.026  1.00  0.00    -0.056 N  
HETATM   21  N   UNL     3     -10.277  13.365  63.962  1.00  0.00    -0.752 NA 
HETATM   22  H   UNL     2      -7.028  12.462  65.586  1.00  0.00     0.000 HD 
HETATM   23  C   UNL     3      -9.336  11.076  63.448  1.00  0.00    -0.282 C  
HETATM   24  O   UNL     2      -5.729   9.878  65.197  1.00  0.00    -0.067 OA 
HETATM   25  O   UNL     3      -8.758  11.367  62.396  1.00  0.00    -0.300 OA 
HETATM   26  N   UNL     3      -9.274   9.849  64.087  1.00  0.00    -0.263 N  
HETATM   27  C   UNL     3     -10.999  13.842  65.026  1.00  0.00    -0.368 A  
HETATM   28  H   UNL     3      -9.956  13.904  63.159  1.00  0.00     0.000 HD 
HETATM   29  C   UNL     2      -6.706   8.469  68.379  1.00  0.00    -0.064 C  
HETATM   30  N   UNL     2      -8.046  11.892  68.569  1.00  0.00    -0.148 NA 
HETATM   31  C   UNL     2      -6.108   7.317  66.323  1.00  0.00    -0.037 C  
HETATM   32  N   UNL     3     -11.296  12.885  65.876  1.00  0.00    -0.301 NA 
ENDROOT
BRANCH   2  33
HETATM   33  C   UNL     1     -11.160   6.963  67.094  1.00  0.00    -0.292 C  
HETATM   34  H2  UNL     1     -10.605   4.994  66.838  1.00  0.00     0.000 HD 
HETATM   35  N   UNL     1     -10.800   5.815  66.266  1.00  0.00    -0.680 NA 
HETATM   36  H1  UNL     1     -11.508   5.612  65.559  1.00  0.00     0.000 HD 
ENDBRANCH   2  33
TORSDOF 1
ENDMDL
MODEL        3
REMARK 921   NORMALIZED FREE ENERGY PREDICTED BY IDOCK:   -6.10 KCAL/MOL
REMARK 922        TOTAL FREE ENERGY PREDICTED BY IDOCK:   -6.82 KCAL/MOL
REMARK 923 INTER-LIGAND FREE ENERGY PREDICTED BY IDOCK:   -6.66 KCAL/MOL
REMARK 924 INTRA-LIGAND FREE ENERGY PREDICTED BY IDOCK:   -0.16 KCAL/MOL
REMARK 927      BINDING AFFINITY PREDICTED BY RF-SCORE:    0.00 PKD
ROOT
HETATM    1  N   UNL     1     -11.305  16.343  63.925  1.00  0.00    -1.535 NA 
HETATM    2  C   UNL     1     -11.740  15.607  65.115  1.00  0.00     0.124 C  
HETATM    3  H1  UNL     1     -10.729  17.155  64.147  1.00  0.00     0.000 HD 
HETATM    4  C   UNL     2      -8.433  17.551  66.210  1.00  0.00    -0.212 C  
HETATM    5  H2  UNL     1     -12.105  16.611  63.350  1.00  0.00     0.000 HD 
HETATM    6  C   UNL     3      -9.421  13.080  65.120  1.00  0.00     0.349 C  
HETATM    7  N   UNL     2      -8.893  16.771  67.338  1.00  0.00    -0.198 N  
HETATM    8  O   UNL     3     -11.209  13.964  67.227  1.00  0.00    -0.295 OA 
HETATM    9  N   UNL     3      -9.759  12.383  66.361  1.00  0.00    -0.236 N  
HETATM   10  O   UNL     2     -10.781  18.067  67.554  1.00  0.00    -0.404 OA 
HETATM   11  C   UNL     2      -8.214  15.661  67.776  1.00  0.00    -0.145 A  
HETATM   12  C   UNL     2      -8.616  14.982  68.881  1.00  0.00    -0.189 A  
HETATM   13  C   UNL     3     -10.702  12.846  67.281  1.00  0.00    -0.245 C  
HETATM   14  C   UNL     3      -8.960  11.345  66.754  1.00  0.00    -0.176 A  
HETATM   15  C   UNL     3     -12.106  12.480  69.238  1.00  0.00    -0.161 C  
HETATM   16  C   UNL     2      -9.770  15.318  69.633  1.00  0.00    -0.200 C  
HETATM   17  N   UNL     2      -7.761  13.926  68.994  1.00  0.00    -0.310 NA 
HETATM   18  C   UNL     3      -9.141  10.726  67.947  1.00  0.00    -0.150 A  
HETATM   19  C   UNL     2      -6.923  13.987  67.911  1.00  0.00    -0.161 A  
HETATM   20  N   UNL     2     -10.540  16.299  69.013  1.00  0.00    -0.264 N  
HETATM   21  N   UNL     3      -8.070   9.894  68.069  1.00  0.00    -0.108 NA 
HETATM   22  H   UNL     2      -7.748  13.228  69.739  1.00  0.00     0.000 HD 
HETATM   23  C   UNL     3     -10.209  11.006  68.828  1.00  0.00    -0.198 C  
HETATM   24  O   UNL     2     -10.050  14.753  70.685  1.00  0.00     0.407 OA 
HETATM   25  O   UNL     3     -10.311  10.441  69.922  1.00  0.00    -0.244 OA 
HETATM   26  N   UNL     3     -11.032  12.021  68.367  1.00  0.00    -0.222 N  
HETATM   27  C   UNL     3      -7.294  10.063  66.952  1.00  0.00    -0.092 A  
HETATM   28  H   UNL     3      -7.880   9.262  68.847  1.00  0.00     0.000 HD 
HETATM   29  C   UNL     2     -10.109  17.108  67.944  1.00  0.00    -0.308 C  
HETATM   30  N   UNL     2      -7.145  15.063  67.183  1.00  0.00    -0.207 NA 
HETATM   31  C   UNL     2     -11.925  16.440  69.418  1.00  0.00     0.265 C  
HETATM   32  N   UNL     3      -7.836  10.919  66.113  1.00  0.00    -0.159 NA 
ENDROOT
BRANCH   2  33
HETATM   33  C   UNL     1     -12.615  14.377  64.779  1.00  0.00    -0.265 C  
HETATM   34  H2  UNL     1     -11.564  13.861  63.082  1.00  0.00     0.000 HD 
HETATM   35  N   UNL     1     -12.532  14.007  63.369  1.00  0.00    -1.123 NA 
HETATM   36  H1  UNL     1     -13.108  13.195  63.147  1.00  0.00     0.000 HD 
ENDBRANCH   2  33
TORSDOF 1
ENDMDL
MODEL        4
REMARK 921   NORMALIZED FREE ENERGY PREDICTED BY IDOCK:   -6.00 KCAL/MOL
REMARK 922        TOTAL FREE ENERGY PREDICTED BY IDOCK:   -6.72 KCAL/MOL
REMARK 923 INTER-LIGAND FREE ENERGY PREDICTED BY IDOCK:   -6.35 KCAL/MOL
REMARK 924 INTRA-LIGAND FREE ENERGY PREDICTED BY IDOCK:   -0.37 KCAL/MOL
REMARK 927      BINDING AFFINITY PREDICTED BY RF-SCORE:    0.00 PKD
ROOT
HETATM    1  N   UNL     1      -5.664   5.965  71.197  1.00  0.00    -0.017 NA 
HETATM    2  C   UNL     1      -6.817   6.826  71.471  1.00  0.00    -0.066 C  
HETATM    3  H1  UNL     1      -5.917   4.983  71.086  1.00  0.00     0.000 HD 
HETATM    4  C   UNL     2      -8.295   3.622  69.611  1.00  0.00    -0.052 C  
HETATM    5  H2  UNL     1      -4.947   6.077  71.915  1.00  0.00     0.000 HD 
HETATM    6  C   UNL     3      -7.390   8.057  68.321  1.00  0.00    -0.095 C  
HETATM    7  N   UNL     2      -9.386   4.533  69.877  1.00  0.00    -0.131 N  
HETATM    8  O   UNL     3      -9.103   8.076  70.662  1.00  0.00    -0.149 OA 
HETATM    9  N   UNL     3      -8.607   8.840  68.535  1.00  0.00    -0.133 N  
HETATM   10  O   UNL     2      -9.192   4.215  72.147  1.00  0.00    -0.117 OA 
HETATM   11  C   UNL     2     -10.011   5.227  68.871  1.00  0.00    -0.180 A  
HETATM   12  C   UNL     2     -11.082   6.023  69.125  1.00  0.00    -0.335 A  
HETATM   13  C   UNL     3      -9.323   8.853  69.735  1.00  0.00    -0.166 C  
HETATM   14  C   UNL     3      -9.201   9.417  67.448  1.00  0.00    -0.126 A  
HETATM   15  C   UNL     3     -11.043   9.820  71.162  1.00  0.00    -0.344 C  
HETATM   16  C   UNL     2     -11.607   6.241  70.424  1.00  0.00    -0.300 C  
HETATM   17  N   UNL     2     -11.412   6.589  67.930  1.00  0.00    -0.641 NA 
HETATM   18  C   UNL     3     -10.391  10.060  67.550  1.00  0.00    -0.232 A  
HETATM   19  C   UNL     2     -10.480   6.153  67.023  1.00  0.00    -0.277 A  
HETATM   20  N   UNL     2     -10.798   5.701  71.421  1.00  0.00    -0.246 N  
HETATM   21  N   UNL     3     -10.749  10.330  66.264  1.00  0.00    -0.067 NA 
HETATM   22  H   UNL     2     -12.197   7.213  67.746  1.00  0.00     0.000 HD 
HETATM   23  C   UNL     3     -11.061  10.292  68.772  1.00  0.00    -0.228 C  
HETATM   24  O   UNL     2     -12.637   6.880  70.612  1.00  0.00    -0.278 OA 
HETATM   25  O   UNL     3     -12.162  10.851  68.810  1.00  0.00    -0.518 OA 
HETATM   26  N   UNL     3     -10.398   9.746  69.859  1.00  0.00    -0.236 N  
HETATM   27  C   UNL     3      -9.764   9.824  65.454  1.00  0.00    -0.313 A  
HETATM   28  H   UNL     3     -11.591  10.817  65.960  1.00  0.00     0.000 HD 
HETATM   29  C   UNL     2      -9.757   4.777  71.205  1.00  0.00    -0.181 C  
HETATM   30  N   UNL     2      -9.648   5.283  67.561  1.00  0.00    -0.128 NA 
HETATM   31  C   UNL     2     -10.958   6.194  72.775  1.00  0.00    -0.260 C  
HETATM   32  N   UNL     3      -8.788   9.293  66.155  1.00  0.00    -0.147 NA 
ENDROOT
BRANCH   2  33
HETATM   33  C   UNL     1      -6.434   8.315  71.640  1.00  0.00    -0.055 C  
HETATM   34  H2  UNL     1      -7.025   8.435  73.612  1.00  0.00     0.000 HD 
HETATM   35  N   UNL     1      -7.154   8.950  72.741  1.00  0.00    -0.331 NA 
HETATM   36  H1  UNL     1      -6.901   9.932  72.853  1.00  0.00     0.000 HD 
ENDBRANCH   2  33
TORSDOF 1
ENDMDL
MODEL        5
REMARK 921   NORMALIZED FREE ENERGY PREDICTED BY IDOCK:   -5.96 KCAL/MOL
REMARK 922        TOTAL FREE ENERGY PREDICTED BY IDOCK:   -6.67 KCAL/MOL
REMARK 923 INTER-LIGAND FREE ENERGY PREDICTED BY IDOCK:   -6.57 KCAL/MOL
REMARK 924 INTRA-LIGAND FREE ENERGY PREDICTED BY IDOCK:   -0.10 KCAL/MOL
REMARK 927      BINDING AFFINITY PREDICTED BY RF-SCORE:    0.00 PKD
ROOT
HETATM    1  N   UNL     1     -12.387  13.063  71.302  1.00  0.00    -0.314 NA 
HETATM    2  C   UNL     1     -12.334  13.881  70.087  1.00  0.00    -0.334 C  
HETATM    3  H1  UNL     1     -12.183  12.078  71.130  1.00  0.00     0.000 HD 
HETATM    4  C   UNL     2     -10.049  10.699  69.335  1.00  0.00    -0.174 C  
HETATM    5  H2  UNL     1     -13.284  13.172  71.776  1.00  0.00     0.000 HD 
HETATM    6  C   UNL     3      -9.183  15.199  70.407  1.00  0.00     0.909 C  
HETATM    7  N   UNL     2     -10.007  11.568  68.180  1.00  0.00    -0.186 N  
HETATM    8  O   UNL     3     -10.925  15.089  68.088  1.00  0.00    -0.261 OA 
HETATM    9  N   UNL     3      -9.053  15.939  69.151  1.00  0.00    -0.243 N  
HETATM   10  O   UNL     2     -12.227  11.180  67.719  1.00  0.00    -0.432 OA 
HETATM   11  C   UNL     2      -8.879  12.277  67.848  1.00  0.00    -0.178 A  
HETATM   12  C   UNL     2      -8.830  13.032  66.720  1.00  0.00    -0.137 A  
HETATM   13  C   UNL     3      -9.992  15.890  68.118  1.00  0.00    -0.222 C  
HETATM   14  C   UNL     3      -7.853  16.534  68.876  1.00  0.00    -0.240 A  
HETATM   15  C   UNL     3     -10.879  16.758  66.022  1.00  0.00    -0.026 C  
HETATM   16  C   UNL     2      -9.925  13.191  65.833  1.00  0.00    -0.269 C  
HETATM   17  N   UNL     2      -7.604  13.628  66.729  1.00  0.00    -0.145 NA 
HETATM   18  C   UNL     3      -7.620  17.139  67.684  1.00  0.00    -0.167 A  
HETATM   19  C   UNL     2      -6.998  13.250  67.900  1.00  0.00    -0.137 A  
HETATM   20  N   UNL     2     -11.101  12.641  66.338  1.00  0.00    -0.276 N  
HETATM   21  N   UNL     3      -6.292  17.441  67.705  1.00  0.00    -0.147 NA 
HETATM   22  H   UNL     2      -7.215  14.235  66.008  1.00  0.00     0.000 HD 
HETATM   23  C   UNL     3      -8.600  17.309  66.681  1.00  0.00    -0.257 C  
HETATM   24  O   UNL     2      -9.820  13.792  64.769  1.00  0.00    -0.191 OA 
HETATM   25  O   UNL     3      -8.329  17.834  65.596  1.00  0.00    -0.451 OA 
HETATM   26  N   UNL     3      -9.819  16.747  67.021  1.00  0.00    -0.254 N  
HETATM   27  C   UNL     3      -5.793  16.992  68.900  1.00  0.00    -0.150 A  
HETATM   28  H   UNL     3      -5.768  17.913  66.969  1.00  0.00     0.000 HD 
HETATM   29  C   UNL     2     -11.175  11.756  67.431  1.00  0.00    -0.297 C  
HETATM   30  N   UNL     2      -7.733  12.388  68.573  1.00  0.00    -0.134 NA 
HETATM   31  C   UNL     2     -12.361  13.084  65.774  1.00  0.00    -0.416 C  
HETATM   32  N   UNL     3      -6.735  16.466  69.651  1.00  0.00    -0.199 NA 
ENDROOT
BRANCH   2  33
HETATM   33  C   UNL     1     -12.642  15.374  70.349  1.00  0.00    -0.389 C  
HETATM   34  H2  UNL     1     -14.188  15.015  71.665  1.00  0.00     0.000 HD 
HETATM   35  N   UNL     1     -14.003  15.580  70.837  1.00  0.00    -0.853 NA 
HETATM   36  H1  UNL     1     -14.206  16.565  71.009  1.00  0.00     0.000 HD 
ENDBRANCH   2  33
TORSDOF 1
ENDMDL
MODEL        6
REMARK 921   NORMALIZED FREE ENERGY PREDICTED BY IDOCK:   -5.81 KCAL/MOL
REMARK 922        TOTAL FREE ENERGY PREDICTED BY IDOCK:   -6.52 KCAL/MOL
REMARK 923 INTER-LIGAND FREE ENERGY PREDICTED BY IDOCK:   -6.42 KCAL/MOL
REMARK 924 INTRA-LIGAND FREE ENERGY PREDICTED BY IDOCK:   -0.10 KCAL/MOL
REMARK 927      BINDING AFFINITY PREDICTED BY RF-SCORE:    0.00 PKD
ROOT
HETATM    1  N   UNL     1      -7.796  15.894  69.487  1.00  0.00    -0.187 NA 
HETATM    2  C   UNL     1      -8.079  15.231  68.211  1.00  0.00    -0.137 C  
HETATM    3  H1  UNL     1      -8.639  16.212  69.967  1.00  0.00     0.000 HD 
HETATM    4  C   UNL     2     -11.413  14.862  70.370  1.00  0.00    -0.266 C  
HETATM    5  H2  UNL     1      -7.139  16.664  69.360  1.00  0.00     0.000 HD 
HETATM    6  C   UNL     3      -7.901  11.952  69.205  1.00  0.00     0.212 C  
HETATM    7  N   UNL     2     -11.617  14.190  69.105  1.00  0.00    -0.285 N  
HETATM    8  O   UNL     3      -9.027  13.104  66.790  1.00  0.00    -0.226 OA 
HETATM    9  N   UNL     3      -8.287  11.259  67.975  1.00  0.00    -0.130 N  
HETATM   10  O   UNL     2     -11.536  16.181  67.955  1.00  0.00    -0.289 OA 
HETATM   11  C   UNL     2     -11.694  12.822  69.016  1.00  0.00    -0.323 A  
HETATM   12  C   UNL     2     -11.960  12.209  67.834  1.00  0.00    -0.148 A  
HETATM   13  C   UNL     3      -8.740  11.909  66.825  1.00  0.00    -0.193 C  
HETATM   14  C   UNL     3      -8.424   9.899  68.019  1.00  0.00    -0.117 A  
HETATM   15  C   UNL     3      -9.306  11.869  64.456  1.00  0.00     0.199 C  
HETATM   16  C   UNL     2     -12.128  12.903  66.609  1.00  0.00    -0.289 C  
HETATM   17  N   UNL     2     -11.912  10.872  68.095  1.00  0.00    -0.796 NA 
HETATM   18  C   UNL     3      -8.888   9.200  66.954  1.00  0.00    -0.123 A  
HETATM   19  C   UNL     2     -11.556  10.746  69.413  1.00  0.00    -0.308 A  
HETATM   20  N   UNL     2     -11.812  14.256  66.718  1.00  0.00    -0.412 N  
HETATM   21  N   UNL     3      -9.062   7.934  67.422  1.00  0.00    -0.132 NA 
HETATM   22  H   UNL     2     -12.104  10.115  67.438  1.00  0.00     0.000 HD 
HETATM   23  C   UNL     3      -9.162   9.774  65.692  1.00  0.00    -0.199 C  
HETATM   24  O   UNL     2     -12.470  12.334  65.578  1.00  0.00    -0.597 OA 
HETATM   25  O   UNL     3      -9.618   9.102  64.761  1.00  0.00     0.040 OA 
HETATM   26  N   UNL     3      -8.952  11.143  65.668  1.00  0.00    -0.200 N  
HETATM   27  C   UNL     3      -8.706   7.938  68.746  1.00  0.00    -0.128 A  
HETATM   28  H   UNL     3      -9.394   7.131  66.887  1.00  0.00     0.000 HD 
HETATM   29  C   UNL     2     -11.651  14.952  67.931  1.00  0.00    -0.344 C  
HETATM   30  N   UNL     2     -11.468  11.919  70.008  1.00  0.00    -0.197 NA 
HETATM   31  C   UNL     2     -11.521  14.991  65.503  1.00  0.00    -0.265 C  
HETATM   32  N   UNL     3      -8.277   9.120  69.127  1.00  0.00    -0.114 NA 
ENDROOT
BRANCH   2  33
HETATM   33  C   UNL     1      -6.802  14.750  67.483  1.00  0.00    -0.155 C  
HETATM   34  H2  UNL     1      -5.738  16.485  67.812  1.00  0.00     0.000 HD 
HETATM   35  N   UNL     1      -5.967  15.863  67.038  1.00  0.00    -0.304 NA 
HETATM   36  H1  UNL     1      -5.125  15.545  66.557  1.00  0.00     0.000 HD 
ENDBRANCH   2  33
TORSDOF 1
ENDMDL
MODEL        7
REMARK 921   NORMALIZED FREE ENERGY PREDICTED BY IDOCK:   -5.70 KCAL/MOL
REMARK 922        TOTAL FREE ENERGY PREDICTED BY IDOCK:   -6.40 KCAL/MOL
REMARK 923 INTER-LIGAND FREE ENERGY PREDICTED BY IDOCK:   -6.30 KCAL/MOL
REMARK 924 INTRA-LIGAND FREE ENERGY PREDICTED BY IDOCK:   -0.10 KCAL/MOL
REMARK 927      BINDING AFFINITY PREDICTED BY RF-SCORE:    0.00 PKD
ROOT
HETATM    1  N   UNL     1     -12.805  16.053  70.502  1.00  0.00    -0.604 NA 
HETATM    2  C   UNL     1     -11.780  15.042  70.230  1.00  0.00    -0.294 C  
HETATM    3  H1  UNL     1     -12.503  17.000  70.269  1.00  0.00     0.000 HD 
HETATM    4  C   UNL     2     -10.908  18.115  67.841  1.00  0.00    -0.202 C  
HETATM    5  H2  UNL     1     -13.121  16.000  71.470  1.00  0.00     0.000 HD 
HETATM    6  C   UNL     3     -12.884  13.893  67.192  1.00  0.00     0.858 C  
HETATM    7  N   UNL     2      -9.948  17.063  67.592  1.00  0.00    -0.272 N  
HETATM    8  O   UNL     3     -10.307  13.552  68.483  1.00  0.00    -0.240 OA 
HETATM    9  N   UNL     3     -11.820  12.953  66.837  1.00  0.00    -0.385 N  
HETATM   10  O   UNL     2      -9.037  17.299  69.690  1.00  0.00     0.382 OA 
HETATM   11  C   UNL     2      -9.952  16.341  66.423  1.00  0.00    -0.300 A  
HETATM   12  C   UNL     2      -9.000  15.406  66.171  1.00  0.00    -0.259 A  
HETATM   13  C   UNL     3     -10.643  12.796  67.573  1.00  0.00    -0.229 C  
HETATM   14  C   UNL     3     -11.872  12.356  65.608  1.00  0.00    -0.409 A  
HETATM   15  C   UNL     3      -8.605  11.557  68.065  1.00  0.00    -0.150 C  
HETATM   16  C   UNL     2      -7.973  15.066  67.086  1.00  0.00    -0.206 C  
HETATM   17  N   UNL     2      -9.333  14.858  64.968  1.00  0.00     0.039 NA 
HETATM   18  C   UNL     3     -10.865  11.564  65.163  1.00  0.00    -0.265 A  
HETATM   19  C   UNL     2     -10.510  15.448  64.584  1.00  0.00     0.025 A  
HETATM   20  N   UNL     2      -8.156  15.658  68.334  1.00  0.00    -0.134 N  
HETATM   21  N   UNL     3     -11.176  11.310  63.862  1.00  0.00    -0.486 NA 
HETATM   22  H   UNL     2      -8.810  14.149  64.455  1.00  0.00     0.000 HD 
HETATM   23  C   UNL     3      -9.747  11.195  65.944  1.00  0.00    -0.229 C  
HETATM   24  O   UNL     2      -7.066  14.294  66.791  1.00  0.00     0.315 OA 
HETATM   25  O   UNL     3      -8.836  10.500  65.482  1.00  0.00    -0.170 OA 
HETATM   26  N   UNL     3      -9.760  11.770  67.204  1.00  0.00    -0.182 N  
HETATM   27  C   UNL     3     -12.345  11.972  63.587  1.00  0.00    -0.539 A  
HETATM   28  H   UNL     3     -10.640  10.735  63.213  1.00  0.00     0.000 HD 
HETATM   29  C   UNL     2      -9.046  16.714  68.604  1.00  0.00    -0.245 C  
HETATM   30  N   UNL     2     -10.880  16.391  65.428  1.00  0.00    -0.366 NA 
HETATM   31  C   UNL     2      -7.460  15.087  69.471  1.00  0.00    -0.194 C  
HETATM   32  N   UNL     3     -12.811  12.589  64.649  1.00  0.00    -0.807 NA 
ENDROOT
BRANCH   2  33
HETATM   33  C   UNL     1     -12.237  13.607  70.583  1.00  0.00    -0.360 C  
HETATM   34  H2  UNL     1     -13.969  14.194  71.535  1.00  0.00     0.000 HD 
HETATM   35  N   UNL     1     -13.170  13.585  71.707  1.00  0.00    -0.392 NA 
HETATM   36  H1  UNL     1     -13.472  12.638  71.940  1.00  0.00     0.000 HD 
ENDBRANCH   2  33
TORSDOF 1
ENDMDL
MODEL        8
REMARK 921   NORMALIZED FREE ENERGY PREDICTED BY IDOCK:   -5.65 KCAL/MOL
REMARK 922        TOTAL FREE ENERGY PREDICTED BY IDOCK:   -6.34 KCAL/MOL
REMARK 923 INTER-LIGAND FREE ENERGY PREDICTED BY IDOCK:   -6.02 KCAL/MOL
REMARK 924 INTRA-LIGAND FREE ENERGY PREDICTED BY IDOCK:   -0.33 KCAL/MOL
REMARK 927      BINDING AFFINITY PREDICTED BY RF-SCORE:    0.00 PKD
ROOT
HETATM    1  N   UNL     1      -7.723  11.210  66.846  1.00  0.00    -0.142 NA 
HETATM    2  C   UNL     1      -7.421  10.603  68.144  1.00  0.00    -0.090 C  
HETATM    3  H1  UNL     1      -7.713  10.538  66.078  1.00  0.00     0.000 HD 
HETATM    4  C   UNL     2      -8.807   7.632  65.871  1.00  0.00    -0.130 C  
HETATM    5  H2  UNL     1      -7.095  11.991  66.654  1.00  0.00     0.000 HD 
HETATM    6  C   UNL     3     -10.604  10.221  69.367  1.00  0.00    -0.237 C  
HETATM    7  N   UNL     2      -8.523   7.100  67.185  1.00  0.00    -0.120 N  
HETATM    8  O   UNL     3      -8.116   9.017  70.253  1.00  0.00    -0.105 OA 
HETATM    9  N   UNL     3     -10.346   9.514  70.622  1.00  0.00    -0.284 N  
HETATM   10  O   UNL     2      -6.264   7.432  66.910  1.00  0.00    -0.044 OA 
HETATM   11  C   UNL     2      -9.525   6.719  68.043  1.00  0.00    -0.119 A  
HETATM   12  C   UNL     2      -9.244   6.153  69.245  1.00  0.00    -0.132 A  
HETATM   13  C   UNL     3      -9.088   9.043  71.005  1.00  0.00    -0.257 C  
HETATM   14  C   UNL     3     -11.420   9.097  71.358  1.00  0.00    -0.350 A  
HETATM   15  C   UNL     3      -7.598   8.129  72.702  1.00  0.00    -0.125 C  
HETATM   16  C   UNL     2      -7.927   5.954  69.730  1.00  0.00    -0.101 C  
HETATM   17  N   UNL     2     -10.450   5.951  69.848  1.00  0.00    -0.242 NA 
HETATM   18  C   UNL     3     -11.263   8.338  72.471  1.00  0.00    -0.376 A  
HETATM   19  C   UNL     2     -11.397   6.467  69.002  1.00  0.00    -0.255 A  
HETATM   20  N   UNL     2      -6.967   6.566  68.927  1.00  0.00    -0.076 N  
HETATM   21  N   UNL     3     -12.527   7.969  72.818  1.00  0.00    -0.597 NA 
HETATM   22  H   UNL     2     -10.614   5.505  70.750  1.00  0.00     0.000 HD 
HETATM   23  C   UNL     3     -10.008   8.006  73.030  1.00  0.00    -0.279 C  
HETATM   24  O   UNL     2      -7.700   5.346  70.771  1.00  0.00    -0.085 OA 
HETATM   25  O   UNL     3      -9.915   7.281  74.025  1.00  0.00    -0.300 OA 
HETATM   26  N   UNL     3      -8.945   8.498  72.291  1.00  0.00    -0.233 N  
HETATM   27  C   UNL     3     -13.378   8.514  71.890  1.00  0.00    -0.372 A  
HETATM   28  H   UNL     3     -12.792   7.396  73.618  1.00  0.00     0.000 HD 
HETATM   29  C   UNL     2      -7.195   7.053  67.626  1.00  0.00    -0.091 C  
HETATM   30  N   UNL     2     -10.864   6.893  67.874  1.00  0.00    -0.230 NA 
HETATM   31  C   UNL     2      -5.658   6.820  69.496  1.00  0.00    -0.015 C  
HETATM   32  N   UNL     3     -12.729   9.239  71.007  1.00  0.00    -0.224 NA 
ENDROOT
BRANCH   2  33
HETATM   33  C   UNL     1      -7.436  11.621  69.308  1.00  0.00     0.075 C  
HETATM   34  H2  UNL     1      -5.514  11.216  69.933  1.00  0.00     0.000 HD 
HETATM   35  N   UNL     1      -6.447  11.303  70.335  1.00  0.00    -0.483 NA 
HETATM   36  H1  UNL     1      -6.457  11.975  71.102  1.00  0.00     0.000 HD 
ENDBRANCH   2  33
TORSDOF 1
ENDMDL
MODEL        9
REMARK 921   NORMALIZED FREE ENERGY PREDICTED BY IDOCK:   -5.59 KCAL/MOL
REMARK 922        TOTAL FREE ENERGY PREDICTED BY IDOCK:   -6.29 KCAL/MOL
REMARK 923 INTER-LIGAND FREE ENERGY PREDICTED BY IDOCK:   -5.92 KCAL/MOL
REMARK 924 INTRA-LIGAND FREE ENERGY PREDICTED BY IDOCK:   -0.37 KCAL/MOL
REMARK 927      BINDING AFFINITY PREDICTED BY RF-SCORE:    0.00 PKD
ROOT
HETATM    1  N   UNL     1      -8.737   8.127  63.779  1.00  0.00    -0.322 NA 
HETATM    2  C   UNL     1      -7.924   9.007  64.623  1.00  0.00    -0.128 C  
HETATM    3  H1  UNL     1      -9.134   7.339  64.290  1.00  0.00     0.000 HD 
HETATM    4  C   UNL     2     -10.432   7.156  67.112  1.00  0.00    -0.319 C  
HETATM    5  H2  UNL     1      -8.206   7.806  62.970  1.00  0.00     0.000 HD 
HETATM    6  C   UNL     3     -10.214  11.480  65.265  1.00  0.00    -0.267 C  
HETATM    7  N   UNL     2      -9.622   8.072  67.885  1.00  0.00    -0.152 N  
HETATM    8  O   UNL     3      -7.703  10.882  66.592  1.00  0.00    -0.133 OA 
HETATM    9  N   UNL     3      -9.469  12.326  66.198  1.00  0.00    -0.237 N  
HETATM   10  O   UNL     2      -7.721   6.842  67.484  1.00  0.00    -0.106 OA 
HETATM   11  C   UNL     2     -10.148   9.215  68.435  1.00  0.00    -0.196 A  
HETATM   12  C   UNL     2      -9.394  10.029  69.220  1.00  0.00    -0.214 A  
HETATM   13  C   UNL     3      -8.217  11.991  66.722  1.00  0.00    -0.110 C  
HETATM   14  C   UNL     3     -10.116  13.390  66.761  1.00  0.00    -0.260 A  
HETATM   15  C   UNL     3      -6.195  12.611  67.930  1.00  0.00    -0.108 C  
HETATM   16  C   UNL     2      -8.022   9.803  69.495  1.00  0.00    -0.137 C  
HETATM   17  N   UNL     2     -10.202  11.077  69.546  1.00  0.00    -0.440 NA 
HETATM   18  C   UNL     3      -9.529  14.150  67.719  1.00  0.00    -0.207 A  
HETATM   19  C   UNL     2     -11.387  10.873  68.886  1.00  0.00    -0.288 A  
HETATM   20  N   UNL     2      -7.491   8.767  68.730  1.00  0.00    -0.083 N  
HETATM   21  N   UNL     3     -10.520  14.974  68.160  1.00  0.00    -0.241 NA 
HETATM   22  H   UNL     2      -9.971  11.858  70.160  1.00  0.00     0.000 HD 
HETATM   23  C   UNL     3      -8.189  13.994  68.139  1.00  0.00    -0.155 C  
HETATM   24  O   UNL     2      -7.394  10.494  70.290  1.00  0.00    -0.206 OA 
HETATM   25  O   UNL     3      -7.710  14.688  69.042  1.00  0.00    -0.133 OA 
HETATM   26  N   UNL     3      -7.546  12.945  67.503  1.00  0.00    -0.155 N  
HETATM   27  C   UNL     3     -11.653  14.659  67.455  1.00  0.00    -0.375 A  
HETATM   28  H   UNL     3     -10.435  15.691  68.880  1.00  0.00     0.000 HD 
HETATM   29  C   UNL     2      -8.248   7.829  68.002  1.00  0.00    -0.123 C  
HETATM   30  N   UNL     2     -11.396   9.722  68.245  1.00  0.00    -0.008 NA 
HETATM   31  C   UNL     2      -6.051   8.698  68.577  1.00  0.00    -0.046 C  
HETATM   32  N   UNL     3     -11.424  13.719  66.567  1.00  0.00    -0.334 NA 
ENDROOT
BRANCH   2  33
HETATM   33  C   UNL     1      -7.323  10.203  63.848  1.00  0.00    -0.111 C  
HETATM   34  H2  UNL     1      -5.360   9.638  64.130  1.00  0.00     0.000 HD 
HETATM   35  N   UNL     1      -5.939  10.471  64.231  1.00  0.00    -0.327 NA 
HETATM   36  H1  UNL     1      -5.542  11.260  63.720  1.00  0.00     0.000 HD 
ENDBRANCH   2  33
TORSDOF 1
ENDMDL
MODEL       10
REMARK 921   NORMALIZED FREE ENERGY PREDICTED BY IDOCK:   -5.59 KCAL/MOL
REMARK 922        TOTAL FREE ENERGY PREDICTED BY IDOCK:   -6.28 KCAL/MOL
REMARK 923 INTER-LIGAND FREE ENERGY PREDICTED BY IDOCK:   -6.18 KCAL/MOL
REMARK 924 INTRA-LIGAND FREE ENERGY PREDICTED BY IDOCK:   -0.10 KCAL/MOL
REMARK 927      BINDING AFFINITY PREDICTED BY RF-SCORE:    0.00 PKD
ROOT
HETATM    1  N   UNL     1      -7.624  15.705  69.146  1.00  0.00    -0.190 NA 
HETATM    2  C   UNL     1      -7.817  14.871  67.957  1.00  0.00    -0.127 C  
HETATM    3  H1  UNL     1      -8.482  16.160  69.459  1.00  0.00     0.000 HD 
HETATM    4  C   UNL     2     -11.403  15.110  69.690  1.00  0.00    -0.283 C  
HETATM    5  H2  UNL     1      -6.884  16.391  68.993  1.00  0.00     0.000 HD 
HETATM    6  C   UNL     3      -8.077  11.789  69.443  1.00  0.00     0.579 C  
HETATM    7  N   UNL     2     -11.520  14.263  68.524  1.00  0.00    -0.280 N  
HETATM    8  O   UNL     3      -8.793  12.623  66.757  1.00  0.00    -0.211 OA 
HETATM    9  N   UNL     3      -8.380  10.940  68.291  1.00  0.00    -0.123 N  
HETATM   10  O   UNL     2     -11.111  16.032  67.111  1.00  0.00    -0.242 OA 
HETATM   11  C   UNL     2     -11.719  12.909  68.630  1.00  0.00    -0.324 A  
HETATM   12  C   UNL     2     -11.901  12.137  67.527  1.00  0.00    -0.237 A  
HETATM   13  C   UNL     3      -8.629  11.430  67.006  1.00  0.00    -0.157 C  
HETATM   14  C   UNL     3      -8.653   9.619  68.518  1.00  0.00    -0.119 A  
HETATM   15  C   UNL     3      -8.914  11.056  64.617  1.00  0.00    -0.072 C  
HETATM   16  C   UNL     2     -11.856  12.637  66.202  1.00  0.00    -0.418 C  
HETATM   17  N   UNL     2     -12.014  10.859  67.989  1.00  0.00    -0.777 NA 
HETATM   18  C   UNL     3      -9.054   8.797  67.517  1.00  0.00    -0.133 A  
HETATM   19  C   UNL     2     -11.830  10.918  69.346  1.00  0.00    -0.328 A  
HETATM   20  N   UNL     2     -11.425  13.961  66.149  1.00  0.00    -0.335 N  
HETATM   21  N   UNL     3      -9.403   7.639  68.141  1.00  0.00    -0.144 NA 
HETATM   22  H   UNL     2     -12.200  10.024  67.433  1.00  0.00     0.000 HD 
HETATM   23  C   UNL     3      -9.120   9.181  66.159  1.00  0.00    -0.187 C  
HETATM   24  O   UNL     2     -12.128  11.938  65.231  1.00  0.00    -0.351 OA 
HETATM   25  O   UNL     3      -9.527   8.406  65.287  1.00  0.00     0.145 OA 
HETATM   26  N   UNL     3      -8.777  10.508  65.959  1.00  0.00    -0.158 N  
HETATM   27  C   UNL     3      -9.208   7.827  69.485  1.00  0.00    -0.149 A  
HETATM   28  H   UNL     3      -9.747   6.790  67.694  1.00  0.00     0.000 HD 
HETATM   29  C   UNL     2     -11.342  14.828  67.255  1.00  0.00    -0.357 C  
HETATM   30  N   UNL     2     -11.700  12.161  69.766  1.00  0.00    -0.320 NA 
HETATM   31  C   UNL     2     -10.924  14.467  64.887  1.00  0.00    -0.410 C  
HETATM   32  N   UNL     3      -8.714   9.018  69.739  1.00  0.00    -0.139 NA 
ENDROOT
BRANCH   2  33
HETATM   33  C   UNL     1      -6.516  14.182  67.483  1.00  0.00    -0.044 C  
HETATM   34  H2  UNL     1      -5.275  15.250  68.736  1.00  0.00     0.000 HD 
HETATM   35  N   UNL     1      -5.332  14.993  67.750  1.00  0.00    -0.285 NA 
HETATM   36  H1  UNL     1      -4.473  14.539  67.438  1.00  0.00     0.000 HD 
ENDBRANCH   2  33
TORSDOF 1
ENDMDL
MODEL       11
REMARK 921   NORMALIZED FREE ENERGY PREDICTED BY IDOCK:   -5.48 KCAL/MOL
REMARK 922        TOTAL FREE ENERGY PREDICTED BY IDOCK:   -6.16 KCAL/MOL
REMARK 923 INTER-LIGAND FREE ENERGY PREDICTED BY IDOCK:   -6.06 KCAL/MOL
REMARK 924 INTRA-LIGAND FREE ENERGY PREDICTED BY IDOCK:   -0.10 KCAL/MOL
REMARK 927      BINDING AFFINITY PREDICTED BY RF-SCORE:    0.00 PKD
ROOT
HETATM    1  N   UNL     1      -9.491   3.848  68.088  1.00  0.00    -0.172 NA 
HETATM    2  C   UNL     1      -9.399   5.293  67.865  1.00  0.00    -0.116 C  
HETATM    3  H1  UNL     1      -8.762   3.493  68.708  1.00  0.00     0.000 HD 
HETATM    4  C   UNL     2      -7.566   4.630  71.346  1.00  0.00    -0.078 C  
HETATM    5  H2  UNL     1      -9.493   3.342  67.202  1.00  0.00     0.000 HD 
HETATM    6  C   UNL     3     -11.755   6.382  70.107  1.00  0.00    -0.303 C  
HETATM    7  N   UNL     2      -7.541   6.053  71.086  1.00  0.00    -0.098 N  
HETATM    8  O   UNL     3      -9.663   7.862  68.746  1.00  0.00    -0.154 OA 
HETATM    9  N   UNL     3     -11.614   7.834  69.990  1.00  0.00     0.025 N  
HETATM   10  O   UNL     2      -6.134   5.772  69.289  1.00  0.00    -0.028 OA 
HETATM   11  C   UNL     2      -8.298   6.935  71.816  1.00  0.00    -0.108 A  
HETATM   12  C   UNL     2      -8.210   8.275  71.611  1.00  0.00    -0.137 A  
HETATM   13  C   UNL     3     -10.618   8.460  69.236  1.00  0.00    -0.182 C  
HETATM   14  C   UNL     3     -12.350   8.622  70.831  1.00  0.00    -0.052 A  
HETATM   15  C   UNL     3      -9.689  10.462  68.206  1.00  0.00    -0.151 C  
HETATM   16  C   UNL     2      -7.387   8.864  70.619  1.00  0.00    -0.080 C  
HETATM   17  N   UNL     2      -9.120   8.837  72.456  1.00  0.00    -0.353 NA 
HETATM   18  C   UNL     3     -12.188   9.969  70.860  1.00  0.00    -0.346 A  
HETATM   19  C   UNL     2      -9.759   7.800  73.084  1.00  0.00    -0.285 A  
HETATM   20  N   UNL     2      -6.826   7.918  69.764  1.00  0.00    -0.041 N  
HETATM   21  N   UNL     3     -12.933  10.382  71.922  1.00  0.00    -0.456 NA 
HETATM   22  H   UNL     2      -9.292   9.833  72.593  1.00  0.00     0.000 HD 
HETATM   23  C   UNL     3     -11.351  10.683  69.973  1.00  0.00    -0.324 C  
HETATM   24  O   UNL     2      -7.247  10.079  70.525  1.00  0.00    -0.246 OA 
HETATM   25  O   UNL     3     -11.208  11.906  70.063  1.00  0.00    -0.098 OA 
HETATM   26  N   UNL     3     -10.669   9.856  69.096  1.00  0.00    -0.217 N  
HETATM   27  C   UNL     3     -13.493   9.264  72.484  1.00  0.00    -0.404 A  
HETATM   28  H   UNL     3     -13.052  11.343  72.240  1.00  0.00     0.000 HD 
HETATM   29  C   UNL     2      -6.791   6.532  70.005  1.00  0.00    -0.054 C  
HETATM   30  N   UNL     2      -9.241   6.634  72.750  1.00  0.00    -0.136 NA 
HETATM   31  C   UNL     2      -6.329   8.366  68.478  1.00  0.00    -0.054 C  
HETATM   32  N   UNL     3     -13.182   8.178  71.813  1.00  0.00    -0.337 NA 
ENDROOT
BRANCH   2  33
HETATM   33  C   UNL     1     -10.502   5.832  66.925  1.00  0.00    -0.285 C  
HETATM   34  H2  UNL     1     -11.236   3.973  66.418  1.00  0.00     0.000 HD 
HETATM   35  N   UNL     1     -10.939   4.832  65.955  1.00  0.00    -0.794 NA 
HETATM   36  H1  UNL     1     -11.668   5.187  65.335  1.00  0.00     0.000 HD 
ENDBRANCH   2  33
TORSDOF 1
ENDMDL
MODEL       12
REMARK 921   NORMALIZED FREE ENERGY PREDICTED BY IDOCK:   -5.48 KCAL/MOL
REMARK 922        TOTAL FREE ENERGY PREDICTED BY IDOCK:   -6.16 KCAL/MOL
REMARK 923 INTER-LIGAND FREE ENERGY PREDICTED BY IDOCK:   -6.06 KCAL/MOL
REMARK 924 INTRA-LIGAND FREE ENERGY PREDICTED BY IDOCK:   -0.10 KCAL/MOL
REMARK 927      BINDING AFFINITY PREDICTED BY RF-SCORE:    0.00 PKD
ROOT
HETATM    1  N   UNL     1     -11.586   7.386  73.312  1.00  0.00    -0.572 NA 
HETATM    2  C   UNL     1     -11.470   7.043  71.892  1.00  0.00    -0.268 C  
HETATM    3  H1  UNL     1     -10.720   7.239  73.830  1.00  0.00     0.000 HD 
HETATM    4  C   UNL     2      -7.756   7.849  73.103  1.00  0.00    -0.133 C  
HETATM    5  H2  UNL     1     -12.360   6.882  73.746  1.00  0.00     0.000 HD 
HETATM    6  C   UNL     3     -10.974  10.170  70.572  1.00  0.00    -0.310 C  
HETATM    7  N   UNL     2      -7.713   7.537  71.692  1.00  0.00    -0.084 N  
HETATM    8  O   UNL     3     -10.528   7.560  69.384  1.00  0.00    -0.215 OA 
HETATM    9  N   UNL     3     -10.745   9.854  69.162  1.00  0.00    -0.217 N  
HETATM   10  O   UNL     2      -8.306   5.349  72.085  1.00  0.00    -0.122 OA 
HETATM   11  C   UNL     2      -7.459   8.498  70.745  1.00  0.00    -0.072 A  
HETATM   12  C   UNL     2      -7.349   8.178  69.430  1.00  0.00    -0.076 A  
HETATM   13  C   UNL     3     -10.628   8.553  68.666  1.00  0.00    -0.118 C  
HETATM   14  C   UNL     3     -10.408  10.876  68.319  1.00  0.00    -0.173 A  
HETATM   15  C   UNL     3     -10.543   7.005  66.787  1.00  0.00    -0.227 C  
HETATM   16  C   UNL     2      -7.528   6.867  68.923  1.00  0.00    -0.096 C  
HETATM   17  N   UNL     2      -7.151   9.360  68.780  1.00  0.00    -0.068 NA 
HETATM   18  C   UNL     3     -10.069  10.645  67.026  1.00  0.00    -0.211 A  
HETATM   19  C   UNL     2      -7.216  10.344  69.733  1.00  0.00    -0.154 A  
HETATM   20  N   UNL     2      -8.008   5.986  69.890  1.00  0.00    -0.110 N  
HETATM   21  N   UNL     3      -9.626  11.847  66.566  1.00  0.00    -0.208 NA 
HETATM   22  H   UNL     2      -6.987   9.487  67.781  1.00  0.00     0.000 HD 
HETATM   23  C   UNL     3     -10.137   9.377  66.407  1.00  0.00    -0.262 C  
HETATM   24  O   UNL     2      -7.320   6.588  67.747  1.00  0.00    -0.090 OA 
HETATM   25  O   UNL     3      -9.783   9.209  65.236  1.00  0.00    -0.157 OA 
HETATM   26  N   UNL     3     -10.541   8.377  67.276  1.00  0.00    -0.298 N  
HETATM   27  C   UNL     3      -9.708  12.736  67.607  1.00  0.00    -0.205 A  
HETATM   28  H   UNL     3      -9.295  12.049  65.623  1.00  0.00     0.000 HD 
HETATM   29  C   UNL     2      -8.023   6.236  71.275  1.00  0.00    -0.116 C  
HETATM   30  N   UNL     2      -7.352   9.840  70.944  1.00  0.00    -0.324 NA 
HETATM   31  C   UNL     2      -8.636   4.757  69.445  1.00  0.00    -0.082 C  
HETATM   32  N   UNL     3     -10.219  12.176  68.681  1.00  0.00    -0.206 NA 
ENDROOT
BRANCH   2  33
HETATM   33  C   UNL     1     -12.784   7.265  71.106  1.00  0.00    -0.306 C  
HETATM   34  H2  UNL     1     -13.887   7.841  72.750  1.00  0.00     0.000 HD 
HETATM   35  N   UNL     1     -13.962   7.193  71.966  1.00  0.00    -0.577 NA 
HETATM   36  H1  UNL     1     -14.828   7.340  71.448  1.00  0.00     0.000 HD 
ENDBRANCH   2  33
TORSDOF 1
ENDMDL
MODEL       13
REMARK 921   NORMALIZED FREE ENERGY PREDICTED BY IDOCK:   -5.46 KCAL/MOL
REMARK 922        TOTAL FREE ENERGY PREDICTED BY IDOCK:   -6.14 KCAL/MOL
REMARK 923 INTER-LIGAND FREE ENERGY PREDICTED BY IDOCK:   -6.04 KCAL/MOL
REMARK 924 INTRA-LIGAND FREE ENERGY PREDICTED BY IDOCK:   -0.10 KCAL/MOL
REMARK 927      BINDING AFFINITY PREDICTED BY RF-SCORE:    0.00 PKD
ROOT
HETATM    1  N   UNL     1     -10.117  13.543  64.226  1.00  0.00    -0.771 NA 
HETATM    2  C   UNL     1     -10.543  12.284  64.844  1.00  0.00    -0.293 C  
HETATM    3  H1  UNL     1      -9.828  14.244  64.908  1.00  0.00     0.000 HD 
HETATM    4  C   UNL     2      -8.128  14.017  67.505  1.00  0.00    -0.186 C  
HETATM    5  H2  UNL     1     -10.843  13.910  63.611  1.00  0.00     0.000 HD 
HETATM    6  C   UNL     3      -7.668  10.448  64.470  1.00  0.00    -0.051 C  
HETATM    7  N   UNL     2      -8.555  12.744  68.043  1.00  0.00    -0.177 N  
HETATM    8  O   UNL     3      -9.973   9.966  66.166  1.00  0.00    -0.236 OA 
HETATM    9  N   UNL     3      -8.021   9.216  65.175  1.00  0.00    -0.113 N  
HETATM   10  O   UNL     2     -10.729  13.472  68.230  1.00  0.00    -0.243 OA 
HETATM   11  C   UNL     2      -7.691  11.684  68.165  1.00  0.00    -0.122 A  
HETATM   12  C   UNL     2      -8.086  10.518  68.740  1.00  0.00    -0.131 A  
HETATM   13  C   UNL     3      -9.203   9.046  65.901  1.00  0.00    -0.230 C  
HETATM   14  C   UNL     3      -7.056   8.258  65.320  1.00  0.00    -0.074 A  
HETATM   15  C   UNL     3     -10.780   7.602  67.067  1.00  0.00    -0.270 C  
HETATM   16  C   UNL     2      -9.402  10.281  69.211  1.00  0.00    -0.207 C  
HETATM   17  N   UNL     2      -7.013   9.682  68.650  1.00  0.00    -0.063 NA 
HETATM   18  C   UNL     3      -7.273   7.141  66.058  1.00  0.00    -0.074 A  
HETATM   19  C   UNL     2      -6.043  10.367  67.964  1.00  0.00    -0.047 A  
HETATM   20  N   UNL     2     -10.285  11.298  68.853  1.00  0.00    -0.199 N  
HETATM   21  N   UNL     3      -6.058   6.531  66.126  1.00  0.00    -0.032 NA 
HETATM   22  H   UNL     2      -6.946   8.733  69.019  1.00  0.00     0.000 HD 
HETATM   23  C   UNL     3      -8.517   6.809  66.641  1.00  0.00    -0.120 C  
HETATM   24  O   UNL     2      -9.703   9.260  69.820  1.00  0.00    -0.171 OA 
HETATM   25  O   UNL     3      -8.655   5.798  67.337  1.00  0.00    -0.108 OA 
HETATM   26  N   UNL     3      -9.486   7.774  66.422  1.00  0.00    -0.198 N  
HETATM   27  C   UNL     3      -5.170   7.318  65.437  1.00  0.00    -0.028 A  
HETATM   28  H   UNL     3      -5.846   5.654  66.600  1.00  0.00     0.000 HD 
HETATM   29  C   UNL     2      -9.905  12.564  68.369  1.00  0.00    -0.202 C  
HETATM   30  N   UNL     2      -6.414  11.605  67.704  1.00  0.00    -0.068 NA 
HETATM   31  C   UNL     2     -11.705  11.011  68.877  1.00  0.00    -0.330 C  
HETATM   32  N   UNL     3      -5.764   8.361  64.902  1.00  0.00    -0.044 NA 
ENDROOT
BRANCH   2  33
HETATM   33  C   UNL     1     -10.980  11.220  63.810  1.00  0.00    -0.301 C  
HETATM   34  H2  UNL     1     -12.055  12.532  62.638  1.00  0.00     0.000 HD 
HETATM   35  N   UNL     1     -12.179  11.621  63.077  1.00  0.00    -0.951 NA 
HETATM   36  H1  UNL     1     -12.467  10.919  62.395  1.00  0.00     0.000 HD 
ENDBRANCH   2  33
TORSDOF 1
ENDMDL
MODEL       14
REMARK 921   NORMALIZED FREE ENERGY PREDICTED BY IDOCK:   -5.25 KCAL/MOL
REMARK 922        TOTAL FREE ENERGY PREDICTED BY IDOCK:   -5.92 KCAL/MOL
REMARK 923 INTER-LIGAND FREE ENERGY PREDICTED BY IDOCK:   -5.77 KCAL/MOL
REMARK 924 INTRA-LIGAND FREE ENERGY PREDICTED BY IDOCK:   -0.15 KCAL/MOL
REMARK 927      BINDING AFFINITY PREDICTED BY RF-SCORE:    0.00 PKD
ROOT
HETATM    1  N   UNL     1      -8.792   6.365  65.020  1.00  0.00    -0.356 NA 
HETATM    2  C   UNL     1      -8.003   7.531  65.428  1.00  0.00    -0.124 C  
HETATM    3  H1  UNL     1      -9.001   5.734  65.795  1.00  0.00     0.000 HD 
HETATM    4  C   UNL     2      -9.868   6.295  68.730  1.00  0.00    -0.137 C  
HETATM    5  H2  UNL     1      -8.334   5.865  64.258  1.00  0.00     0.000 HD 
HETATM    6  C   UNL     3     -10.508   9.857  65.721  1.00  0.00     0.037 C  
HETATM    7  N   UNL     2      -9.097   7.473  69.061  1.00  0.00    -0.141 N  
HETATM    8  O   UNL     3      -7.782   9.926  66.715  1.00  0.00    -0.098 OA 
HETATM    9  N   UNL     3      -9.769  11.011  66.234  1.00  0.00    -0.200 N  
HETATM   10  O   UNL     2      -7.114   6.362  68.708  1.00  0.00    -0.077 OA 
HETATM   11  C   UNL     2      -9.698   8.675  69.344  1.00  0.00    -0.176 A  
HETATM   12  C   UNL     2      -8.966   9.754  69.725  1.00  0.00    -0.221 A  
HETATM   13  C   UNL     3      -8.424  10.969  66.610  1.00  0.00    -0.153 C  
HETATM   14  C   UNL     3     -10.477  12.130  66.572  1.00  0.00    -0.225 A  
HETATM   15  C   UNL     3      -6.364  12.112  67.229  1.00  0.00    -0.152 C  
HETATM   16  C   UNL     2      -7.552   9.751  69.815  1.00  0.00    -0.137 C  
HETATM   17  N   UNL     2      -9.862  10.771  69.872  1.00  0.00    -0.347 NA 
HETATM   18  C   UNL     3      -9.878  13.196  67.159  1.00  0.00    -0.235 A  
HETATM   19  C   UNL     2     -11.085  10.268  69.510  1.00  0.00    -0.262 A  
HETATM   20  N   UNL     2      -6.989   8.587  69.297  1.00  0.00    -0.053 N  
HETATM   21  N   UNL     3     -10.905  14.018  67.510  1.00  0.00    -0.267 NA 
HETATM   22  H   UNL     2      -9.661  11.720  70.190  1.00  0.00     0.000 HD 
HETATM   23  C   UNL     3      -8.485  13.301  67.372  1.00  0.00    -0.206 C  
HETATM   24  O   UNL     2      -6.925  10.706  70.261  1.00  0.00    -0.233 OA 
HETATM   25  O   UNL     3      -7.990  14.276  67.945  1.00  0.00    -0.127 OA 
HETATM   26  N   UNL     3      -7.794  12.173  66.960  1.00  0.00    -0.152 N  
HETATM   27  C   UNL     3     -12.068  13.401  67.129  1.00  0.00    -0.318 A  
HETATM   28  H   UNL     3     -10.824  14.924  67.971  1.00  0.00     0.000 HD 
HETATM   29  C   UNL     2      -7.700   7.407  69.006  1.00  0.00    -0.118 C  
HETATM   30  N   UNL     2     -11.019   8.980  69.234  1.00  0.00    -0.104 NA 
HETATM   31  C   UNL     2      -5.588   8.609  68.927  1.00  0.00    -0.040 C  
HETATM   32  N   UNL     3     -11.832  12.261  66.519  1.00  0.00    -0.598 NA 
ENDROOT
BRANCH   2  33
HETATM   33  C   UNL     1      -7.685   8.486  64.254  1.00  0.00    -0.130 C  
HETATM   34  H2  UNL     1      -9.553   8.350  63.393  1.00  0.00     0.000 HD 
HETATM   35  N   UNL     1      -8.575   8.279  63.115  1.00  0.00    -0.415 NA 
HETATM   36  H1  UNL     1      -8.365   8.909  62.340  1.00  0.00     0.000 HD 
ENDBRANCH   2  33
TORSDOF 1
ENDMDL
MODEL       15
REMARK 921   NORMALIZED FREE ENERGY PREDICTED BY IDOCK:   -5.17 KCAL/MOL
REMARK 922        TOTAL FREE ENERGY PREDICTED BY IDOCK:   -5.84 KCAL/MOL
REMARK 923 INTER-LIGAND FREE ENERGY PREDICTED BY IDOCK:   -5.50 KCAL/MOL
REMARK 924 INTRA-LIGAND FREE ENERGY PREDICTED BY IDOCK:   -0.34 KCAL/MOL
REMARK 927      BINDING AFFINITY PREDICTED BY RF-SCORE:    0.00 PKD
ROOT
HETATM    1  N   UNL     1      -5.669  12.162  66.595  1.00  0.00    -0.492 NA 
HETATM    2  C   UNL     1      -6.588  12.568  67.663  1.00  0.00    -0.136 C  
HETATM    3  H1  UNL     1      -6.099  11.532  65.917  1.00  0.00     0.000 HD 
HETATM    4  C   UNL     2      -8.911  11.545  64.585  1.00  0.00     0.256 C  
HETATM    5  H2  UNL     1      -4.818  11.754  66.982  1.00  0.00     0.000 HD 
HETATM    6  C   UNL     3      -7.550  15.637  66.471  1.00  0.00     0.229 C  
HETATM    7  N   UNL     2      -9.763  11.993  65.665  1.00  0.00    -0.240 N  
HETATM    8  O   UNL     3      -8.747  13.988  68.536  1.00  0.00    -0.181 OA 
HETATM    9  N   UNL     3      -8.554  16.028  67.461  1.00  0.00    -0.174 N  
HETATM   10  O   UNL     2      -9.186  10.185  66.965  1.00  0.00    -0.144 OA 
HETATM   11  C   UNL     2     -10.447  13.182  65.602  1.00  0.00    -0.282 A  
HETATM   12  C   UNL     2     -11.300  13.556  66.590  1.00  0.00    -0.322 A  
HETATM   13  C   UNL     3      -9.010  15.187  68.479  1.00  0.00    -0.186 C  
HETATM   14  C   UNL     3      -9.245  17.189  67.254  1.00  0.00    -0.230 A  
HETATM   15  C   UNL     3     -10.235  14.854  70.558  1.00  0.00     0.412 C  
HETATM   16  C   UNL     2     -11.519  12.797  67.767  1.00  0.00    -0.326 C  
HETATM   17  N   UNL     2     -11.758  14.789  66.234  1.00  0.00    -0.308 NA 
HETATM   18  C   UNL     3     -10.268  17.558  68.064  1.00  0.00    -0.354 A  
HETATM   19  C   UNL     2     -11.106  15.126  65.075  1.00  0.00    -0.419 A  
HETATM   20  N   UNL     2     -10.632  11.728  67.882  1.00  0.00    -0.195 N  
HETATM   21  N   UNL     3     -10.819  18.642  67.452  1.00  0.00    -0.404 NA 
HETATM   22  H   UNL     2     -12.449  15.351  66.731  1.00  0.00     0.000 HD 
HETATM   23  C   UNL     3     -10.639  16.859  69.235  1.00  0.00    -0.325 C  
HETATM   24  O   UNL     2     -12.372  13.105  68.593  1.00  0.00    -0.138 OA 
HETATM   25  O   UNL     3     -11.602  17.214  69.921  1.00  0.00     0.851 OA 
HETATM   26  N   UNL     3      -9.877  15.722  69.445  1.00  0.00    -0.270 N  
HETATM   27  C   UNL     3     -10.109  18.862  66.299  1.00  0.00    -0.414 A  
HETATM   28  H   UNL     3     -11.611  19.189  67.787  1.00  0.00     0.000 HD 
HETATM   29  C   UNL     2      -9.823  11.235  66.841  1.00  0.00    -0.193 C  
HETATM   30  N   UNL     2     -10.341  14.142  64.643  1.00  0.00    -0.384 NA 
HETATM   31  C   UNL     2     -10.441  11.134  69.190  1.00  0.00    -0.182 C  
HETATM   32  N   UNL     3      -9.117  18.009  66.173  1.00  0.00    -0.504 NA 
ENDROOT
BRANCH   2  33
HETATM   33  C   UNL     1      -5.937  13.523  68.690  1.00  0.00    -0.086 C  
HETATM   34  H2  UNL     1      -6.298  12.313  70.320  1.00  0.00     0.000 HD 
HETATM   35  N   UNL     1      -6.422  13.288  70.048  1.00  0.00    -0.358 NA 
HETATM   36  H1  UNL     1      -5.992  13.918  70.726  1.00  0.00     0.000 HD 
ENDBRANCH   2  33
TORSDOF 1
ENDMDL
MODEL       16
REMARK 921   NORMALIZED FREE ENERGY PREDICTED BY IDOCK:   -5.15 KCAL/MOL
REMARK 922        TOTAL FREE ENERGY PREDICTED BY IDOCK:   -5.82 KCAL/MOL
REMARK 923 INTER-LIGAND FREE ENERGY PREDICTED BY IDOCK:   -5.71 KCAL/MOL
REMARK 924 INTRA-LIGAND FREE ENERGY PREDICTED BY IDOCK:   -0.10 KCAL/MOL
REMARK 927      BINDING AFFINITY PREDICTED BY RF-SCORE:    0.00 PKD
ROOT
HETATM    1  N   UNL     1      -9.540   3.150  67.023  1.00  0.00    -0.399 NA 
HETATM    2  C   UNL     1      -9.541   4.590  66.752  1.00  0.00    -0.190 C  
HETATM    3  H1  UNL     1      -8.644   2.810  67.373  1.00  0.00     0.000 HD 
HETATM    4  C   UNL     2      -6.649   4.010  69.437  1.00  0.00    -0.034 C  
HETATM    5  H2  UNL     1      -9.832   2.624  66.199  1.00  0.00     0.000 HD 
HETATM    6  C   UNL     3     -11.028   5.725  69.627  1.00  0.00    -0.315 C  
HETATM    7  N   UNL     2      -6.726   5.426  69.154  1.00  0.00    -0.051 N  
HETATM    8  O   UNL     3      -9.522   7.177  67.616  1.00  0.00    -0.126 OA 
HETATM    9  N   UNL     3     -10.948   7.174  69.439  1.00  0.00    -0.202 N  
HETATM   10  O   UNL     2      -5.993   5.107  66.997  1.00  0.00    -0.024 OA 
HETATM   11  C   UNL     2      -7.205   6.324  70.077  1.00  0.00    -0.077 A  
HETATM   12  C   UNL     2      -7.202   7.659  69.825  1.00  0.00    -0.079 A  
HETATM   13  C   UNL     3     -10.266   7.785  68.384  1.00  0.00    -0.200 C  
HETATM   14  C   UNL     3     -11.369   7.980  70.460  1.00  0.00    -0.225 A  
HETATM   15  C   UNL     3      -9.751   9.764  67.062  1.00  0.00    -0.183 C  
HETATM   16  C   UNL     2      -6.762   8.227  68.604  1.00  0.00    -0.059 C  
HETATM   17  N   UNL     2      -7.785   8.238  70.913  1.00  0.00    -0.076 NA 
HETATM   18  C   UNL     3     -11.220   9.327  70.406  1.00  0.00    -0.247 A  
HETATM   19  C   UNL     2      -8.169   7.214  71.740  1.00  0.00    -0.105 A  
HETATM   20  N   UNL     2      -6.509   7.262  67.631  1.00  0.00    -0.050 N  
HETATM   21  N   UNL     3     -11.573   9.763  71.646  1.00  0.00    -0.351 NA 
HETATM   22  H   UNL     2      -7.911   9.237  71.078  1.00  0.00     0.000 HD 
HETATM   23  C   UNL     3     -10.732  10.022  69.276  1.00  0.00    -0.224 C  
HETATM   24  O   UNL     2      -6.673   9.440  68.443  1.00  0.00    -0.058 OA 
HETATM   25  O   UNL     3     -10.579  11.248  69.288  1.00  0.00    -0.212 OA 
HETATM   26  N   UNL     3     -10.373   9.176  68.240  1.00  0.00    -0.207 N  
HETATM   27  C   UNL     3     -11.904   8.657  72.386  1.00  0.00    -0.331 A  
HETATM   28  H   UNL     3     -11.589  10.731  71.966  1.00  0.00     0.000 HD 
HETATM   29  C   UNL     2      -6.382   5.882  67.876  1.00  0.00    -0.041 C  
HETATM   30  N   UNL     2      -7.781   6.042  71.277  1.00  0.00    -0.107 NA 
HETATM   31  C   UNL     2      -6.472   7.682  66.244  1.00  0.00    -0.049 C  
HETATM   32  N   UNL     3     -11.823   7.556  71.673  1.00  0.00    -0.279 NA 
ENDROOT
BRANCH   2  33
HETATM   33  C   UNL     1     -10.900   5.105  66.222  1.00  0.00    -0.112 C  
HETATM   34  H2  UNL     1     -11.316   3.418  65.111  1.00  0.00     0.000 HD 
HETATM   35  N   UNL     1     -11.305   4.431  64.991  1.00  0.00    -1.102 NA 
HETATM   36  H1  UNL     1     -12.201   4.770  64.641  1.00  0.00     0.000 HD 
ENDBRANCH   2  33
TORSDOF 1
ENDMDL
MODEL       17
REMARK 921   NORMALIZED FREE ENERGY PREDICTED BY IDOCK:   -5.08 KCAL/MOL
REMARK 922        TOTAL FREE ENERGY PREDICTED BY IDOCK:   -5.74 KCAL/MOL
REMARK 923 INTER-LIGAND FREE ENERGY PREDICTED BY IDOCK:   -5.60 KCAL/MOL
REMARK 924 INTRA-LIGAND FREE ENERGY PREDICTED BY IDOCK:   -0.14 KCAL/MOL
REMARK 927      BINDING AFFINITY PREDICTED BY RF-SCORE:    0.00 PKD
ROOT
HETATM    1  N   UNL     1      -9.512   4.622  67.041  1.00  0.00    -0.148 NA 
HETATM    2  C   UNL     1      -8.562   5.712  67.282  1.00  0.00    -0.109 C  
HETATM    3  H1  UNL     1      -9.804   4.151  67.897  1.00  0.00     0.000 HD 
HETATM    4  C   UNL     2     -10.561   5.260  70.704  1.00  0.00    -0.193 C  
HETATM    5  H2  UNL     1      -9.136   3.954  66.368  1.00  0.00     0.000 HD 
HETATM    6  C   UNL     3     -10.707   8.388  67.190  1.00  0.00    -0.152 C  
HETATM    7  N   UNL     2      -9.628   6.353  70.867  1.00  0.00    -0.175 N  
HETATM    8  O   UNL     3      -7.993   8.216  68.201  1.00  0.00    -0.122 OA 
HETATM    9  N   UNL     3      -9.807   9.488  67.536  1.00  0.00    -0.159 N  
HETATM   10  O   UNL     2      -7.826   4.932  70.712  1.00  0.00    -0.075 OA 
HETATM   11  C   UNL     2     -10.049   7.656  70.960  1.00  0.00    -0.189 A  
HETATM   12  C   UNL     2      -9.168   8.665  71.186  1.00  0.00    -0.213 A  
HETATM   13  C   UNL     3      -8.480   9.313  67.933  1.00  0.00    -0.117 C  
HETATM   14  C   UNL     3     -10.347  10.735  67.693  1.00  0.00    -0.201 A  
HETATM   15  C   UNL     3      -6.273  10.230  68.405  1.00  0.00    -0.047 C  
HETATM   16  C   UNL     2      -7.768   8.475  71.296  1.00  0.00    -0.108 C  
HETATM   17  N   UNL     2      -9.909   9.810  71.168  1.00  0.00    -0.248 NA 
HETATM   18  C   UNL     3      -9.597  11.780  68.125  1.00  0.00    -0.193 A  
HETATM   19  C   UNL     2     -11.193   9.437  70.866  1.00  0.00    -0.325 A  
HETATM   20  N   UNL     2      -7.381   7.178  70.965  1.00  0.00    -0.074 N  
HETATM   21  N   UNL     3     -10.494  12.783  68.334  1.00  0.00    -0.239 NA 
HETATM   22  H   UNL     2      -9.572  10.757  71.343  1.00  0.00     0.000 HD 
HETATM   23  C   UNL     3      -8.202  11.716  68.339  1.00  0.00    -0.155 C  
HETATM   24  O   UNL     2      -7.008   9.387  71.604  1.00  0.00    -0.316 OA 
HETATM   25  O   UNL     3      -7.569  12.686  68.768  1.00  0.00    -0.102 OA 
HETATM   26  N   UNL     3      -7.682  10.453  68.110  1.00  0.00    -0.091 N  
HETATM   27  C   UNL     3     -11.736  12.287  68.032  1.00  0.00    -0.356 A  
HETATM   28  H   UNL     3     -10.282  13.727  68.656  1.00  0.00     0.000 HD 
HETATM   29  C   UNL     2      -8.255   6.081  70.843  1.00  0.00    -0.125 C  
HETATM   30  N   UNL     2     -11.314   8.127  70.786  1.00  0.00    -0.273 NA 
HETATM   31  C   UNL     2      -5.993   6.946  70.616  1.00  0.00    -0.027 C  
HETATM   32  N   UNL     3     -11.670  11.047  67.602  1.00  0.00    -0.580 NA 
ENDROOT
BRANCH   2  33
HETATM   33  C   UNL     1      -8.119   6.426  65.983  1.00  0.00    -0.120 C  
HETATM   34  H2  UNL     1      -9.821   5.951  64.921  1.00  0.00     0.000 HD 
HETATM   35  N   UNL     1      -8.808   5.909  64.804  1.00  0.00    -0.366 NA 
HETATM   36  H1  UNL     1      -8.516   6.381  63.948  1.00  0.00     0.000 HD 
ENDBRANCH   2  33
TORSDOF 1
ENDMDL
MODEL       18
REMARK 921   NORMALIZED FREE ENERGY PREDICTED BY IDOCK:   -5.05 KCAL/MOL
REMARK 922        TOTAL FREE ENERGY PREDICTED BY IDOCK:   -5.71 KCAL/MOL
REMARK 923 INTER-LIGAND FREE ENERGY PREDICTED BY IDOCK:   -5.55 KCAL/MOL
REMARK 924 INTRA-LIGAND FREE ENERGY PREDICTED BY IDOCK:   -0.16 KCAL/MOL
REMARK 927      BINDING AFFINITY PREDICTED BY RF-SCORE:    0.00 PKD
ROOT
HETATM    1  N   UNL     1      -9.076   6.976  65.654  1.00  0.00    -0.378 NA 
HETATM    2  C   UNL     1      -9.914   7.135  66.845  1.00  0.00    -0.224 C  
HETATM    3  H1  UNL     1      -8.258   7.585  65.658  1.00  0.00     0.000 HD 
HETATM    4  C   UNL     2      -6.275   8.358  67.928  1.00  0.00    -0.052 C  
HETATM    5  H2  UNL     1      -9.624   7.107  64.803  1.00  0.00     0.000 HD 
HETATM    6  C   UNL     3      -8.809   4.467  68.698  1.00  0.00    -0.102 C  
HETATM    7  N   UNL     2      -7.145   8.456  69.078  1.00  0.00    -0.067 N  
HETATM    8  O   UNL     3     -10.350   6.787  69.516  1.00  0.00    -0.187 OA 
HETATM    9  N   UNL     3      -9.550   4.658  69.946  1.00  0.00    -0.171 N  
HETATM   10  O   UNL     2      -8.375  10.133  68.094  1.00  0.00    -0.115 OA 
HETATM   11  C   UNL     2      -7.023   7.610  70.153  1.00  0.00    -0.051 A  
HETATM   12  C   UNL     2      -7.798   7.760  71.258  1.00  0.00    -0.086 A  
HETATM   13  C   UNL     3     -10.340   5.778  70.218  1.00  0.00    -0.252 C  
HETATM   14  C   UNL     3      -9.285   3.813  70.987  1.00  0.00    -0.130 A  
HETATM   15  C   UNL     3     -12.009   6.907  71.586  1.00  0.00    -0.339 C  
HETATM   16  C   UNL     2      -8.808   8.747  71.380  1.00  0.00    -0.225 C  
HETATM   17  N   UNL     2      -7.455   6.737  72.090  1.00  0.00    -0.092 NA 
HETATM   18  C   UNL     3      -9.846   3.997  72.208  1.00  0.00    -0.160 A  
HETATM   19  C   UNL     2      -6.531   5.981  71.415  1.00  0.00    -0.049 A  
HETATM   20  N   UNL     2      -9.041   9.419  70.182  1.00  0.00    -0.213 N  
HETATM   21  N   UNL     3      -9.219   3.098  73.015  1.00  0.00    -0.090 NA 
HETATM   22  H   UNL     2      -7.814   6.567  73.029  1.00  0.00     0.000 HD 
HETATM   23  C   UNL     3     -10.818   4.983  72.490  1.00  0.00    -0.196 C  
HETATM   24  O   UNL     2      -9.421   8.928  72.427  1.00  0.00    -0.315 OA 
HETATM   25  O   UNL     3     -11.273   5.137  73.628  1.00  0.00    -0.296 OA 
HETATM   26  N   UNL     3     -11.105   5.781  71.395  1.00  0.00    -0.242 N  
HETATM   27  C   UNL     3      -8.305   2.428  72.243  1.00  0.00    -0.055 A  
HETATM   28  H   UNL     3      -9.395   2.949  74.008  1.00  0.00     0.000 HD 
HETATM   29  C   UNL     2      -8.194   9.384  69.058  1.00  0.00    -0.108 C  
HETATM   30  N   UNL     2      -6.214   6.520  70.254  1.00  0.00    -0.034 NA 
HETATM   31  C   UNL     2     -10.295  10.130  70.028  1.00  0.00    -0.250 C  
HETATM   32  N   UNL     3      -8.351   2.821  70.989  1.00  0.00    -0.056 NA 
ENDROOT
BRANCH   2  33
HETATM   33  C   UNL     1     -11.155   6.212  66.840  1.00  0.00    -0.219 C  
HETATM   34  H2  UNL     1     -10.194   4.616  65.957  1.00  0.00     0.000 HD 
HETATM   35  N   UNL     1     -11.053   5.153  65.839  1.00  0.00    -0.803 NA 
HETATM   36  H1  UNL     1     -11.871   4.544  65.836  1.00  0.00     0.000 HD 
ENDBRANCH   2  33
TORSDOF 1
ENDMDL
MODEL       19
REMARK 921   NORMALIZED FREE ENERGY PREDICTED BY IDOCK:   -5.02 KCAL/MOL
REMARK 922        TOTAL FREE ENERGY PREDICTED BY IDOCK:   -5.68 KCAL/MOL
REMARK 923 INTER-LIGAND FREE ENERGY PREDICTED BY IDOCK:   -5.58 KCAL/MOL
REMARK 924 INTRA-LIGAND FREE ENERGY PREDICTED BY IDOCK:   -0.10 KCAL/MOL
REMARK 927      BINDING AFFINITY PREDICTED BY RF-SCORE:    0.00 PKD
ROOT
HETATM    1  N   UNL     1      -8.359   4.358  66.074  1.00  0.00    -0.113 NA 
HETATM    2  C   UNL     1      -9.050   5.491  66.695  1.00  0.00    -0.126 C  
HETATM    3  H1  UNL     1      -7.343   4.439  66.116  1.00  0.00     0.000 HD 
HETATM    4  C   UNL     2      -5.442   5.380  68.392  1.00  0.00    -0.008 C  
HETATM    5  H2  UNL     1      -8.674   4.221  65.114  1.00  0.00     0.000 HD 
HETATM    6  C   UNL     3      -9.768   4.130  69.761  1.00  0.00    -0.208 C  
HETATM    7  N   UNL     2      -6.191   6.462  68.993  1.00  0.00    -0.032 N  
HETATM    8  O   UNL     3      -9.803   6.902  68.905  1.00  0.00    -0.145 OA 
HETATM    9  N   UNL     3     -10.365   5.274  70.451  1.00  0.00    -0.275 N  
HETATM   10  O   UNL     2      -6.195   7.648  67.023  1.00  0.00    -0.049 OA 
HETATM   11  C   UNL     2      -6.643   6.397  70.288  1.00  0.00    -0.045 A  
HETATM   12  C   UNL     2      -7.281   7.449  70.863  1.00  0.00    -0.068 A  
HETATM   13  C   UNL     3     -10.412   6.565  69.919  1.00  0.00    -0.213 C  
HETATM   14  C   UNL     3     -10.697   5.129  71.769  1.00  0.00    -0.133 A  
HETATM   15  C   UNL     3     -11.259   8.848  69.977  1.00  0.00    -0.110 C  
HETATM   16  C   UNL     2      -7.572   8.658  70.183  1.00  0.00    -0.069 C  
HETATM   17  N   UNL     2      -7.632   7.028  72.112  1.00  0.00    -0.090 NA 
HETATM   18  C   UNL     3     -11.148   6.177  72.504  1.00  0.00    -0.274 A  
HETATM   19  C   UNL     2      -7.243   5.716  72.203  1.00  0.00    -0.089 A  
HETATM   20  N   UNL     2      -7.299   8.578  68.819  1.00  0.00    -0.088 N  
HETATM   21  N   UNL     3     -11.193   5.707  73.781  1.00  0.00    -0.372 NA 
HETATM   22  H   UNL     2      -8.093   7.580  72.835  1.00  0.00     0.000 HD 
HETATM   23  C   UNL     3     -11.419   7.457  71.970  1.00  0.00    -0.273 C  
HETATM   24  O   UNL     2      -8.054   9.629  70.757  1.00  0.00    -0.279 OA 
HETATM   25  O   UNL     3     -11.793   8.390  72.688  1.00  0.00    -0.393 OA 
HETATM   26  N   UNL     3     -11.128   7.547  70.619  1.00  0.00    -0.261 N  
HETATM   27  C   UNL     3     -10.756   4.408  73.752  1.00  0.00    -0.271 A  
HETATM   28  H   UNL     3     -11.495   6.225  74.606  1.00  0.00     0.000 HD 
HETATM   29  C   UNL     2      -6.536   7.567  68.206  1.00  0.00    -0.049 C  
HETATM   30  N   UNL     2      -6.593   5.325  71.125  1.00  0.00    -0.041 NA 
HETATM   31  C   UNL     2      -7.925   9.544  67.939  1.00  0.00    -0.098 C  
HETATM   32  N   UNL     3     -10.481   4.018  72.527  1.00  0.00    -0.153 NA 
ENDROOT
BRANCH   2  33
HETATM   33  C   UNL     1     -10.591   5.368  66.633  1.00  0.00    -0.294 C  
HETATM   34  H2  UNL     1     -10.596   3.776  65.322  1.00  0.00     0.000 HD 
HETATM   35  N   UNL     1     -11.042   4.688  65.422  1.00  0.00    -0.958 NA 
HETATM   36  H1  UNL     1     -12.059   4.606  65.381  1.00  0.00     0.000 HD 
ENDBRANCH   2  33
TORSDOF 1
ENDMDL
MODEL       20
REMARK 921   NORMALIZED FREE ENERGY PREDICTED BY IDOCK:   -4.99 KCAL/MOL
REMARK 922        TOTAL FREE ENERGY PREDICTED BY IDOCK:   -5.65 KCAL/MOL
REMARK 923 INTER-LIGAND FREE ENERGY PREDICTED BY IDOCK:   -5.31 KCAL/MOL
REMARK 924 INTRA-LIGAND FREE ENERGY PREDICTED BY IDOCK:   -0.34 KCAL/MOL
REMARK 927      BINDING AFFINITY PREDICTED BY RF-SCORE:    0.00 PKD
ROOT
HETATM    1  N   UNL     1     -11.404  10.346  67.216  1.00  0.00    -0.385 NA 
HETATM    2  C   UNL     1     -10.119  10.290  67.917  1.00  0.00    -0.170 C  
HETATM    3  H1  UNL     1     -11.526   9.589  66.543  1.00  0.00     0.000 HD 
HETATM    4  C   UNL     2     -10.842   6.558  66.706  1.00  0.00    -0.275 C  
HETATM    5  H2  UNL     1     -11.536  11.254  66.769  1.00  0.00     0.000 HD 
HETATM    6  C   UNL     3     -11.113   8.793  70.840  1.00  0.00    -0.268 C  
HETATM    7  N   UNL     2      -9.597   6.561  67.442  1.00  0.00    -0.122 N  
HETATM    8  O   UNL     3      -8.449   9.139  69.742  1.00  0.00    -0.119 OA 
HETATM    9  N   UNL     3      -9.832   8.621  71.524  1.00  0.00    -0.244 N  
HETATM   10  O   UNL     2      -8.559   7.821  65.822  1.00  0.00    -0.142 OA 
HETATM   11  C   UNL     2      -9.488   5.984  68.684  1.00  0.00    -0.124 A  
HETATM   12  C   UNL     2      -8.296   5.929  69.332  1.00  0.00    -0.114 A  
HETATM   13  C   UNL     3      -8.594   8.897  70.939  1.00  0.00    -0.199 C  
HETATM   14  C   UNL     3      -9.824   7.950  72.716  1.00  0.00    -0.270 A  
HETATM   15  C   UNL     3      -6.189   9.228  71.133  1.00  0.00    -0.075 C  
HETATM   16  C   UNL     2      -7.098   6.490  68.821  1.00  0.00    -0.082 C  
HETATM   17  N   UNL     2      -8.559   5.349  70.537  1.00  0.00    -0.120 NA 
HETATM   18  C   UNL     3      -8.663   7.652  73.351  1.00  0.00    -0.202 A  
HETATM   19  C   UNL     2      -9.913   5.140  70.580  1.00  0.00    -0.234 A  
HETATM   20  N   UNL     2      -7.316   7.256  67.678  1.00  0.00    -0.090 N  
HETATM   21  N   UNL     3      -9.033   6.839  74.379  1.00  0.00    -0.181 NA 
HETATM   22  H   UNL     2      -7.881   5.115  71.263  1.00  0.00     0.000 HD 
HETATM   23  C   UNL     3      -7.391   8.088  72.919  1.00  0.00    -0.112 C  
HETATM   24  O   UNL     2      -6.016   6.334  69.377  1.00  0.00    -0.019 OA 
HETATM   25  O   UNL     3      -6.359   7.760  73.511  1.00  0.00    -0.067 OA 
HETATM   26  N   UNL     3      -7.446   8.817  71.742  1.00  0.00    -0.084 N  
HETATM   27  C   UNL     3     -10.392   6.679  74.302  1.00  0.00    -0.255 A  
HETATM   28  H   UNL     3      -8.414   6.425  75.076  1.00  0.00     0.000 HD 
HETATM   29  C   UNL     2      -8.497   7.245  66.911  1.00  0.00    -0.119 C  
HETATM   30  N   UNL     2     -10.494   5.471  69.444  1.00  0.00    -0.284 NA 
HETATM   31  C   UNL     2      -6.302   8.219  67.296  1.00  0.00    -0.057 C  
HETATM   32  N   UNL     3     -10.906   7.379  73.315  1.00  0.00    -0.391 NA 
ENDROOT
BRANCH   2  33
HETATM   33  C   UNL     1      -9.935  11.437  68.937  1.00  0.00    -0.131 C  
HETATM   34  H2  UNL     1      -8.553  12.468  67.807  1.00  0.00     0.000 HD 
HETATM   35  N   UNL     1      -8.662  12.132  68.764  1.00  0.00    -0.372 NA 
HETATM   36  H1  UNL     1      -8.541  12.890  69.437  1.00  0.00     0.000 HD 
ENDBRANCH   2  33
TORSDOF 1
ENDMDL
MODEL       21
REMARK 921   NORMALIZED FREE ENERGY PREDICTED BY IDOCK:   -4.99 KCAL/MOL
REMARK 922        TOTAL FREE ENERGY PREDICTED BY IDOCK:   -5.65 KCAL/MOL
REMARK 923 INTER-LIGAND FREE ENERGY PREDICTED BY IDOCK:   -5.29 KCAL/MOL
REMARK 924 INTRA-LIGAND FREE ENERGY PREDICTED BY IDOCK:   -0.36 KCAL/MOL
REMARK 927      BINDING AFFINITY PREDICTED BY RF-SCORE:    0.00 PKD
ROOT
HETATM    1  N   UNL     1      -9.441  13.348  66.181  1.00  0.00    -0.458 NA 
HETATM    2  C   UNL     1      -8.571  12.684  67.156  1.00  0.00    -0.199 C  
HETATM    3  H1  UNL     1      -9.470  12.870  65.281  1.00  0.00     0.000 HD 
HETATM    4  C   UNL     2      -9.627   9.847  64.557  1.00  0.00    -0.222 C  
HETATM    5  H2  UNL     1      -9.177  14.327  66.065  1.00  0.00     0.000 HD 
HETATM    6  C   UNL     3     -10.922  10.943  68.948  1.00  0.00    -0.229 C  
HETATM    7  N   UNL     2      -8.792   9.243  65.572  1.00  0.00    -0.174 N  
HETATM    8  O   UNL     3      -8.040  10.618  68.857  1.00  0.00    -0.122 OA 
HETATM    9  N   UNL     3     -10.077  10.180  69.865  1.00  0.00    -0.242 N  
HETATM   10  O   UNL     2      -6.953  10.432  64.869  1.00  0.00    -0.122 OA 
HETATM   11  C   UNL     2      -9.302   8.375  66.506  1.00  0.00    -0.201 A  
HETATM   12  C   UNL     2      -8.495   7.758  67.407  1.00  0.00    -0.119 A  
HETATM   13  C   UNL     3      -8.681  10.152  69.796  1.00  0.00    -0.126 C  
HETATM   14  C   UNL     3     -10.679   9.274  70.693  1.00  0.00    -0.269 A  
HETATM   15  C   UNL     3      -6.526   9.582  70.777  1.00  0.00    -0.097 C  
HETATM   16  C   UNL     2      -7.098   7.983  67.493  1.00  0.00    -0.080 C  
HETATM   17  N   UNL     2      -9.324   7.023  68.201  1.00  0.00    -0.126 NA 
HETATM   18  C   UNL     3      -9.952   8.449  71.488  1.00  0.00    -0.217 A  
HETATM   19  C   UNL     2     -10.601   7.285  67.776  1.00  0.00    -0.221 A  
HETATM   20  N   UNL     2      -6.679   9.036  66.682  1.00  0.00    -0.074 N  
HETATM   21  N   UNL     3     -10.864   7.584  72.012  1.00  0.00    -0.226 NA 
HETATM   22  H   UNL     2      -9.049   6.400  68.960  1.00  0.00     0.000 HD 
HETATM   23  C   UNL     3      -8.548   8.518  71.622  1.00  0.00    -0.187 C  
HETATM   24  O   UNL     2      -6.378   7.335  68.245  1.00  0.00    -0.037 OA 
HETATM   25  O   UNL     3      -7.926   7.720  72.331  1.00  0.00    -0.100 OA 
HETATM   26  N   UNL     3      -7.979   9.488  70.814  1.00  0.00    -0.126 N  
HETATM   27  C   UNL     3     -12.088   7.923  71.496  1.00  0.00    -0.306 A  
HETATM   28  H   UNL     3     -10.672   6.825  72.665  1.00  0.00     0.000 HD 
HETATM   29  C   UNL     2      -7.446   9.618  65.655  1.00  0.00    -0.101 C  
HETATM   30  N   UNL     2     -10.611   8.065  66.714  1.00  0.00    -0.270 NA 
HETATM   31  C   UNL     2      -5.402   9.657  66.972  1.00  0.00    -0.042 C  
HETATM   32  N   UNL     3     -12.009   8.977  70.715  1.00  0.00    -0.225 NA 
ENDROOT
BRANCH   2  33
HETATM   33  C   UNL     1      -8.527  13.409  68.521  1.00  0.00    -0.079 C  
HETATM   34  H2  UNL     1      -6.501  13.788  68.464  1.00  0.00     0.000 HD 
HETATM   35  N   UNL     1      -7.190  13.401  69.109  1.00  0.00    -0.289 NA 
HETATM   36  H1  UNL     1      -7.161  13.880  70.009  1.00  0.00     0.000 HD 
ENDBRANCH   2  33
TORSDOF 1
ENDMDL
MODEL       22
REMARK 921   NORMALIZED FREE ENERGY PREDICTED BY IDOCK:   -4.95 KCAL/MOL
REMARK 922        TOTAL FREE ENERGY PREDICTED BY IDOCK:   -5.61 KCAL/MOL
REMARK 923 INTER-LIGAND FREE ENERGY PREDICTED BY IDOCK:   -5.45 KCAL/MOL
REMARK 924 INTRA-LIGAND FREE ENERGY PREDICTED BY IDOCK:   -0.15 KCAL/MOL
REMARK 927      BINDING AFFINITY PREDICTED BY RF-SCORE:    0.00 PKD
ROOT
HETATM    1  N   UNL     1     -12.534  10.842  69.215  1.00  0.00    -0.684 NA 
HETATM    2  C   UNL     1     -11.113  10.587  69.464  1.00  0.00    -0.268 C  
HETATM    3  H1  UNL     1     -12.693  11.586  68.536  1.00  0.00     0.000 HD 
HETATM    4  C   UNL     2     -11.280  12.257  65.845  1.00  0.00    -0.340 C  
HETATM    5  H2  UNL     1     -13.028  11.033  70.087  1.00  0.00     0.000 HD 
HETATM    6  C   UNL     3     -10.640   7.869  67.424  1.00  0.00    -0.272 C  
HETATM    7  N   UNL     2      -9.898  11.945  66.136  1.00  0.00    -0.226 N  
HETATM    8  O   UNL     3      -8.689   9.623  68.665  1.00  0.00    -0.121 OA 
HETATM    9  N   UNL     3      -9.200   7.652  67.565  1.00  0.00    -0.131 N  
HETATM   10  O   UNL     2      -9.824  13.511  67.819  1.00  0.00    -0.221 OA 
HETATM   11  C   UNL     2      -9.230  10.938  65.483  1.00  0.00    -0.209 A  
HETATM   12  C   UNL     2      -7.912  10.705  65.712  1.00  0.00    -0.152 A  
HETATM   13  C   UNL     3      -8.347   8.514  68.259  1.00  0.00    -0.124 C  
HETATM   14  C   UNL     3      -8.617   6.681  66.798  1.00  0.00    -0.118 A  
HETATM   15  C   UNL     3      -6.180   8.989  69.265  1.00  0.00    -0.041 C  
HETATM   16  C   UNL     2      -7.139  11.427  66.656  1.00  0.00    -0.103 C  
HETATM   17  N   UNL     2      -7.592   9.621  64.949  1.00  0.00    -0.112 NA 
HETATM   18  C   UNL     3      -7.273   6.499  66.789  1.00  0.00    -0.077 A  
HETATM   19  C   UNL     2      -8.754   9.216  64.344  1.00  0.00    -0.153 A  
HETATM   20  N   UNL     2      -7.918  12.270  67.446  1.00  0.00    -0.162 N  
HETATM   21  N   UNL     3      -7.055   5.595  65.793  1.00  0.00    -0.066 NA 
HETATM   22  H   UNL     2      -6.671   9.196  64.848  1.00  0.00     0.000 HD 
HETATM   23  C   UNL     3      -6.376   7.196  67.629  1.00  0.00    -0.047 C  
HETATM   24  O   UNL     2      -5.929  11.266  66.767  1.00  0.00    -0.101 OA 
HETATM   25  O   UNL     3      -5.155   7.021  67.557  1.00  0.00    -0.014 OA 
HETATM   26  N   UNL     3      -7.009   8.127  68.434  1.00  0.00    -0.071 N  
HETATM   27  C   UNL     3      -8.276   5.291  65.247  1.00  0.00    -0.130 A  
HETATM   28  H   UNL     3      -6.153   5.216  65.507  1.00  0.00     0.000 HD 
HETATM   29  C   UNL     2      -9.251  12.632  67.170  1.00  0.00    -0.214 C  
HETATM   30  N   UNL     2      -9.754  10.032  64.613  1.00  0.00    -0.308 NA 
HETATM   31  C   UNL     2      -7.365  12.735  68.702  1.00  0.00    -0.099 C  
HETATM   32  N   UNL     3      -9.252   5.914  65.869  1.00  0.00    -0.133 NA 
ENDROOT
BRANCH   2  33
HETATM   33  C   UNL     1     -10.872   9.458  70.494  1.00  0.00    -0.277 C  
HETATM   34  H2  UNL     1     -12.344   8.218  69.756  1.00  0.00     0.000 HD 
HETATM   35  N   UNL     1     -12.040   8.596  70.652  1.00  0.00    -0.482 NA 
HETATM   36  H1  UNL     1     -11.881   7.851  71.331  1.00  0.00     0.000 HD 
ENDBRANCH   2  33
TORSDOF 1
ENDMDL
MODEL       23
REMARK 921   NORMALIZED FREE ENERGY PREDICTED BY IDOCK:   -4.93 KCAL/MOL
REMARK 922        TOTAL FREE ENERGY PREDICTED BY IDOCK:   -5.58 KCAL/MOL
REMARK 923 INTER-LIGAND FREE ENERGY PREDICTED BY IDOCK:   -5.22 KCAL/MOL
REMARK 924 INTRA-LIGAND FREE ENERGY PREDICTED BY IDOCK:   -0.36 KCAL/MOL
REMARK 927      BINDING AFFINITY PREDICTED BY RF-SCORE:    0.00 PKD
ROOT
HETATM    1  N   UNL     1      -7.787   7.148  65.539  1.00  0.00    -0.108 NA 
HETATM    2  C   UNL     1      -8.945   7.083  66.434  1.00  0.00    -0.154 C  
HETATM    3  H1  UNL     1      -7.332   8.061  65.540  1.00  0.00     0.000 HD 
HETATM    4  C   UNL     2      -6.658  10.025  67.857  1.00  0.00    -0.063 C  
HETATM    5  H2  UNL     1      -8.043   6.869  64.592  1.00  0.00     0.000 HD 
HETATM    6  C   UNL     3      -7.497   5.580  69.157  1.00  0.00    -0.078 C  
HETATM    7  N   UNL     2      -7.807   9.886  68.725  1.00  0.00    -0.088 N  
HETATM    8  O   UNL     3     -10.018   7.002  68.941  1.00  0.00    -0.154 OA 
HETATM    9  N   UNL     3      -8.602   5.597  70.116  1.00  0.00    -0.125 N  
HETATM   10  O   UNL     2      -9.233  10.608  67.071  1.00  0.00    -0.150 OA 
HETATM   11  C   UNL     2      -7.697   9.379  69.996  1.00  0.00    -0.123 A  
HETATM   12  C   UNL     2      -8.771   9.322  70.826  1.00  0.00    -0.217 A  
HETATM   13  C   UNL     3      -9.821   6.242  69.887  1.00  0.00    -0.167 C  
HETATM   14  C   UNL     3      -8.360   5.153  71.386  1.00  0.00    -0.119 A  
HETATM   15  C   UNL     3     -12.141   6.658  70.499  1.00  0.00    -0.240 C  
HETATM   16  C   UNL     2     -10.076   9.725  70.449  1.00  0.00    -0.252 C  
HETATM   17  N   UNL     2      -8.322   8.727  71.967  1.00  0.00    -0.368 NA 
HETATM   18  C   UNL     3      -9.300   5.244  72.359  1.00  0.00    -0.140 A  
HETATM   19  C   UNL     2      -7.011   8.396  71.743  1.00  0.00    -0.088 A  
HETATM   20  N   UNL     2     -10.172  10.009  69.088  1.00  0.00    -0.196 N  
HETATM   21  N   UNL     3      -8.650   4.886  73.500  1.00  0.00    -0.105 NA 
HETATM   22  H   UNL     2      -8.857   8.561  72.820  1.00  0.00     0.000 HD 
HETATM   23  C   UNL     3     -10.623   5.690  72.139  1.00  0.00    -0.223 C  
HETATM   24  O   UNL     2     -11.005   9.762  71.250  1.00  0.00    -0.351 OA 
HETATM   25  O   UNL     3     -11.433   5.791  73.066  1.00  0.00    -0.248 OA 
HETATM   26  N   UNL     3     -10.848   6.074  70.828  1.00  0.00    -0.277 N  
HETATM   27  C   UNL     3      -7.351   4.610  73.159  1.00  0.00    -0.082 A  
HETATM   28  H   UNL     3      -9.054   4.833  74.435  1.00  0.00     0.000 HD 
HETATM   29  C   UNL     2      -9.077  10.196  68.223  1.00  0.00    -0.122 C  
HETATM   30  N   UNL     2      -6.593   8.828  70.570  1.00  0.00    -0.038 NA 
HETATM   31  C   UNL     2     -11.488  10.013  68.481  1.00  0.00     0.045 C  
HETATM   32  N   UNL     3      -7.156   4.730  71.864  1.00  0.00    -0.059 NA 
ENDROOT
BRANCH   2  33
HETATM   33  C   UNL     1      -9.634   5.698  66.433  1.00  0.00    -0.157 C  
HETATM   34  H2  UNL     1     -11.372   6.357  65.540  1.00  0.00     0.000 HD 
HETATM   35  N   UNL     1     -11.088   5.804  66.349  1.00  0.00    -0.767 NA 
HETATM   36  H1  UNL     1     -11.543   4.890  66.348  1.00  0.00     0.000 HD 
ENDBRANCH   2  33
TORSDOF 1
ENDMDL
MODEL       24
REMARK 921   NORMALIZED FREE ENERGY PREDICTED BY IDOCK:   -4.90 KCAL/MOL
REMARK 922        TOTAL FREE ENERGY PREDICTED BY IDOCK:   -5.55 KCAL/MOL
REMARK 923 INTER-LIGAND FREE ENERGY PREDICTED BY IDOCK:   -5.19 KCAL/MOL
REMARK 924 INTRA-LIGAND FREE ENERGY PREDICTED BY IDOCK:   -0.36 KCAL/MOL
REMARK 927      BINDING AFFINITY PREDICTED BY RF-SCORE:    0.00 PKD
ROOT
HETATM    1  N   UNL     1     -11.533   9.580  71.178  1.00  0.00    -0.329 NA 
HETATM    2  C   UNL     1     -11.146   8.196  71.464  1.00  0.00    -0.252 C  
HETATM    3  H1  UNL     1     -10.743  10.226  71.194  1.00  0.00     0.000 HD 
HETATM    4  C   UNL     2      -7.844   9.966  70.094  1.00  0.00    -0.171 C  
HETATM    5  H2  UNL     1     -12.270   9.890  71.811  1.00  0.00     0.000 HD 
HETATM    6  C   UNL     3     -10.975   6.964  68.266  1.00  0.00    -0.139 C  
HETATM    7  N   UNL     2      -7.536   8.578  70.361  1.00  0.00    -0.065 N  
HETATM    8  O   UNL     3      -9.930   5.863  70.740  1.00  0.00    -0.178 OA 
HETATM    9  N   UNL     3     -10.485   5.607  68.508  1.00  0.00    -0.210 N  
HETATM   10  O   UNL     2      -7.814   8.878  72.624  1.00  0.00    -0.372 OA 
HETATM   11  C   UNL     2      -7.302   7.681  69.348  1.00  0.00    -0.087 A  
HETATM   12  C   UNL     2      -6.941   6.399  69.614  1.00  0.00    -0.071 A  
HETATM   13  C   UNL     3     -10.081   5.136  69.760  1.00  0.00    -0.266 C  
HETATM   14  C   UNL     3     -10.195   4.824  67.424  1.00  0.00    -0.078 A  
HETATM   15  C   UNL     3      -9.457   3.296  71.228  1.00  0.00    -0.152 C  
HETATM   16  C   UNL     2      -6.822   5.873  70.925  1.00  0.00    -0.062 C  
HETATM   17  N   UNL     2      -6.843   5.785  68.401  1.00  0.00    -0.061 NA 
HETATM   18  C   UNL     3      -9.630   3.600  67.566  1.00  0.00    -0.144 A  
HETATM   19  C   UNL     2      -7.214   6.715  67.464  1.00  0.00    -0.090 A  
HETATM   20  N   UNL     2      -7.293   6.755  71.896  1.00  0.00    -0.084 N  
HETATM   21  N   UNL     3      -9.325   3.212  66.297  1.00  0.00    -0.313 NA 
HETATM   22  H   UNL     2      -6.551   4.824  68.225  1.00  0.00     0.000 HD 
HETATM   23  C   UNL     3      -9.393   2.980  68.814  1.00  0.00    -0.168 C  
HETATM   24  O   UNL     2      -6.394   4.744  71.139  1.00  0.00    -0.018 OA 
HETATM   25  O   UNL     3      -8.841   1.878  68.893  1.00  0.00    -0.069 OA 
HETATM   26  N   UNL     3      -9.755   3.777  69.887  1.00  0.00    -0.180 N  
HETATM   27  C   UNL     3      -9.711   4.226  65.459  1.00  0.00    -0.203 A  
HETATM   28  H   UNL     3      -8.892   2.331  66.022  1.00  0.00     0.000 HD 
HETATM   29  C   UNL     2      -7.560   8.121  71.684  1.00  0.00    -0.087 C  
HETATM   30  N   UNL     2      -7.448   7.891  68.012  1.00  0.00    -0.105 NA 
HETATM   31  C   UNL     2      -7.635   6.220  73.199  1.00  0.00    -0.096 C  
HETATM   32  N   UNL     3     -10.280   5.209  66.120  1.00  0.00    -0.224 NA 
ENDROOT
BRANCH   2  33
HETATM   33  C   UNL     1     -12.343   7.216  71.439  1.00  0.00    -0.377 C  
HETATM   34  H2  UNL     1     -12.127   6.613  73.399  1.00  0.00     0.000 HD 
HETATM   35  N   UNL     1     -12.241   6.193  72.477  1.00  0.00    -0.546 NA 
HETATM   36  H1  UNL     1     -13.030   5.546  72.461  1.00  0.00     0.000 HD 
ENDBRANCH   2  33
TORSDOF 1
ENDMDL
MODEL       25
REMARK 921   NORMALIZED FREE ENERGY PREDICTED BY IDOCK:   -4.89 KCAL/MOL
REMARK 922        TOTAL FREE ENERGY PREDICTED BY IDOCK:   -5.54 KCAL/MOL
REMARK 923 INTER-LIGAND FREE ENERGY PREDICTED BY IDOCK:   -5.44 KCAL/MOL
REMARK 924 INTRA-LIGAND FREE ENERGY PREDICTED BY IDOCK:   -0.10 KCAL/MOL
REMARK 927      BINDING AFFINITY PREDICTED BY RF-SCORE:    0.00 PKD
ROOT
HETATM    1  N   UNL     1     -10.214   8.037  66.458  1.00  0.00    -0.468 NA 
HETATM    2  C   UNL     1     -10.656   7.262  67.621  1.00  0.00    -0.246 C  
HETATM    3  H1  UNL     1     -10.207   9.043  66.628  1.00  0.00     0.000 HD 
HETATM    4  C   UNL     2      -9.291  10.711  69.090  1.00  0.00    -0.160 C  
HETATM    5  H2  UNL     1     -10.773   7.810  65.636  1.00  0.00     0.000 HD 
HETATM    6  C   UNL     3      -7.610   6.319  68.887  1.00  0.00    -0.092 C  
HETATM    7  N   UNL     2      -9.711   9.882  70.198  1.00  0.00    -0.241 N  
HETATM    8  O   UNL     3     -10.232   6.280  70.130  1.00  0.00    -0.177 OA 
HETATM    9  N   UNL     3      -8.010   5.632  70.115  1.00  0.00    -0.097 N  
HETATM   10  O   UNL     2     -11.915  10.016  69.556  1.00  0.00    -0.020 OA 
HETATM   11  C   UNL     2      -8.806   9.321  71.065  1.00  0.00    -0.137 A  
HETATM   12  C   UNL     2      -9.217   8.605  72.144  1.00  0.00    -0.255 A  
HETATM   13  C   UNL     3      -9.322   5.595  70.594  1.00  0.00    -0.159 C  
HETATM   14  C   UNL     3      -7.026   5.191  70.956  1.00  0.00    -0.051 A  
HETATM   15  C   UNL     3     -10.997   4.682  72.109  1.00  0.00     0.119 C  
HETATM   16  C   UNL     2     -10.577   8.341  72.439  1.00  0.00    -0.337 C  
HETATM   17  N   UNL     2      -8.077   8.159  72.745  1.00  0.00    -0.156 NA 
HETATM   18  C   UNL     3      -7.319   4.649  72.164  1.00  0.00    -0.080 A  
HETATM   19  C   UNL     2      -7.034   8.577  71.958  1.00  0.00    -0.087 A  
HETATM   20  N   UNL     2     -11.429   8.734  71.409  1.00  0.00    -0.276 N  
HETATM   21  N   UNL     3      -6.112   4.506  72.779  1.00  0.00    -0.016 NA 
HETATM   22  H   UNL     2      -8.013   7.622  73.609  1.00  0.00     0.000 HD 
HETATM   23  C   UNL     3      -8.632   4.389  72.616  1.00  0.00    -0.109 C  
HETATM   24  O   UNL     2     -10.924   7.783  73.474  1.00  0.00    -0.292 OA 
HETATM   25  O   UNL     3      -8.849   3.927  73.740  1.00  0.00    -0.093 OA 
HETATM   26  N   UNL     3      -9.600   4.793  71.711  1.00  0.00    -0.149 N  
HETATM   27  C   UNL     3      -5.158   4.981  71.916  1.00  0.00    -0.005 A  
HETATM   28  H   UNL     3      -5.948   4.118  73.707  1.00  0.00     0.000 HD 
HETATM   29  C   UNL     2     -11.069   9.576  70.340  1.00  0.00    -0.277 C  
HETATM   30  N   UNL     2      -7.449   9.329  70.958  1.00  0.00    -0.258 NA 
HETATM   31  C   UNL     2     -12.759   8.159  71.364  1.00  0.00    -0.268 C  
HETATM   32  N   UNL     3      -5.688   5.372  70.778  1.00  0.00    -0.015 NA 
ENDROOT
BRANCH   2  33
HETATM   33  C   UNL     1     -10.666   5.737  67.364  1.00  0.00    -0.248 C  
HETATM   34  H2  UNL     1     -10.573   5.896  65.310  1.00  0.00     0.000 HD 
HETATM   35  N   UNL     1     -11.122   5.407  66.016  1.00  0.00    -0.789 NA 
HETATM   36  H1  UNL     1     -11.129   4.401  65.846  1.00  0.00     0.000 HD 
ENDBRANCH   2  33
TORSDOF 1
ENDMDL
MODEL       26
REMARK 921   NORMALIZED FREE ENERGY PREDICTED BY IDOCK:   -4.87 KCAL/MOL
REMARK 922        TOTAL FREE ENERGY PREDICTED BY IDOCK:   -5.52 KCAL/MOL
REMARK 923 INTER-LIGAND FREE ENERGY PREDICTED BY IDOCK:   -5.36 KCAL/MOL
REMARK 924 INTRA-LIGAND FREE ENERGY PREDICTED BY IDOCK:   -0.16 KCAL/MOL
REMARK 927      BINDING AFFINITY PREDICTED BY RF-SCORE:    0.00 PKD
ROOT
HETATM    1  N   UNL     1     -10.125   4.884  66.876  1.00  0.00    -0.216 NA 
HETATM    2  C   UNL     1      -8.969   5.752  67.116  1.00  0.00    -0.113 C  
HETATM    3  H1  UNL     1     -10.663   4.693  67.722  1.00  0.00     0.000 HD 
HETATM    4  C   UNL     2     -11.526   6.536  70.076  1.00  0.00    -0.412 C  
HETATM    5  H2  UNL     1      -9.841   4.016  66.421  1.00  0.00     0.000 HD 
HETATM    6  C   UNL     3     -10.279   8.762  66.120  1.00  0.00     0.042 C  
HETATM    7  N   UNL     2     -10.372   7.393  70.236  1.00  0.00    -0.208 N  
HETATM    8  O   UNL     3      -7.902   8.197  67.686  1.00  0.00    -0.110 OA 
HETATM    9  N   UNL     3      -9.184   9.674  66.449  1.00  0.00    -0.155 N  
HETATM   10  O   UNL     2      -9.014   5.597  70.706  1.00  0.00    -0.139 OA 
HETATM   11  C   UNL     2     -10.439   8.746  70.013  1.00  0.00    -0.212 A  
HETATM   12  C   UNL     2      -9.367   9.550  70.239  1.00  0.00    -0.259 A  
HETATM   13  C   UNL     3      -8.031   9.289  67.137  1.00  0.00    -0.106 C  
HETATM   14  C   UNL     3      -9.388  11.015  66.274  1.00  0.00    -0.183 A  
HETATM   15  C   UNL     3      -5.761   9.755  67.889  1.00  0.00    -0.040 C  
HETATM   16  C   UNL     2      -8.104   9.071  70.667  1.00  0.00    -0.162 C  
HETATM   17  N   UNL     2      -9.762  10.801  69.870  1.00  0.00    -0.314 NA 
HETATM   18  C   UNL     3      -8.464  11.928  66.663  1.00  0.00    -0.143 A  
HETATM   19  C   UNL     2     -11.036  10.677  69.379  1.00  0.00    -0.260 A  
HETATM   20  N   UNL     2      -8.030   7.680  70.653  1.00  0.00    -0.098 N  
HETATM   21  N   UNL     3      -9.082  13.131  66.506  1.00  0.00    -0.422 NA 
HETATM   22  H   UNL     2      -9.217  11.660  69.945  1.00  0.00     0.000 HD 
HETATM   23  C   UNL     3      -7.188  11.594  67.170  1.00  0.00    -0.145 C  
HETATM   24  O   UNL     2      -7.186   9.829  70.964  1.00  0.00    -0.332 OA 
HETATM   25  O   UNL     3      -6.394  12.462  67.546  1.00  0.00    -0.116 OA 
HETATM   26  N   UNL     3      -6.995  10.226  67.275  1.00  0.00    -0.085 N  
HETATM   27  C   UNL     3     -10.348  12.881  66.044  1.00  0.00    -0.283 A  
HETATM   28  H   UNL     3      -8.678  14.048  66.697  1.00  0.00     0.000 HD 
HETATM   29  C   UNL     2      -9.135   6.814  70.545  1.00  0.00    -0.156 C  
HETATM   30  N   UNL     2     -11.489   9.445  69.503  1.00  0.00     0.059 NA 
HETATM   31  C   UNL     2      -6.718   7.064  70.645  1.00  0.00    -0.053 C  
HETATM   32  N   UNL     3     -10.549  11.595  65.858  1.00  0.00    -0.264 NA 
ENDROOT
BRANCH   2  33
HETATM   33  C   UNL     1      -8.154   6.042  65.834  1.00  0.00    -0.119 C  
HETATM   34  H2  UNL     1      -9.795   6.146  64.591  1.00  0.00     0.000 HD 
HETATM   35  N   UNL     1      -8.885   5.686  64.621  1.00  0.00    -0.361 NA 
HETATM   36  H1  UNL     1      -8.348   5.878  63.775  1.00  0.00     0.000 HD 
ENDBRANCH   2  33
TORSDOF 1
ENDMDL
MODEL       27
REMARK 921   NORMALIZED FREE ENERGY PREDICTED BY IDOCK:   -4.85 KCAL/MOL
REMARK 922        TOTAL FREE ENERGY PREDICTED BY IDOCK:   -5.50 KCAL/MOL
REMARK 923 INTER-LIGAND FREE ENERGY PREDICTED BY IDOCK:   -5.14 KCAL/MOL
REMARK 924 INTRA-LIGAND FREE ENERGY PREDICTED BY IDOCK:   -0.36 KCAL/MOL
REMARK 927      BINDING AFFINITY PREDICTED BY RF-SCORE:    0.00 PKD
ROOT
HETATM    1  N   UNL     1      -6.795  10.828  67.057  1.00  0.00    -0.088 NA 
HETATM    2  C   UNL     1      -6.919   9.403  67.374  1.00  0.00    -0.085 C  
HETATM    3  H1  UNL     1      -7.684  11.259  66.799  1.00  0.00     0.000 HD 
HETATM    4  C   UNL     2     -10.543  10.955  67.989  1.00  0.00    -0.202 C  
HETATM    5  H2  UNL     1      -6.093  10.980  66.333  1.00  0.00     0.000 HD 
HETATM    6  C   UNL     3      -7.029   9.572  70.799  1.00  0.00    -0.102 C  
HETATM    7  N   UNL     2     -10.591   9.548  68.322  1.00  0.00    -0.222 N  
HETATM    8  O   UNL     3      -7.743   7.392  69.023  1.00  0.00    -0.112 OA 
HETATM    9  N   UNL     3      -7.263   8.171  71.148  1.00  0.00    -0.056 N  
HETATM   10  O   UNL     2     -10.259   8.944  66.128  1.00  0.00    -0.259 OA 
HETATM   11  C   UNL     2     -10.714   9.115  69.619  1.00  0.00    -0.225 A  
HETATM   12  C   UNL     2     -10.832   7.794  69.912  1.00  0.00    -0.226 A  
HETATM   13  C   UNL     3      -7.516   7.167  70.210  1.00  0.00    -0.085 C  
HETATM   14  C   UNL     3      -7.463   7.860  72.464  1.00  0.00    -0.104 A  
HETATM   15  C   UNL     3      -7.737   4.809  69.642  1.00  0.00    -0.059 C  
HETATM   16  C   UNL     2     -10.792   6.768  68.935  1.00  0.00    -0.243 C  
HETATM   17  N   UNL     2     -10.880   7.722  71.272  1.00  0.00    -0.229 NA 
HETATM   18  C   UNL     3      -7.799   6.605  72.852  1.00  0.00    -0.099 A  
HETATM   19  C   UNL     2     -10.724   9.003  71.735  1.00  0.00    -0.367 A  
HETATM   20  N   UNL     2     -10.437   7.246  67.676  1.00  0.00    -0.223 N  
HETATM   21  N   UNL     3      -8.092   6.720  74.176  1.00  0.00    -0.118 NA 
HETATM   22  H   UNL     2     -11.008   6.880  71.834  1.00  0.00     0.000 HD 
HETATM   23  C   UNL     3      -7.862   5.499  71.975  1.00  0.00    -0.106 C  
HETATM   24  O   UNL     2     -11.006   5.593  69.215  1.00  0.00    -0.304 OA 
HETATM   25  O   UNL     3      -8.209   4.380  72.369  1.00  0.00    -0.104 OA 
HETATM   26  N   UNL     3      -7.593   5.840  70.660  1.00  0.00    -0.089 N  
HETATM   27  C   UNL     3      -7.932   8.039  74.515  1.00  0.00    -0.241 A  
HETATM   28  H   UNL     3      -8.379   5.966  74.800  1.00  0.00     0.000 HD 
HETATM   29  C   UNL     2     -10.423   8.603  67.303  1.00  0.00    -0.289 C  
HETATM   30  N   UNL     2     -10.672   9.875  70.748  1.00  0.00    -0.309 NA 
HETATM   31  C   UNL     2      -9.943   6.298  66.698  1.00  0.00    -0.153 C  
HETATM   32  N   UNL     3      -7.511   8.752  73.494  1.00  0.00    -0.378 NA 
ENDROOT
BRANCH   2  33
HETATM   33  C   UNL     1      -5.573   8.750  67.765  1.00  0.00    -0.035 C  
HETATM   34  H2  UNL     1      -5.506   7.480  66.143  1.00  0.00     0.000 HD 
HETATM   35  N   UNL     1      -5.399   7.434  67.156  1.00  0.00    -0.028 NA 
HETATM   36  H1  UNL     1      -4.511   7.004  67.413  1.00  0.00     0.000 HD 
ENDBRANCH   2  33
TORSDOF 1
ENDMDL
MODEL       28
REMARK 921   NORMALIZED FREE ENERGY PREDICTED BY IDOCK:   -4.83 KCAL/MOL
REMARK 922        TOTAL FREE ENERGY PREDICTED BY IDOCK:   -5.48 KCAL/MOL
REMARK 923 INTER-LIGAND FREE ENERGY PREDICTED BY IDOCK:   -5.20 KCAL/MOL
REMARK 924 INTRA-LIGAND FREE ENERGY PREDICTED BY IDOCK:   -0.28 KCAL/MOL
REMARK 927      BINDING AFFINITY PREDICTED BY RF-SCORE:    0.00 PKD
ROOT
HETATM    1  N   UNL     1     -11.250   5.279  66.031  1.00  0.00    -0.772 NA 
HETATM    2  C   UNL     1     -10.204   6.144  66.584  1.00  0.00    -0.178 C  
HETATM    3  H1  UNL     1     -10.955   4.308  65.934  1.00  0.00     0.000 HD 
HETATM    4  C   UNL     2      -9.305   2.457  67.815  1.00  0.00    -0.168 C  
HETATM    5  H2  UNL     1     -11.594   5.646  65.144  1.00  0.00     0.000 HD 
HETATM    6  C   UNL     3     -11.202   6.247  69.865  1.00  0.00    -0.429 C  
HETATM    7  N   UNL     2      -8.324   3.368  68.362  1.00  0.00    -0.080 N  
HETATM    8  O   UNL     3      -8.659   6.979  68.672  1.00  0.00    -0.121 OA 
HETATM    9  N   UNL     3     -10.115   7.016  70.471  1.00  0.00    -0.191 N  
HETATM   10  O   UNL     2      -7.477   3.823  66.272  1.00  0.00    -0.078 OA 
HETATM   11  C   UNL     2      -8.284   3.670  69.701  1.00  0.00    -0.052 A  
HETATM   12  C   UNL     2      -7.311   4.469  70.212  1.00  0.00    -0.050 A  
HETATM   13  C   UNL     3      -8.957   7.399  69.788  1.00  0.00    -0.141 C  
HETATM   14  C   UNL     3     -10.122   7.181  71.828  1.00  0.00    -0.183 A  
HETATM   15  C   UNL     3      -6.918   8.724  69.660  1.00  0.00    -0.050 C  
HETATM   16  C   UNL     2      -6.306   5.085  69.425  1.00  0.00    -0.034 C  
HETATM   17  N   UNL     2      -7.601   4.598  71.538  1.00  0.00    -0.079 NA 
HETATM   18  C   UNL     3      -9.092   7.782  72.474  1.00  0.00    -0.169 A  
HETATM   19  C   UNL     2      -8.774   3.919  71.747  1.00  0.00    -0.099 A  
HETATM   20  N   UNL     2      -6.534   4.931  68.059  1.00  0.00    -0.043 N  
HETATM   21  N   UNL     3      -9.361   7.601  73.796  1.00  0.00    -0.287 NA 
HETATM   22  H   UNL     2      -7.053   5.100  72.237  1.00  0.00     0.000 HD 
HETATM   23  C   UNL     3      -7.992   8.381  71.819  1.00  0.00    -0.133 C  
HETATM   24  O   UNL     2      -5.381   5.715  69.925  1.00  0.00    -0.004 OA 
HETATM   25  O   UNL     3      -7.058   8.884  72.452  1.00  0.00    -0.318 OA 
HETATM   26  N   UNL     3      -8.050   8.247  70.442  1.00  0.00    -0.104 N  
HETATM   27  C   UNL     3     -10.530   6.890  73.878  1.00  0.00    -0.318 A  
HETATM   28  H   UNL     3      -8.797   7.931  74.579  1.00  0.00     0.000 HD 
HETATM   29  C   UNL     2      -7.447   4.023  67.490  1.00  0.00    -0.068 C  
HETATM   30  N   UNL     2      -9.182   3.303  70.655  1.00  0.00    -0.122 NA 
HETATM   31  C   UNL     2      -5.864   5.838  67.147  1.00  0.00    -0.017 C  
HETATM   32  N   UNL     3     -11.036   6.653  72.689  1.00  0.00    -0.252 NA 
ENDROOT
BRANCH   2  33
HETATM   33  C   UNL     1     -10.651   7.617  66.731  1.00  0.00    -0.186 C  
HETATM   34  H2  UNL     1      -9.735   8.261  65.000  1.00  0.00     0.000 HD 
HETATM   35  N   UNL     1      -9.794   8.532  65.981  1.00  0.00    -0.472 NA 
HETATM   36  H1  UNL     1     -10.090   9.504  66.078  1.00  0.00     0.000 HD 
ENDBRANCH   2  33
TORSDOF 1
ENDMDL
MODEL       29
REMARK 921   NORMALIZED FREE ENERGY PREDICTED BY IDOCK:   -4.74 KCAL/MOL
REMARK 922        TOTAL FREE ENERGY PREDICTED BY IDOCK:   -5.38 KCAL/MOL
REMARK 923 INTER-LIGAND FREE ENERGY PREDICTED BY IDOCK:   -5.27 KCAL/MOL
REMARK 924 INTRA-LIGAND FREE ENERGY PREDICTED BY IDOCK:   -0.11 KCAL/MOL
REMARK 927      BINDING AFFINITY PREDICTED BY RF-SCORE:    0.00 PKD
ROOT
HETATM    1  N   UNL     1      -7.823  14.878  69.556  1.00  0.00    -0.360 NA 
HETATM    2  C   UNL     1      -7.639  14.124  68.313  1.00  0.00    -0.130 C  
HETATM    3  H1  UNL     1      -8.798  15.112  69.740  1.00  0.00     0.000 HD 
HETATM    4  C   UNL     2     -11.411  13.452  69.423  1.00  0.00    -0.274 C  
HETATM    5  H2  UNL     1      -7.240  15.715  69.563  1.00  0.00     0.000 HD 
HETATM    6  C   UNL     3      -7.432  10.944  69.584  1.00  0.00    -0.022 C  
HETATM    7  N   UNL     2     -11.155  12.700  68.215  1.00  0.00    -0.244 N  
HETATM    8  O   UNL     3      -7.892  11.829  66.859  1.00  0.00    -0.160 OA 
HETATM    9  N   UNL     3      -7.357  10.149  68.358  1.00  0.00    -0.080 N  
HETATM   10  O   UNL     2     -10.937  14.627  66.977  1.00  0.00    -0.302 OA 
HETATM   11  C   UNL     2     -11.061  11.331  68.221  1.00  0.00    -0.240 A  
HETATM   12  C   UNL     2     -10.894  10.632  67.068  1.00  0.00    -0.238 A  
HETATM   13  C   UNL     3      -7.507  10.682  67.075  1.00  0.00    -0.106 C  
HETATM   14  C   UNL     3      -7.360   8.787  68.473  1.00  0.00    -0.085 A  
HETATM   15  C   UNL     3      -7.328  10.456  64.657  1.00  0.00    -0.026 C  
HETATM   16  C   UNL     2     -10.758  11.240  65.795  1.00  0.00    -0.223 C  
HETATM   17  N   UNL     2     -10.790   9.325  67.442  1.00  0.00    -0.412 NA 
HETATM   18  C   UNL     3      -7.408   7.985  67.380  1.00  0.00    -0.089 A  
HETATM   19  C   UNL     2     -10.836   9.309  68.812  1.00  0.00    -0.088 A  
HETATM   20  N   UNL     2     -10.629  12.625  65.879  1.00  0.00    -0.268 N  
HETATM   21  N   UNL     3      -7.583   6.731  67.880  1.00  0.00    -0.105 NA 
HETATM   22  H   UNL     2     -10.696   8.519  66.824  1.00  0.00     0.000 HD 
HETATM   23  C   UNL     3      -7.347   8.458  66.050  1.00  0.00    -0.073 C  
HETATM   24  O   UNL     2     -10.713  10.583  64.760  1.00  0.00    -0.159 OA 
HETATM   25  O   UNL     3      -7.432   7.690  65.086  1.00  0.00    -0.078 OA 
HETATM   26  N   UNL     3      -7.282   9.840  65.975  1.00  0.00    -0.098 N  
HETATM   27  C   UNL     3      -7.644   6.843  69.246  1.00  0.00    -0.096 A  
HETATM   28  H   UNL     3      -7.655   5.868  67.341  1.00  0.00     0.000 HD 
HETATM   29  C   UNL     2     -10.913  13.394  67.023  1.00  0.00    -0.287 C  
HETATM   30  N   UNL     2     -11.052  10.511  69.307  1.00  0.00    -0.230 NA 
HETATM   31  C   UNL     2     -10.064  13.330  64.745  1.00  0.00    -0.227 C  
HETATM   32  N   UNL     3      -7.473   8.086  69.636  1.00  0.00    -0.088 NA 
ENDROOT
BRANCH   2  33
HETATM   33  C   UNL     1      -6.160  13.768  68.033  1.00  0.00    -0.140 C  
HETATM   34  H2  UNL     1      -5.480  15.712  68.137  1.00  0.00     0.000 HD 
HETATM   35  N   UNL     1      -5.406  14.907  67.516  1.00  0.00    -0.341 NA 
HETATM   36  H1  UNL     1      -4.430  14.673  67.331  1.00  0.00     0.000 HD 
ENDBRANCH   2  33
TORSDOF 1
ENDMDL
MODEL       30
REMARK 921   NORMALIZED FREE ENERGY PREDICTED BY IDOCK:   -4.67 KCAL/MOL
REMARK 922        TOTAL FREE ENERGY PREDICTED BY IDOCK:   -5.31 KCAL/MOL
REMARK 923 INTER-LIGAND FREE ENERGY PREDICTED BY IDOCK:   -4.99 KCAL/MOL
REMARK 924 INTRA-LIGAND FREE ENERGY PREDICTED BY IDOCK:   -0.32 KCAL/MOL
REMARK 927      BINDING AFFINITY PREDICTED BY RF-SCORE:    0.00 PKD
ROOT
HETATM    1  N   UNL     1      -9.488   2.490  70.782  1.00  0.00    -0.147 NA 
HETATM    2  C   UNL     1      -8.564   3.603  71.015  1.00  0.00    -0.072 C  
HETATM    3  H1  UNL     1     -10.177   2.380  71.526  1.00  0.00     0.000 HD 
HETATM    4  C   UNL     2     -11.838   4.472  73.121  1.00  0.00     0.045 C  
HETATM    5  H2  UNL     1      -8.978   1.620  70.626  1.00  0.00     0.000 HD 
HETATM    6  C   UNL     3     -10.033   6.004  69.054  1.00  0.00    -0.158 C  
HETATM    7  N   UNL     2     -10.896   5.558  73.282  1.00  0.00    -0.274 N  
HETATM    8  O   UNL     3      -8.039   6.277  71.145  1.00  0.00    -0.114 OA 
HETATM    9  N   UNL     3      -9.195   7.167  69.348  1.00  0.00    -0.148 N  
HETATM   10  O   UNL     2      -9.438   4.215  74.447  1.00  0.00    -0.105 OA 
HETATM   11  C   UNL     2     -11.109   6.790  72.715  1.00  0.00    -0.257 A  
HETATM   12  C   UNL     2     -10.253   7.822  72.934  1.00  0.00    -0.315 A  
HETATM   13  C   UNL     3      -8.194   7.178  70.323  1.00  0.00    -0.131 C  
HETATM   14  C   UNL     3      -9.549   8.370  68.803  1.00  0.00    -0.149 A  
HETATM   15  C   UNL     3      -6.264   8.241  71.361  1.00  0.00    -0.039 C  
HETATM   16  C   UNL     2      -9.071   7.711  73.709  1.00  0.00    -0.277 C  
HETATM   17  N   UNL     2     -10.731   8.860  72.191  1.00  0.00    -0.321 NA 
HETATM   18  C   UNL     3      -8.890   9.512  69.121  1.00  0.00    -0.147 A  
HETATM   19  C   UNL     2     -11.818   8.380  71.507  1.00  0.00    -0.297 A  
HETATM   20  N   UNL     2      -8.791   6.393  74.062  1.00  0.00    -0.132 N  
HETATM   21  N   UNL     3      -9.624  10.504  68.546  1.00  0.00    -0.156 NA 
HETATM   22  H   UNL     2     -10.353   9.807  72.151  1.00  0.00     0.000 HD 
HETATM   23  C   UNL     3      -7.736   9.557  69.935  1.00  0.00    -0.129 C  
HETATM   24  O   UNL     2      -8.373   8.683  73.977  1.00  0.00    -0.325 OA 
HETATM   25  O   UNL     3      -7.192  10.627  70.226  1.00  0.00    -0.208 OA 
HETATM   26  N   UNL     3      -7.372   8.312  70.419  1.00  0.00    -0.054 N  
HETATM   27  C   UNL     3     -10.693   9.911  67.924  1.00  0.00    -0.265 A  
HETATM   28  H   UNL     3      -9.419  11.503  68.574  1.00  0.00     0.000 HD 
HETATM   29  C   UNL     2      -9.697   5.320  73.963  1.00  0.00    -0.159 C  
HETATM   30  N   UNL     2     -12.099   7.138  71.849  1.00  0.00    -0.311 NA 
HETATM   31  C   UNL     2      -7.438   6.065  74.466  1.00  0.00    -0.093 C  
HETATM   32  N   UNL     3     -10.650   8.602  68.034  1.00  0.00    -0.187 NA 
ENDROOT
BRANCH   2  33
HETATM   33  C   UNL     1      -7.520   3.770  69.887  1.00  0.00    -0.048 C  
HETATM   34  H2  UNL     1      -5.881   3.648  71.132  1.00  0.00     0.000 HD 
HETATM   35  N   UNL     1      -6.235   4.250  70.389  1.00  0.00    -0.018 NA 
HETATM   36  H1  UNL     1      -5.546   4.360  69.644  1.00  0.00     0.000 HD 
ENDBRANCH   2  33
TORSDOF 1
ENDMDL
MODEL       31
REMARK 921   NORMALIZED FREE ENERGY PREDICTED BY IDOCK:   -4.64 KCAL/MOL
REMARK 922        TOTAL FREE ENERGY PREDICTED BY IDOCK:   -5.28 KCAL/MOL
REMARK 923 INTER-LIGAND FREE ENERGY PREDICTED BY IDOCK:   -5.13 KCAL/MOL
REMARK 924 INTRA-LIGAND FREE ENERGY PREDICTED BY IDOCK:   -0.15 KCAL/MOL
REMARK 927      BINDING AFFINITY PREDICTED BY RF-SCORE:    0.00 PKD
ROOT
HETATM    1  N   UNL     1     -12.315  10.604  68.666  1.00  0.00    -0.765 NA 
HETATM    2  C   UNL     1     -11.190  10.361  69.573  1.00  0.00    -0.269 C  
HETATM    3  H1  UNL     1     -12.021  10.851  67.721  1.00  0.00     0.000 HD 
HETATM    4  C   UNL     2      -9.765   9.716  65.903  1.00  0.00    -0.275 C  
HETATM    5  H2  UNL     1     -12.944  11.310  69.048  1.00  0.00     0.000 HD 
HETATM    6  C   UNL     3     -11.080   6.934  69.465  1.00  0.00    -0.228 C  
HETATM    7  N   UNL     2      -8.705   9.455  66.852  1.00  0.00    -0.127 N  
HETATM    8  O   UNL     3      -9.097   8.827  70.416  1.00  0.00    -0.154 OA 
HETATM    9  N   UNL     3      -9.894   6.659  70.277  1.00  0.00    -0.174 N  
HETATM   10  O   UNL     2      -8.601  11.673  67.453  1.00  0.00    -0.140 OA 
HETATM   11  C   UNL     2      -8.250   8.183  67.097  1.00  0.00    -0.120 A  
HETATM   12  C   UNL     2      -7.204   7.960  67.935  1.00  0.00    -0.091 A  
HETATM   13  C   UNL     3      -9.039   7.650  70.765  1.00  0.00    -0.153 C  
HETATM   14  C   UNL     3      -9.472   5.363  70.381  1.00  0.00    -0.164 A  
HETATM   15  C   UNL     3      -7.217   8.340  72.227  1.00  0.00    -0.100 C  
HETATM   16  C   UNL     2      -6.538   8.986  68.650  1.00  0.00    -0.054 C  
HETATM   17  N   UNL     2      -7.057   6.605  67.985  1.00  0.00    -0.086 NA 
HETATM   18  C   UNL     3      -8.319   5.044  71.020  1.00  0.00    -0.118 A  
HETATM   19  C   UNL     2      -8.065   6.076  67.222  1.00  0.00    -0.106 A  
HETATM   20  N   UNL     2      -7.186  10.215  68.542  1.00  0.00    -0.078 N  
HETATM   21  N   UNL     3      -8.137   3.720  70.763  1.00  0.00    -0.061 NA 
HETATM   22  H   UNL     2      -6.338   6.088  68.491  1.00  0.00     0.000 HD 
HETATM   23  C   UNL     3      -7.519   5.977  71.718  1.00  0.00    -0.095 C  
HETATM   24  O   UNL     2      -5.532   8.769  69.317  1.00  0.00    -0.035 OA 
HETATM   25  O   UNL     3      -6.457   5.645  72.254  1.00  0.00    -0.050 OA 
HETATM   26  N   UNL     3      -8.012   7.269  71.642  1.00  0.00    -0.095 N  
HETATM   27  C   UNL     3      -9.182   3.313  69.973  1.00  0.00    -0.151 A  
HETATM   28  H   UNL     3      -7.368   3.138  71.095  1.00  0.00     0.000 HD 
HETATM   29  C   UNL     2      -8.189  10.519  67.602  1.00  0.00    -0.111 C  
HETATM   30  N   UNL     2      -8.773   7.017  66.630  1.00  0.00    -0.123 NA 
HETATM   31  C   UNL     2      -6.891  11.234  69.530  1.00  0.00    -0.115 C  
HETATM   32  N   UNL     3     -10.032   4.291  69.756  1.00  0.00    -0.186 NA 
ENDROOT
BRANCH   2  33
HETATM   33  C   UNL     1     -11.637   9.986  71.005  1.00  0.00    -0.393 C  
HETATM   34  H2  UNL     1     -13.125   8.693  70.402  1.00  0.00     0.000 HD 
HETATM   35  N   UNL     1     -13.005   9.478  71.042  1.00  0.00    -0.520 NA 
HETATM   36  H1  UNL     1     -13.300   9.230  71.987  1.00  0.00     0.000 HD 
ENDBRANCH   2  33
TORSDOF 1
ENDMDL
MODEL       32
REMARK 921   NORMALIZED FREE ENERGY PREDICTED BY IDOCK:   -4.64 KCAL/MOL
REMARK 922        TOTAL FREE ENERGY PREDICTED BY IDOCK:   -5.27 KCAL/MOL
REMARK 923 INTER-LIGAND FREE ENERGY PREDICTED BY IDOCK:   -4.95 KCAL/MOL
REMARK 924 INTRA-LIGAND FREE ENERGY PREDICTED BY IDOCK:   -0.32 KCAL/MOL
REMARK 927      BINDING AFFINITY PREDICTED BY RF-SCORE:    0.00 PKD
ROOT
HETATM    1  N   UNL     1      -8.169   9.804  65.689  1.00  0.00    -0.126 NA 
HETATM    2  C   UNL     1      -7.632   9.573  67.033  1.00  0.00    -0.091 C  
HETATM    3  H1  UNL     1      -8.233   8.951  65.133  1.00  0.00     0.000 HD 
HETATM    4  C   UNL     2      -9.155   6.073  65.874  1.00  0.00    -0.102 C  
HETATM    5  H2  UNL     1      -7.629  10.518  65.199  1.00  0.00     0.000 HD 
HETATM    6  C   UNL     3     -10.557   9.464  68.821  1.00  0.00    -0.208 C  
HETATM    7  N   UNL     2      -8.639   5.919  67.217  1.00  0.00    -0.107 N  
HETATM    8  O   UNL     3      -7.890   8.596  69.567  1.00  0.00    -0.091 OA 
HETATM    9  N   UNL     3     -10.064   9.125  70.157  1.00  0.00    -0.190 N  
HETATM   10  O   UNL     2      -6.475   6.213  66.495  1.00  0.00    -0.043 OA 
HETATM   11  C   UNL     2      -9.470   5.760  68.298  1.00  0.00    -0.118 A  
HETATM   12  C   UNL     2      -8.971   5.542  69.542  1.00  0.00    -0.113 A  
HETATM   13  C   UNL     3      -8.734   8.801  70.436  1.00  0.00    -0.166 C  
HETATM   14  C   UNL     3     -10.983   8.897  71.143  1.00  0.00    -0.286 A  
HETATM   15  C   UNL     3      -6.945   8.409  72.041  1.00  0.00    -0.091 C  
HETATM   16  C   UNL     2      -7.585   5.509  69.838  1.00  0.00    -0.074 C  
HETATM   17  N   UNL     2     -10.054   5.484  70.368  1.00  0.00    -0.212 NA 
HETATM   18  C   UNL     3     -10.608   8.468  72.374  1.00  0.00    -0.298 A  
HETATM   19  C   UNL     2     -11.152   5.733  69.585  1.00  0.00    -0.236 A  
HETATM   20  N   UNL     2      -6.802   5.904  68.755  1.00  0.00    -0.064 N  
HETATM   21  N   UNL     3     -11.777   8.179  73.009  1.00  0.00    -0.513 NA 
HETATM   22  H   UNL     2     -10.049   5.292  71.369  1.00  0.00     0.000 HD 
HETATM   23  C   UNL     3      -9.263   8.326  72.785  1.00  0.00    -0.266 C  
HETATM   24  O   UNL     2      -7.162   5.208  70.948  1.00  0.00    -0.060 OA 
HETATM   25  O   UNL     3      -8.972   7.896  73.905  1.00  0.00    -0.271 OA 
HETATM   26  N   UNL     3      -8.361   8.625  71.777  1.00  0.00    -0.156 N  
HETATM   27  C   UNL     3     -12.793   8.436  72.125  1.00  0.00    -0.346 A  
HETATM   28  H   UNL     3     -11.878   7.835  73.964  1.00  0.00     0.000 HD 
HETATM   29  C   UNL     2      -7.258   6.021  67.428  1.00  0.00    -0.076 C  
HETATM   30  N   UNL     2     -10.827   5.853  68.313  1.00  0.00    -0.267 NA 
HETATM   31  C   UNL     2      -5.441   6.330  69.013  1.00  0.00    -0.015 C  
HETATM   32  N   UNL     3     -12.337   8.912  70.989  1.00  0.00    -0.228 NA 
ENDROOT
BRANCH   2  33
HETATM   33  C   UNL     1      -7.534  10.866  67.876  1.00  0.00    -0.090 C  
HETATM   34  H2  UNL     1      -5.519  10.677  68.270  1.00  0.00     0.000 HD 
HETATM   35  N   UNL     1      -6.385  10.852  68.778  1.00  0.00    -0.047 NA 
HETATM   36  H1  UNL     1      -6.321  11.705  69.334  1.00  0.00     0.000 HD 
ENDBRANCH   2  33
TORSDOF 1
ENDMDL
MODEL       33
REMARK 921   NORMALIZED FREE ENERGY PREDICTED BY IDOCK:   -4.62 KCAL/MOL
REMARK 922        TOTAL FREE ENERGY PREDICTED BY IDOCK:   -5.25 KCAL/MOL
REMARK 923 INTER-LIGAND FREE ENERGY PREDICTED BY IDOCK:   -4.90 KCAL/MOL
REMARK 924 INTRA-LIGAND FREE ENERGY PREDICTED BY IDOCK:   -0.36 KCAL/MOL
REMARK 927      BINDING AFFINITY PREDICTED BY RF-SCORE:    0.00 PKD
ROOT
HETATM    1  N   UNL     1      -7.228  11.195  70.106  1.00  0.00    -0.415 NA 
HETATM    2  C   UNL     1      -7.196   9.819  69.602  1.00  0.00    -0.097 C  
HETATM    3  H1  UNL     1      -8.100  11.679  69.889  1.00  0.00     0.000 HD 
HETATM    4  C   UNL     2     -11.062  10.728  69.982  1.00  0.00    -0.255 C  
HETATM    5  H2  UNL     1      -6.424  11.725  69.768  1.00  0.00     0.000 HD 
HETATM    6  C   UNL     3      -8.027   8.128  72.469  1.00  0.00    -0.144 C  
HETATM    7  N   UNL     2     -10.962   9.361  69.521  1.00  0.00    -0.212 N  
HETATM    8  O   UNL     3      -8.023   7.222  69.712  1.00  0.00    -0.117 OA 
HETATM    9  N   UNL     3      -8.111   6.753  71.977  1.00  0.00    -0.101 N  
HETATM   10  O   UNL     2     -10.101  10.031  67.497  1.00  0.00    -0.177 OA 
HETATM   11  C   UNL     2     -11.280   8.299  70.332  1.00  0.00    -0.219 A  
HETATM   12  C   UNL     2     -11.253   7.024  69.863  1.00  0.00    -0.246 A  
HETATM   13  C   UNL     3      -8.012   6.402  70.628  1.00  0.00    -0.112 C  
HETATM   14  C   UNL     3      -8.527   5.782  72.846  1.00  0.00    -0.122 A  
HETATM   15  C   UNL     3      -7.750   4.709  68.896  1.00  0.00    -0.071 C  
HETATM   16  C   UNL     2     -10.859   6.680  68.546  1.00  0.00    -0.258 C  
HETATM   17  N   UNL     2     -11.566   6.234  70.929  1.00  0.00    -0.318 NA 
HETATM   18  C   UNL     3      -8.739   4.507  72.434  1.00  0.00    -0.117 A  
HETATM   19  C   UNL     2     -11.705   7.072  72.006  1.00  0.00    -0.295 A  
HETATM   20  N   UNL     2     -10.330   7.765  67.850  1.00  0.00    -0.211 N  
HETATM   21  N   UNL     3      -9.311   3.890  73.504  1.00  0.00    -0.104 NA 
HETATM   22  H   UNL     2     -11.676   5.220  70.926  1.00  0.00     0.000 HD 
HETATM   23  C   UNL     3      -8.453   4.041  71.131  1.00  0.00    -0.076 C  
HETATM   24  O   UNL     2     -10.944   5.534  68.118  1.00  0.00    -0.097 OA 
HETATM   25  O   UNL     3      -8.699   2.879  70.792  1.00  0.00    -0.067 OA 
HETATM   26  N   UNL     3      -7.976   5.038  70.297  1.00  0.00    -0.076 N  
HETATM   27  C   UNL     3      -9.426   4.827  74.499  1.00  0.00    -0.129 A  
HETATM   28  H   UNL     3      -9.601   2.914  73.556  1.00  0.00     0.000 HD 
HETATM   29  C   UNL     2     -10.447   9.112  68.244  1.00  0.00    -0.208 C  
HETATM   30  N   UNL     2     -11.586   8.338  71.657  1.00  0.00    -0.270 NA 
HETATM   31  C   UNL     2      -9.509   7.498  66.686  1.00  0.00    -0.191 C  
HETATM   32  N   UNL     3      -8.919   5.983  74.135  1.00  0.00    -0.126 NA 
ENDROOT
BRANCH   2  33
HETATM   33  C   UNL     1      -5.874   9.085  69.930  1.00  0.00    -0.031 C  
HETATM   34  H2  UNL     1      -5.212   9.019  67.978  1.00  0.00     0.000 HD 
HETATM   35  N   UNL     1      -5.328   8.386  68.769  1.00  0.00    -0.035 NA 
HETATM   36  H1  UNL     1      -4.456   7.902  68.985  1.00  0.00     0.000 HD 
ENDBRANCH   2  33
TORSDOF 1
ENDMDL
MODEL       34
REMARK 921   NORMALIZED FREE ENERGY PREDICTED BY IDOCK:   -4.53 KCAL/MOL
REMARK 922        TOTAL FREE ENERGY PREDICTED BY IDOCK:   -5.16 KCAL/MOL
REMARK 923 INTER-LIGAND FREE ENERGY PREDICTED BY IDOCK:   -4.80 KCAL/MOL
REMARK 924 INTRA-LIGAND FREE ENERGY PREDICTED BY IDOCK:   -0.36 KCAL/MOL
REMARK 927      BINDING AFFINITY PREDICTED BY RF-SCORE:    0.00 PKD
ROOT
HETATM    1  N   UNL     1      -7.663  13.891  68.088  1.00  0.00    -0.128 NA 
HETATM    2  C   UNL     1      -7.455  12.597  67.433  1.00  0.00    -0.146 C  
HETATM    3  H1  UNL     1      -8.649  14.142  68.171  1.00  0.00     0.000 HD 
HETATM    4  C   UNL     2     -11.148  12.454  68.935  1.00  0.00    -0.258 C  
HETATM    5  H2  UNL     1      -7.139  14.627  67.615  1.00  0.00     0.000 HD 
HETATM    6  C   UNL     3      -7.005  10.611  70.194  1.00  0.00    -0.065 C  
HETATM    7  N   UNL     2     -10.868  11.183  68.304  1.00  0.00    -0.196 N  
HETATM    8  O   UNL     3      -7.582   9.871  67.448  1.00  0.00    -0.091 OA 
HETATM    9  N   UNL     3      -6.902   9.286  69.581  1.00  0.00    -0.053 N  
HETATM   10  O   UNL     2     -10.808  12.151  66.219  1.00  0.00    -0.261 OA 
HETATM   11  C   UNL     2     -10.680  10.037  69.037  1.00  0.00    -0.220 A  
HETATM   12  C   UNL     2     -10.491   8.837  68.429  1.00  0.00    -0.176 A  
HETATM   13  C   UNL     3      -7.116   9.039  68.223  1.00  0.00    -0.077 C  
HETATM   14  C   UNL     3      -6.810   8.200  70.407  1.00  0.00    -0.037 A  
HETATM   15  C   UNL     3      -6.974   7.558  66.295  1.00  0.00    -0.066 C  
HETATM   16  C   UNL     2     -10.423   8.672  67.023  1.00  0.00    -0.284 C  
HETATM   17  N   UNL     2     -10.290   7.942  69.437  1.00  0.00    -0.217 NA 
HETATM   18  C   UNL     3      -6.827   6.935  69.917  1.00  0.00    -0.050 A  
HETATM   19  C   UNL     2     -10.305   8.662  70.604  1.00  0.00    -0.202 A  
HETATM   20  N   UNL     2     -10.388   9.889  66.346  1.00  0.00    -0.208 N  
HETATM   21  N   UNL     3      -6.905   6.140  71.019  1.00  0.00    -0.064 NA 
HETATM   22  H   UNL     2     -10.155   6.936  69.342  1.00  0.00     0.000 HD 
HETATM   23  C   UNL     3      -6.826   6.623  68.539  1.00  0.00    -0.070 C  
HETATM   24  O   UNL     2     -10.357   7.565  66.499  1.00  0.00    -0.204 OA 
HETATM   25  O   UNL     3      -6.879   5.455  68.141  1.00  0.00    -0.056 OA 
HETATM   26  N   UNL     3      -6.858   7.749  67.733  1.00  0.00    -0.067 N  
HETATM   27  C   UNL     3      -6.944   6.965  72.113  1.00  0.00    -0.066 A  
HETATM   28  H   UNL     3      -6.929   5.121  71.029  1.00  0.00     0.000 HD 
HETATM   29  C   UNL     2     -10.699  11.139  66.915  1.00  0.00    -0.274 C  
HETATM   30  N   UNL     2     -10.592   9.931  70.390  1.00  0.00    -0.291 NA 
HETATM   31  C   UNL     2      -9.897   9.900  64.982  1.00  0.00    -0.252 C  
HETATM   32  N   UNL     3      -6.850   8.230  71.768  1.00  0.00    -0.073 NA 
ENDROOT
BRANCH   2  33
HETATM   33  C   UNL     1      -5.962  12.215  67.307  1.00  0.00    -0.152 C  
HETATM   34  H2  UNL     1      -5.957  12.172  65.246  1.00  0.00     0.000 HD 
HETATM   35  N   UNL     1      -5.659  11.585  66.025  1.00  0.00    -0.497 NA 
HETATM   36  H1  UNL     1      -4.674  11.333  65.941  1.00  0.00     0.000 HD 
ENDBRANCH   2  33
TORSDOF 1
ENDMDL
MODEL       35
REMARK 921   NORMALIZED FREE ENERGY PREDICTED BY IDOCK:   -4.48 KCAL/MOL
REMARK 922        TOTAL FREE ENERGY PREDICTED BY IDOCK:   -5.11 KCAL/MOL
REMARK 923 INTER-LIGAND FREE ENERGY PREDICTED BY IDOCK:   -4.76 KCAL/MOL
REMARK 924 INTRA-LIGAND FREE ENERGY PREDICTED BY IDOCK:   -0.35 KCAL/MOL
REMARK 927      BINDING AFFINITY PREDICTED BY RF-SCORE:    0.00 PKD
ROOT
HETATM    1  N   UNL     1      -8.115   8.354  72.667  1.00  0.00    -0.298 NA 
HETATM    2  C   UNL     1      -7.855   9.077  71.419  1.00  0.00    -0.039 C  
HETATM    3  H1  UNL     1      -9.109   8.215  72.848  1.00  0.00     0.000 HD 
HETATM    4  C   UNL     2     -11.457   7.422  70.965  1.00  0.00    -0.282 C  
HETATM    5  H2  UNL     1      -7.662   8.815  73.456  1.00  0.00     0.000 HD 
HETATM    6  C   UNL     3      -7.148   6.434  69.348  1.00  0.00    -0.073 C  
HETATM    7  N   UNL     2     -11.125   8.124  69.745  1.00  0.00    -0.127 N  
HETATM    8  O   UNL     3      -7.805   9.184  68.693  1.00  0.00    -0.094 OA 
HETATM    9  N   UNL     3      -6.989   7.113  68.061  1.00  0.00    -0.077 N  
HETATM   10  O   UNL     2     -11.226  10.162  70.805  1.00  0.00    -0.321 OA 
HETATM   11  C   UNL     2     -10.829   7.454  68.583  1.00  0.00    -0.034 A  
HETATM   12  C   UNL     2     -10.592   8.125  67.426  1.00  0.00    -0.255 A  
HETATM   13  C   UNL     3      -7.250   8.470  67.860  1.00  0.00    -0.088 C  
HETATM   14  C   UNL     3      -6.788   6.344  66.949  1.00  0.00    -0.066 A  
HETATM   15  C   UNL     3      -7.104  10.471  66.478  1.00  0.00    -0.120 C  
HETATM   16  C   UNL     2     -10.580   9.539  67.327  1.00  0.00    -0.248 C  
HETATM   17  N   UNL     2     -10.286   7.170  66.503  1.00  0.00    -0.489 NA 
HETATM   18  C   UNL     3      -6.746   6.891  65.709  1.00  0.00    -0.052 A  
HETATM   19  C   UNL     2     -10.293   5.971  67.168  1.00  0.00    -0.230 A  
HETATM   20  N   UNL     2     -10.655  10.159  68.572  1.00  0.00    -0.204 N  
HETATM   21  N   UNL     3      -6.721   5.825  64.862  1.00  0.00    -0.046 NA 
HETATM   22  H   UNL     2     -10.091   7.318  65.513  1.00  0.00     0.000 HD 
HETATM   23  C   UNL     3      -6.791   8.281  65.457  1.00  0.00    -0.066 C  
HETATM   24  O   UNL     2     -10.467  10.117  66.251  1.00  0.00    -0.201 OA 
HETATM   25  O   UNL     3      -6.787   8.730  64.307  1.00  0.00    -0.077 OA 
HETATM   26  N   UNL     3      -6.933   9.031  66.613  1.00  0.00    -0.080 N  
HETATM   27  C   UNL     3      -6.762   4.693  65.634  1.00  0.00    -0.056 A  
HETATM   28  H   UNL     3      -6.680   5.862  63.844  1.00  0.00     0.000 HD 
HETATM   29  C   UNL     2     -11.019   9.519  69.772  1.00  0.00    -0.223 C  
HETATM   30  N   UNL     2     -10.671   6.112  68.423  1.00  0.00    -0.265 NA 
HETATM   31  C   UNL     2     -10.230  11.541  68.676  1.00  0.00    -0.208 C  
HETATM   32  N   UNL     3      -6.766   4.982  66.916  1.00  0.00    -0.053 NA 
ENDROOT
BRANCH   2  33
HETATM   33  C   UNL     1      -6.348   9.287  71.143  1.00  0.00    -0.083 C  
HETATM   34  H2  UNL     1      -6.382  11.322  71.474  1.00  0.00     0.000 HD 
HETATM   35  N   UNL     1      -6.040  10.666  70.772  1.00  0.00    -0.303 NA 
HETATM   36  H1  UNL     1      -5.046  10.804  70.591  1.00  0.00     0.000 HD 
ENDBRANCH   2  33
TORSDOF 1
ENDMDL
MODEL       36
REMARK 921   NORMALIZED FREE ENERGY PREDICTED BY IDOCK:   -4.47 KCAL/MOL
REMARK 922        TOTAL FREE ENERGY PREDICTED BY IDOCK:   -5.10 KCAL/MOL
REMARK 923 INTER-LIGAND FREE ENERGY PREDICTED BY IDOCK:   -4.95 KCAL/MOL
REMARK 924 INTRA-LIGAND FREE ENERGY PREDICTED BY IDOCK:   -0.15 KCAL/MOL
REMARK 927      BINDING AFFINITY PREDICTED BY RF-SCORE:    0.00 PKD
ROOT
HETATM    1  N   UNL     1      -9.656   2.969  67.102  1.00  0.00    -0.396 NA 
HETATM    2  C   UNL     1      -9.070   4.296  66.895  1.00  0.00    -0.135 C  
HETATM    3  H1  UNL     1      -9.124   2.395  67.756  1.00  0.00     0.000 HD 
HETATM    4  C   UNL     2      -7.750   3.089  70.461  1.00  0.00    -0.043 C  
HETATM    5  H2  UNL     1      -9.784   2.485  66.213  1.00  0.00     0.000 HD 
HETATM    6  C   UNL     3     -11.032   6.140  69.021  1.00  0.00    -0.367 C  
HETATM    7  N   UNL     2      -7.233   4.417  70.213  1.00  0.00    -0.048 N  
HETATM    8  O   UNL     3      -8.496   6.812  67.781  1.00  0.00    -0.122 OA 
HETATM    9  N   UNL     3     -10.403   7.458  68.922  1.00  0.00    -0.203 N  
HETATM   10  O   UNL     2      -5.913   3.658  68.489  1.00  0.00    -0.022 OA 
HETATM   11  C   UNL     2      -7.684   5.510  70.911  1.00  0.00    -0.092 A  
HETATM   12  C   UNL     2      -7.137   6.739  70.720  1.00  0.00    -0.068 A  
HETATM   13  C   UNL     3      -9.217   7.703  68.226  1.00  0.00    -0.139 C  
HETATM   14  C   UNL     3     -10.871   8.457  69.729  1.00  0.00    -0.183 A  
HETATM   15  C   UNL     3      -7.614   9.262  67.260  1.00  0.00    -0.091 C  
HETATM   16  C   UNL     2      -6.114   7.006  69.776  1.00  0.00    -0.027 C  
HETATM   17  N   UNL     2      -7.847   7.585  71.521  1.00  0.00    -0.085 NA 
HETATM   18  C   UNL     3     -10.265   9.670  69.777  1.00  0.00    -0.237 A  
HETATM   19  C   UNL     2      -8.830   6.831  72.108  1.00  0.00    -0.133 A  
HETATM   20  N   UNL     2      -5.863   5.917  68.944  1.00  0.00    -0.015 N  
HETATM   21  N   UNL     3     -10.880  10.321  70.802  1.00  0.00    -0.383 NA 
HETATM   22  H   UNL     2      -7.678   8.582  71.657  1.00  0.00     0.000 HD 
HETATM   23  C   UNL     3      -9.192  10.050  68.941  1.00  0.00    -0.169 C  
HETATM   24  O   UNL     2      -5.567   8.101  69.699  1.00  0.00    -0.026 OA 
HETATM   25  O   UNL     3      -8.649  11.154  69.047  1.00  0.00    -0.125 OA 
HETATM   26  N   UNL     3      -8.786   9.032  68.094  1.00  0.00    -0.130 N  
HETATM   27  C   UNL     3     -11.814   9.464  71.327  1.00  0.00    -0.360 A  
HETATM   28  H   UNL     3     -10.684  11.269  71.121  1.00  0.00     0.000 HD 
HETATM   29  C   UNL     2      -6.311   4.603  69.177  1.00  0.00    -0.032 C  
HETATM   30  N   UNL     2      -8.720   5.555  71.792  1.00  0.00    -0.135 NA 
HETATM   31  C   UNL     2      -5.179   6.158  67.689  1.00  0.00    -0.004 C  
HETATM   32  N   UNL     3     -11.854   8.330  70.664  1.00  0.00    -0.163 NA 
ENDROOT
BRANCH   2  33
HETATM   33  C   UNL     1      -9.877   5.166  65.904  1.00  0.00    -0.129 C  
HETATM   34  H2  UNL     1     -11.701   4.320  66.358  1.00  0.00     0.000 HD 
HETATM   35  N   UNL     1     -11.148   4.548  65.533  1.00  0.00    -0.888 NA 
HETATM   36  H1  UNL     1     -11.680   5.123  64.879  1.00  0.00     0.000 HD 
ENDBRANCH   2  33
TORSDOF 1
ENDMDL
MODEL       37
REMARK 921   NORMALIZED FREE ENERGY PREDICTED BY IDOCK:   -4.46 KCAL/MOL
REMARK 922        TOTAL FREE ENERGY PREDICTED BY IDOCK:   -5.09 KCAL/MOL
REMARK 923 INTER-LIGAND FREE ENERGY PREDICTED BY IDOCK:   -4.97 KCAL/MOL
REMARK 924 INTRA-LIGAND FREE ENERGY PREDICTED BY IDOCK:   -0.12 KCAL/MOL
REMARK 927      BINDING AFFINITY PREDICTED BY RF-SCORE:    0.00 PKD
ROOT
HETATM    1  N   UNL     1      -9.708   3.305  67.301  1.00  0.00    -0.346 NA 
HETATM    2  C   UNL     1      -9.653   4.618  66.652  1.00  0.00    -0.182 C  
HETATM    3  H1  UNL     1      -8.800   2.991  67.643  1.00  0.00     0.000 HD 
HETATM    4  C   UNL     2      -6.513   4.509  69.109  1.00  0.00    -0.039 C  
HETATM    5  H2  UNL     1     -10.124   2.610  66.681  1.00  0.00     0.000 HD 
HETATM    6  C   UNL     3     -10.730   6.596  69.240  1.00  0.00    -0.265 C  
HETATM    7  N   UNL     2      -6.536   5.802  68.462  1.00  0.00    -0.041 N  
HETATM    8  O   UNL     3      -9.379   7.330  66.779  1.00  0.00    -0.149 OA 
HETATM    9  N   UNL     3     -10.584   7.931  68.661  1.00  0.00    -0.159 N  
HETATM   10  O   UNL     2      -6.076   4.865  66.413  1.00  0.00    -0.029 OA 
HETATM   11  C   UNL     2      -6.851   6.949  69.148  1.00  0.00    -0.068 A  
HETATM   12  C   UNL     2      -6.796   8.166  68.547  1.00  0.00    -0.068 A  
HETATM   13  C   UNL     3      -9.991   8.181  67.420  1.00  0.00    -0.209 C  
HETATM   14  C   UNL     3     -10.836   9.011  69.461  1.00  0.00    -0.166 A  
HETATM   15  C   UNL     3      -9.513   9.690  65.570  1.00  0.00    -0.266 C  
HETATM   16  C   UNL     2      -6.466   8.352  67.181  1.00  0.00    -0.058 C  
HETATM   17  N   UNL     2      -7.215   9.059  69.487  1.00  0.00    -0.058 NA 
HETATM   18  C   UNL     3     -10.613  10.278  69.031  1.00  0.00    -0.224 A  
HETATM   19  C   UNL     2      -7.562   8.326  70.592  1.00  0.00    -0.071 A  
HETATM   20  N   UNL     2      -6.384   7.147  66.486  1.00  0.00    -0.046 N  
HETATM   21  N   UNL     3     -10.794  11.054  70.135  1.00  0.00    -0.446 NA 
HETATM   22  H   UNL     2      -7.260  10.074  69.388  1.00  0.00     0.000 HD 
HETATM   23  C   UNL     3     -10.216  10.606  67.715  1.00  0.00    -0.180 C  
HETATM   24  O   UNL     2      -6.322   9.467  66.691  1.00  0.00    -0.064 OA 
HETATM   25  O   UNL     3      -9.989  11.773  67.380  1.00  0.00    -0.183 OA 
HETATM   26  N   UNL     3     -10.030   9.490  66.916  1.00  0.00    -0.201 N  
HETATM   27  C   UNL     3     -11.104  10.214  71.174  1.00  0.00    -0.074 A  
HETATM   28  H   UNL     3     -10.715  12.069  70.180  1.00  0.00     0.000 HD 
HETATM   29  C   UNL     2      -6.314   5.874  67.082  1.00  0.00    -0.038 C  
HETATM   30  N   UNL     2      -7.301   7.045  70.429  1.00  0.00    -0.081 NA 
HETATM   31  C   UNL     2      -6.482   7.184  65.040  1.00  0.00    -0.040 C  
HETATM   32  N   UNL     3     -11.173   8.963  70.780  1.00  0.00    -0.264 NA 
ENDROOT
BRANCH   2  33
HETATM   33  C   UNL     1     -11.030   5.095  66.133  1.00  0.00     0.028 C  
HETATM   34  H2  UNL     1     -11.266   3.549  64.789  1.00  0.00     0.000 HD 
HETATM   35  N   UNL     1     -11.334   4.567  64.805  1.00  0.00    -0.988 NA 
HETATM   36  H1  UNL     1     -12.242   4.881  64.463  1.00  0.00     0.000 HD 
ENDBRANCH   2  33
TORSDOF 1
ENDMDL
MODEL       38
REMARK 921   NORMALIZED FREE ENERGY PREDICTED BY IDOCK:   -4.46 KCAL/MOL
REMARK 922        TOTAL FREE ENERGY PREDICTED BY IDOCK:   -5.08 KCAL/MOL
REMARK 923 INTER-LIGAND FREE ENERGY PREDICTED BY IDOCK:   -4.72 KCAL/MOL
REMARK 924 INTRA-LIGAND FREE ENERGY PREDICTED BY IDOCK:   -0.36 KCAL/MOL
REMARK 927      BINDING AFFINITY PREDICTED BY RF-SCORE:    0.00 PKD
ROOT
HETATM    1  N   UNL     1      -6.265   4.184  67.356  1.00  0.00    -0.035 NA 
HETATM    2  C   UNL     1      -7.590   4.552  67.861  1.00  0.00    -0.077 C  
HETATM    3  H1  UNL     1      -5.844   4.909  66.775  1.00  0.00     0.000 HD 
HETATM    4  C   UNL     2      -5.745   8.004  67.090  1.00  0.00    -0.038 C  
HETATM    5  H2  UNL     1      -6.299   3.294  66.860  1.00  0.00     0.000 HD 
HETATM    6  C   UNL     3      -6.743   5.604  71.015  1.00  0.00    -0.052 C  
HETATM    7  N   UNL     2      -7.053   8.301  67.630  1.00  0.00    -0.082 N  
HETATM    8  O   UNL     3      -9.187   6.028  69.509  1.00  0.00    -0.135 OA 
HETATM    9  N   UNL     3      -8.032   6.083  71.514  1.00  0.00    -0.112 N  
HETATM   10  O   UNL     2      -8.096   7.433  65.773  1.00  0.00    -0.114 OA 
HETATM   11  C   UNL     2      -7.214   8.833  68.886  1.00  0.00    -0.074 A  
HETATM   12  C   UNL     2      -8.442   9.177  69.352  1.00  0.00    -0.130 A  
HETATM   13  C   UNL     3      -9.185   6.172  70.730  1.00  0.00    -0.154 C  
HETATM   14  C   UNL     3      -8.065   6.681  72.743  1.00  0.00    -0.107 A  
HETATM   15  C   UNL     3     -11.593   6.486  70.536  1.00  0.00    -0.393 C  
HETATM   16  C   UNL     2      -9.642   8.978  68.623  1.00  0.00    -0.153 C  
HETATM   17  N   UNL     2      -8.242   9.615  70.627  1.00  0.00    -0.332 NA 
HETATM   18  C   UNL     3      -9.199   7.251  73.222  1.00  0.00    -0.174 A  
HETATM   19  C   UNL     2      -6.906   9.453  70.888  1.00  0.00    -0.098 A  
HETATM   20  N   UNL     2      -9.442   8.230  67.465  1.00  0.00    -0.146 N  
HETATM   21  N   UNL     3      -8.808   7.892  74.358  1.00  0.00    -0.424 NA 
HETATM   22  H   UNL     2      -8.948   9.990  71.261  1.00  0.00     0.000 HD 
HETATM   23  C   UNL     3     -10.451   7.188  72.570  1.00  0.00    -0.223 C  
HETATM   24  O   UNL     2     -10.725   9.393  69.024  1.00  0.00    -0.223 OA 
HETATM   25  O   UNL     3     -11.448   7.755  73.029  1.00  0.00    -0.372 OA 
HETATM   26  N   UNL     3     -10.391   6.521  71.357  1.00  0.00    -0.204 N  
HETATM   27  C   UNL     3      -7.460   7.686  74.497  1.00  0.00    -0.150 A  
HETATM   28  H   UNL     3      -9.407   8.426  74.988  1.00  0.00     0.000 HD 
HETATM   29  C   UNL     2      -8.188   7.959  66.886  1.00  0.00    -0.116 C  
HETATM   30  N   UNL     2      -6.250   9.027  69.827  1.00  0.00    -0.038 NA 
HETATM   31  C   UNL     2     -10.591   7.589  66.857  1.00  0.00    -0.297 C  
HETATM   32  N   UNL     3      -6.987   6.918  73.542  1.00  0.00    -0.074 NA 
ENDROOT
BRANCH   2  33
HETATM   33  C   UNL     1      -8.228   3.453  68.743  1.00  0.00    -0.060 C  
HETATM   34  H2  UNL     1      -9.799   3.077  67.461  1.00  0.00     0.000 HD 
HETATM   35  N   UNL     1      -9.647   3.265  68.451  1.00  0.00    -0.134 NA 
HETATM   36  H1  UNL     1     -10.068   2.540  69.033  1.00  0.00     0.000 HD 
ENDBRANCH   2  33
TORSDOF 1
ENDMDL
MODEL       39
REMARK 921   NORMALIZED FREE ENERGY PREDICTED BY IDOCK:   -4.45 KCAL/MOL
REMARK 922        TOTAL FREE ENERGY PREDICTED BY IDOCK:   -5.08 KCAL/MOL
REMARK 923 INTER-LIGAND FREE ENERGY PREDICTED BY IDOCK:   -4.73 KCAL/MOL
REMARK 924 INTRA-LIGAND FREE ENERGY PREDICTED BY IDOCK:   -0.35 KCAL/MOL
REMARK 927      BINDING AFFINITY PREDICTED BY RF-SCORE:    0.00 PKD
ROOT
HETATM    1  N   UNL     1     -10.444   4.867  72.118  1.00  0.00    -0.206 NA 
HETATM    2  C   UNL     1     -10.761   5.776  71.014  1.00  0.00    -0.258 C  
HETATM    3  H1  UNL     1      -9.898   4.057  71.825  1.00  0.00     0.000 HD 
HETATM    4  C   UNL     2      -7.495   3.794  69.865  1.00  0.00    -0.048 C  
HETATM    5  H2  UNL     1     -11.293   4.576  72.605  1.00  0.00     0.000 HD 
HETATM    6  C   UNL     3      -8.316   8.138  71.482  1.00  0.00    -0.126 C  
HETATM    7  N   UNL     2      -7.838   4.740  68.826  1.00  0.00    -0.076 N  
HETATM    8  O   UNL     3     -10.005   7.644  69.174  1.00  0.00    -0.172 OA 
HETATM    9  N   UNL     3      -8.534   9.009  70.327  1.00  0.00    -0.149 N  
HETATM   10  O   UNL     2      -9.773   3.600  68.329  1.00  0.00    -0.133 OA 
HETATM   11  C   UNL     2      -7.074   5.854  68.580  1.00  0.00    -0.081 A  
HETATM   12  C   UNL     2      -7.366   6.694  67.554  1.00  0.00    -0.095 A  
HETATM   13  C   UNL     3      -9.438   8.728  69.299  1.00  0.00    -0.161 C  
HETATM   14  C   UNL     3      -7.658  10.039  70.123  1.00  0.00    -0.155 A  
HETATM   15  C   UNL     3     -10.688   9.429  67.330  1.00  0.00    -0.210 C  
HETATM   16  C   UNL     2      -8.483   6.529  66.697  1.00  0.00    -0.116 C  
HETATM   17  N   UNL     2      -6.451   7.702  67.633  1.00  0.00    -0.056 NA 
HETATM   18  C   UNL     3      -7.727  10.817  69.014  1.00  0.00    -0.133 A  
HETATM   19  C   UNL     2      -5.691   7.450  68.745  1.00  0.00    -0.023 A  
HETATM   20  N   UNL     2      -9.343   5.524  67.135  1.00  0.00    -0.114 N  
HETATM   21  N   UNL     3      -6.608  11.591  69.067  1.00  0.00    -0.080 NA 
HETATM   22  H   UNL     2      -6.353   8.488  66.990  1.00  0.00     0.000 HD 
HETATM   23  C   UNL     3      -8.748  10.719  68.043  1.00  0.00    -0.132 C  
HETATM   24  O   UNL     2      -8.664   7.242  65.716  1.00  0.00    -0.154 OA 
HETATM   25  O   UNL     3      -8.747  11.426  67.030  1.00  0.00    -0.150 OA 
HETATM   26  N   UNL     3      -9.652   9.705  68.315  1.00  0.00    -0.140 N  
HETATM   27  C   UNL     3      -5.918  11.231  70.196  1.00  0.00    -0.141 A  
HETATM   28  H   UNL     3      -6.335  12.306  68.393  1.00  0.00     0.000 HD 
HETATM   29  C   UNL     2      -9.028   4.559  68.110  1.00  0.00    -0.116 C  
HETATM   30  N   UNL     2      -6.017   6.304  69.309  1.00  0.00    -0.020 NA 
HETATM   31  C   UNL     2     -10.704   5.522  66.635  1.00  0.00    -0.261 C  
HETATM   32  N   UNL     3      -6.558  10.309  70.879  1.00  0.00    -0.343 NA 
ENDROOT
BRANCH   2  33
HETATM   33  C   UNL     1     -11.590   7.004  71.459  1.00  0.00    -0.287 C  
HETATM   34  H2  UNL     1     -13.339   6.378  70.566  1.00  0.00     0.000 HD 
HETATM   35  N   UNL     1     -12.761   7.217  70.612  1.00  0.00    -0.597 NA 
HETATM   36  H1  UNL     1     -13.308   8.026  70.906  1.00  0.00     0.000 HD 
ENDBRANCH   2  33
TORSDOF 1
ENDMDL
MODEL       40
REMARK 921   NORMALIZED FREE ENERGY PREDICTED BY IDOCK:   -4.43 KCAL/MOL
REMARK 922        TOTAL FREE ENERGY PREDICTED BY IDOCK:   -5.05 KCAL/MOL
REMARK 923 INTER-LIGAND FREE ENERGY PREDICTED BY IDOCK:   -4.71 KCAL/MOL
REMARK 924 INTRA-LIGAND FREE ENERGY PREDICTED BY IDOCK:   -0.35 KCAL/MOL
REMARK 927      BINDING AFFINITY PREDICTED BY RF-SCORE:    0.00 PKD
ROOT
HETATM    1  N   UNL     1      -8.474   7.131  63.257  1.00  0.00    -0.347 NA 
HETATM    2  C   UNL     1      -7.664   7.418  64.445  1.00  0.00    -0.120 C  
HETATM    3  H1  UNL     1      -8.819   6.172  63.232  1.00  0.00     0.000 HD 
HETATM    4  C   UNL     2     -10.001   4.349  65.460  1.00  0.00    -0.230 C  
HETATM    5  H2  UNL     1      -7.961   7.356  62.405  1.00  0.00     0.000 HD 
HETATM    6  C   UNL     3     -10.023   8.960  66.402  1.00  0.00    -0.284 C  
HETATM    7  N   UNL     2      -9.199   4.705  66.609  1.00  0.00    -0.122 N  
HETATM    8  O   UNL     3      -7.442   7.850  67.129  1.00  0.00    -0.089 OA 
HETATM    9  N   UNL     3      -9.276   9.165  67.643  1.00  0.00    -0.128 N  
HETATM   10  O   UNL     2      -7.268   4.025  65.562  1.00  0.00    -0.065 OA 
HETATM   11  C   UNL     2      -9.748   5.303  67.717  1.00  0.00    -0.140 A  
HETATM   12  C   UNL     2      -8.997   5.566  68.818  1.00  0.00    -0.114 A  
HETATM   13  C   UNL     3      -7.994   8.660  67.872  1.00  0.00    -0.107 C  
HETATM   14  C   UNL     3      -9.943   9.684  68.718  1.00  0.00    -0.173 A  
HETATM   15  C   UNL     3      -5.953   8.591  69.200  1.00  0.00    -0.042 C  
HETATM   16  C   UNL     2      -7.608   5.298  68.904  1.00  0.00    -0.081 C  
HETATM   17  N   UNL     2      -9.833   6.198  69.690  1.00  0.00    -0.157 NA 
HETATM   18  C   UNL     3      -9.351   9.796  69.932  1.00  0.00    -0.231 A  
HETATM   19  C   UNL     2     -11.033   6.341  69.043  1.00  0.00    -0.372 A  
HETATM   20  N   UNL     2      -7.066   4.910  67.680  1.00  0.00    -0.061 N  
HETATM   21  N   UNL     3     -10.355  10.168  70.773  1.00  0.00    -0.322 NA 
HETATM   22  H   UNL     2      -9.609   6.503  70.638  1.00  0.00     0.000 HD 
HETATM   23  C   UNL     3      -7.991   9.501  70.177  1.00  0.00    -0.160 C  
HETATM   24  O   UNL     2      -6.978   5.447  69.945  1.00  0.00    -0.057 OA 
HETATM   25  O   UNL     3      -7.505   9.583  71.310  1.00  0.00    -0.332 OA 
HETATM   26  N   UNL     3      -7.332   9.036  69.051  1.00  0.00    -0.072 N  
HETATM   27  C   UNL     3     -11.501  10.249  70.025  1.00  0.00    -0.296 A  
HETATM   28  H   UNL     3     -10.271  10.352  71.772  1.00  0.00     0.000 HD 
HETATM   29  C   UNL     2      -7.814   4.513  66.555  1.00  0.00    -0.099 C  
HETATM   30  N   UNL     2     -11.022   5.760  67.860  1.00  0.00    -0.169 NA 
HETATM   31  C   UNL     2      -5.631   5.018  67.502  1.00  0.00    -0.013 C  
HETATM   32  N   UNL     3     -11.270   9.994  68.757  1.00  0.00    -0.170 NA 
ENDROOT
BRANCH   2  33
HETATM   33  C   UNL     1      -7.140   8.873  64.483  1.00  0.00    -0.089 C  
HETATM   34  H2  UNL     1      -5.175   8.370  64.112  1.00  0.00     0.000 HD 
HETATM   35  N   UNL     1      -5.709   8.937  64.770  1.00  0.00    -0.061 NA 
HETATM   36  H1  UNL     1      -5.363   9.897  64.795  1.00  0.00     0.000 HD 
ENDBRANCH   2  33
TORSDOF 1
ENDMDL
MODEL       41
REMARK 921   NORMALIZED FREE ENERGY PREDICTED BY IDOCK:   -4.41 KCAL/MOL
REMARK 922        TOTAL FREE ENERGY PREDICTED BY IDOCK:   -5.04 KCAL/MOL
REMARK 923 INTER-LIGAND FREE ENERGY PREDICTED BY IDOCK:   -4.69 KCAL/MOL
REMARK 924 INTRA-LIGAND FREE ENERGY PREDICTED BY IDOCK:   -0.34 KCAL/MOL
REMARK 927      BINDING AFFINITY PREDICTED BY RF-SCORE:    0.00 PKD
ROOT
HETATM    1  N   UNL     1     -12.287  10.597  68.984  1.00  0.00    -0.779 NA 
HETATM    2  C   UNL     1     -11.088   9.927  69.495  1.00  0.00    -0.217 C  
HETATM    3  H1  UNL     1     -12.074  11.353  68.332  1.00  0.00     0.000 HD 
HETATM    4  C   UNL     2     -10.001  11.560  66.021  1.00  0.00    -0.224 C  
HETATM    5  H2  UNL     1     -12.872  10.931  69.750  1.00  0.00     0.000 HD 
HETATM    6  C   UNL     3     -11.024   7.187  67.431  1.00  0.00    -0.226 C  
HETATM    7  N   UNL     2      -8.864  10.848  66.561  1.00  0.00    -0.158 N  
HETATM    8  O   UNL     3      -8.944   8.278  69.137  1.00  0.00    -0.146 OA 
HETATM    9  N   UNL     3      -9.773   6.548  67.842  1.00  0.00    -0.121 N  
HETATM   10  O   UNL     2      -8.683  12.324  68.316  1.00  0.00    -0.182 OA 
HETATM   11  C   UNL     2      -8.402   9.686  65.995  1.00  0.00    -0.120 A  
HETATM   12  C   UNL     2      -7.289   9.068  66.468  1.00  0.00    -0.085 A  
HETATM   13  C   UNL     3      -8.868   7.116  68.742  1.00  0.00    -0.130 C  
HETATM   14  C   UNL     3      -9.357   5.445  67.150  1.00  0.00    -0.117 A  
HETATM   15  C   UNL     3      -6.916   6.921  70.185  1.00  0.00    -0.066 C  
HETATM   16  C   UNL     2      -6.551   9.527  67.587  1.00  0.00    -0.063 C  
HETATM   17  N   UNL     2      -7.151   7.936  65.720  1.00  0.00    -0.060 NA 
HETATM   18  C   UNL     3      -8.155   4.867  67.397  1.00  0.00    -0.106 A  
HETATM   19  C   UNL     2      -8.229   7.897  64.873  1.00  0.00    -0.124 A  
HETATM   20  N   UNL     2      -7.193  10.567  68.255  1.00  0.00    -0.082 N  
HETATM   21  N   UNL     3      -8.011   3.937  66.412  1.00  0.00    -0.096 NA 
HETATM   22  H   UNL     2      -6.396   7.253  65.779  1.00  0.00     0.000 HD 
HETATM   23  C   UNL     3      -7.287   5.265  68.438  1.00  0.00    -0.071 C  
HETATM   24  O   UNL     2      -5.492   9.010  67.927  1.00  0.00    -0.035 OA 
HETATM   25  O   UNL     3      -6.185   4.731  68.600  1.00  0.00    -0.029 OA 
HETATM   26  N   UNL     3      -7.771   6.346  69.156  1.00  0.00    -0.099 N  
HETATM   27  C   UNL     3      -9.126   4.012  65.618  1.00  0.00    -0.142 A  
HETATM   28  H   UNL     3      -7.222   3.304  66.289  1.00  0.00     0.000 HD 
HETATM   29  C   UNL     2      -8.272  11.312  67.742  1.00  0.00    -0.120 C  
HETATM   30  N   UNL     2      -8.977   8.977  64.986  1.00  0.00    -0.184 NA 
HETATM   31  C   UNL     2      -6.801  10.848  69.622  1.00  0.00    -0.137 C  
HETATM   32  N   UNL     3      -9.982   4.901  66.069  1.00  0.00    -0.205 NA 
ENDROOT
BRANCH   2  33
HETATM   33  C   UNL     1     -11.409   8.781  70.483  1.00  0.00    -0.227 C  
HETATM   34  H2  UNL     1     -10.766   9.796  72.158  1.00  0.00     0.000 HD 
HETATM   35  N   UNL     1     -10.639   8.885  71.719  1.00  0.00    -0.341 NA 
HETATM   36  H1  UNL     1     -10.851   8.129  72.371  1.00  0.00     0.000 HD 
ENDBRANCH   2  33
TORSDOF 1
ENDMDL
MODEL       42
REMARK 921   NORMALIZED FREE ENERGY PREDICTED BY IDOCK:   -4.39 KCAL/MOL
REMARK 922        TOTAL FREE ENERGY PREDICTED BY IDOCK:   -5.01 KCAL/MOL
REMARK 923 INTER-LIGAND FREE ENERGY PREDICTED BY IDOCK:   -4.65 KCAL/MOL
REMARK 924 INTRA-LIGAND FREE ENERGY PREDICTED BY IDOCK:   -0.36 KCAL/MOL
REMARK 927      BINDING AFFINITY PREDICTED BY RF-SCORE:    0.00 PKD
ROOT
HETATM    1  N   UNL     1      -6.961  10.685  70.504  1.00  0.00    -0.471 NA 
HETATM    2  C   UNL     1      -7.053   9.798  69.341  1.00  0.00    -0.066 C  
HETATM    3  H1  UNL     1      -7.870  11.022  70.822  1.00  0.00     0.000 HD 
HETATM    4  C   UNL     2     -10.609   9.579  71.136  1.00  0.00    -0.318 C  
HETATM    5  H2  UNL     1      -6.328  11.463  70.320  1.00  0.00     0.000 HD 
HETATM    6  C   UNL     3      -6.851   6.754  70.910  1.00  0.00    -0.059 C  
HETATM    7  N   UNL     2     -10.624   8.691  69.994  1.00  0.00    -0.224 N  
HETATM    8  O   UNL     3      -7.719   7.403  68.218  1.00  0.00    -0.115 OA 
HETATM    9  N   UNL     3      -7.049   5.838  69.786  1.00  0.00    -0.066 N  
HETATM   10  O   UNL     2     -10.491  10.459  68.528  1.00  0.00    -0.167 OA 
HETATM   11  C   UNL     2     -10.627   7.326  70.138  1.00  0.00    -0.232 A  
HETATM   12  C   UNL     2     -10.715   6.505  69.060  1.00  0.00    -0.278 A  
HETATM   13  C   UNL     3      -7.385   6.253  68.495  1.00  0.00    -0.086 C  
HETATM   14  C   UNL     3      -7.129   4.499  70.052  1.00  0.00    -0.049 A  
HETATM   15  C   UNL     3      -7.650   5.774  66.121  1.00  0.00    -0.090 C  
HETATM   16  C   UNL     2     -10.762   6.969  67.722  1.00  0.00    -0.231 C  
HETATM   17  N   UNL     2     -10.640   5.237  69.556  1.00  0.00    -0.247 NA 
HETATM   18  C   UNL     3      -7.425   3.601  69.080  1.00  0.00    -0.053 A  
HETATM   19  C   UNL     2     -10.445   5.360  70.908  1.00  0.00    -0.237 A  
HETATM   20  N   UNL     2     -10.523   8.339  67.626  1.00  0.00    -0.245 N  
HETATM   21  N   UNL     3      -7.598   2.423  69.741  1.00  0.00    -0.043 NA 
HETATM   22  H   UNL     2     -10.714   4.369  69.026  1.00  0.00     0.000 HD 
HETATM   23  C   UNL     3      -7.565   3.934  67.714  1.00  0.00    -0.067 C  
HETATM   24  O   UNL     2     -10.947   6.212  66.775  1.00  0.00    -0.333 OA 
HETATM   25  O   UNL     3      -7.872   3.085  66.871  1.00  0.00    -0.075 OA 
HETATM   26  N   UNL     3      -7.417   5.290  67.475  1.00  0.00    -0.083 N  
HETATM   27  C   UNL     3      -7.410   2.675  71.076  1.00  0.00    -0.033 A  
HETATM   28  H   UNL     3      -7.824   1.522  69.322  1.00  0.00     0.000 HD 
HETATM   29  C   UNL     2     -10.546   9.240  68.708  1.00  0.00    -0.193 C  
HETATM   30  N   UNL     2     -10.485   6.620  71.293  1.00  0.00    -0.213 NA 
HETATM   31  C   UNL     2     -10.118   8.875  66.342  1.00  0.00    -0.263 C  
HETATM   32  N   UNL     3      -7.085   3.930  71.290  1.00  0.00    -0.032 NA 
ENDROOT
BRANCH   2  33
HETATM   33  C   UNL     1      -5.675   9.286  68.860  1.00  0.00    -0.040 C  
HETATM   34  H2  UNL     1      -5.746  10.251  67.039  1.00  0.00     0.000 HD 
HETATM   35  N   UNL     1      -5.550   9.319  67.405  1.00  0.00    -0.041 NA 
HETATM   36  H1  UNL     1      -4.641   8.982  67.088  1.00  0.00     0.000 HD 
ENDBRANCH   2  33
TORSDOF 1
ENDMDL
MODEL       43
REMARK 921   NORMALIZED FREE ENERGY PREDICTED BY IDOCK:   -4.38 KCAL/MOL
REMARK 922        TOTAL FREE ENERGY PREDICTED BY IDOCK:   -5.00 KCAL/MOL
REMARK 923 INTER-LIGAND FREE ENERGY PREDICTED BY IDOCK:   -4.87 KCAL/MOL
REMARK 924 INTRA-LIGAND FREE ENERGY PREDICTED BY IDOCK:   -0.13 KCAL/MOL
REMARK 927      BINDING AFFINITY PREDICTED BY RF-SCORE:    0.00 PKD
ROOT
HETATM    1  N   UNL     1      -9.473   2.652  69.777  1.00  0.00    -0.117 NA 
HETATM    2  C   UNL     1      -8.916   3.868  69.177  1.00  0.00    -0.114 C  
HETATM    3  H1  UNL     1      -8.990   2.371  70.630  1.00  0.00     0.000 HD 
HETATM    4  C   UNL     2      -7.924   4.029  73.038  1.00  0.00    -0.085 C  
HETATM    5  H2  UNL     1      -9.492   1.889  69.101  1.00  0.00     0.000 HD 
HETATM    6  C   UNL     3     -11.148   6.184  70.370  1.00  0.00    -0.352 C  
HETATM    7  N   UNL     2      -7.431   5.227  72.394  1.00  0.00    -0.093 N  
HETATM    8  O   UNL     3      -8.524   6.568  69.191  1.00  0.00    -0.124 OA 
HETATM    9  N   UNL     3     -10.559   7.430  69.878  1.00  0.00    -0.232 N  
HETATM   10  O   UNL     2      -5.917   4.023  71.152  1.00  0.00    -0.013 OA 
HETATM   11  C   UNL     2      -7.989   6.459  72.634  1.00  0.00    -0.104 A  
HETATM   12  C   UNL     2      -7.470   7.585  72.080  1.00  0.00    -0.080 A  
HETATM   13  C   UNL     3      -9.317   7.505  69.242  1.00  0.00    -0.151 C  
HETATM   14  C   UNL     3     -11.141   8.609  70.252  1.00  0.00    -0.217 A  
HETATM   15  C   UNL     3      -7.681   8.752  67.938  1.00  0.00    -0.102 C  
HETATM   16  C   UNL     2      -6.366   7.586  71.191  1.00  0.00    -0.035 C  
HETATM   17  N   UNL     2      -8.286   8.601  72.480  1.00  0.00    -0.400 NA 
HETATM   18  C   UNL     3     -10.587   9.805  69.931  1.00  0.00    -0.265 A  
HETATM   19  C   UNL     2      -9.297   8.025  73.206  1.00  0.00    -0.275 A  
HETATM   20  N   UNL     2      -5.993   6.300  70.807  1.00  0.00    -0.029 N  
HETATM   21  N   UNL     3     -11.326  10.721  70.616  1.00  0.00    -0.421 NA 
HETATM   22  H   UNL     2      -8.168   9.594  72.279  1.00  0.00     0.000 HD 
HETATM   23  C   UNL     3      -9.448   9.952  69.108  1.00  0.00    -0.196 C  
HETATM   24  O   UNL     2      -5.853   8.625  70.789  1.00  0.00    -0.031 OA 
HETATM   25  O   UNL     3      -8.958  11.061  68.874  1.00  0.00    -0.168 OA 
HETATM   26  N   UNL     3      -8.922   8.738  68.699  1.00  0.00    -0.138 N  
HETATM   27  C   UNL     3     -12.277  10.030  71.322  1.00  0.00    -0.402 A  
HETATM   28  H   UNL     3     -11.196  11.732  70.605  1.00  0.00     0.000 HD 
HETATM   29  C   UNL     2      -6.415   5.114  71.438  1.00  0.00    -0.031 C  
HETATM   30  N   UNL     2      -9.110   6.729  73.356  1.00  0.00    -0.128 NA 
HETATM   31  C   UNL     2      -5.194   6.148  69.607  1.00  0.00    -0.012 C  
HETATM   32  N   UNL     3     -12.209   8.739  71.088  1.00  0.00    -0.276 NA 
ENDROOT
BRANCH   2  33
HETATM   33  C   UNL     1      -9.648   4.295  67.884  1.00  0.00    -0.152 C  
HETATM   34  H2  UNL     1      -8.791   2.842  66.699  1.00  0.00     0.000 HD 
HETATM   35  N   UNL     1      -8.951   3.849  66.681  1.00  0.00    -0.126 NA 
HETATM   36  H1  UNL     1      -9.434   4.130  65.827  1.00  0.00     0.000 HD 
ENDBRANCH   2  33
TORSDOF 1
ENDMDL
MODEL       44
REMARK 921   NORMALIZED FREE ENERGY PREDICTED BY IDOCK:   -4.37 KCAL/MOL
REMARK 922        TOTAL FREE ENERGY PREDICTED BY IDOCK:   -5.00 KCAL/MOL
REMARK 923 INTER-LIGAND FREE ENERGY PREDICTED BY IDOCK:   -4.89 KCAL/MOL
REMARK 924 INTRA-LIGAND FREE ENERGY PREDICTED BY IDOCK:   -0.10 KCAL/MOL
REMARK 927      BINDING AFFINITY PREDICTED BY RF-SCORE:    0.00 PKD
ROOT
HETATM    1  N   UNL     1     -11.479   9.846  67.710  1.00  0.00    -0.519 NA 
HETATM    2  C   UNL     1     -10.457   9.801  68.760  1.00  0.00    -0.218 C  
HETATM    3  H1  UNL     1     -11.209   9.336  66.869  1.00  0.00     0.000 HD 
HETATM    4  C   UNL     2      -9.800   6.589  66.488  1.00  0.00    -0.111 C  
HETATM    5  H2  UNL     1     -11.729  10.810  67.488  1.00  0.00     0.000 HD 
HETATM    6  C   UNL     3     -11.741   7.293  70.717  1.00  0.00    -0.299 C  
HETATM    7  N   UNL     2      -8.840   6.580  67.570  1.00  0.00    -0.113 N  
HETATM    8  O   UNL     3      -9.078   8.447  70.686  1.00  0.00    -0.145 OA 
HETATM    9  N   UNL     3     -10.687   7.145  71.721  1.00  0.00    -0.215 N  
HETATM   10  O   UNL     2      -7.795   8.459  66.753  1.00  0.00    -0.093 OA 
HETATM   11  C   UNL     2      -8.910   5.666  68.592  1.00  0.00    -0.109 A  
HETATM   12  C   UNL     2      -7.960   5.622  69.562  1.00  0.00    -0.092 A  
HETATM   13  C   UNL     3      -9.460   7.812  71.667  1.00  0.00    -0.144 C  
HETATM   14  C   UNL     3     -10.810   6.141  72.641  1.00  0.00    -0.245 A  
HETATM   15  C   UNL     3      -7.373   8.492  72.721  1.00  0.00    -0.003 C  
HETATM   16  C   UNL     2      -6.868   6.523  69.633  1.00  0.00    -0.065 C  
HETATM   17  N   UNL     2      -8.363   4.648  70.427  1.00  0.00    -0.074 NA 
HETATM   18  C   UNL     3      -9.822   5.869  73.529  1.00  0.00    -0.168 A  
HETATM   19  C   UNL     2      -9.573   4.196  69.966  1.00  0.00    -0.203 A  
HETATM   20  N   UNL     2      -6.978   7.563  68.712  1.00  0.00    -0.076 N  
HETATM   21  N   UNL     3     -10.214   4.717  74.139  1.00  0.00    -0.198 NA 
HETATM   22  H   UNL     2      -7.863   4.321  71.254  1.00  0.00     0.000 HD 
HETATM   23  C   UNL     3      -8.648   6.643  73.665  1.00  0.00    -0.123 C  
HETATM   24  O   UNL     2      -5.970   6.396  70.458  1.00  0.00    -0.022 OA 
HETATM   25  O   UNL     3      -7.758   6.334  74.464  1.00  0.00    -0.102 OA 
HETATM   26  N   UNL     3      -8.586   7.688  72.758  1.00  0.00    -0.120 N  
HETATM   27  C   UNL     3     -11.410   4.347  73.579  1.00  0.00    -0.245 A  
HETATM   28  H   UNL     3      -9.712   4.220  74.875  1.00  0.00     0.000 HD 
HETATM   29  C   UNL     2      -7.867   7.585  67.621  1.00  0.00    -0.113 C  
HETATM   30  N   UNL     2      -9.902   4.764  68.823  1.00  0.00    -0.165 NA 
HETATM   31  C   UNL     2      -6.199   8.764  68.940  1.00  0.00    -0.044 C  
HETATM   32  N   UNL     3     -11.815   5.222  72.686  1.00  0.00    -0.136 NA 
ENDROOT
BRANCH   2  33
HETATM   33  C   UNL     1     -10.865  10.574  70.036  1.00  0.00    -0.259 C  
HETATM   34  H2  UNL     1     -12.158  11.857  69.069  1.00  0.00     0.000 HD 
HETATM   35  N   UNL     1     -11.385  11.905  69.733  1.00  0.00    -0.478 NA 
HETATM   36  H1  UNL     1     -11.655  12.415  70.574  1.00  0.00     0.000 HD 
ENDBRANCH   2  33
TORSDOF 1
ENDMDL
MODEL       45
REMARK 921   NORMALIZED FREE ENERGY PREDICTED BY IDOCK:   -4.37 KCAL/MOL
REMARK 922        TOTAL FREE ENERGY PREDICTED BY IDOCK:   -4.99 KCAL/MOL
REMARK 923 INTER-LIGAND FREE ENERGY PREDICTED BY IDOCK:   -4.62 KCAL/MOL
REMARK 924 INTRA-LIGAND FREE ENERGY PREDICTED BY IDOCK:   -0.36 KCAL/MOL
REMARK 927      BINDING AFFINITY PREDICTED BY RF-SCORE:    0.00 PKD
ROOT
HETATM    1  N   UNL     1     -11.667   9.633  70.047  1.00  0.00    -0.443 NA 
HETATM    2  C   UNL     1     -10.997   8.391  70.442  1.00  0.00    -0.239 C  
HETATM    3  H1  UNL     1     -11.015  10.384  69.819  1.00  0.00     0.000 HD 
HETATM    4  C   UNL     2      -8.343  10.380  68.225  1.00  0.00    -0.119 C  
HETATM    5  H2  UNL     1     -12.331   9.932  70.761  1.00  0.00     0.000 HD 
HETATM    6  C   UNL     3     -11.148   6.675  67.476  1.00  0.00    -0.292 C  
HETATM    7  N   UNL     2      -7.750   9.120  68.617  1.00  0.00    -0.091 N  
HETATM    8  O   UNL     3      -9.522   6.180  69.828  1.00  0.00    -0.148 OA 
HETATM    9  N   UNL     3     -10.388   5.468  67.804  1.00  0.00    -0.195 N  
HETATM   10  O   UNL     2      -7.694   9.754  70.828  1.00  0.00    -0.308 OA 
HETATM   11  C   UNL     2      -7.533   8.109  67.714  1.00  0.00    -0.094 A  
HETATM   12  C   UNL     2      -6.909   6.960  68.081  1.00  0.00    -0.074 A  
HETATM   13  C   UNL     3      -9.702   5.283  69.007  1.00  0.00    -0.156 C  
HETATM   14  C   UNL     3     -10.150   4.566  66.804  1.00  0.00    -0.186 A  
HETATM   15  C   UNL     3      -8.522   3.834  70.568  1.00  0.00    -0.068 C  
HETATM   16  C   UNL     2      -6.480   6.688  69.404  1.00  0.00    -0.043 C  
HETATM   17  N   UNL     2      -6.908   6.172  66.969  1.00  0.00    -0.064 NA 
HETATM   18  C   UNL     3      -9.359   3.482  67.003  1.00  0.00    -0.194 A  
HETATM   19  C   UNL     2      -7.591   6.863  66.002  1.00  0.00    -0.093 A  
HETATM   20  N   UNL     2      -6.931   7.641  70.315  1.00  0.00    -0.050 N  
HETATM   21  N   UNL     3      -9.207   2.935  65.766  1.00  0.00    -0.252 NA 
HETATM   22  H   UNL     2      -6.483   5.249  66.875  1.00  0.00     0.000 HD 
HETATM   23  C   UNL     3      -8.809   3.126  68.255  1.00  0.00    -0.121 C  
HETATM   24  O   UNL     2      -5.826   5.689  69.685  1.00  0.00    -0.018 OA 
HETATM   25  O   UNL     3      -8.063   2.149  68.378  1.00  0.00    -0.056 OA 
HETATM   26  N   UNL     3      -9.122   4.030  69.256  1.00  0.00    -0.118 N  
HETATM   27  C   UNL     3      -9.903   3.723  64.885  1.00  0.00    -0.183 A  
HETATM   28  H   UNL     3      -8.675   2.096  65.536  1.00  0.00     0.000 HD 
HETATM   29  C   UNL     2      -7.470   8.895  69.970  1.00  0.00    -0.057 C  
HETATM   30  N   UNL     2      -7.937   8.066  66.415  1.00  0.00    -0.099 NA 
HETATM   31  C   UNL     2      -6.948   7.290  71.721  1.00  0.00    -0.059 C  
HETATM   32  N   UNL     3     -10.520   4.706  65.501  1.00  0.00    -0.234 NA 
ENDROOT
BRANCH   2  33
HETATM   33  C   UNL     1     -11.986   7.253  70.787  1.00  0.00    -0.272 C  
HETATM   34  H2  UNL     1     -11.495   7.182  72.788  1.00  0.00     0.000 HD 
HETATM   35  N   UNL     1     -11.605   6.540  72.003  1.00  0.00    -0.297 NA 
HETATM   36  H1  UNL     1     -12.258   5.789  72.231  1.00  0.00     0.000 HD 
ENDBRANCH   2  33
TORSDOF 1
ENDMDL
MODEL       46
REMARK 921   NORMALIZED FREE ENERGY PREDICTED BY IDOCK:   -4.35 KCAL/MOL
REMARK 922        TOTAL FREE ENERGY PREDICTED BY IDOCK:   -4.97 KCAL/MOL
REMARK 923 INTER-LIGAND FREE ENERGY PREDICTED BY IDOCK:   -4.82 KCAL/MOL
REMARK 924 INTRA-LIGAND FREE ENERGY PREDICTED BY IDOCK:   -0.16 KCAL/MOL
REMARK 927      BINDING AFFINITY PREDICTED BY RF-SCORE:    0.00 PKD
ROOT
HETATM    1  N   UNL     1     -10.065  11.758  68.952  1.00  0.00    -0.394 NA 
HETATM    2  C   UNL     1     -10.040  10.566  69.804  1.00  0.00    -0.081 C  
HETATM    3  H1  UNL     1      -9.134  12.120  68.745  1.00  0.00     0.000 HD 
HETATM    4  C   UNL     2      -6.477  10.675  68.014  1.00  0.00    -0.062 C  
HETATM    5  H2  UNL     1     -10.655  12.484  69.359  1.00  0.00     0.000 HD 
HETATM    6  C   UNL     3     -10.391   8.131  67.414  1.00  0.00    -0.281 C  
HETATM    7  N   UNL     2      -6.529   9.493  68.846  1.00  0.00    -0.046 N  
HETATM    8  O   UNL     3      -9.527   7.913  70.175  1.00  0.00    -0.160 OA 
HETATM    9  N   UNL     3     -10.261   6.917  68.220  1.00  0.00    -0.171 N  
HETATM   10  O   UNL     2      -6.583  10.759  70.766  1.00  0.00    -0.331 OA 
HETATM   11  C   UNL     2      -6.600   8.232  68.308  1.00  0.00    -0.060 A  
HETATM   12  C   UNL     2      -6.574   7.127  69.099  1.00  0.00    -0.044 A  
HETATM   13  C   UNL     3      -9.921   6.915  69.575  1.00  0.00    -0.164 C  
HETATM   14  C   UNL     3     -10.254   5.712  67.573  1.00  0.00    -0.202 A  
HETATM   15  C   UNL     3      -9.717   5.749  71.703  1.00  0.00    -0.161 C  
HETATM   16  C   UNL     2      -6.520   7.176  70.514  1.00  0.00    -0.047 C  
HETATM   17  N   UNL     2      -6.714   6.067  68.253  1.00  0.00    -0.058 NA 
HETATM   18  C   UNL     3     -10.023   4.553  68.238  1.00  0.00    -0.028 A  
HETATM   19  C   UNL     2      -6.882   6.591  66.998  1.00  0.00    -0.066 A  
HETATM   20  N   UNL     2      -6.683   8.470  71.007  1.00  0.00    -0.048 N  
HETATM   21  N   UNL     3      -9.908   3.612  67.261  1.00  0.00    -0.276 NA 
HETATM   22  H   UNL     2      -6.697   5.079  68.506  1.00  0.00     0.000 HD 
HETATM   23  C   UNL     3      -9.884   4.463  69.641  1.00  0.00    -0.202 C  
HETATM   24  O   UNL     2      -6.392   6.166  71.197  1.00  0.00    -0.041 OA 
HETATM   25  O   UNL     3      -9.637   3.388  70.199  1.00  0.00    -0.181 OA 
HETATM   26  N   UNL     3      -9.958   5.696  70.268  1.00  0.00    -0.192 N  
HETATM   27  C   UNL     3     -10.062   4.254  66.059  1.00  0.00    -0.197 A  
HETATM   28  H   UNL     3      -9.738   2.616  67.397  1.00  0.00     0.000 HD 
HETATM   29  C   UNL     2      -6.593   9.644  70.236  1.00  0.00    -0.091 C  
HETATM   30  N   UNL     2      -6.766   7.904  66.998  1.00  0.00    -0.066 NA 
HETATM   31  C   UNL     2      -7.076   8.630  72.393  1.00  0.00     0.013 C  
HETATM   32  N   UNL     3     -10.312   5.534  66.223  1.00  0.00    -0.189 NA 
ENDROOT
BRANCH   2  33
HETATM   33  C   UNL     1     -11.452  10.017  70.119  1.00  0.00    -0.277 C  
HETATM   34  H2  UNL     1     -12.205  10.353  68.229  1.00  0.00     0.000 HD 
HETATM   35  N   UNL     1     -12.462  10.533  69.199  1.00  0.00    -0.712 NA 
HETATM   36  H1  UNL     1     -13.394  10.171  69.406  1.00  0.00     0.000 HD 
ENDBRANCH   2  33
TORSDOF 1
ENDMDL
MODEL       47
REMARK 921   NORMALIZED FREE ENERGY PREDICTED BY IDOCK:   -4.28 KCAL/MOL
REMARK 922        TOTAL FREE ENERGY PREDICTED BY IDOCK:   -4.89 KCAL/MOL
REMARK 923 INTER-LIGAND FREE ENERGY PREDICTED BY IDOCK:   -4.58 KCAL/MOL
REMARK 924 INTRA-LIGAND FREE ENERGY PREDICTED BY IDOCK:   -0.31 KCAL/MOL
REMARK 927      BINDING AFFINITY PREDICTED BY RF-SCORE:    0.00 PKD
ROOT
HETATM    1  N   UNL     1      -6.159  10.973  64.955  1.00  0.00    -0.363 NA 
HETATM    2  C   UNL     1      -7.370  10.198  65.237  1.00  0.00    -0.141 C  
HETATM    3  H1  UNL     1      -6.090  11.824  65.514  1.00  0.00     0.000 HD 
HETATM    4  C   UNL     2      -6.707  12.374  68.514  1.00  0.00    -0.077 C  
HETATM    5  H2  UNL     1      -6.085  11.184  63.960  1.00  0.00     0.000 HD 
HETATM    6  C   UNL     3      -6.079   7.849  67.378  1.00  0.00    -0.050 C  
HETATM    7  N   UNL     2      -7.876  11.554  68.745  1.00  0.00    -0.137 N  
HETATM    8  O   UNL     3      -8.840   8.585  66.873  1.00  0.00    -0.131 OA 
HETATM    9  N   UNL     3      -7.287   7.121  67.767  1.00  0.00    -0.094 N  
HETATM   10  O   UNL     2      -9.083  12.705  67.160  1.00  0.00    -0.195 OA 
HETATM   11  C   UNL     2      -7.857  10.495  69.618  1.00  0.00    -0.086 A  
HETATM   12  C   UNL     2      -8.981   9.780  69.881  1.00  0.00    -0.229 A  
HETATM   13  C   UNL     3      -8.579   7.506  67.402  1.00  0.00    -0.118 C  
HETATM   14  C   UNL     3      -7.171   6.142  68.715  1.00  0.00    -0.084 A  
HETATM   15  C   UNL     3     -10.960   7.023  67.225  1.00  0.00    -0.302 C  
HETATM   16  C   UNL     2     -10.231  10.025  69.258  1.00  0.00    -0.214 C  
HETATM   17  N   UNL     2      -8.596   8.789  70.734  1.00  0.00    -0.168 NA 
HETATM   18  C   UNL     3      -8.261   5.503  69.208  1.00  0.00    -0.095 A  
HETATM   19  C   UNL     2      -7.240   8.920  70.894  1.00  0.00    -0.092 A  
HETATM   20  N   UNL     2     -10.135  10.950  68.221  1.00  0.00    -0.168 N  
HETATM   21  N   UNL     3      -7.782   4.752  70.238  1.00  0.00    -0.057 NA 
HETATM   22  H   UNL     2      -9.197   8.089  71.169  1.00  0.00     0.000 HD 
HETATM   23  C   UNL     3      -9.575   5.697  68.728  1.00  0.00    -0.131 C  
HETATM   24  O   UNL     2     -11.252   9.433  69.590  1.00  0.00    -0.189 OA 
HETATM   25  O   UNL     3     -10.541   5.119  69.235  1.00  0.00    -0.192 OA 
HETATM   26  N   UNL     3      -9.644   6.651  67.726  1.00  0.00    -0.123 N  
HETATM   27  C   UNL     3      -6.433   4.986  70.319  1.00  0.00    -0.031 A  
HETATM   28  H   UNL     3      -8.325   4.130  70.837  1.00  0.00     0.000 HD 
HETATM   29  C   UNL     2      -9.033  11.796  67.994  1.00  0.00    -0.176 C  
HETATM   30  N   UNL     2      -6.776   9.981  70.265  1.00  0.00    -0.122 NA 
HETATM   31  C   UNL     2     -11.196  10.985  67.234  1.00  0.00    -0.258 C  
HETATM   32  N   UNL     3      -6.028   5.805  69.375  1.00  0.00    -0.026 NA 
ENDROOT
BRANCH   2  33
HETATM   33  C   UNL     1      -7.475   8.908  64.390  1.00  0.00    -0.106 C  
HETATM   34  H2  UNL     1      -8.868   9.666  63.072  1.00  0.00     0.000 HD 
HETATM   35  N   UNL     1      -8.730   8.835  63.647  1.00  0.00    -0.428 NA 
HETATM   36  H1  UNL     1      -8.799   7.984  63.088  1.00  0.00     0.000 HD 
ENDBRANCH   2  33
TORSDOF 1
ENDMDL
MODEL       48
REMARK 921   NORMALIZED FREE ENERGY PREDICTED BY IDOCK:   -4.24 KCAL/MOL
REMARK 922        TOTAL FREE ENERGY PREDICTED BY IDOCK:   -4.86 KCAL/MOL
REMARK 923 INTER-LIGAND FREE ENERGY PREDICTED BY IDOCK:   -4.72 KCAL/MOL
REMARK 924 INTRA-LIGAND FREE ENERGY PREDICTED BY IDOCK:   -0.14 KCAL/MOL
REMARK 927      BINDING AFFINITY PREDICTED BY RF-SCORE:    0.00 PKD
ROOT
HETATM    1  N   UNL     1     -11.816   7.647  73.174  1.00  0.00    -0.610 NA 
HETATM    2  C   UNL     1     -11.333   6.844  72.047  1.00  0.00    -0.265 C  
HETATM    3  H1  UNL     1     -11.122   7.754  73.915  1.00  0.00     0.000 HD 
HETATM    4  C   UNL     2      -8.060   8.296  73.806  1.00  0.00    -0.192 C  
HETATM    5  H2  UNL     1     -12.687   7.268  73.544  1.00  0.00     0.000 HD 
HETATM    6  C   UNL     3     -10.438   9.352  69.884  1.00  0.00    -0.233 C  
HETATM    7  N   UNL     2      -7.649   7.520  72.657  1.00  0.00    -0.080 N  
HETATM    8  O   UNL     3      -9.746   6.534  69.850  1.00  0.00    -0.163 OA 
HETATM    9  N   UNL     3      -9.848   8.586  68.786  1.00  0.00    -0.168 N  
HETATM   10  O   UNL     2      -8.371   5.564  73.630  1.00  0.00    -0.112 OA 
HETATM   11  C   UNL     2      -7.132   8.112  71.531  1.00  0.00    -0.075 A  
HETATM   12  C   UNL     2      -6.682   7.367  70.488  1.00  0.00    -0.047 A  
HETATM   13  C   UNL     3      -9.630   7.207  68.828  1.00  0.00    -0.144 C  
HETATM   14  C   UNL     3      -9.277   9.277  67.753  1.00  0.00    -0.129 A  
HETATM   15  C   UNL     3      -9.081   5.117  67.705  1.00  0.00    -0.111 C  
HETATM   16  C   UNL     2      -6.747   5.951  70.449  1.00  0.00    -0.049 C  
HETATM   17  N   UNL     2      -6.293   8.263  69.537  1.00  0.00    -0.033 NA 
HETATM   18  C   UNL     3      -8.611   8.640  66.758  1.00  0.00    -0.120 A  
HETATM   19  C   UNL     2      -6.589   9.507  70.031  1.00  0.00    -0.065 A  
HETATM   20  N   UNL     2      -7.485   5.424  71.507  1.00  0.00    -0.098 N  
HETATM   21  N   UNL     3      -8.037   9.639  66.033  1.00  0.00    -0.111 NA 
HETATM   22  H   UNL     2      -5.867   8.049  68.636  1.00  0.00     0.000 HD 
HETATM   23  C   UNL     3      -8.539   7.235  66.631  1.00  0.00    -0.128 C  
HETATM   24  O   UNL     2      -6.239   5.300  69.543  1.00  0.00    -0.023 OA 
HETATM   25  O   UNL     3      -7.888   6.700  65.727  1.00  0.00    -0.094 OA 
HETATM   26  N   UNL     3      -9.180   6.569  67.662  1.00  0.00    -0.114 N  
HETATM   27  C   UNL     3      -8.375  10.824  66.636  1.00  0.00    -0.141 A  
HETATM   28  H   UNL     3      -7.462   9.528  65.199  1.00  0.00     0.000 HD 
HETATM   29  C   UNL     2      -7.864   6.136  72.661  1.00  0.00    -0.103 C  
HETATM   30  N   UNL     2      -7.053   9.444  71.264  1.00  0.00    -0.312 NA 
HETATM   31  C   UNL     2      -7.998   4.075  71.378  1.00  0.00    -0.072 C  
HETATM   32  N   UNL     3      -9.164  10.632  67.669  1.00  0.00    -0.146 NA 
ENDROOT
BRANCH   2  33
HETATM   33  C   UNL     1     -12.385   6.683  70.925  1.00  0.00    -0.201 C  
HETATM   34  H2  UNL     1     -13.453   8.372  71.429  1.00  0.00     0.000 HD 
HETATM   35  N   UNL     1     -13.628   7.388  71.226  1.00  0.00    -0.580 NA 
HETATM   36  H1  UNL     1     -14.321   7.282  70.486  1.00  0.00     0.000 HD 
ENDBRANCH   2  33
TORSDOF 1
ENDMDL
MODEL       49
REMARK 921   NORMALIZED FREE ENERGY PREDICTED BY IDOCK:   -4.24 KCAL/MOL
REMARK 922        TOTAL FREE ENERGY PREDICTED BY IDOCK:   -4.86 KCAL/MOL
REMARK 923 INTER-LIGAND FREE ENERGY PREDICTED BY IDOCK:   -4.51 KCAL/MOL
REMARK 924 INTRA-LIGAND FREE ENERGY PREDICTED BY IDOCK:   -0.35 KCAL/MOL
REMARK 927      BINDING AFFINITY PREDICTED BY RF-SCORE:    0.00 PKD
ROOT
HETATM    1  N   UNL     1      -5.236   8.710  70.620  1.00  0.00    -0.021 NA 
HETATM    2  C   UNL     1      -6.437   8.722  69.781  1.00  0.00    -0.038 C  
HETATM    3  H1  UNL     1      -5.441   8.553  71.607  1.00  0.00     0.000 HD 
HETATM    4  C   UNL     2      -7.417   6.607  73.018  1.00  0.00    -0.088 C  
HETATM    5  H2  UNL     1      -4.694   9.565  70.492  1.00  0.00     0.000 HD 
HETATM    6  C   UNL     3      -6.336   5.514  68.569  1.00  0.00    -0.038 C  
HETATM    7  N   UNL     2      -8.556   6.624  72.128  1.00  0.00    -0.119 N  
HETATM    8  O   UNL     3      -8.517   7.429  68.578  1.00  0.00    -0.125 OA 
HETATM    9  N   UNL     3      -7.585   5.455  67.809  1.00  0.00    -0.087 N  
HETATM   10  O   UNL     2      -8.853   8.884  72.436  1.00  0.00    -0.396 OA 
HETATM   11  C   UNL     2      -8.961   5.502  71.448  1.00  0.00    -0.139 A  
HETATM   12  C   UNL     2     -10.076   5.513  70.673  1.00  0.00    -0.223 A  
HETATM   13  C   UNL     3      -8.544   6.471  67.808  1.00  0.00    -0.117 C  
HETATM   14  C   UNL     3      -7.940   4.261  67.247  1.00  0.00    -0.096 A  
HETATM   15  C   UNL     3     -10.551   7.485  66.871  1.00  0.00    -0.297 C  
HETATM   16  C   UNL     2     -10.874   6.665  70.462  1.00  0.00    -0.261 C  
HETATM   17  N   UNL     2     -10.150   4.271  70.116  1.00  0.00    -0.127 NA 
HETATM   18  C   UNL     3      -9.136   4.098  66.626  1.00  0.00    -0.135 A  
HETATM   19  C   UNL     2      -9.036   3.591  70.536  1.00  0.00    -0.093 A  
HETATM   20  N   UNL     2     -10.290   7.818  70.984  1.00  0.00    -0.202 N  
HETATM   21  N   UNL     3      -9.211   2.764  66.367  1.00  0.00    -0.305 NA 
HETATM   22  H   UNL     2     -10.888   3.917  69.508  1.00  0.00     0.000 HD 
HETATM   23  C   UNL     3     -10.059   5.145  66.405  1.00  0.00    -0.239 C  
HETATM   24  O   UNL     2     -11.932   6.622  69.844  1.00  0.00    -0.301 OA 
HETATM   25  O   UNL     3     -11.152   4.940  65.868  1.00  0.00    -0.178 OA 
HETATM   26  N   UNL     3      -9.637   6.353  66.935  1.00  0.00    -0.144 N  
HETATM   27  C   UNL     3      -8.065   2.190  66.855  1.00  0.00    -0.077 A  
HETATM   28  H   UNL     3      -9.976   2.281  65.897  1.00  0.00     0.000 HD 
HETATM   29  C   UNL     2      -9.211   7.838  71.888  1.00  0.00    -0.141 C  
HETATM   30  N   UNL     2      -8.323   4.301  71.388  1.00  0.00    -0.089 NA 
HETATM   31  C   UNL     2     -10.749   9.101  70.491  1.00  0.00    -0.238 C  
HETATM   32  N   UNL     3      -7.254   3.090  67.365  1.00  0.00    -0.053 NA 
ENDROOT
BRANCH   2  33
HETATM   33  C   UNL     1      -6.128   8.960  68.284  1.00  0.00    -0.053 C  
HETATM   34  H2  UNL     1      -7.274  10.666  68.128  1.00  0.00     0.000 HD 
HETATM   35  N   UNL     1      -7.143   9.784  67.634  1.00  0.00    -0.087 NA 
HETATM   36  H1  UNL     1      -6.939   9.941  66.647  1.00  0.00     0.000 HD 
ENDBRANCH   2  33
TORSDOF 1
ENDMDL
MODEL       50
REMARK 921   NORMALIZED FREE ENERGY PREDICTED BY IDOCK:   -4.23 KCAL/MOL
REMARK 922        TOTAL FREE ENERGY PREDICTED BY IDOCK:   -4.84 KCAL/MOL
REMARK 923 INTER-LIGAND FREE ENERGY PREDICTED BY IDOCK:   -4.48 KCAL/MOL
REMARK 924 INTRA-LIGAND FREE ENERGY PREDICTED BY IDOCK:   -0.36 KCAL/MOL
REMARK 927      BINDING AFFINITY PREDICTED BY RF-SCORE:    0.00 PKD
ROOT
HETATM    1  N   UNL     1      -5.208  11.410  70.588  1.00  0.00    -0.105 NA 
HETATM    2  C   UNL     1      -6.455  11.650  69.858  1.00  0.00    -0.085 C  
HETATM    3  H1  UNL     1      -5.221  10.543  71.127  1.00  0.00     0.000 HD 
HETATM    4  C   UNL     2      -6.297   7.706  70.438  1.00  0.00    -0.038 C  
HETATM    5  H2  UNL     1      -4.977  12.205  71.184  1.00  0.00     0.000 HD 
HETATM    6  C   UNL     3      -5.536  10.528  66.748  1.00  0.00    -0.046 C  
HETATM    7  N   UNL     2      -7.495   8.004  69.684  1.00  0.00    -0.088 N  
HETATM    8  O   UNL     3      -8.178  11.059  67.826  1.00  0.00    -0.114 OA 
HETATM    9  N   UNL     3      -6.796  10.651  66.015  1.00  0.00    -0.133 N  
HETATM   10  O   UNL     2      -8.428   9.114  71.469  1.00  0.00    -0.333 OA 
HETATM   11  C   UNL     2      -7.622   7.660  68.361  1.00  0.00    -0.113 A  
HETATM   12  C   UNL     2      -8.780   7.879  67.685  1.00  0.00    -0.126 A  
HETATM   13  C   UNL     3      -8.012  10.998  66.609  1.00  0.00    -0.156 C  
HETATM   14  C   UNL     3      -6.839  10.193  64.727  1.00  0.00    -0.121 A  
HETATM   15  C   UNL     3     -10.339  11.690  66.418  1.00  0.00    -0.230 C  
HETATM   16  C   UNL     2      -9.914   8.510  68.255  1.00  0.00    -0.184 C  
HETATM   17  N   UNL     2      -8.541   7.473  66.406  1.00  0.00    -0.133 NA 
HETATM   18  C   UNL     3      -7.998  10.168  64.023  1.00  0.00    -0.154 A  
HETATM   19  C   UNL     2      -7.227   7.086  66.360  1.00  0.00    -0.075 A  
HETATM   20  N   UNL     2      -9.648   9.041  69.516  1.00  0.00    -0.162 N  
HETATM   21  N   UNL     3      -7.693   9.491  62.882  1.00  0.00    -0.115 NA 
HETATM   22  H   UNL     2      -9.210   7.459  65.636  1.00  0.00     0.000 HD 
HETATM   23  C   UNL     3      -9.219  10.702  64.494  1.00  0.00    -0.231 C  
HETATM   24  O   UNL     2     -10.980   8.601  67.656  1.00  0.00    -0.096 OA 
HETATM   25  O   UNL     3     -10.257  10.623  63.830  1.00  0.00    -0.337 OA 
HETATM   26  N   UNL     3      -9.121  11.213  65.778  1.00  0.00    -0.205 N  
HETATM   27  C   UNL     3      -6.373   9.132  62.963  1.00  0.00    -0.090 A  
HETATM   28  H   UNL     3      -8.329   9.288  62.111  1.00  0.00     0.000 HD 
HETATM   29  C   UNL     2      -8.517   8.739  70.297  1.00  0.00    -0.149 C  
HETATM   30  N   UNL     2      -6.660   7.142  67.549  1.00  0.00    -0.057 NA 
HETATM   31  C   UNL     2     -10.540  10.061  70.031  1.00  0.00    -0.293 C  
HETATM   32  N   UNL     3      -5.817   9.581  64.066  1.00  0.00    -0.080 NA 
ENDROOT
BRANCH   2  33
HETATM   33  C   UNL     1      -6.436  12.963  69.042  1.00  0.00    -0.103 C  
HETATM   34  H2  UNL     1      -7.839  13.925  70.207  1.00  0.00     0.000 HD 
HETATM   35  N   UNL     1      -7.658  13.743  69.220  1.00  0.00    -0.330 NA 
HETATM   36  H1  UNL     1      -7.645  14.610  68.682  1.00  0.00     0.000 HD 
ENDBRANCH   2  33
TORSDOF 1
ENDMDL
MODEL       51
REMARK 921   NORMALIZED FREE ENERGY PREDICTED BY IDOCK:   -4.18 KCAL/MOL
REMARK 922        TOTAL FREE ENERGY PREDICTED BY IDOCK:   -4.78 KCAL/MOL
REMARK 923 INTER-LIGAND FREE ENERGY PREDICTED BY IDOCK:   -4.49 KCAL/MOL
REMARK 924 INTRA-LIGAND FREE ENERGY PREDICTED BY IDOCK:   -0.30 KCAL/MOL
REMARK 927      BINDING AFFINITY PREDICTED BY RF-SCORE:    0.00 PKD
ROOT
HETATM    1  N   UNL     1      -8.835  12.098  68.865  1.00  0.00    -0.372 NA 
HETATM    2  C   UNL     1      -9.542  10.819  68.759  1.00  0.00    -0.189 C  
HETATM    3  H1  UNL     1      -8.106  12.093  69.579  1.00  0.00     0.000 HD 
HETATM    4  C   UNL     2      -5.987   9.946  70.344  1.00  0.00    -0.075 C  
HETATM    5  H2  UNL     1      -9.490  12.864  69.020  1.00  0.00     0.000 HD 
HETATM    6  C   UNL     3      -7.898   9.463  66.070  1.00  0.00    -0.099 C  
HETATM    7  N   UNL     2      -6.723   8.712  70.178  1.00  0.00    -0.038 N  
HETATM    8  O   UNL     3      -9.616   8.190  68.032  1.00  0.00    -0.151 OA 
HETATM    9  N   UNL     3      -8.507   8.134  66.002  1.00  0.00    -0.133 N  
HETATM   10  O   UNL     2      -8.262   9.334  71.771  1.00  0.00    -0.287 OA 
HETATM   11  C   UNL     2      -6.370   7.780  69.234  1.00  0.00    -0.035 A  
HETATM   12  C   UNL     2      -7.025   6.593  69.139  1.00  0.00    -0.078 A  
HETATM   13  C   UNL     3      -9.397   7.636  66.957  1.00  0.00    -0.157 C  
HETATM   14  C   UNL     3      -8.018   7.249  65.082  1.00  0.00    -0.128 A  
HETATM   15  C   UNL     3     -11.025   5.969  67.665  1.00  0.00    -0.234 C  
HETATM   16  C   UNL     2      -8.131   6.240  69.951  1.00  0.00    -0.120 C  
HETATM   17  N   UNL     2      -6.459   5.946  68.081  1.00  0.00    -0.044 NA 
HETATM   18  C   UNL     3      -8.452   5.964  65.037  1.00  0.00    -0.111 A  
HETATM   19  C   UNL     2      -5.532   6.805  67.550  1.00  0.00    -0.009 A  
HETATM   20  N   UNL     2      -8.585   7.306  70.723  1.00  0.00    -0.143 N  
HETATM   21  N   UNL     3      -7.625   5.353  64.144  1.00  0.00    -0.071 NA 
HETATM   22  H   UNL     2      -6.682   5.007  67.749  1.00  0.00     0.000 HD 
HETATM   23  C   UNL     3      -9.502   5.457  65.834  1.00  0.00    -0.122 C  
HETATM   24  O   UNL     2      -8.636   5.122  69.915  1.00  0.00    -0.097 OA 
HETATM   25  O   UNL     3      -9.837   4.269  65.783  1.00  0.00    -0.190 OA 
HETATM   26  N   UNL     3     -10.014   6.400  66.710  1.00  0.00    -0.170 N  
HETATM   27  C   UNL     3      -6.729   6.296  63.709  1.00  0.00    -0.037 A  
HETATM   28  H   UNL     3      -7.665   4.377  63.853  1.00  0.00     0.000 HD 
HETATM   29  C   UNL     2      -7.876   8.503  70.944  1.00  0.00    -0.107 C  
HETATM   30  N   UNL     2      -5.423   7.907  68.266  1.00  0.00    -0.031 NA 
HETATM   31  C   UNL     2      -9.929   7.238  71.262  1.00  0.00    -0.188 C  
HETATM   32  N   UNL     3      -6.971   7.473  64.240  1.00  0.00    -0.058 NA 
ENDROOT
BRANCH   2  33
HETATM   33  C   UNL     1     -10.648  10.826  67.677  1.00  0.00    -0.231 C  
HETATM   34  H2  UNL     1     -12.205  11.069  69.006  1.00  0.00     0.000 HD 
HETATM   35  N   UNL     1     -11.955  10.469  68.221  1.00  0.00    -0.784 NA 
HETATM   36  H1  UNL     1     -12.685  10.474  67.507  1.00  0.00     0.000 HD 
ENDBRANCH   2  33
TORSDOF 1
ENDMDL
MODEL       52
REMARK 921   NORMALIZED FREE ENERGY PREDICTED BY IDOCK:   -4.17 KCAL/MOL
REMARK 922        TOTAL FREE ENERGY PREDICTED BY IDOCK:   -4.78 KCAL/MOL
REMARK 923 INTER-LIGAND FREE ENERGY PREDICTED BY IDOCK:   -4.67 KCAL/MOL
REMARK 924 INTRA-LIGAND FREE ENERGY PREDICTED BY IDOCK:   -0.10 KCAL/MOL
REMARK 927      BINDING AFFINITY PREDICTED BY RF-SCORE:    0.00 PKD
ROOT
HETATM    1  N   UNL     1      -8.288  11.461  68.866  1.00  0.00    -0.336 NA 
HETATM    2  C   UNL     1      -7.471  10.281  69.159  1.00  0.00    -0.105 C  
HETATM    3  H1  UNL     1      -8.879  11.343  68.043  1.00  0.00     0.000 HD 
HETATM    4  C   UNL     2     -10.582   8.932  67.058  1.00  0.00    -0.209 C  
HETATM    5  H2  UNL     1      -7.706  12.295  68.779  1.00  0.00     0.000 HD 
HETATM    6  C   UNL     3      -9.389   8.837  71.610  1.00  0.00    -0.275 C  
HETATM    7  N   UNL     2      -9.752   7.802  67.413  1.00  0.00    -0.153 N  
HETATM    8  O   UNL     3      -7.229   7.708  70.035  1.00  0.00    -0.068 OA 
HETATM    9  N   UNL     3      -8.657   7.594  71.853  1.00  0.00    -0.107 N  
HETATM   10  O   UNL     2      -8.042   8.545  66.065  1.00  0.00    -0.102 OA 
HETATM   11  C   UNL     2     -10.155   6.869  68.336  1.00  0.00    -0.168 A  
HETATM   12  C   UNL     2      -9.398   5.774  68.605  1.00  0.00    -0.122 A  
HETATM   13  C   UNL     3      -7.566   7.172  71.088  1.00  0.00    -0.085 C  
HETATM   14  C   UNL     3      -9.194   6.690  72.727  1.00  0.00    -0.135 A  
HETATM   15  C   UNL     3      -5.665   5.686  70.754  1.00  0.00    -0.016 C  
HETATM   16  C   UNL     2      -8.137   5.525  68.009  1.00  0.00    -0.096 C  
HETATM   17  N   UNL     2     -10.061   5.102  69.589  1.00  0.00    -0.242 NA 
HETATM   18  C   UNL     3      -8.633   5.470  72.916  1.00  0.00    -0.119 A  
HETATM   19  C   UNL     2     -11.156   5.863  69.910  1.00  0.00    -0.347 A  
HETATM   20  N   UNL     2      -7.679   6.610  67.264  1.00  0.00    -0.103 N  
HETATM   21  N   UNL     3      -9.527   4.797  73.692  1.00  0.00    -0.124 NA 
HETATM   22  H   UNL     2      -9.795   4.210  70.005  1.00  0.00     0.000 HD 
HETATM   23  C   UNL     3      -7.412   5.063  72.333  1.00  0.00    -0.094 C  
HETATM   24  O   UNL     2      -7.524   4.479  68.191  1.00  0.00    -0.065 OA 
HETATM   25  O   UNL     3      -6.960   3.927  72.506  1.00  0.00    -0.043 OA 
HETATM   26  N   UNL     3      -6.867   6.028  71.503  1.00  0.00    -0.065 N  
HETATM   27  C   UNL     3     -10.584   5.641  73.919  1.00  0.00    -0.256 A  
HETATM   28  H   UNL     3      -9.429   3.843  74.040  1.00  0.00     0.000 HD 
HETATM   29  C   UNL     2      -8.469   7.704  66.862  1.00  0.00    -0.126 C  
HETATM   30  N   UNL     2     -11.262   6.918  69.125  1.00  0.00    -0.156 NA 
HETATM   31  C   UNL     2      -6.264   6.683  66.960  1.00  0.00    -0.040 C  
HETATM   32  N   UNL     3     -10.388   6.819  73.370  1.00  0.00    -0.263 NA 
ENDROOT
BRANCH   2  33
HETATM   33  C   UNL     1      -6.575  10.460  70.407  1.00  0.00    -0.119 C  
HETATM   34  H2  UNL     1      -7.075  12.437  70.711  1.00  0.00     0.000 HD 
HETATM   35  N   UNL     1      -6.237  11.860  70.649  1.00  0.00    -0.536 NA 
HETATM   36  H1  UNL     1      -5.646  11.979  71.472  1.00  0.00     0.000 HD 
ENDBRANCH   2  33
TORSDOF 1
ENDMDL
MODEL       53
REMARK 921   NORMALIZED FREE ENERGY PREDICTED BY IDOCK:   -4.16 KCAL/MOL
REMARK 922        TOTAL FREE ENERGY PREDICTED BY IDOCK:   -4.77 KCAL/MOL
REMARK 923 INTER-LIGAND FREE ENERGY PREDICTED BY IDOCK:   -4.67 KCAL/MOL
REMARK 924 INTRA-LIGAND FREE ENERGY PREDICTED BY IDOCK:   -0.11 KCAL/MOL
REMARK 927      BINDING AFFINITY PREDICTED BY RF-SCORE:    0.00 PKD
ROOT
HETATM    1  N   UNL     1     -11.366   6.102  73.275  1.00  0.00    -0.459 NA 
HETATM    2  C   UNL     1     -11.428   6.022  71.814  1.00  0.00    -0.253 C  
HETATM    3  H1  UNL     1     -10.584   5.578  73.671  1.00  0.00     0.000 HD 
HETATM    4  C   UNL     2      -7.622   5.297  72.762  1.00  0.00    -0.097 C  
HETATM    5  H2  UNL     1     -12.249   5.810  73.694  1.00  0.00     0.000 HD 
HETATM    6  C   UNL     3      -9.932   9.000  71.000  1.00  0.00    -0.279 C  
HETATM    7  N   UNL     2      -7.742   5.268  71.321  1.00  0.00    -0.099 N  
HETATM    8  O   UNL     3     -10.459   6.673  69.348  1.00  0.00    -0.194 OA 
HETATM    9  N   UNL     3      -9.879   8.905  69.541  1.00  0.00    -0.176 N  
HETATM   10  O   UNL     2      -9.038   3.370  71.395  1.00  0.00    -0.095 OA 
HETATM   11  C   UNL     2      -7.207   6.256  70.531  1.00  0.00    -0.080 A  
HETATM   12  C   UNL     2      -7.262   6.179  69.176  1.00  0.00    -0.083 A  
HETATM   13  C   UNL     3     -10.236   7.762  68.822  1.00  0.00    -0.201 C  
HETATM   14  C   UNL     3      -9.241   9.900  68.854  1.00  0.00    -0.160 A  
HETATM   15  C   UNL     3     -10.761   6.669  66.709  1.00  0.00    -0.259 C  
HETATM   16  C   UNL     2      -7.902   5.126  68.475  1.00  0.00    -0.079 C  
HETATM   17  N   UNL     2      -6.693   7.330  68.719  1.00  0.00    -0.064 NA 
HETATM   18  C   UNL     3      -9.051   9.825  67.513  1.00  0.00    -0.130 A  
HETATM   19  C   UNL     2      -6.379   8.074  69.826  1.00  0.00    -0.036 A  
HETATM   20  N   UNL     2      -8.620   4.284  69.322  1.00  0.00    -0.080 N  
HETATM   21  N   UNL     3      -8.237  10.877  67.221  1.00  0.00    -0.121 NA 
HETATM   22  H   UNL     2      -6.532   7.586  67.744  1.00  0.00     0.000 HD 
HETATM   23  C   UNL     3      -9.576   8.797  66.698  1.00  0.00    -0.220 C  
HETATM   24  O   UNL     2      -7.847   5.027  67.254  1.00  0.00    -0.094 OA 
HETATM   25  O   UNL     3      -9.344   8.752  65.486  1.00  0.00    -0.192 OA 
HETATM   26  N   UNL     3     -10.268   7.840  67.421  1.00  0.00    -0.225 N  
HETATM   27  C   UNL     3      -7.969  11.523  68.400  1.00  0.00    -0.143 A  
HETATM   28  H   UNL     3      -7.892  11.136  66.297  1.00  0.00     0.000 HD 
HETATM   29  C   UNL     2      -8.496   4.252  70.723  1.00  0.00    -0.078 C  
HETATM   30  N   UNL     2      -6.635   7.420  70.942  1.00  0.00    -0.043 NA 
HETATM   31  C   UNL     2      -9.650   3.445  68.741  1.00  0.00    -0.050 C  
HETATM   32  N   UNL     3      -8.601  10.967  69.410  1.00  0.00     0.087 NA 
ENDROOT
BRANCH   2  33
HETATM   33  C   UNL     1     -12.612   6.816  71.214  1.00  0.00    -0.276 C  
HETATM   34  H2  UNL     1     -13.233   7.608  73.013  1.00  0.00     0.000 HD 
HETATM   35  N   UNL     1     -13.634   7.122  72.211  1.00  0.00    -0.487 NA 
HETATM   36  H1  UNL     1     -14.415   7.646  71.816  1.00  0.00     0.000 HD 
ENDBRANCH   2  33
TORSDOF 1
ENDMDL
MODEL       54
REMARK 921   NORMALIZED FREE ENERGY PREDICTED BY IDOCK:   -4.12 KCAL/MOL
REMARK 922        TOTAL FREE ENERGY PREDICTED BY IDOCK:   -4.73 KCAL/MOL
REMARK 923 INTER-LIGAND FREE ENERGY PREDICTED BY IDOCK:   -4.37 KCAL/MOL
REMARK 924 INTRA-LIGAND FREE ENERGY PREDICTED BY IDOCK:   -0.36 KCAL/MOL
REMARK 927      BINDING AFFINITY PREDICTED BY RF-SCORE:    0.00 PKD
ROOT
HETATM    1  N   UNL     1      -7.542   5.816  65.457  1.00  0.00    -0.081 NA 
HETATM    2  C   UNL     1      -8.660   6.484  66.129  1.00  0.00    -0.145 C  
HETATM    3  H1  UNL     1      -6.886   6.470  65.029  1.00  0.00     0.000 HD 
HETATM    4  C   UNL     2      -5.709   9.167  66.043  1.00  0.00    -0.049 C  
HETATM    5  H2  UNL     1      -7.881   5.141  64.772  1.00  0.00     0.000 HD 
HETATM    6  C   UNL     3      -7.537   6.383  69.369  1.00  0.00    -0.095 C  
HETATM    7  N   UNL     2      -6.836   9.756  66.732  1.00  0.00    -0.082 N  
HETATM    8  O   UNL     3      -9.656   7.974  68.187  1.00  0.00    -0.149 OA 
HETATM    9  N   UNL     3      -8.581   7.141  70.059  1.00  0.00    -0.140 N  
HETATM   10  O   UNL     2      -8.094   9.777  64.806  1.00  0.00    -0.131 OA 
HETATM   11  C   UNL     2      -6.815   9.990  68.085  1.00  0.00    -0.064 A  
HETATM   12  C   UNL     2      -7.850  10.612  68.707  1.00  0.00    -0.125 A  
HETATM   13  C   UNL     3      -9.619   7.808  69.404  1.00  0.00    -0.156 C  
HETATM   14  C   UNL     3      -8.418   7.397  71.392  1.00  0.00    -0.113 A  
HETATM   15  C   UNL     3     -11.760   8.969  69.466  1.00  0.00     0.617 C  
HETATM   16  C   UNL     2      -9.033  11.021  68.043  1.00  0.00    -0.145 C  
HETATM   17  N   UNL     2      -7.525  10.632  70.031  1.00  0.00    -0.398 NA 
HETATM   18  C   UNL     3      -9.284   8.188  72.072  1.00  0.00    -0.191 A  
HETATM   19  C   UNL     2      -6.334   9.962  70.148  1.00  0.00    -0.084 A  
HETATM   20  N   UNL     2      -9.095  10.553  66.732  1.00  0.00    -0.150 N  
HETATM   21  N   UNL     3      -8.708   8.360  73.294  1.00  0.00    -0.335 NA 
HETATM   22  H   UNL     2      -8.061  11.061  70.784  1.00  0.00     0.000 HD 
HETATM   23  C   UNL     3     -10.470   8.719  71.518  1.00  0.00    -0.303 C  
HETATM   24  O   UNL     2      -9.906  11.672  68.607  1.00  0.00    -0.203 OA 
HETATM   25  O   UNL     3     -11.210   9.466  72.167  1.00  0.00    -0.177 OA 
HETATM   26  N   UNL     3     -10.633   8.388  70.183  1.00  0.00    -0.229 N  
HETATM   27  C   UNL     3      -7.519   7.675  73.282  1.00  0.00    -0.103 A  
HETATM   28  H   UNL     3      -9.088   8.897  74.072  1.00  0.00     0.000 HD 
HETATM   29  C   UNL     2      -8.009  10.016  66.014  1.00  0.00    -0.118 C  
HETATM   30  N   UNL     2      -5.857   9.606  68.972  1.00  0.00    -0.036 NA 
HETATM   31  C   UNL     2     -10.388  10.515  66.078  1.00  0.00    -0.211 C  
HETATM   32  N   UNL     3      -7.336   7.047  72.142  1.00  0.00    -0.081 NA 
ENDROOT
BRANCH   2  33
HETATM   33  C   UNL     1      -9.655   5.493  66.778  1.00  0.00    -0.146 C  
HETATM   34  H2  UNL     1     -11.200   5.905  65.475  1.00  0.00     0.000 HD 
HETATM   35  N   UNL     1     -11.045   5.831  66.480  1.00  0.00    -0.744 NA 
HETATM   36  H1  UNL     1     -11.701   5.177  66.908  1.00  0.00     0.000 HD 
ENDBRANCH   2  33
TORSDOF 1
ENDMDL
MODEL       55
REMARK 921   NORMALIZED FREE ENERGY PREDICTED BY IDOCK:   -4.08 KCAL/MOL
REMARK 922        TOTAL FREE ENERGY PREDICTED BY IDOCK:   -4.68 KCAL/MOL
REMARK 923 INTER-LIGAND FREE ENERGY PREDICTED BY IDOCK:   -4.33 KCAL/MOL
REMARK 924 INTRA-LIGAND FREE ENERGY PREDICTED BY IDOCK:   -0.36 KCAL/MOL
REMARK 927      BINDING AFFINITY PREDICTED BY RF-SCORE:    0.00 PKD
ROOT
HETATM    1  N   UNL     1      -7.614   8.522  73.712  1.00  0.00    -0.380 NA 
HETATM    2  C   UNL     1      -7.677   8.586  72.250  1.00  0.00    -0.059 C  
HETATM    3  H1  UNL     1      -8.514   8.310  74.142  1.00  0.00     0.000 HD 
HETATM    4  C   UNL     2     -10.748   6.292  73.353  1.00  0.00    -0.259 C  
HETATM    5  H2  UNL     1      -7.220   9.381  74.097  1.00  0.00     0.000 HD 
HETATM    6  C   UNL     3      -6.514   5.453  71.477  1.00  0.00    -0.040 C  
HETATM    7  N   UNL     2     -10.734   6.364  71.908  1.00  0.00    -0.218 N  
HETATM    8  O   UNL     3      -7.928   7.371  69.820  1.00  0.00    -0.119 OA 
HETATM    9  N   UNL     3      -6.666   5.441  70.022  1.00  0.00    -0.046 N  
HETATM   10  O   UNL     2     -11.258   8.604  71.944  1.00  0.00    -0.296 OA 
HETATM   11  C   UNL     2     -10.391   5.284  71.133  1.00  0.00    -0.221 A  
HETATM   12  C   UNL     2     -10.453   5.343  69.778  1.00  0.00    -0.307 A  
HETATM   13  C   UNL     3      -7.291   6.459  69.296  1.00  0.00    -0.092 C  
HETATM   14  C   UNL     3      -6.384   4.282  69.354  1.00  0.00    -0.028 A  
HETATM   15  C   UNL     3      -7.810   7.531  67.172  1.00  0.00    -0.117 C  
HETATM   16  C   UNL     2     -10.821   6.508  69.059  1.00  0.00    -0.306 C  
HETATM   17  N   UNL     2     -10.002   4.135  69.336  1.00  0.00    -0.084 NA 
HETATM   18  C   UNL     3      -6.609   4.159  68.022  1.00  0.00    -0.042 A  
HETATM   19  C   UNL     2      -9.630   3.428  70.451  1.00  0.00    -0.157 A  
HETATM   20  N   UNL     2     -10.931   7.627  69.882  1.00  0.00    -0.234 N  
HETATM   21  N   UNL     3      -6.391   2.842  67.756  1.00  0.00    -0.032 NA 
HETATM   22  H   UNL     2      -9.952   3.819  68.368  1.00  0.00     0.000 HD 
HETATM   23  C   UNL     3      -7.040   5.220  67.194  1.00  0.00    -0.070 C  
HETATM   24  O   UNL     2     -10.970   6.504  67.842  1.00  0.00    -0.284 OA 
HETATM   25  O   UNL     3      -7.267   5.049  65.992  1.00  0.00    -0.073 OA 
HETATM   26  N   UNL     3      -7.257   6.394  67.895  1.00  0.00    -0.085 N  
HETATM   27  C   UNL     3      -6.059   2.238  68.941  1.00  0.00    -0.025 A  
HETATM   28  H   UNL     3      -6.462   2.389  66.845  1.00  0.00     0.000 HD 
HETATM   29  C   UNL     2     -10.994   7.592  71.288  1.00  0.00    -0.238 C  
HETATM   30  N   UNL     2      -9.905   4.087  71.559  1.00  0.00    -0.185 NA 
HETATM   31  C   UNL     2     -10.873   8.938  69.266  1.00  0.00    -0.096 C  
HETATM   32  N   UNL     3      -6.011   3.104  69.928  1.00  0.00    -0.022 NA 
ENDROOT
BRANCH   2  33
HETATM   33  C   UNL     1      -6.311   8.908  71.598  1.00  0.00    -0.074 C  
HETATM   34  H2  UNL     1      -6.851  10.794  70.962  1.00  0.00     0.000 HD 
HETATM   35  N   UNL     1      -6.416   9.953  70.583  1.00  0.00    -0.140 NA 
HETATM   36  H1  UNL     1      -5.515  10.166  70.154  1.00  0.00     0.000 HD 
ENDBRANCH   2  33
TORSDOF 1
ENDMDL
MODEL       56
REMARK 921   NORMALIZED FREE ENERGY PREDICTED BY IDOCK:   -4.08 KCAL/MOL
REMARK 922        TOTAL FREE ENERGY PREDICTED BY IDOCK:   -4.68 KCAL/MOL
REMARK 923 INTER-LIGAND FREE ENERGY PREDICTED BY IDOCK:   -4.32 KCAL/MOL
REMARK 924 INTRA-LIGAND FREE ENERGY PREDICTED BY IDOCK:   -0.36 KCAL/MOL
REMARK 927      BINDING AFFINITY PREDICTED BY RF-SCORE:    0.00 PKD
ROOT
HETATM    1  N   UNL     1      -5.158  11.520  65.475  1.00  0.00    -0.465 NA 
HETATM    2  C   UNL     1      -5.868  10.801  66.536  1.00  0.00    -0.093 C  
HETATM    3  H1  UNL     1      -5.413  11.205  64.539  1.00  0.00     0.000 HD 
HETATM    4  C   UNL     2      -8.168  10.468  63.293  1.00  0.00    -0.111 C  
HETATM    5  H2  UNL     1      -4.148  11.469  65.613  1.00  0.00     0.000 HD 
HETATM    6  C   UNL     3      -8.354  13.067  67.213  1.00  0.00    -0.185 C  
HETATM    7  N   UNL     2      -8.837   9.806  64.391  1.00  0.00    -0.211 N  
HETATM    8  O   UNL     3      -8.147  10.264  67.936  1.00  0.00    -0.102 OA 
HETATM    9  N   UNL     3      -9.151  12.333  68.196  1.00  0.00    -0.193 N  
HETATM   10  O   UNL     2      -7.218   8.175  64.487  1.00  0.00    -0.078 OA 
HETATM   11  C   UNL     2      -9.971  10.325  64.965  1.00  0.00    -0.323 A  
HETATM   12  C   UNL     2     -10.631   9.656  65.947  1.00  0.00     0.291 A  
HETATM   13  C   UNL     3      -8.922  10.999  68.545  1.00  0.00    -0.163 C  
HETATM   14  C   UNL     3     -10.314  12.902  68.636  1.00  0.00    -0.188 A  
HETATM   15  C   UNL     3      -9.321   9.098  70.013  1.00  0.00    -0.199 C  
HETATM   16  C   UNL     2     -10.194   8.420  66.485  1.00  0.00    -0.207 C  
HETATM   17  N   UNL     2     -11.661  10.469  66.316  1.00  0.00     0.567 NA 
HETATM   18  C   UNL     3     -11.161  12.234  69.458  1.00  0.00    -0.115 A  
HETATM   19  C   UNL     2     -11.532  11.618  65.580  1.00  0.00    -0.105 A  
HETATM   20  N   UNL     2      -8.926   8.062  66.030  1.00  0.00    -0.173 N  
HETATM   21  N   UNL     3     -12.268  13.024  69.527  1.00  0.00    -0.203 NA 
HETATM   22  H   UNL     2     -12.385  10.262  67.004  1.00  0.00     0.000 HD 
HETATM   23  C   UNL     3     -10.884  10.966  70.017  1.00  0.00    -0.072 C  
HETATM   24  O   UNL     2     -10.863   7.788  67.294  1.00  0.00    -0.284 OA 
HETATM   25  O   UNL     3     -11.704  10.381  70.731  1.00  0.00    -0.321 OA 
HETATM   26  N   UNL     3      -9.670  10.449  69.596  1.00  0.00    -0.175 N  
HETATM   27  C   UNL     3     -12.036  14.118  68.734  1.00  0.00    -0.332 A  
HETATM   28  H   UNL     3     -13.112  12.837  70.067  1.00  0.00     0.000 HD 
HETATM   29  C   UNL     2      -8.264   8.651  64.937  1.00  0.00    -0.157 C  
HETATM   30  N   UNL     2     -10.541  11.534  64.715  1.00  0.00    -0.290 NA 
HETATM   31  C   UNL     2      -8.178   7.081  66.792  1.00  0.00    -0.111 C  
HETATM   32  N   UNL     3     -10.833  14.086  68.207  1.00  0.00    -0.248 NA 
ENDROOT
BRANCH   2  33
HETATM   33  C   UNL     1      -5.481  11.279  67.955  1.00  0.00    -0.043 C  
HETATM   34  H2  UNL     1      -4.760   9.450  68.575  1.00  0.00     0.000 HD 
HETATM   35  N   UNL     1      -5.397  10.174  68.906  1.00  0.00    -0.035 NA 
HETATM   36  H1  UNL     1      -5.141  10.490  69.842  1.00  0.00     0.000 HD 
ENDBRANCH   2  33
TORSDOF 1
ENDMDL
MODEL       57
REMARK 921   NORMALIZED FREE ENERGY PREDICTED BY IDOCK:   -4.03 KCAL/MOL
REMARK 922        TOTAL FREE ENERGY PREDICTED BY IDOCK:   -4.63 KCAL/MOL
REMARK 923 INTER-LIGAND FREE ENERGY PREDICTED BY IDOCK:   -4.28 KCAL/MOL
REMARK 924 INTRA-LIGAND FREE ENERGY PREDICTED BY IDOCK:   -0.35 KCAL/MOL
REMARK 927      BINDING AFFINITY PREDICTED BY RF-SCORE:    0.00 PKD
ROOT
HETATM    1  N   UNL     1      -5.533   9.889  70.615  1.00  0.00    -0.050 NA 
HETATM    2  C   UNL     1      -6.503  10.727  69.906  1.00  0.00    -0.135 C  
HETATM    3  H1  UNL     1      -5.971   9.150  71.166  1.00  0.00     0.000 HD 
HETATM    4  C   UNL     2      -8.355   7.252  70.541  1.00  0.00    -0.133 C  
HETATM    5  H2  UNL     1      -4.915  10.458  71.194  1.00  0.00     0.000 HD 
HETATM    6  C   UNL     3      -6.358   9.286  66.796  1.00  0.00    -0.066 C  
HETATM    7  N   UNL     2      -9.254   8.115  69.807  1.00  0.00    -0.151 N  
HETATM    8  O   UNL     3      -8.337  11.088  67.918  1.00  0.00    -0.118 OA 
HETATM    9  N   UNL     3      -7.399  10.031  66.086  1.00  0.00    -0.104 N  
HETATM   10  O   UNL     2      -9.449   9.550  71.594  1.00  0.00    -0.167 OA 
HETATM   11  C   UNL     2      -9.571   7.880  68.492  1.00  0.00    -0.150 A  
HETATM   12  C   UNL     2     -10.473   8.655  67.837  1.00  0.00    -0.209 A  
HETATM   13  C   UNL     3      -8.255  10.949  66.700  1.00  0.00    -0.145 C  
HETATM   14  C   UNL     3      -7.701   9.655  64.807  1.00  0.00    -0.122 A  
HETATM   15  C   UNL     3      -9.912  12.727  66.545  1.00  0.00    -0.253 C  
HETATM   16  C   UNL     2     -11.115   9.776  68.420  1.00  0.00    -0.088 C  
HETATM   17  N   UNL     2     -10.506   8.181  66.559  1.00  0.00    -0.414 NA 
HETATM   18  C   UNL     3      -8.729  10.220  64.127  1.00  0.00    -0.204 A  
HETATM   19  C   UNL     2      -9.572   7.180  66.492  1.00  0.00    -0.144 A  
HETATM   20  N   UNL     2     -10.585  10.102  69.667  1.00  0.00    -0.239 N  
HETATM   21  N   UNL     3      -8.839   9.479  62.990  1.00  0.00    -0.270 NA 
HETATM   22  H   UNL     2     -11.108   8.507  65.803  1.00  0.00     0.000 HD 
HETATM   23  C   UNL     3      -9.497  11.302  64.613  1.00  0.00    -0.188 C  
HETATM   24  O   UNL     2     -12.002  10.395  67.841  1.00  0.00    -0.148 OA 
HETATM   25  O   UNL     3     -10.448  11.759  63.972  1.00  0.00    -0.300 OA 
HETATM   26  N   UNL     3      -9.122  11.695  65.887  1.00  0.00    -0.187 N  
HETATM   27  C   UNL     3      -7.882   8.499  63.050  1.00  0.00    -0.148 A  
HETATM   28  H   UNL     3      -9.508   9.626  62.235  1.00  0.00     0.000 HD 
HETATM   29  C   UNL     2      -9.746   9.269  70.430  1.00  0.00    -0.244 C  
HETATM   30  N   UNL     2      -9.026   6.943  67.669  1.00  0.00    -0.117 NA 
HETATM   31  C   UNL     2     -10.823  11.435  70.185  1.00  0.00     0.468 C  
HETATM   32  N   UNL     3      -7.147   8.607  64.134  1.00  0.00    -0.088 NA 
ENDROOT
BRANCH   2  33
HETATM   33  C   UNL     1      -5.839  11.847  69.070  1.00  0.00    -0.059 C  
HETATM   34  H2  UNL     1      -6.458  13.384  70.298  1.00  0.00     0.000 HD 
HETATM   35  N   UNL     1      -6.455  13.151  69.305  1.00  0.00    -0.108 NA 
HETATM   36  H1  UNL     1      -6.017  13.889  68.754  1.00  0.00     0.000 HD 
ENDBRANCH   2  33
TORSDOF 1
ENDMDL
MODEL       58
REMARK 921   NORMALIZED FREE ENERGY PREDICTED BY IDOCK:   -4.00 KCAL/MOL
REMARK 922        TOTAL FREE ENERGY PREDICTED BY IDOCK:   -4.59 KCAL/MOL
REMARK 923 INTER-LIGAND FREE ENERGY PREDICTED BY IDOCK:   -4.24 KCAL/MOL
REMARK 924 INTRA-LIGAND FREE ENERGY PREDICTED BY IDOCK:   -0.35 KCAL/MOL
REMARK 927      BINDING AFFINITY PREDICTED BY RF-SCORE:    0.00 PKD
ROOT
HETATM    1  N   UNL     1      -7.833  11.511  69.381  1.00  0.00    -0.353 NA 
HETATM    2  C   UNL     1      -8.823  10.544  68.900  1.00  0.00    -0.165 C  
HETATM    3  H1  UNL     1      -7.529  11.328  70.338  1.00  0.00     0.000 HD 
HETATM    4  C   UNL     2      -6.827   8.675  71.805  1.00  0.00    -0.080 C  
HETATM    5  H2  UNL     1      -8.181  12.466  69.287  1.00  0.00     0.000 HD 
HETATM    6  C   UNL     3      -6.776   8.458  67.103  1.00  0.00    -0.063 C  
HETATM    7  N   UNL     2      -7.800   7.754  71.260  1.00  0.00    -0.084 N  
HETATM    8  O   UNL     3      -9.488   8.039  68.048  1.00  0.00    -0.144 OA 
HETATM    9  N   UNL     3      -7.717   7.414  66.696  1.00  0.00    -0.099 N  
HETATM   10  O   UNL     2      -9.548   9.012  72.069  1.00  0.00    -0.306 OA 
HETATM   11  C   UNL     2      -7.427   6.671  70.504  1.00  0.00    -0.087 A  
HETATM   12  C   UNL     2      -8.345   5.773  70.061  1.00  0.00    -0.123 A  
HETATM   13  C   UNL     3      -9.040   7.342  67.140  1.00  0.00    -0.130 C  
HETATM   14  C   UNL     3      -7.224   6.331  66.023  1.00  0.00    -0.075 A  
HETATM   15  C   UNL     3     -11.280   6.402  66.970  1.00  0.00    -0.195 C  
HETATM   16  C   UNL     2      -9.738   5.896  70.292  1.00  0.00    -0.169 C  
HETATM   17  N   UNL     2      -7.647   4.873  69.312  1.00  0.00    -0.060 NA 
HETATM   18  C   UNL     3      -8.013   5.271  65.714  1.00  0.00    -0.105 A  
HETATM   19  C   UNL     2      -6.348   5.312  69.288  1.00  0.00    -0.034 A  
HETATM   20  N   UNL     2     -10.076   7.123  70.859  1.00  0.00    -0.193 N  
HETATM   21  N   UNL     3      -7.154   4.333  65.228  1.00  0.00    -0.062 NA 
HETATM   22  H   UNL     2      -8.018   4.038  68.858  1.00  0.00     0.000 HD 
HETATM   23  C   UNL     3      -9.406   5.230  65.947  1.00  0.00    -0.155 C  
HETATM   24  O   UNL     2     -10.532   5.018  69.972  1.00  0.00    -0.276 OA 
HETATM   25  O   UNL     3     -10.076   4.227  65.681  1.00  0.00    -0.220 OA 
HETATM   26  N   UNL     3      -9.879   6.370  66.574  1.00  0.00    -0.148 N  
HETATM   27  C   UNL     3      -5.894   4.869  65.282  1.00  0.00    -0.018 A  
HETATM   28  H   UNL     3      -7.402   3.404  64.888  1.00  0.00     0.000 HD 
HETATM   29  C   UNL     2      -9.162   8.023  71.439  1.00  0.00    -0.144 C  
HETATM   30  N   UNL     2      -6.179   6.375  70.049  1.00  0.00    -0.033 NA 
HETATM   31  C   UNL     2     -11.452   7.566  70.760  1.00  0.00    -0.284 C  
HETATM   32  N   UNL     3      -5.913   6.104  65.730  1.00  0.00    -0.024 NA 
ENDROOT
BRANCH   2  33
HETATM   33  C   UNL     1      -9.285  10.821  67.450  1.00  0.00    -0.147 C  
HETATM   34  H2  UNL     1     -11.278  11.041  67.931  1.00  0.00     0.000 HD 
HETATM   35  N   UNL     1     -10.704  10.534  67.258  1.00  0.00    -0.269 NA 
HETATM   36  H1  UNL     1     -11.009  10.717  66.301  1.00  0.00     0.000 HD 
ENDBRANCH   2  33
TORSDOF 1
ENDMDL
MODEL       59
REMARK 921   NORMALIZED FREE ENERGY PREDICTED BY IDOCK:   -3.99 KCAL/MOL
REMARK 922        TOTAL FREE ENERGY PREDICTED BY IDOCK:   -4.58 KCAL/MOL
REMARK 923 INTER-LIGAND FREE ENERGY PREDICTED BY IDOCK:   -4.22 KCAL/MOL
REMARK 924 INTRA-LIGAND FREE ENERGY PREDICTED BY IDOCK:   -0.37 KCAL/MOL
REMARK 927      BINDING AFFINITY PREDICTED BY RF-SCORE:    0.00 PKD
ROOT
HETATM    1  N   UNL     1      -9.684   2.613  67.254  1.00  0.00    -0.346 NA 
HETATM    2  C   UNL     1      -8.728   3.678  67.570  1.00  0.00    -0.108 C  
HETATM    3  H1  UNL     1      -9.708   1.876  67.958  1.00  0.00     0.000 HD 
HETATM    4  C   UNL     2      -9.648   1.994  71.067  1.00  0.00    -0.126 C  
HETATM    5  H2  UNL     1      -9.504   2.226  66.327  1.00  0.00     0.000 HD 
HETATM    6  C   UNL     3     -10.864   6.001  68.917  1.00  0.00    -0.331 C  
HETATM    7  N   UNL     2      -8.731   3.084  71.318  1.00  0.00    -0.071 N  
HETATM    8  O   UNL     3      -7.970   5.835  69.059  1.00  0.00    -0.095 OA 
HETATM    9  N   UNL     3      -9.926   7.038  69.345  1.00  0.00    -0.160 N  
HETATM   10  O   UNL     2      -7.021   1.985  70.241  1.00  0.00    -0.033 OA 
HETATM   11  C   UNL     2      -9.134   4.243  71.933  1.00  0.00    -0.122 A  
HETATM   12  C   UNL     2      -8.247   5.228  72.229  1.00  0.00    -0.118 A  
HETATM   13  C   UNL     3      -8.536   6.900  69.297  1.00  0.00    -0.132 C  
HETATM   14  C   UNL     3     -10.422   8.111  70.033  1.00  0.00    -0.231 A  
HETATM   15  C   UNL     3      -6.307   7.871  69.434  1.00  0.00    -0.035 C  
HETATM   16  C   UNL     2      -6.871   5.170  71.895  1.00  0.00    -0.060 C  
HETATM   17  N   UNL     2      -8.985   6.235  72.777  1.00  0.00    -0.126 NA 
HETATM   18  C   UNL     3      -9.603   9.054  70.561  1.00  0.00    -0.219 A  
HETATM   19  C   UNL     2     -10.294   5.830  72.725  1.00  0.00    -0.192 A  
HETATM   20  N   UNL     2      -6.568   4.085  71.075  1.00  0.00    -0.030 N  
HETATM   21  N   UNL     3     -10.422   9.840  71.312  1.00  0.00    -0.233 NA 
HETATM   22  H   UNL     2      -8.632   7.115  73.151  1.00  0.00     0.000 HD 
HETATM   23  C   UNL     3      -8.204   9.083  70.364  1.00  0.00    -0.151 C  
HETATM   24  O   UNL     2      -6.073   6.025  72.266  1.00  0.00    -0.039 OA 
HETATM   25  O   UNL     3      -7.495   9.943  70.897  1.00  0.00    -0.314 OA 
HETATM   26  N   UNL     3      -7.745   8.015  69.612  1.00  0.00    -0.100 N  
HETATM   27  C   UNL     3     -11.688   9.324  71.208  1.00  0.00    -0.346 A  
HETATM   28  H   UNL     3     -10.146  10.660  71.852  1.00  0.00     0.000 HD 
HETATM   29  C   UNL     2      -7.417   2.986  70.844  1.00  0.00    -0.036 C  
HETATM   30  N   UNL     2     -10.405   4.600  72.263  1.00  0.00    -0.192 NA 
HETATM   31  C   UNL     2      -5.335   4.125  70.314  1.00  0.00    -0.008 C  
HETATM   32  N   UNL     3     -11.722   8.287  70.401  1.00  0.00    -0.075 NA 
ENDROOT
BRANCH   2  33
HETATM   33  C   UNL     1      -8.692   4.796  66.502  1.00  0.00    -0.111 C  
HETATM   34  H2  UNL     1      -6.737   4.454  65.943  1.00  0.00     0.000 HD 
HETATM   35  N   UNL     1      -7.331   5.238  66.210  1.00  0.00    -0.080 NA 
HETATM   36  H1  UNL     1      -7.307   5.976  65.506  1.00  0.00     0.000 HD 
ENDBRANCH   2  33
TORSDOF 1
ENDMDL
MODEL       60
REMARK 921   NORMALIZED FREE ENERGY PREDICTED BY IDOCK:   -3.93 KCAL/MOL
REMARK 922        TOTAL FREE ENERGY PREDICTED BY IDOCK:   -4.52 KCAL/MOL
REMARK 923 INTER-LIGAND FREE ENERGY PREDICTED BY IDOCK:   -4.41 KCAL/MOL
REMARK 924 INTRA-LIGAND FREE ENERGY PREDICTED BY IDOCK:   -0.11 KCAL/MOL
REMARK 927      BINDING AFFINITY PREDICTED BY RF-SCORE:    0.00 PKD
ROOT
HETATM    1  N   UNL     1      -8.020   4.866  64.391  1.00  0.00    -0.098 NA 
HETATM    2  C   UNL     1      -9.023   5.275  65.378  1.00  0.00    -0.144 C  
HETATM    3  H1  UNL     1      -7.322   5.587  64.209  1.00  0.00     0.000 HD 
HETATM    4  C   UNL     2      -5.813   7.525  66.120  1.00  0.00    -0.037 C  
HETATM    5  H2  UNL     1      -8.465   4.562  63.525  1.00  0.00     0.000 HD 
HETATM    6  C   UNL     3      -7.745   3.757  68.176  1.00  0.00    -0.065 C  
HETATM    7  N   UNL     2      -6.833   7.858  67.090  1.00  0.00    -0.071 N  
HETATM    8  O   UNL     3      -9.745   5.848  67.946  1.00  0.00    -0.113 OA 
HETATM    9  N   UNL     3      -8.665   4.236  69.208  1.00  0.00    -0.081 N  
HETATM   10  O   UNL     2      -8.183   8.768  65.466  1.00  0.00    -0.117 OA 
HETATM   11  C   UNL     2      -6.715   7.507  68.413  1.00  0.00    -0.054 A  
HETATM   12  C   UNL     2      -7.644   7.890  69.327  1.00  0.00    -0.097 A  
HETATM   13  C   UNL     3      -9.660   5.191  68.981  1.00  0.00    -0.145 C  
HETATM   14  C   UNL     3      -8.404   3.903  70.508  1.00  0.00    -0.061 A  
HETATM   15  C   UNL     3     -11.659   6.377  69.709  1.00  0.00    -0.327 C  
HETATM   16  C   UNL     2      -8.811   8.625  69.000  1.00  0.00    -0.138 C  
HETATM   17  N   UNL     2      -7.248   7.335  70.507  1.00  0.00    -0.065 NA 
HETATM   18  C   UNL     3      -9.145   4.404  71.529  1.00  0.00    -0.131 A  
HETATM   19  C   UNL     2      -6.130   6.591  70.231  1.00  0.00    -0.031 A  
HETATM   20  N   UNL     2      -8.991   8.749  67.624  1.00  0.00    -0.135 N  
HETATM   21  N   UNL     3      -8.488   4.010  72.655  1.00  0.00    -0.099 NA 
HETATM   22  H   UNL     2      -7.695   7.452  71.417  1.00  0.00     0.000 HD 
HETATM   23  C   UNL     3     -10.295   5.204  71.351  1.00  0.00    -0.203 C  
HETATM   24  O   UNL     2      -9.578   9.047  69.859  1.00  0.00    -0.169 OA 
HETATM   25  O   UNL     3     -10.916   5.667  72.314  1.00  0.00    -0.238 OA 
HETATM   26  N   UNL     3     -10.564   5.469  70.018  1.00  0.00    -0.316 N  
HETATM   27  C   UNL     3      -7.382   3.306  72.255  1.00  0.00    -0.051 A  
HETATM   28  H   UNL     3      -8.768   4.203  73.617  1.00  0.00     0.000 HD 
HETATM   29  C   UNL     2      -8.009   8.479  66.653  1.00  0.00    -0.100 C  
HETATM   30  N   UNL     2      -5.757   6.720  68.973  1.00  0.00    -0.017 NA 
HETATM   31  C   UNL     2     -10.315   9.082  67.134  1.00  0.00    -0.272 C  
HETATM   32  N   UNL     3      -7.327   3.195  70.947  1.00  0.00    -0.033 NA 
ENDROOT
BRANCH   2  33
HETATM   33  C   UNL     1     -10.082   4.182  65.655  1.00  0.00    -0.176 C  
HETATM   34  H2  UNL     1     -10.722   4.046  63.700  1.00  0.00     0.000 HD 
HETATM   35  N   UNL     1     -11.124   4.149  64.631  1.00  0.00    -0.828 NA 
HETATM   36  H1  UNL     1     -11.822   3.428  64.814  1.00  0.00     0.000 HD 
ENDBRANCH   2  33
TORSDOF 1
ENDMDL
MODEL       61
REMARK 921   NORMALIZED FREE ENERGY PREDICTED BY IDOCK:   -3.93 KCAL/MOL
REMARK 922        TOTAL FREE ENERGY PREDICTED BY IDOCK:   -4.52 KCAL/MOL
REMARK 923 INTER-LIGAND FREE ENERGY PREDICTED BY IDOCK:   -4.37 KCAL/MOL
REMARK 924 INTRA-LIGAND FREE ENERGY PREDICTED BY IDOCK:   -0.16 KCAL/MOL
REMARK 927      BINDING AFFINITY PREDICTED BY RF-SCORE:    0.00 PKD
ROOT
HETATM    1  N   UNL     1      -7.606   8.087  66.186  1.00  0.00    -0.084 NA 
HETATM    2  C   UNL     1      -7.131   7.010  67.058  1.00  0.00    -0.079 C  
HETATM    3  H1  UNL     1      -8.541   7.918  65.814  1.00  0.00     0.000 HD 
HETATM    4  C   UNL     2     -11.113   6.781  67.148  1.00  0.00    -0.333 C  
HETATM    5  H2  UNL     1      -6.941   8.265  65.432  1.00  0.00     0.000 HD 
HETATM    6  C   UNL     3      -7.835   8.383  70.122  1.00  0.00    -0.102 C  
HETATM    7  N   UNL     2     -10.582   5.760  68.024  1.00  0.00    -0.233 N  
HETATM    8  O   UNL     3      -7.220   5.637  69.414  1.00  0.00    -0.062 OA 
HETATM    9  N   UNL     3      -7.473   7.285  71.019  1.00  0.00    -0.075 N  
HETATM   10  O   UNL     2      -9.679   4.607  66.250  1.00  0.00    -0.162 OA 
HETATM   11  C   UNL     2     -10.699   5.846  69.389  1.00  0.00    -0.336 A  
HETATM   12  C   UNL     2     -10.262   4.845  70.196  1.00  0.00    -0.240 A  
HETATM   13  C   UNL     3      -7.104   6.011  70.579  1.00  0.00    -0.071 C  
HETATM   14  C   UNL     3      -7.716   7.439  72.355  1.00  0.00    -0.088 A  
HETATM   15  C   UNL     3      -6.162   3.810  71.025  1.00  0.00    -0.018 C  
HETATM   16  C   UNL     2      -9.618   3.675  69.718  1.00  0.00    -0.158 C  
HETATM   17  N   UNL     2     -10.483   5.276  71.470  1.00  0.00    -0.223 NA 
HETATM   18  C   UNL     3      -7.514   6.424  73.232  1.00  0.00    -0.090 A  
HETATM   19  C   UNL     2     -10.987   6.547  71.367  1.00  0.00    -0.258 A  
HETATM   20  N   UNL     2      -9.322   3.751  68.359  1.00  0.00    -0.161 N  
HETATM   21  N   UNL     3      -8.030   6.877  74.408  1.00  0.00    -0.120 NA 
HETATM   22  H   UNL     2     -10.309   4.756  72.330  1.00  0.00     0.000 HD 
HETATM   23  C   UNL     3      -6.942   5.180  72.882  1.00  0.00    -0.079 C  
HETATM   24  O   UNL     2      -9.328   2.742  70.459  1.00  0.00    -0.127 OA 
HETATM   25  O   UNL     3      -6.812   4.273  73.710  1.00  0.00    -0.056 OA 
HETATM   26  N   UNL     3      -6.652   5.084  71.531  1.00  0.00    -0.034 N  
HETATM   27  C   UNL     3      -8.527   8.133  74.176  1.00  0.00    -0.186 A  
HETATM   28  H   UNL     3      -8.045   6.375  75.295  1.00  0.00     0.000 HD 
HETATM   29  C   UNL     2      -9.855   4.701  67.468  1.00  0.00    -0.153 C  
HETATM   30  N   UNL     2     -11.175   6.897  70.110  1.00  0.00    -0.299 NA 
HETATM   31  C   UNL     2      -8.312   2.856  67.828  1.00  0.00    -0.081 C  
HETATM   32  N   UNL     3      -8.315   8.516  72.936  1.00  0.00    -0.393 NA 
ENDROOT
BRANCH   2  33
HETATM   33  C   UNL     1      -5.714   7.267  67.621  1.00  0.00    -0.029 C  
HETATM   34  H2  UNL     1      -5.988   9.292  67.892  1.00  0.00     0.000 HD 
HETATM   35  N   UNL     1      -5.305   8.661  67.474  1.00  0.00    -0.034 NA 
HETATM   36  H1  UNL     1      -4.370   8.831  67.845  1.00  0.00     0.000 HD 
ENDBRANCH   2  33
TORSDOF 1
ENDMDL
MODEL       62
REMARK 921   NORMALIZED FREE ENERGY PREDICTED BY IDOCK:   -3.87 KCAL/MOL
REMARK 922        TOTAL FREE ENERGY PREDICTED BY IDOCK:   -4.46 KCAL/MOL
REMARK 923 INTER-LIGAND FREE ENERGY PREDICTED BY IDOCK:   -4.10 KCAL/MOL
REMARK 924 INTRA-LIGAND FREE ENERGY PREDICTED BY IDOCK:   -0.36 KCAL/MOL
REMARK 927      BINDING AFFINITY PREDICTED BY RF-SCORE:    0.00 PKD
ROOT
HETATM    1  N   UNL     1     -10.185  12.055  65.370  1.00  0.00    -0.256 NA 
HETATM    2  C   UNL     1      -9.283  11.827  66.502  1.00  0.00    -0.201 C  
HETATM    3  H1  UNL     1      -9.858  11.623  64.505  1.00  0.00     0.000 HD 
HETATM    4  C   UNL     2      -8.572   8.845  63.950  1.00  0.00    -0.091 C  
HETATM    5  H2  UNL     1     -10.356  13.052  65.236  1.00  0.00     0.000 HD 
HETATM    6  C   UNL     3     -10.903   9.213  68.022  1.00  0.00    -0.075 C  
HETATM    7  N   UNL     2      -7.733   8.654  65.113  1.00  0.00    -0.096 N  
HETATM    8  O   UNL     3      -8.192  10.182  68.385  1.00  0.00    -0.107 OA 
HETATM    9  N   UNL     3      -9.971   8.885  69.101  1.00  0.00    -0.184 N  
HETATM   10  O   UNL     2      -6.505  10.536  64.624  1.00  0.00    -0.087 OA 
HETATM   11  C   UNL     2      -7.961   7.640  66.010  1.00  0.00    -0.112 A  
HETATM   12  C   UNL     2      -7.122   7.427  67.058  1.00  0.00    -0.084 A  
HETATM   13  C   UNL     3      -8.710   9.471  69.244  1.00  0.00    -0.151 C  
HETATM   14  C   UNL     3     -10.246   7.798  69.882  1.00  0.00    -0.213 A  
HETATM   15  C   UNL     3      -6.710   9.890  70.569  1.00  0.00    -0.123 C  
HETATM   16  C   UNL     2      -5.995   8.240  67.339  1.00  0.00    -0.047 C  
HETATM   17  N   UNL     2      -7.667   6.394  67.761  1.00  0.00    -0.102 NA 
HETATM   18  C   UNL     3      -9.373   7.365  70.825  1.00  0.00    -0.159 A  
HETATM   19  C   UNL     2      -8.845   6.077  67.135  1.00  0.00    -0.108 A  
HETATM   20  N   UNL     2      -5.949   9.379  66.538  1.00  0.00    -0.058 N  
HETATM   21  N   UNL     3      -9.891   6.182  71.257  1.00  0.00    -0.175 NA 
HETATM   22  H   UNL     2      -7.276   5.946  68.589  1.00  0.00     0.000 HD 
HETATM   23  C   UNL     3      -8.178   8.039  71.163  1.00  0.00    -0.106 C  
HETATM   24  O   UNL     2      -5.197   7.963  68.228  1.00  0.00    -0.029 OA 
HETATM   25  O   UNL     3      -7.396   7.585  72.005  1.00  0.00    -0.066 OA 
HETATM   26  N   UNL     3      -7.964   9.170  70.393  1.00  0.00    -0.126 N  
HETATM   27  C   UNL     3     -11.040   5.957  70.543  1.00  0.00    -0.277 A  
HETATM   28  H   UNL     3      -9.497   5.576  71.976  1.00  0.00     0.000 HD 
HETATM   29  C   UNL     2      -6.716   9.579  65.374  1.00  0.00    -0.081 C  
HETATM   30  N   UNL     2      -9.020   6.787  66.038  1.00  0.00    -0.139 NA 
HETATM   31  C   UNL     2      -5.132  10.492  66.978  1.00  0.00    -0.041 C  
HETATM   32  N   UNL     3     -11.300   6.949  69.721  1.00  0.00    -0.263 NA 
ENDROOT
BRANCH   2  33
HETATM   33  C   UNL     1      -9.779  12.483  67.812  1.00  0.00    -0.202 C  
HETATM   34  H2  UNL     1      -8.176  13.767  67.994  1.00  0.00     0.000 HD 
HETATM   35  N   UNL     1      -8.691  13.100  68.567  1.00  0.00    -0.341 NA 
HETATM   36  H1  UNL     1      -9.018  13.532  69.432  1.00  0.00     0.000 HD 
ENDBRANCH   2  33
TORSDOF 1
ENDMDL
MODEL       63
REMARK 921   NORMALIZED FREE ENERGY PREDICTED BY IDOCK:   -3.76 KCAL/MOL
REMARK 922        TOTAL FREE ENERGY PREDICTED BY IDOCK:   -4.34 KCAL/MOL
REMARK 923 INTER-LIGAND FREE ENERGY PREDICTED BY IDOCK:   -4.01 KCAL/MOL
REMARK 924 INTRA-LIGAND FREE ENERGY PREDICTED BY IDOCK:   -0.34 KCAL/MOL
REMARK 927      BINDING AFFINITY PREDICTED BY RF-SCORE:    0.00 PKD
ROOT
HETATM    1  N   UNL     1      -9.100   6.962  72.138  1.00  0.00    -0.133 NA 
HETATM    2  C   UNL     1      -9.076   6.820  70.680  1.00  0.00    -0.155 C  
HETATM    3  H1  UNL     1      -8.194   7.222  72.529  1.00  0.00     0.000 HD 
HETATM    4  C   UNL     2      -6.041   9.252  71.568  1.00  0.00    -0.063 C  
HETATM    5  H2  UNL     1      -9.458   6.115  72.580  1.00  0.00     0.000 HD 
HETATM    6  C   UNL     3     -10.349   9.875  69.775  1.00  0.00    -0.246 C  
HETATM    7  N   UNL     2      -6.094   9.102  70.130  1.00  0.00    -0.034 N  
HETATM    8  O   UNL     3      -8.928   7.909  68.183  1.00  0.00    -0.132 OA 
HETATM    9  N   UNL     3     -10.238   9.812  68.318  1.00  0.00    -0.175 N  
HETATM   10  O   UNL     2      -5.507   6.882  70.270  1.00  0.00    -0.022 OA 
HETATM   11  C   UNL     2      -6.489  10.129  69.309  1.00  0.00    -0.047 A  
HETATM   12  C   UNL     2      -6.463   9.998  67.957  1.00  0.00    -0.058 A  
HETATM   13  C   UNL     3      -9.605   8.773  67.630  1.00  0.00    -0.144 C  
HETATM   14  C   UNL     3     -10.572  10.925  67.598  1.00  0.00    -0.224 A  
HETATM   15  C   UNL     3      -9.116   7.602  65.551  1.00  0.00     0.172 C  
HETATM   16  C   UNL     2      -6.083   8.806  67.291  1.00  0.00    -0.055 C  
HETATM   17  N   UNL     2      -6.961  11.168  67.465  1.00  0.00    -0.083 NA 
HETATM   18  C   UNL     3     -10.387  10.981  66.255  1.00  0.00    -0.251 A  
HETATM   19  C   UNL     2      -7.322  11.923  68.551  1.00  0.00    -0.111 A  
HETATM   20  N   UNL     2      -5.919   7.737  68.170  1.00  0.00    -0.039 N  
HETATM   21  N   UNL     3     -10.650  12.276  65.925  1.00  0.00    -0.249 NA 
HETATM   22  H   UNL     2      -7.047  11.429  66.483  1.00  0.00     0.000 HD 
HETATM   23  C   UNL     3      -9.950   9.889  65.472  1.00  0.00    -0.292 C  
HETATM   24  O   UNL     2      -5.969   8.748  66.072  1.00  0.00    -0.050 OA 
HETATM   25  O   UNL     3      -9.761  10.000  64.257  1.00  0.00    -0.296 OA 
HETATM   26  N   UNL     3      -9.680   8.761  66.229  1.00  0.00    -0.267 N  
HETATM   27  C   UNL     3     -10.966  12.934  67.085  1.00  0.00    -0.262 A  
HETATM   28  H   UNL     3     -10.617  12.680  64.990  1.00  0.00     0.000 HD 
HETATM   29  C   UNL     2      -5.817   7.849  69.569  1.00  0.00    -0.027 C  
HETATM   30  N   UNL     2      -6.997  11.334  69.685  1.00  0.00    -0.099 NA 
HETATM   31  C   UNL     2      -5.956   6.393  67.627  1.00  0.00    -0.017 C  
HETATM   32  N   UNL     3     -10.962  12.122  68.118  1.00  0.00    -0.217 NA 
ENDROOT
BRANCH   2  33
HETATM   33  C   UNL     1     -10.450   6.427  70.088  1.00  0.00    -0.216 C  
HETATM   34  H2  UNL     1      -9.921   4.477  69.677  1.00  0.00     0.000 HD 
HETATM   35  N   UNL     1     -10.359   5.267  69.204  1.00  0.00    -0.216 NA 
HETATM   36  H1  UNL     1     -11.265   5.007  68.814  1.00  0.00     0.000 HD 
ENDBRANCH   2  33
TORSDOF 1
ENDMDL
MODEL       64
REMARK 921   NORMALIZED FREE ENERGY PREDICTED BY IDOCK:   -3.71 KCAL/MOL
REMARK 922        TOTAL FREE ENERGY PREDICTED BY IDOCK:   -4.29 KCAL/MOL
REMARK 923 INTER-LIGAND FREE ENERGY PREDICTED BY IDOCK:   -4.17 KCAL/MOL
REMARK 924 INTRA-LIGAND FREE ENERGY PREDICTED BY IDOCK:   -0.12 KCAL/MOL
REMARK 927      BINDING AFFINITY PREDICTED BY RF-SCORE:    0.00 PKD
ROOT
HETATM    1  N   UNL     1      -5.492  10.783  68.163  1.00  0.00    -0.036 NA 
HETATM    2  C   UNL     1      -6.652  11.301  68.894  1.00  0.00    -0.068 C  
HETATM    3  H1  UNL     1      -5.697   9.932  67.640  1.00  0.00     0.000 HD 
HETATM    4  C   UNL     2      -8.154   9.116  65.913  1.00  0.00    -0.111 C  
HETATM    5  H2  UNL     1      -4.700  10.643  68.791  1.00  0.00     0.000 HD 
HETATM    6  C   UNL     3      -7.685  13.732  66.706  1.00  0.00     0.631 C  
HETATM    7  N   UNL     2      -9.256   9.689  66.654  1.00  0.00    -0.147 N  
HETATM    8  O   UNL     3      -9.092  12.520  68.936  1.00  0.00     0.100 OA 
HETATM    9  N   UNL     3      -8.911  14.200  67.354  1.00  0.00    -0.195 N  
HETATM   10  O   UNL     2      -8.763   8.418  68.507  1.00  0.00    -0.135 OA 
HETATM   11  C   UNL     2     -10.042  10.684  66.129  1.00  0.00    -0.249 A  
HETATM   12  C   UNL     2     -11.119  11.161  66.806  1.00  0.00    -0.214 A  
HETATM   13  C   UNL     3      -9.471  13.599  68.484  1.00  0.00    -0.143 C  
HETATM   14  C   UNL     3      -9.669  15.131  66.700  1.00  0.00    -0.258 A  
HETATM   15  C   UNL     3     -11.056  13.635  70.333  1.00  0.00     0.645 C  
HETATM   16  C   UNL     2     -11.491  10.720  68.101  1.00  0.00    -0.271 C  
HETATM   17  N   UNL     2     -11.629  12.159  66.030  1.00  0.00    -0.420 NA 
HETATM   18  C   UNL     3     -10.874  15.527  67.183  1.00  0.00    -0.316 A  
HETATM   19  C   UNL     2     -10.792  12.277  64.950  1.00  0.00    -0.302 A  
HETATM   20  N   UNL     2     -10.533   9.885  68.672  1.00  0.00    -0.198 N  
HETATM   21  N   UNL     3     -11.404  16.298  66.195  1.00  0.00     0.306 NA 
HETATM   22  H   UNL     2     -12.467  12.710  66.216  1.00  0.00     0.000 HD 
HETATM   23  C   UNL     3     -11.399  15.115  68.428  1.00  0.00    -0.315 C  
HETATM   24  O   UNL     2     -12.526  11.091  68.644  1.00  0.00    -0.462 OA 
HETATM   25  O   UNL     3     -12.518  15.474  68.808  1.00  0.00     0.018 OA 
HETATM   26  N   UNL     3     -10.574  14.220  69.089  1.00  0.00    -0.221 N  
HETATM   27  C   UNL     3     -10.499  16.317  65.164  1.00  0.00    -0.227 A  
HETATM   28  H   UNL     3     -12.305  16.774  66.216  1.00  0.00     0.000 HD 
HETATM   29  C   UNL     2      -9.474   9.275  67.974  1.00  0.00    -0.137 C  
HETATM   30  N   UNL     2      -9.849  11.356  64.962  1.00  0.00    -0.252 NA 
HETATM   31  C   UNL     2     -10.552   9.705  70.110  1.00  0.00    -0.272 C  
HETATM   32  N   UNL     3      -9.413  15.640  65.463  1.00  0.00    -0.295 NA 
ENDROOT
BRANCH   2  33
HETATM   33  C   UNL     1      -6.341  12.592  69.688  1.00  0.00    -0.100 C  
HETATM   34  H2  UNL     1      -5.228  11.649  71.144  1.00  0.00     0.000 HD 
HETATM   35  N   UNL     1      -5.996  12.315  71.080  1.00  0.00    -0.526 NA 
HETATM   36  H1  UNL     1      -5.791  13.167  71.603  1.00  0.00     0.000 HD 
ENDBRANCH   2  33
TORSDOF 1
ENDMDL
MODEL       65
REMARK 921   NORMALIZED FREE ENERGY PREDICTED BY IDOCK:   -3.68 KCAL/MOL
REMARK 922        TOTAL FREE ENERGY PREDICTED BY IDOCK:   -4.26 KCAL/MOL
REMARK 923 INTER-LIGAND FREE ENERGY PREDICTED BY IDOCK:   -4.49 KCAL/MOL
REMARK 924 INTRA-LIGAND FREE ENERGY PREDICTED BY IDOCK:    0.23 KCAL/MOL
REMARK 927      BINDING AFFINITY PREDICTED BY RF-SCORE:    0.00 PKD
ROOT
HETATM    1  N   UNL     1      -6.956  12.969  66.899  1.00  0.00    -0.375 NA 
HETATM    2  C   UNL     1      -6.727  11.523  66.837  1.00  0.00    -0.139 C  
HETATM    3  H1  UNL     1      -7.850  13.249  66.495  1.00  0.00     0.000 HD 
HETATM    4  C   UNL     2     -10.687  11.987  66.692  1.00  0.00    -0.245 C  
HETATM    5  H2  UNL     1      -6.185  13.478  66.466  1.00  0.00     0.000 HD 
HETATM    6  C   UNL     3      -7.645  10.649  70.025  1.00  0.00     0.177 C  
HETATM    7  N   UNL     2     -10.397  10.570  66.672  1.00  0.00    -0.236 N  
HETATM    8  O   UNL     3      -7.277   8.986  67.676  1.00  0.00    -0.082 OA 
HETATM    9  N   UNL     3      -7.533   9.192  69.967  1.00  0.00    -0.067 N  
HETATM   10  O   UNL     2      -9.421  10.727  64.595  1.00  0.00    -0.216 OA 
HETATM   11  C   UNL     2     -10.675   9.759  67.744  1.00  0.00    -0.272 A  
HETATM   12  C   UNL     2     -10.466   8.418  67.685  1.00  0.00    -0.239 A  
HETATM   13  C   UNL     3      -7.267   8.478  68.795  1.00  0.00    -0.078 C  
HETATM   14  C   UNL     3      -7.923   8.471  71.061  1.00  0.00    -0.117 A  
HETATM   15  C   UNL     3      -6.658   6.403  67.674  1.00  0.00    -0.058 C  
HETATM   16  C   UNL     2      -9.912   7.759  66.559  1.00  0.00    -0.174 C  
HETATM   17  N   UNL     2     -10.795   7.940  68.919  1.00  0.00    -0.418 NA 
HETATM   18  C   UNL     3      -7.957   7.116  71.041  1.00  0.00    -0.103 A  
HETATM   19  C   UNL     2     -11.126   9.030  69.682  1.00  0.00    -0.067 A  
HETATM   20  N   UNL     2      -9.439   8.653  65.601  1.00  0.00    -0.122 N  
HETATM   21  N   UNL     3      -8.560   6.769  72.212  1.00  0.00    -0.121 NA 
HETATM   22  H   UNL     2     -10.794   6.964  69.215  1.00  0.00     0.000 HD 
HETATM   23  C   UNL     3      -7.498   6.331  69.960  1.00  0.00    -0.087 C  
HETATM   24  O   UNL     2      -9.832   6.537  66.493  1.00  0.00    -0.167 OA 
HETATM   25  O   UNL     3      -7.583   5.099  69.973  1.00  0.00    -0.062 OA 
HETATM   26  N   UNL     3      -7.052   7.095  68.894  1.00  0.00    -0.082 N  
HETATM   27  C   UNL     3      -8.870   7.931  72.869  1.00  0.00    -0.202 A  
HETATM   28  H   UNL     3      -8.747   5.821  72.538  1.00  0.00     0.000 HD 
HETATM   29  C   UNL     2      -9.737  10.029  65.562  1.00  0.00    -0.289 C  
HETATM   30  N   UNL     2     -11.110  10.143  68.975  1.00  0.00    -0.222 NA 
HETATM   31  C   UNL     2      -8.484   8.168  64.624  1.00  0.00    -0.024 C  
HETATM   32  N   UNL     3      -8.458   8.987  72.204  1.00  0.00    -0.317 NA 
ENDROOT
BRANCH   2  33
HETATM   33  C   UNL     1      -5.372  11.097  67.449  1.00  0.00    -0.043 C  
HETATM   34  H2  UNL     1      -5.924  11.477  69.399  1.00  0.00     0.000 HD 
HETATM   35  N   UNL     1      -5.152  11.687  68.767  1.00  0.00    -0.047 NA 
HETATM   36  H1  UNL     1      -4.258  11.406  69.171  1.00  0.00     0.000 HD 
ENDBRANCH   2  33
TORSDOF 1
ENDMDL
MODEL       66
REMARK 921   NORMALIZED FREE ENERGY PREDICTED BY IDOCK:   -3.58 KCAL/MOL
REMARK 922        TOTAL FREE ENERGY PREDICTED BY IDOCK:   -4.15 KCAL/MOL
REMARK 923 INTER-LIGAND FREE ENERGY PREDICTED BY IDOCK:   -4.05 KCAL/MOL
REMARK 924 INTRA-LIGAND FREE ENERGY PREDICTED BY IDOCK:   -0.10 KCAL/MOL
REMARK 927      BINDING AFFINITY PREDICTED BY RF-SCORE:    0.00 PKD
ROOT
HETATM    1  N   UNL     1     -10.048  12.204  69.046  1.00  0.00    -0.421 NA 
HETATM    2  C   UNL     1      -9.865  10.755  68.933  1.00  0.00    -0.199 C  
HETATM    3  H1  UNL     1      -9.229  12.682  69.422  1.00  0.00     0.000 HD 
HETATM    4  C   UNL     2      -6.190  12.305  68.873  1.00  0.00    -0.078 C  
HETATM    5  H2  UNL     1     -10.881  12.424  69.592  1.00  0.00     0.000 HD 
HETATM    6  C   UNL     3      -9.070  10.524  65.604  1.00  0.00    -0.182 C  
HETATM    7  N   UNL     2      -6.077  10.871  68.726  1.00  0.00    -0.040 N  
HETATM    8  O   UNL     3      -8.729   8.583  67.734  1.00  0.00    -0.135 OA 
HETATM    9  N   UNL     3      -8.772   9.097  65.478  1.00  0.00    -0.169 N  
HETATM   10  O   UNL     2      -6.844  10.521  70.866  1.00  0.00    -0.270 OA 
HETATM   11  C   UNL     2      -5.697  10.292  67.541  1.00  0.00    -0.045 A  
HETATM   12  C   UNL     2      -5.524   8.948  67.438  1.00  0.00    -0.038 A  
HETATM   13  C   UNL     3      -8.713   8.216  66.561  1.00  0.00    -0.143 C  
HETATM   14  C   UNL     3      -8.312   8.638  64.275  1.00  0.00    -0.130 A  
HETATM   15  C   UNL     3      -8.615   5.946  67.439  1.00  0.00    -0.106 C  
HETATM   16  C   UNL     2      -5.761   8.043  68.502  1.00  0.00    -0.032 C  
HETATM   17  N   UNL     2      -5.204   8.718  66.133  1.00  0.00    -0.030 NA 
HETATM   18  C   UNL     3      -7.907   7.354  64.115  1.00  0.00    -0.120 A  
HETATM   19  C   UNL     2      -5.262   9.932  65.498  1.00  0.00    -0.046 A  
HETATM   20  N   UNL     2      -6.362   8.658  69.599  1.00  0.00    -0.039 N  
HETATM   21  N   UNL     3      -7.353   7.319  62.872  1.00  0.00    -0.081 NA 
HETATM   22  H   UNL     2      -4.967   7.819  65.712  1.00  0.00     0.000 HD 
HETATM   23  C   UNL     3      -8.022   6.360  65.113  1.00  0.00    -0.116 C  
HETATM   24  O   UNL     2      -5.497   6.848  68.413  1.00  0.00    -0.015 OA 
HETATM   25  O   UNL     3      -7.605   5.211  64.932  1.00  0.00    -0.074 OA 
HETATM   26  N   UNL     3      -8.550   6.847  66.297  1.00  0.00    -0.130 N  
HETATM   27  C   UNL     3      -7.441   8.586  62.353  1.00  0.00    -0.105 A  
HETATM   28  H   UNL     3      -6.948   6.504  62.412  1.00  0.00     0.000 HD 
HETATM   29  C   UNL     2      -6.449  10.049  69.797  1.00  0.00    -0.064 C  
HETATM   30  N   UNL     2      -5.510  10.912  66.344  1.00  0.00    -0.087 NA 
HETATM   31  C   UNL     2      -7.043   7.819  70.565  1.00  0.00    -0.047 C  
HETATM   32  N   UNL     3      -8.057   9.403  63.177  1.00  0.00    -0.143 NA 
ENDROOT
BRANCH   2  33
HETATM   33  C   UNL     1     -11.106  10.030  68.362  1.00  0.00    -0.182 C  
HETATM   34  H2  UNL     1     -12.337  11.682  68.444  1.00  0.00     0.000 HD 
HETATM   35  N   UNL     1     -12.352  10.701  68.723  1.00  0.00    -0.784 NA 
HETATM   36  H1  UNL     1     -13.171  10.223  68.346  1.00  0.00     0.000 HD 
ENDBRANCH   2  33
TORSDOF 1
ENDMDL
MODEL       67
REMARK 921   NORMALIZED FREE ENERGY PREDICTED BY IDOCK:   -3.42 KCAL/MOL
REMARK 922        TOTAL FREE ENERGY PREDICTED BY IDOCK:   -3.98 KCAL/MOL
REMARK 923 INTER-LIGAND FREE ENERGY PREDICTED BY IDOCK:   -3.62 KCAL/MOL
REMARK 924 INTRA-LIGAND FREE ENERGY PREDICTED BY IDOCK:   -0.36 KCAL/MOL
REMARK 927      BINDING AFFINITY PREDICTED BY RF-SCORE:    0.00 PKD
ROOT
HETATM    1  N   UNL     1      -8.436  13.813  68.046  1.00  0.00    -0.165 NA 
HETATM    2  C   UNL     1      -7.607  12.819  67.359  1.00  0.00    -0.152 C  
HETATM    3  H1  UNL     1      -9.361  13.920  67.627  1.00  0.00     0.000 HD 
HETATM    4  C   UNL     2     -11.380  11.823  66.527  1.00  0.00    -0.305 C  
HETATM    5  H2  UNL     1      -7.956  14.711  68.102  1.00  0.00     0.000 HD 
HETATM    6  C   UNL     3      -8.086  10.127  69.430  1.00  0.00    -0.160 C  
HETATM    7  N   UNL     2     -10.508  10.852  65.904  1.00  0.00    -0.245 N  
HETATM    8  O   UNL     3      -7.019  10.230  66.734  1.00  0.00    -0.087 OA 
HETATM    9  N   UNL     3      -7.357   9.080  68.714  1.00  0.00    -0.075 N  
HETATM   10  O   UNL     2      -9.677  12.426  64.447  1.00  0.00    -0.114 OA 
HETATM   11  C   UNL     2     -10.419   9.560  66.362  1.00  0.00    -0.098 A  
HETATM   12  C   UNL     2      -9.653   8.639  65.723  1.00  0.00    -0.064 A  
HETATM   13  C   UNL     3      -6.800   9.250  67.444  1.00  0.00    -0.077 C  
HETATM   14  C   UNL     3      -7.409   7.806  69.207  1.00  0.00    -0.087 A  
HETATM   15  C   UNL     3      -5.348   8.473  65.649  1.00  0.00    -0.034 C  
HETATM   16  C   UNL     2      -8.860   8.931  64.585  1.00  0.00    -0.055 C  
HETATM   17  N   UNL     2      -9.754   7.499  66.464  1.00  0.00    -0.341 NA 
HETATM   18  C   UNL     3      -6.855   6.765  68.537  1.00  0.00    -0.074 A  
HETATM   19  C   UNL     2     -10.528   7.810  67.552  1.00  0.00    -0.268 A  
HETATM   20  N   UNL     2      -8.809  10.295  64.309  1.00  0.00    -0.199 N  
HETATM   21  N   UNL     3      -7.260   5.660  69.222  1.00  0.00    -0.064 NA 
HETATM   22  H   UNL     2      -9.335   6.593  66.251  1.00  0.00     0.000 HD 
HETATM   23  C   UNL     3      -6.094   6.902  67.355  1.00  0.00    -0.036 C  
HETATM   24  O   UNL     2      -8.260   8.058  63.966  1.00  0.00    -0.134 OA 
HETATM   25  O   UNL     3      -5.640   5.919  66.760  1.00  0.00    -0.012 OA 
HETATM   26  N   UNL     3      -6.012   8.214  66.919  1.00  0.00    -0.051 N  
HETATM   27  C   UNL     3      -8.045   6.091  70.260  1.00  0.00    -0.111 A  
HETATM   28  H   UNL     3      -7.023   4.693  69.005  1.00  0.00     0.000 HD 
HETATM   29  C   UNL     2      -9.670  11.263  64.861  1.00  0.00    -0.256 C  
HETATM   30  N   UNL     2     -10.987   9.044  67.486  1.00  0.00    -0.046 NA 
HETATM   31  C   UNL     2      -7.730  10.786  63.474  1.00  0.00     0.234 C  
HETATM   32  N   UNL     3      -8.122   7.403  70.295  1.00  0.00    -0.115 NA 
ENDROOT
BRANCH   2  33
HETATM   33  C   UNL     1      -6.206  12.657  67.994  1.00  0.00    -0.094 C  
HETATM   34  H2  UNL     1      -5.172  13.240  66.308  1.00  0.00     0.000 HD 
HETATM   35  N   UNL     1      -5.161  12.480  66.989  1.00  0.00    -0.339 NA 
HETATM   36  H1  UNL     1      -4.237  12.374  67.407  1.00  0.00     0.000 HD 
ENDBRANCH   2  33
TORSDOF 1
ENDMDL
MODEL       68
REMARK 921   NORMALIZED FREE ENERGY PREDICTED BY IDOCK:   -3.36 KCAL/MOL
REMARK 922        TOTAL FREE ENERGY PREDICTED BY IDOCK:   -3.93 KCAL/MOL
REMARK 923 INTER-LIGAND FREE ENERGY PREDICTED BY IDOCK:   -3.57 KCAL/MOL
REMARK 924 INTRA-LIGAND FREE ENERGY PREDICTED BY IDOCK:   -0.35 KCAL/MOL
REMARK 927      BINDING AFFINITY PREDICTED BY RF-SCORE:    0.00 PKD
ROOT
HETATM    1  N   UNL     1      -8.491   7.650  71.234  1.00  0.00    -0.114 NA 
HETATM    2  C   UNL     1      -9.312   8.371  70.257  1.00  0.00    -0.164 C  
HETATM    3  H1  UNL     1      -7.897   6.939  70.807  1.00  0.00     0.000 HD 
HETATM    4  C   UNL     2      -6.194   6.967  68.203  1.00  0.00    -0.035 C  
HETATM    5  H2  UNL     1      -9.072   7.246  71.969  1.00  0.00     0.000 HD 
HETATM    6  C   UNL     3      -7.409  11.199  69.868  1.00  0.00     0.282 C  
HETATM    7  N   UNL     2      -7.028   7.725  67.296  1.00  0.00    -0.076 N  
HETATM    8  O   UNL     3      -9.564  10.168  68.220  1.00  0.00    -0.138 OA 
HETATM    9  N   UNL     3      -8.145  11.898  68.814  1.00  0.00    -0.077 N  
HETATM   10  O   UNL     2      -8.730   6.187  67.463  1.00  0.00    -0.107 OA 
HETATM   11  C   UNL     2      -6.632   8.939  66.791  1.00  0.00    -0.064 A  
HETATM   12  C   UNL     2      -7.392   9.605  65.884  1.00  0.00    -0.099 A  
HETATM   13  C   UNL     3      -9.233  11.349  68.130  1.00  0.00    -0.178 C  
HETATM   14  C   UNL     3      -7.614  13.055  68.317  1.00  0.00    -0.135 A  
HETATM   15  C   UNL     3     -11.135  11.603  66.631  1.00  0.00    -0.307 C  
HETATM   16  C   UNL     2      -8.651   9.144  65.425  1.00  0.00    -0.169 C  
HETATM   17  N   UNL     2      -6.735  10.775  65.643  1.00  0.00    -0.315 NA 
HETATM   18  C   UNL     3      -8.178  13.696  67.263  1.00  0.00    -0.152 A  
HETATM   19  C   UNL     2      -5.641  10.783  66.469  1.00  0.00    -0.085 A  
HETATM   20  N   UNL     2      -9.103   8.036  66.139  1.00  0.00    -0.183 N  
HETATM   21  N   UNL     3      -7.289  14.676  66.941  1.00  0.00    -0.297 NA 
HETATM   22  H   UNL     2      -7.005  11.501  64.979  1.00  0.00     0.000 HD 
HETATM   23  C   UNL     3      -9.397  13.309  66.663  1.00  0.00    -0.242 C  
HETATM   24  O   UNL     2      -9.267   9.712  64.529  1.00  0.00    -0.248 OA 
HETATM   25  O   UNL     3      -9.852  13.904  65.681  1.00  0.00    -0.276 OA 
HETATM   26  N   UNL     3      -9.936  12.168  67.234  1.00  0.00    -0.202 N  
HETATM   27  C   UNL     3      -6.231  14.566  67.807  1.00  0.00    -0.136 A  
HETATM   28  H   UNL     3      -7.390  15.364  66.195  1.00  0.00     0.000 HD 
HETATM   29  C   UNL     2      -8.309   7.248  66.994  1.00  0.00    -0.118 C  
HETATM   30  N   UNL     2      -5.528   9.654  67.140  1.00  0.00    -0.042 NA 
HETATM   31  C   UNL     2     -10.517   7.720  66.090  1.00  0.00     0.887 C  
HETATM   32  N   UNL     3      -6.422  13.605  68.683  1.00  0.00    -0.086 NA 
ENDROOT
BRANCH   2  33
HETATM   33  C   UNL     1     -10.214   9.449  70.903  1.00  0.00    -0.303 C  
HETATM   34  H2  UNL     1     -11.980   8.445  70.555  1.00  0.00     0.000 HD 
HETATM   35  N   UNL     1     -11.591   9.379  70.423  1.00  0.00    -0.392 NA 
HETATM   36  H1  UNL     1     -12.186  10.090  70.849  1.00  0.00     0.000 HD 
ENDBRANCH   2  33
TORSDOF 1
ENDMDL
MODEL       69
REMARK 921   NORMALIZED FREE ENERGY PREDICTED BY IDOCK:   -3.30 KCAL/MOL
REMARK 922        TOTAL FREE ENERGY PREDICTED BY IDOCK:   -3.86 KCAL/MOL
REMARK 923 INTER-LIGAND FREE ENERGY PREDICTED BY IDOCK:   -3.83 KCAL/MOL
REMARK 924 INTRA-LIGAND FREE ENERGY PREDICTED BY IDOCK:   -0.03 KCAL/MOL
REMARK 927      BINDING AFFINITY PREDICTED BY RF-SCORE:    0.00 PKD
ROOT
HETATM    1  N   UNL     1     -12.422  11.062  70.578  1.00  0.00    -0.342 NA 
HETATM    2  C   UNL     1     -12.010  10.603  69.249  1.00  0.00    -0.197 C  
HETATM    3  H1  UNL     1     -12.257  10.369  71.308  1.00  0.00     0.000 HD 
HETATM    4  C   UNL     2      -9.855   8.462  71.834  1.00  0.00    -0.258 C  
HETATM    5  H2  UNL     1     -13.398  11.361  70.574  1.00  0.00     0.000 HD 
HETATM    6  C   UNL     3      -8.946  12.130  69.027  1.00  0.00     0.407 C  
HETATM    7  N   UNL     2      -9.465   8.080  70.494  1.00  0.00    -0.165 N  
HETATM    8  O   UNL     3     -10.065   9.971  67.443  1.00  0.00    -0.186 OA 
HETATM    9  N   UNL     3      -8.455  11.605  67.753  1.00  0.00    -0.138 N  
HETATM   10  O   UNL     2     -11.525   7.142  70.085  1.00  0.00    -0.266 OA 
HETATM   11  C   UNL     2      -8.240   8.417  69.973  1.00  0.00    -0.121 A  
HETATM   12  C   UNL     2      -7.858   7.989  68.742  1.00  0.00    -0.114 A  
HETATM   13  C   UNL     3      -9.112  10.618  67.013  1.00  0.00    -0.144 C  
HETATM   14  C   UNL     3      -7.183  11.929  67.370  1.00  0.00    -0.142 A  
HETATM   15  C   UNL     3      -9.387   9.351  64.952  1.00  0.00    -0.150 C  
HETATM   16  C   UNL     2      -8.684   7.217  67.888  1.00  0.00    -0.126 C  
HETATM   17  N   UNL     2      -6.631   8.542  68.525  1.00  0.00    -0.058 NA 
HETATM   18  C   UNL     3      -6.619  11.390  66.261  1.00  0.00     0.048 A  
HETATM   19  C   UNL     2      -6.362   9.330  69.614  1.00  0.00    -0.039 A  
HETATM   20  N   UNL     2      -9.987   7.104  68.370  1.00  0.00    -0.153 N  
HETATM   21  N   UNL     3      -5.319  11.792  66.306  1.00  0.00    -0.474 NA 
HETATM   22  H   UNL     2      -6.031   8.397  67.713  1.00  0.00     0.000 HD 
HETATM   23  C   UNL     3      -7.305  10.551  65.355  1.00  0.00    -0.084 C  
HETATM   24  O   UNL     2      -8.276   6.756  66.827  1.00  0.00    -0.111 OA 
HETATM   25  O   UNL     3      -6.737  10.053  64.377  1.00  0.00    -0.122 OA 
HETATM   26  N   UNL     3      -8.609  10.294  65.744  1.00  0.00    -0.148 N  
HETATM   27  C   UNL     3      -5.164  12.540  67.444  1.00  0.00    -0.073 A  
HETATM   28  H   UNL     3      -4.595  11.576  65.621  1.00  0.00     0.000 HD 
HETATM   29  C   UNL     2     -10.394   7.422  69.679  1.00  0.00    -0.223 C  
HETATM   30  N   UNL     2      -7.303   9.230  70.532  1.00  0.00    -0.102 NA 
HETATM   31  C   UNL     2     -11.032   6.730  67.437  1.00  0.00    -0.337 C  
HETATM   32  N   UNL     3      -6.299  12.671  68.094  1.00  0.00    -0.071 NA 
ENDROOT
BRANCH   2  33
HETATM   33  C   UNL     1     -12.260  11.654  68.141  1.00  0.00     0.299 C  
HETATM   34  H2  UNL     1     -11.151  13.140  69.043  1.00  0.00     0.000 HD 
HETATM   35  N   UNL     1     -12.073  13.020  68.623  1.00  0.00    -0.241 NA 
HETATM   36  H1  UNL     1     -12.238  13.713  67.892  1.00  0.00     0.000 HD 
ENDBRANCH   2  33
TORSDOF 1
ENDMDL
MODEL       70
REMARK 921   NORMALIZED FREE ENERGY PREDICTED BY IDOCK:   -3.24 KCAL/MOL
REMARK 922        TOTAL FREE ENERGY PREDICTED BY IDOCK:   -3.79 KCAL/MOL
REMARK 923 INTER-LIGAND FREE ENERGY PREDICTED BY IDOCK:   -3.45 KCAL/MOL
REMARK 924 INTRA-LIGAND FREE ENERGY PREDICTED BY IDOCK:   -0.34 KCAL/MOL
REMARK 927      BINDING AFFINITY PREDICTED BY RF-SCORE:    0.00 PKD
ROOT
HETATM    1  N   UNL     1      -9.099   9.375  67.112  1.00  0.00    -0.129 NA 
HETATM    2  C   UNL     1      -8.450   8.164  67.621  1.00  0.00    -0.131 C  
HETATM    3  H1  UNL     1     -10.101   9.401  67.302  1.00  0.00     0.000 HD 
HETATM    4  C   UNL     2     -11.739   8.624  69.831  1.00  0.00     0.400 C  
HETATM    5  H2  UNL     1      -8.914   9.495  66.116  1.00  0.00     0.000 HD 
HETATM    6  C   UNL     3      -7.151   9.385  70.552  1.00  0.00    -0.112 C  
HETATM    7  N   UNL     2     -11.031   7.459  70.312  1.00  0.00    -0.253 N  
HETATM    8  O   UNL     3      -7.538   6.641  69.693  1.00  0.00    -0.093 OA 
HETATM    9  N   UNL     3      -6.585   8.172  71.143  1.00  0.00    -0.041 N  
HETATM   10  O   UNL     2     -11.442   6.314  68.360  1.00  0.00    -0.201 OA 
HETATM   11  C   UNL     2     -10.390   7.452  71.526  1.00  0.00    -0.200 A  
HETATM   12  C   UNL     2      -9.791   6.328  71.999  1.00  0.00    -0.157 A  
HETATM   13  C   UNL     3      -6.755   6.893  70.606  1.00  0.00    -0.053 C  
HETATM   14  C   UNL     3      -6.051   8.256  72.398  1.00  0.00    -0.061 A  
HETATM   15  C   UNL     3      -6.159   4.533  70.533  1.00  0.00    -0.021 C  
HETATM   16  C   UNL     2      -9.734   5.107  71.280  1.00  0.00    -0.169 C  
HETATM   17  N   UNL     2      -9.219   6.687  73.183  1.00  0.00    -0.127 NA 
HETATM   18  C   UNL     3      -5.612   7.154  73.056  1.00  0.00    -0.041 A  
HETATM   19  C   UNL     2      -9.448   8.030  73.334  1.00  0.00    -0.237 A  
HETATM   20  N   UNL     2     -10.193   5.240  69.972  1.00  0.00    -0.267 N  
HETATM   21  N   UNL     3      -5.331   7.592  74.314  1.00  0.00    -0.057 NA 
HETATM   22  H   UNL     2      -8.719   6.075  73.829  1.00  0.00     0.000 HD 
HETATM   23  C   UNL     3      -5.561   5.862  72.485  1.00  0.00    -0.031 C  
HETATM   24  O   UNL     2      -9.280   4.080  71.774  1.00  0.00    -0.117 OA 
HETATM   25  O   UNL     3      -5.188   4.882  73.137  1.00  0.00    -0.008 OA 
HETATM   26  N   UNL     3      -6.054   5.828  71.191  1.00  0.00    -0.032 N  
HETATM   27  C   UNL     3      -5.626   8.931  74.352  1.00  0.00    -0.122 A  
HETATM   28  H   UNL     3      -4.969   7.031  75.084  1.00  0.00     0.000 HD 
HETATM   29  C   UNL     2     -10.925   6.338  69.480  1.00  0.00    -0.379 C  
HETATM   30  N   UNL     2     -10.202   8.508  72.364  1.00  0.00    -0.317 NA 
HETATM   31  C   UNL     2      -9.809   4.230  69.006  1.00  0.00    -0.078 C  
HETATM   32  N   UNL     3      -6.033   9.370  73.182  1.00  0.00    -0.301 NA 
ENDROOT
BRANCH   2  33
HETATM   33  C   UNL     1      -6.931   8.124  67.333  1.00  0.00    -0.075 C  
HETATM   34  H2  UNL     1      -6.988   6.348  66.288  1.00  0.00     0.000 HD 
HETATM   35  N   UNL     1      -6.457   6.772  67.048  1.00  0.00    -0.041 NA 
HETATM   36  H1  UNL     1      -5.455   6.746  66.858  1.00  0.00     0.000 HD 
ENDBRANCH   2  33
TORSDOF 1
ENDMDL
MODEL       71
REMARK 921   NORMALIZED FREE ENERGY PREDICTED BY IDOCK:   -3.23 KCAL/MOL
REMARK 922        TOTAL FREE ENERGY PREDICTED BY IDOCK:   -3.79 KCAL/MOL
REMARK 923 INTER-LIGAND FREE ENERGY PREDICTED BY IDOCK:   -3.68 KCAL/MOL
REMARK 924 INTRA-LIGAND FREE ENERGY PREDICTED BY IDOCK:   -0.11 KCAL/MOL
REMARK 927      BINDING AFFINITY PREDICTED BY RF-SCORE:    0.00 PKD
ROOT
HETATM    1  N   UNL     1     -12.520  13.790  68.450  1.00  0.00    -0.277 NA 
HETATM    2  C   UNL     1     -11.310  13.208  69.039  1.00  0.00    -0.282 C  
HETATM    3  H1  UNL     1     -12.348  14.244  67.553  1.00  0.00     0.000 HD 
HETATM    4  C   UNL     2     -10.603  13.403  65.118  1.00  0.00    -0.343 C  
HETATM    5  H2  UNL     1     -12.970  14.432  69.103  1.00  0.00     0.000 HD 
HETATM    6  C   UNL     3     -11.718   9.934  68.097  1.00  0.00     0.824 C  
HETATM    7  N   UNL     2      -9.453  12.799  65.755  1.00  0.00    -0.090 N  
HETATM    8  O   UNL     3      -9.354  11.306  69.073  1.00  0.00    -0.126 OA 
HETATM    9  N   UNL     3     -10.470   9.340  68.577  1.00  0.00    -0.210 N  
HETATM   10  O   UNL     2      -8.933  14.762  66.836  1.00  0.00    -0.226 OA 
HETATM   11  C   UNL     2      -9.154  11.469  65.597  1.00  0.00    -0.126 A  
HETATM   12  C   UNL     2      -8.031  10.931  66.140  1.00  0.00    -0.155 A  
HETATM   13  C   UNL     3      -9.412  10.079  69.114  1.00  0.00    -0.207 C  
HETATM   14  C   UNL     3     -10.229   8.026  68.286  1.00  0.00    -0.205 A  
HETATM   15  C   UNL     3      -7.298  10.178  70.319  1.00  0.00    -0.095 C  
HETATM   16  C   UNL     2      -7.117  11.664  66.938  1.00  0.00    -0.124 C  
HETATM   17  N   UNL     2      -8.076   9.603  65.837  1.00  0.00    -0.111 NA 
HETATM   18  C   UNL     3      -9.046   7.438  68.596  1.00  0.00    -0.134 A  
HETATM   19  C   UNL     2      -9.260   9.394  65.178  1.00  0.00    -0.225 A  
HETATM   20  N   UNL     2      -7.589  12.937  67.253  1.00  0.00    -0.135 N  
HETATM   21  N   UNL     3      -9.103   6.215  68.000  1.00  0.00    -0.116 NA 
HETATM   22  H   UNL     2      -7.367   8.903  66.057  1.00  0.00     0.000 HD 
HETATM   23  C   UNL     3      -8.018   8.072  69.329  1.00  0.00    -0.116 C  
HETATM   24  O   UNL     2      -6.059  11.181  67.328  1.00  0.00    -0.056 OA 
HETATM   25  O   UNL     3      -6.943   7.507  69.556  1.00  0.00    -0.057 OA 
HETATM   26  N   UNL     3      -8.324   9.382  69.659  1.00  0.00    -0.132 N  
HETATM   27  C   UNL     3     -10.309   6.135  67.352  1.00  0.00    -0.211 A  
HETATM   28  H   UNL     3      -8.383   5.494  68.030  1.00  0.00     0.000 HD 
HETATM   29  C   UNL     2      -8.675  13.574  66.623  1.00  0.00     0.003 C  
HETATM   30  N   UNL     2      -9.910  10.523  64.975  1.00  0.00    -0.282 NA 
HETATM   31  C   UNL     2      -6.994  13.628  68.380  1.00  0.00    -0.104 C  
HETATM   32  N   UNL     3     -11.032   7.216  67.542  1.00  0.00    -0.226 NA 
ENDROOT
BRANCH   2  33
HETATM   33  C   UNL     1     -11.570  12.519  70.399  1.00  0.00     0.168 C  
HETATM   34  H2  UNL     1     -13.591  12.927  70.428  1.00  0.00     0.000 HD 
HETATM   35  N   UNL     1     -12.784  13.012  71.045  1.00  0.00    -0.309 NA 
HETATM   36  H1  UNL     1     -12.956  12.558  71.942  1.00  0.00     0.000 HD 
ENDBRANCH   2  33
TORSDOF 1
ENDMDL
MODEL       72
REMARK 921   NORMALIZED FREE ENERGY PREDICTED BY IDOCK:   -3.15 KCAL/MOL
REMARK 922        TOTAL FREE ENERGY PREDICTED BY IDOCK:   -3.70 KCAL/MOL
REMARK 923 INTER-LIGAND FREE ENERGY PREDICTED BY IDOCK:   -3.38 KCAL/MOL
REMARK 924 INTRA-LIGAND FREE ENERGY PREDICTED BY IDOCK:   -0.32 KCAL/MOL
REMARK 927      BINDING AFFINITY PREDICTED BY RF-SCORE:    0.00 PKD
ROOT
HETATM    1  N   UNL     1     -10.566   7.054  66.607  1.00  0.00    -0.523 NA 
HETATM    2  C   UNL     1      -9.513   7.242  67.609  1.00  0.00    -0.131 C  
HETATM    3  H1  UNL     1     -10.359   6.306  65.946  1.00  0.00     0.000 HD 
HETATM    4  C   UNL     2      -9.138   3.473  66.357  1.00  0.00    -0.159 C  
HETATM    5  H2  UNL     1     -10.762   7.928  66.119  1.00  0.00     0.000 HD 
HETATM    6  C   UNL     3     -10.881   5.501  70.230  1.00  0.00    -0.215 C  
HETATM    7  N   UNL     2      -8.144   3.710  67.380  1.00  0.00    -0.089 N  
HETATM    8  O   UNL     3      -8.155   6.408  69.824  1.00  0.00    -0.116 OA 
HETATM    9  N   UNL     3      -9.804   5.575  71.217  1.00  0.00    -0.169 N  
HETATM   10  O   UNL     2      -7.012   5.195  66.037  1.00  0.00    -0.063 OA 
HETATM   11  C   UNL     2      -8.234   3.136  68.624  1.00  0.00    -0.064 A  
HETATM   12  C   UNL     2      -7.256   3.308  69.551  1.00  0.00    -0.045 A  
HETATM   13  C   UNL     3      -8.541   6.111  70.952  1.00  0.00    -0.132 C  
HETATM   14  C   UNL     3      -9.958   4.890  72.390  1.00  0.00    -0.177 A  
HETATM   15  C   UNL     3      -6.380   6.919  71.732  1.00  0.00    -0.042 C  
HETATM   16  C   UNL     2      -6.108   4.112  69.340  1.00  0.00    -0.027 C  
HETATM   17  N   UNL     2      -7.689   2.656  70.667  1.00  0.00    -0.042 NA 
HETATM   18  C   UNL     3      -8.958   4.818  73.303  1.00  0.00    -0.113 A  
HETATM   19  C   UNL     2      -8.939   2.175  70.376  1.00  0.00    -0.085 A  
HETATM   20  N   UNL     2      -6.184   4.847  68.159  1.00  0.00    -0.034 N  
HETATM   21  N   UNL     3      -9.400   3.921  74.227  1.00  0.00    -0.098 NA 
HETATM   22  H   UNL     2      -7.181   2.546  71.545  1.00  0.00     0.000 HD 
HETATM   23  C   UNL     3      -7.734   5.514  73.191  1.00  0.00    -0.100 C  
HETATM   24  O   UNL     2      -5.191   4.166  70.153  1.00  0.00    -0.003 OA 
HETATM   25  O   UNL     3      -6.838   5.387  74.031  1.00  0.00    -0.075 OA 
HETATM   26  N   UNL     3      -7.639   6.246  72.018  1.00  0.00    -0.095 N  
HETATM   27  C   UNL     3     -10.636   3.491  73.817  1.00  0.00    -0.202 A  
HETATM   28  H   UNL     3      -8.905   3.624  75.068  1.00  0.00     0.000 HD 
HETATM   29  C   UNL     2      -7.108   4.616  67.122  1.00  0.00    -0.068 C  
HETATM   30  N   UNL     2      -9.272   2.411  69.122  1.00  0.00    -0.126 NA 
HETATM   31  C   UNL     2      -5.324   6.005  68.017  1.00  0.00    -0.004 C  
HETATM   32  N   UNL     3     -11.017   4.096  72.715  1.00  0.00    -0.079 NA 
ENDROOT
BRANCH   2  33
HETATM   33  C   UNL     1      -9.826   8.377  68.612  1.00  0.00    -0.170 C  
HETATM   34  H2  UNL     1      -8.504   9.725  67.784  1.00  0.00     0.000 HD 
HETATM   35  N   UNL     1      -8.741   9.350  68.702  1.00  0.00    -0.130 NA 
HETATM   36  H1  UNL     1      -8.948  10.099  69.363  1.00  0.00     0.000 HD 
ENDBRANCH   2  33
TORSDOF 1
ENDMDL
MODEL       73
REMARK 921   NORMALIZED FREE ENERGY PREDICTED BY IDOCK:   -3.13 KCAL/MOL
REMARK 922        TOTAL FREE ENERGY PREDICTED BY IDOCK:   -3.68 KCAL/MOL
REMARK 923 INTER-LIGAND FREE ENERGY PREDICTED BY IDOCK:   -3.58 KCAL/MOL
REMARK 924 INTRA-LIGAND FREE ENERGY PREDICTED BY IDOCK:   -0.10 KCAL/MOL
REMARK 927      BINDING AFFINITY PREDICTED BY RF-SCORE:    0.00 PKD
ROOT
HETATM    1  N   UNL     1     -10.003   2.958  64.873  1.00  0.00    -0.365 NA 
HETATM    2  C   UNL     1      -8.861   3.823  65.181  1.00  0.00    -0.123 C  
HETATM    3  H1  UNL     1     -10.059   2.139  65.480  1.00  0.00     0.000 HD 
HETATM    4  C   UNL     2      -9.615   1.811  68.542  1.00  0.00    -0.108 C  
HETATM    5  H2  UNL     1      -9.997   2.682  63.890  1.00  0.00     0.000 HD 
HETATM    6  C   UNL     3     -10.433   6.210  67.080  1.00  0.00    -0.277 C  
HETATM    7  N   UNL     2      -8.514   2.716  68.794  1.00  0.00    -0.064 N  
HETATM    8  O   UNL     3      -7.604   5.623  66.801  1.00  0.00    -0.090 OA 
HETATM    9  N   UNL     3      -9.299   7.036  67.497  1.00  0.00    -0.123 N  
HETATM   10  O   UNL     2      -7.137   1.551  67.367  1.00  0.00    -0.038 OA 
HETATM   11  C   UNL     2      -8.656   3.822  69.594  1.00  0.00    -0.069 A  
HETATM   12  C   UNL     2      -7.596   4.622  69.881  1.00  0.00    -0.054 A  
HETATM   13  C   UNL     3      -7.965   6.712  67.241  1.00  0.00    -0.117 C  
HETATM   14  C   UNL     3      -9.537   8.060  68.371  1.00  0.00    -0.150 A  
HETATM   15  C   UNL     3      -5.610   7.334  67.186  1.00  0.00    -0.029 C  
HETATM   16  C   UNL     2      -6.295   4.420  69.357  1.00  0.00    -0.028 C  
HETATM   17  N   UNL     2      -8.097   5.636  70.643  1.00  0.00    -0.114 NA 
HETATM   18  C   UNL     3      -8.523   8.796  68.891  1.00  0.00    -0.131 A  
HETATM   19  C   UNL     2      -9.450   5.429  70.724  1.00  0.00    -0.167 A  
HETATM   20  N   UNL     2      -6.266   3.429  68.378  1.00  0.00    -0.031 N  
HETATM   21  N   UNL     3      -9.114   9.576  69.838  1.00  0.00    -0.200 NA 
HETATM   22  H   UNL     2      -7.569   6.397  71.069  1.00  0.00     0.000 HD 
HETATM   23  C   UNL     3      -7.170   8.657  68.509  1.00  0.00    -0.081 C  
HETATM   24  O   UNL     2      -5.335   5.094  69.715  1.00  0.00    -0.003 OA 
HETATM   25  O   UNL     3      -6.277   9.325  69.039  1.00  0.00    -0.042 OA 
HETATM   26  N   UNL     3      -6.977   7.651  67.577  1.00  0.00    -0.078 N  
HETATM   27  C   UNL     3     -10.449   9.261  69.848  1.00  0.00    -0.227 A  
HETATM   28  H   UNL     3      -8.651  10.265  70.429  1.00  0.00     0.000 HD 
HETATM   29  C   UNL     2      -7.298   2.503  68.135  1.00  0.00    -0.048 C  
HETATM   30  N   UNL     2      -9.807   4.304  70.137  1.00  0.00    -0.219 NA 
HETATM   31  C   UNL     2      -5.140   3.403  67.464  1.00  0.00    -0.008 C  
HETATM   32  N   UNL     3     -10.740   8.363  68.934  1.00  0.00    -0.131 NA 
ENDROOT
BRANCH   2  33
HETATM   33  C   UNL     1      -8.777   5.064  64.261  1.00  0.00    -0.106 C  
HETATM   34  H2  UNL     1     -10.442   4.580  63.146  1.00  0.00     0.000 HD 
HETATM   35  N   UNL     1      -9.474   4.861  62.993  1.00  0.00    -0.355 NA 
HETATM   36  H1  UNL     1      -9.419   5.679  62.387  1.00  0.00     0.000 HD 
ENDBRANCH   2  33
TORSDOF 1
ENDMDL
MODEL       74
REMARK 921   NORMALIZED FREE ENERGY PREDICTED BY IDOCK:   -3.11 KCAL/MOL
REMARK 922        TOTAL FREE ENERGY PREDICTED BY IDOCK:   -3.66 KCAL/MOL
REMARK 923 INTER-LIGAND FREE ENERGY PREDICTED BY IDOCK:   -3.55 KCAL/MOL
REMARK 924 INTRA-LIGAND FREE ENERGY PREDICTED BY IDOCK:   -0.11 KCAL/MOL
REMARK 927      BINDING AFFINITY PREDICTED BY RF-SCORE:    0.00 PKD
ROOT
HETATM    1  N   UNL     1      -7.993  11.029  69.541  1.00  0.00    -0.374 NA 
HETATM    2  C   UNL     1      -7.181   9.976  68.926  1.00  0.00    -0.077 C  
HETATM    3  H1  UNL     1      -8.725  11.381  68.923  1.00  0.00     0.000 HD 
HETATM    4  C   UNL     2     -10.664   9.914  66.982  1.00  0.00    -0.167 C  
HETATM    5  H2  UNL     1      -7.405  11.791  69.880  1.00  0.00     0.000 HD 
HETATM    6  C   UNL     3      -8.685   7.208  70.286  1.00  0.00    -0.144 C  
HETATM    7  N   UNL     2      -9.827   8.866  66.442  1.00  0.00    -0.265 N  
HETATM    8  O   UNL     3      -6.883   7.419  68.021  1.00  0.00    -0.065 OA 
HETATM    9  N   UNL     3      -7.967   6.129  69.607  1.00  0.00    -0.105 N  
HETATM   10  O   UNL     2      -8.357  10.398  65.556  1.00  0.00    -0.157 OA 
HETATM   11  C   UNL     2     -10.093   7.538  66.668  1.00  0.00    -0.193 A  
HETATM   12  C   UNL     2      -9.342   6.562  66.095  1.00  0.00    -0.063 A  
HETATM   13  C   UNL     3      -7.047   6.335  68.576  1.00  0.00    -0.083 C  
HETATM   14  C   UNL     3      -8.374   4.844  69.833  1.00  0.00    -0.079 A  
HETATM   15  C   UNL     3      -5.292   5.499  67.109  1.00  0.00    -0.008 C  
HETATM   16  C   UNL     2      -8.216   6.820  65.272  1.00  0.00    -0.127 C  
HETATM   17  N   UNL     2      -9.843   5.386  66.568  1.00  0.00    -0.162 NA 
HETATM   18  C   UNL     3      -7.834   3.801  69.154  1.00  0.00    -0.052 A  
HETATM   19  C   UNL     2     -10.834   5.716  67.456  1.00  0.00    -0.095 A  
HETATM   20  N   UNL     2      -7.859   8.166  65.268  1.00  0.00    -0.107 N  
HETATM   21  N   UNL     3      -8.600   2.730  69.502  1.00  0.00    -0.062 NA 
HETATM   22  H   UNL     2      -9.540   4.446  66.311  1.00  0.00     0.000 HD 
HETATM   23  C   UNL     3      -6.752   3.921  68.254  1.00  0.00    -0.046 C  
HETATM   24  O   UNL     2      -7.620   5.924  64.683  1.00  0.00    -0.077 OA 
HETATM   25  O   UNL     3      -6.319   2.946  67.630  1.00  0.00    -0.031 OA 
HETATM   26  N   UNL     3      -6.328   5.230  68.096  1.00  0.00    -0.034 N  
HETATM   27  C   UNL     3      -9.568   3.185  70.361  1.00  0.00    -0.122 A  
HETATM   28  H   UNL     3      -8.477   1.769  69.183  1.00  0.00     0.000 HD 
HETATM   29  C   UNL     2      -8.666   9.217  65.742  1.00  0.00    -0.156 C  
HETATM   30  N   UNL     2     -11.040   7.018  67.495  1.00  0.00    -0.213 NA 
HETATM   31  C   UNL     2      -6.518   8.517  64.843  1.00  0.00    -0.064 C  
HETATM   32  N   UNL     3      -9.429   4.468  70.609  1.00  0.00    -0.155 NA 
ENDROOT
BRANCH   2  33
HETATM   33  C   UNL     1      -6.072   9.442  69.862  1.00  0.00    -0.039 C  
HETATM   34  H2  UNL     1      -6.710  10.488  71.520  1.00  0.00     0.000 HD 
HETATM   35  N   UNL     1      -5.845  10.320  71.007  1.00  0.00    -0.218 NA 
HETATM   36  H1  UNL     1      -5.113   9.968  71.625  1.00  0.00     0.000 HD 
ENDBRANCH   2  33
TORSDOF 1
ENDMDL
MODEL       75
REMARK 921   NORMALIZED FREE ENERGY PREDICTED BY IDOCK:   -3.10 KCAL/MOL
REMARK 922        TOTAL FREE ENERGY PREDICTED BY IDOCK:   -3.64 KCAL/MOL
REMARK 923 INTER-LIGAND FREE ENERGY PREDICTED BY IDOCK:   -3.52 KCAL/MOL
REMARK 924 INTRA-LIGAND FREE ENERGY PREDICTED BY IDOCK:   -0.12 KCAL/MOL
REMARK 927      BINDING AFFINITY PREDICTED BY RF-SCORE:    0.00 PKD
ROOT
HETATM    1  N   UNL     1      -8.523  10.418  69.772  1.00  0.00    -0.375 NA 
HETATM    2  C   UNL     1      -7.907   9.180  69.288  1.00  0.00    -0.095 C  
HETATM    3  H1  UNL     1      -9.541  10.414  69.694  1.00  0.00     0.000 HD 
HETATM    4  C   UNL     2     -11.644   8.198  70.279  1.00  0.00     0.013 C  
HETATM    5  H2  UNL     1      -8.125  11.231  69.301  1.00  0.00     0.000 HD 
HETATM    6  C   UNL     3      -7.429   7.558  72.273  1.00  0.00    -0.074 C  
HETATM    7  N   UNL     2     -10.968   7.002  69.826  1.00  0.00    -0.253 N  
HETATM    8  O   UNL     3      -7.370   6.519  69.564  1.00  0.00    -0.086 OA 
HETATM    9  N   UNL     3      -6.912   6.267  71.818  1.00  0.00    -0.075 N  
HETATM   10  O   UNL     2     -10.818   7.816  67.680  1.00  0.00    -0.187 OA 
HETATM   11  C   UNL     2     -10.626   5.992  70.691  1.00  0.00    -0.260 A  
HETATM   12  C   UNL     2     -10.058   4.843  70.240  1.00  0.00    -0.252 A  
HETATM   13  C   UNL     3      -6.843   5.885  70.476  1.00  0.00    -0.054 C  
HETATM   14  C   UNL     3      -6.691   5.296  72.755  1.00  0.00    -0.071 A  
HETATM   15  C   UNL     3      -6.045   4.368  68.746  1.00  0.00    -0.031 C  
HETATM   16  C   UNL     2      -9.732   4.609  68.881  1.00  0.00    -0.166 C  
HETATM   17  N   UNL     2      -9.807   4.097  71.353  1.00  0.00    -0.187 NA 
HETATM   18  C   UNL     3      -6.323   4.040  72.400  1.00  0.00    -0.021 A  
HETATM   19  C   UNL     2     -10.180   4.863  72.427  1.00  0.00    -0.199 A  
HETATM   20  N   UNL     2      -9.887   5.749  68.094  1.00  0.00    -0.128 N  
HETATM   21  N   UNL     3      -6.378   3.325  73.557  1.00  0.00    -0.022 NA 
HETATM   22  H   UNL     2      -9.419   3.154  71.380  1.00  0.00     0.000 HD 
HETATM   23  C   UNL     3      -6.030   3.649  71.074  1.00  0.00    -0.014 C  
HETATM   24  O   UNL     2      -9.317   3.524  68.487  1.00  0.00    -0.153 OA 
HETATM   25  O   UNL     3      -5.734   2.483  70.794  1.00  0.00    -0.012 OA 
HETATM   26  N   UNL     3      -6.206   4.675  70.161  1.00  0.00    -0.025 N  
HETATM   27  C   UNL     3      -6.788   4.182  74.545  1.00  0.00    -0.060 A  
HETATM   28  H   UNL     3      -6.156   2.336  73.667  1.00  0.00     0.000 HD 
HETATM   29  C   UNL     2     -10.577   6.912  68.485  1.00  0.00    -0.212 C  
HETATM   30  N   UNL     2     -10.729   6.000  72.047  1.00  0.00    -0.226 NA 
HETATM   31  C   UNL     2      -9.205   5.796  66.816  1.00  0.00    -0.131 C  
HETATM   32  N   UNL     3      -6.951   5.403  74.088  1.00  0.00    -0.077 NA 
ENDROOT
BRANCH   2  33
HETATM   33  C   UNL     1      -6.365   9.185  69.405  1.00  0.00    -0.044 C  
HETATM   34  H2  UNL     1      -6.280  10.826  70.650  1.00  0.00     0.000 HD 
HETATM   35  N   UNL     1      -5.844  10.494  69.790  1.00  0.00    -0.046 NA 
HETATM   36  H1  UNL     1      -4.827  10.497  69.868  1.00  0.00     0.000 HD 
ENDBRANCH   2  33
TORSDOF 1
ENDMDL
MODEL       76
REMARK 921   NORMALIZED FREE ENERGY PREDICTED BY IDOCK:   -3.06 KCAL/MOL
REMARK 922        TOTAL FREE ENERGY PREDICTED BY IDOCK:   -3.60 KCAL/MOL
REMARK 923 INTER-LIGAND FREE ENERGY PREDICTED BY IDOCK:   -3.51 KCAL/MOL
REMARK 924 INTRA-LIGAND FREE ENERGY PREDICTED BY IDOCK:   -0.09 KCAL/MOL
REMARK 927      BINDING AFFINITY PREDICTED BY RF-SCORE:    0.00 PKD
ROOT
HETATM    1  N   UNL     1      -7.621   2.020  68.308  1.00  0.00    -0.053 NA 
HETATM    2  C   UNL     1      -8.623   2.979  68.782  1.00  0.00    -0.074 C  
HETATM    3  H1  UNL     1      -7.243   2.259  67.391  1.00  0.00     0.000 HD 
HETATM    4  C   UNL     2      -6.378   4.985  66.164  1.00  0.00    -0.039 C  
HETATM    5  H2  UNL     1      -7.995   1.071  68.312  1.00  0.00     0.000 HD 
HETATM    6  C   UNL     3      -6.671   4.885  70.861  1.00  0.00    -0.035 C  
HETATM    7  N   UNL     2      -7.369   5.892  66.699  1.00  0.00    -0.077 N  
HETATM    8  O   UNL     3      -9.296   5.437  69.754  1.00  0.00    -0.133 OA 
HETATM    9  N   UNL     3      -7.617   5.924  71.271  1.00  0.00    -0.102 N  
HETATM   10  O   UNL     2      -9.079   4.738  65.682  1.00  0.00    -0.135 OA 
HETATM   11  C   UNL     2      -7.030   6.912  67.553  1.00  0.00    -0.083 A  
HETATM   12  C   UNL     2      -7.959   7.802  67.990  1.00  0.00    -0.122 A  
HETATM   13  C   UNL     3      -8.901   6.060  70.738  1.00  0.00    -0.139 C  
HETATM   14  C   UNL     3      -7.152   6.947  72.050  1.00  0.00    -0.074 A  
HETATM   15  C   UNL     3     -11.128   7.045  70.809  1.00  0.00    -0.273 C  
HETATM   16  C   UNL     2      -9.334   7.732  67.650  1.00  0.00    -0.142 C  
HETATM   17  N   UNL     2      -7.299   8.631  68.847  1.00  0.00    -0.080 NA 
HETATM   18  C   UNL     3      -7.939   8.003  72.374  1.00  0.00    -0.128 A  
HETATM   19  C   UNL     2      -6.016   8.158  68.934  1.00  0.00    -0.039 A  
HETATM   20  N   UNL     2      -9.655   6.555  66.977  1.00  0.00    -0.138 N  
HETATM   21  N   UNL     3      -7.099   8.884  72.983  1.00  0.00    -0.329 NA 
HETATM   22  H   UNL     2      -7.685   9.444  69.329  1.00  0.00     0.000 HD 
HETATM   23  C   UNL     3      -9.310   8.096  72.044  1.00  0.00    -0.203 C  
HETATM   24  O   UNL     2     -10.130   8.607  67.972  1.00  0.00    -0.179 OA 
HETATM   25  O   UNL     3      -9.977   9.096  72.329  1.00  0.00    -0.114 OA 
HETATM   26  N   UNL     3      -9.759   7.013  71.307  1.00  0.00    -0.171 N  
HETATM   27  C   UNL     3      -5.850   8.320  72.984  1.00  0.00    -0.065 A  
HETATM   28  H   UNL     3      -7.352   9.794  73.368  1.00  0.00     0.000 HD 
HETATM   29  C   UNL     2      -8.720   5.672  66.404  1.00  0.00    -0.126 C  
HETATM   30  N   UNL     2      -5.813   7.144  68.117  1.00  0.00    -0.021 NA 
HETATM   31  C   UNL     2     -11.044   6.142  66.945  1.00  0.00    -0.219 C  
HETATM   32  N   UNL     3      -5.862   7.118  72.452  1.00  0.00    -0.038 NA 
ENDROOT
BRANCH   2  33
HETATM   33  C   UNL     1      -9.197   2.617  70.172  1.00  0.00    -0.132 C  
HETATM   34  H2  UNL     1      -7.358   2.403  71.080  1.00  0.00     0.000 HD 
HETATM   35  N   UNL     1      -8.234   1.889  70.995  1.00  0.00    -0.049 NA 
HETATM   36  H1  UNL     1      -8.613   1.650  71.912  1.00  0.00     0.000 HD 
ENDBRANCH   2  33
TORSDOF 1
ENDMDL
MODEL       77
REMARK 921   NORMALIZED FREE ENERGY PREDICTED BY IDOCK:   -3.01 KCAL/MOL
REMARK 922        TOTAL FREE ENERGY PREDICTED BY IDOCK:   -3.55 KCAL/MOL
REMARK 923 INTER-LIGAND FREE ENERGY PREDICTED BY IDOCK:   -3.28 KCAL/MOL
REMARK 924 INTRA-LIGAND FREE ENERGY PREDICTED BY IDOCK:   -0.27 KCAL/MOL
REMARK 927      BINDING AFFINITY PREDICTED BY RF-SCORE:    0.00 PKD
ROOT
HETATM    1  N   UNL     1      -7.224  10.810  70.225  1.00  0.00    -0.464 NA 
HETATM    2  C   UNL     1      -8.241   9.756  70.173  1.00  0.00    -0.179 C  
HETATM    3  H1  UNL     1      -6.688  10.806  71.093  1.00  0.00     0.000 HD 
HETATM    4  C   UNL     2      -5.498   8.470  72.769  1.00  0.00    -0.056 C  
HETATM    5  H2  UNL     1      -7.641  11.726  70.058  1.00  0.00     0.000 HD 
HETATM    6  C   UNL     3      -6.564   7.416  68.307  1.00  0.00    -0.050 C  
HETATM    7  N   UNL     2      -6.516   7.450  72.645  1.00  0.00    -0.058 N  
HETATM    8  O   UNL     3      -8.940   7.128  69.948  1.00  0.00    -0.142 OA 
HETATM    9  N   UNL     3      -7.511   6.301  68.327  1.00  0.00    -0.089 N  
HETATM   10  O   UNL     2      -8.091   8.803  73.635  1.00  0.00    -0.390 OA 
HETATM   11  C   UNL     2      -6.272   6.255  72.015  1.00  0.00    -0.042 A  
HETATM   12  C   UNL     2      -7.214   5.278  71.971  1.00  0.00    -0.086 A  
HETATM   13  C   UNL     3      -8.681   6.288  69.090  1.00  0.00    -0.123 C  
HETATM   14  C   UNL     3      -7.130   5.123  67.747  1.00  0.00    -0.066 A  
HETATM   15  C   UNL     3     -10.837   5.296  69.639  1.00  0.00     0.087 C  
HETATM   16  C   UNL     2      -8.515   5.417  72.514  1.00  0.00    -0.118 C  
HETATM   17  N   UNL     2      -6.663   4.270  71.236  1.00  0.00    -0.030 NA 
HETATM   18  C   UNL     3      -7.905   4.012  67.826  1.00  0.00    -0.086 A  
HETATM   19  C   UNL     2      -5.436   4.719  70.819  1.00  0.00    -0.008 A  
HETATM   20  N   UNL     2      -8.780   6.720  72.931  1.00  0.00    -0.121 N  
HETATM   21  N   UNL     3      -7.134   3.016  67.310  1.00  0.00    -0.053 NA 
HETATM   22  H   UNL     2      -7.082   3.362  71.036  1.00  0.00     0.000 HD 
HETATM   23  C   UNL     3      -9.196   3.990  68.399  1.00  0.00    -0.150 C  
HETATM   24  O   UNL     2      -9.309   4.483  72.553  1.00  0.00    -0.128 OA 
HETATM   25  O   UNL     3      -9.850   2.945  68.481  1.00  0.00     0.018 OA 
HETATM   26  N   UNL     3      -9.573   5.217  68.921  1.00  0.00    -0.134 N  
HETATM   27  C   UNL     3      -5.931   3.574  66.959  1.00  0.00    -0.024 A  
HETATM   28  H   UNL     3      -7.400   2.038  67.203  1.00  0.00     0.000 HD 
HETATM   29  C   UNL     2      -7.809   7.724  73.106  1.00  0.00    -0.122 C  
HETATM   30  N   UNL     2      -5.154   5.904  71.323  1.00  0.00    -0.012 NA 
HETATM   31  C   UNL     2     -10.164   7.116  73.101  1.00  0.00    -0.276 C  
HETATM   32  N   UNL     3      -5.916   4.869  67.183  1.00  0.00    -0.026 NA 
ENDROOT
BRANCH   2  33
HETATM   33  C   UNL     1      -9.053   9.762  68.857  1.00  0.00    -0.148 C  
HETATM   34  H2  UNL     1     -10.668  10.774  69.642  1.00  0.00     0.000 HD 
HETATM   35  N   UNL     1     -10.484   9.936  69.091  1.00  0.00    -0.205 NA 
HETATM   36  H1  UNL     1     -11.020   9.940  68.223  1.00  0.00     0.000 HD 
ENDBRANCH   2  33
TORSDOF 1
ENDMDL
MODEL       78
REMARK 921   NORMALIZED FREE ENERGY PREDICTED BY IDOCK:   -2.97 KCAL/MOL
REMARK 922        TOTAL FREE ENERGY PREDICTED BY IDOCK:   -3.50 KCAL/MOL
REMARK 923 INTER-LIGAND FREE ENERGY PREDICTED BY IDOCK:   -3.37 KCAL/MOL
REMARK 924 INTRA-LIGAND FREE ENERGY PREDICTED BY IDOCK:   -0.13 KCAL/MOL
REMARK 927      BINDING AFFINITY PREDICTED BY RF-SCORE:    0.00 PKD
ROOT
HETATM    1  N   UNL     1      -7.458   6.998  72.793  1.00  0.00    -0.084 NA 
HETATM    2  C   UNL     1      -8.378   7.370  71.715  1.00  0.00    -0.107 C  
HETATM    3  H1  UNL     1      -7.018   6.089  72.647  1.00  0.00     0.000 HD 
HETATM    4  C   UNL     2      -5.831   4.762  70.095  1.00  0.00    -0.017 C  
HETATM    5  H2  UNL     1      -7.926   7.034  73.699  1.00  0.00     0.000 HD 
HETATM    6  C   UNL     3      -6.335   9.438  69.892  1.00  0.00    -0.044 C  
HETATM    7  N   UNL     2      -6.748   5.199  69.065  1.00  0.00    -0.051 N  
HETATM    8  O   UNL     3      -8.841   8.175  69.149  1.00  0.00    -0.142 OA 
HETATM    9  N   UNL     3      -7.189   9.744  68.743  1.00  0.00    -0.071 N  
HETATM   10  O   UNL     2      -8.519   4.162  70.102  1.00  0.00    -0.064 OA 
HETATM   11  C   UNL     2      -6.345   6.013  68.035  1.00  0.00    -0.044 A  
HETATM   12  C   UNL     2      -7.197   6.354  67.034  1.00  0.00    -0.074 A  
HETATM   13  C   UNL     3      -8.428   9.142  68.513  1.00  0.00    -0.128 C  
HETATM   14  C   UNL     3      -6.658  10.489  67.727  1.00  0.00    -0.061 A  
HETATM   15  C   UNL     3     -10.545   9.052  67.311  1.00  0.00    -0.231 C  
HETATM   16  C   UNL     2      -8.556   5.952  66.988  1.00  0.00    -0.110 C  
HETATM   17  N   UNL     2      -6.495   7.198  66.225  1.00  0.00    -0.050 NA 
HETATM   18  C   UNL     3      -7.347  10.717  66.582  1.00  0.00    -0.134 A  
HETATM   19  C   UNL     2      -5.270   7.373  66.816  1.00  0.00    -0.023 A  
HETATM   20  N   UNL     2      -8.964   5.329  68.165  1.00  0.00    -0.108 N  
HETATM   21  N   UNL     3      -6.450  11.319  65.754  1.00  0.00    -0.361 NA 
HETATM   22  H   UNL     2      -6.817   7.616  65.353  1.00  0.00     0.000 HD 
HETATM   23  C   UNL     3      -8.686  10.316  66.373  1.00  0.00    -0.135 C  
HETATM   24  O   UNL     2      -9.273   6.187  66.022  1.00  0.00    -0.157 OA 
HETATM   25  O   UNL     3      -9.260  10.514  65.298  1.00  0.00    -0.177 OA 
HETATM   26  N   UNL     3      -9.210   9.617  67.448  1.00  0.00    -0.130 N  
HETATM   27  C   UNL     3      -5.265  11.411  66.437  1.00  0.00    -0.116 A  
HETATM   28  H   UNL     3      -6.626  11.642  64.803  1.00  0.00     0.000 HD 
HETATM   29  C   UNL     2      -8.100   4.850  69.168  1.00  0.00    -0.079 C  
HETATM   30  N   UNL     2      -5.136   6.622  67.892  1.00  0.00    -0.007 NA 
HETATM   31  C   UNL     2     -10.385   5.251  68.441  1.00  0.00    -0.108 C  
HETATM   32  N   UNL     3      -5.375  10.944  67.660  1.00  0.00    -0.040 NA 
ENDROOT
BRANCH   2  33
HETATM   33  C   UNL     1      -9.045   8.748  71.937  1.00  0.00    -0.220 C  
HETATM   34  H2  UNL     1     -10.526   8.038  73.183  1.00  0.00     0.000 HD 
HETATM   35  N   UNL     1     -10.439   8.626  72.355  1.00  0.00    -0.298 NA 
HETATM   36  H1  UNL     1     -10.879   9.535  72.502  1.00  0.00     0.000 HD 
ENDBRANCH   2  33
TORSDOF 1
ENDMDL
MODEL       79
REMARK 921   NORMALIZED FREE ENERGY PREDICTED BY IDOCK:   -2.92 KCAL/MOL
REMARK 922        TOTAL FREE ENERGY PREDICTED BY IDOCK:   -3.45 KCAL/MOL
REMARK 923 INTER-LIGAND FREE ENERGY PREDICTED BY IDOCK:   -3.33 KCAL/MOL
REMARK 924 INTRA-LIGAND FREE ENERGY PREDICTED BY IDOCK:   -0.12 KCAL/MOL
REMARK 927      BINDING AFFINITY PREDICTED BY RF-SCORE:    0.00 PKD
ROOT
HETATM    1  N   UNL     1      -7.327   5.539  65.896  1.00  0.00    -0.076 NA 
HETATM    2  C   UNL     1      -7.689   5.433  67.312  1.00  0.00    -0.096 C  
HETATM    3  H1  UNL     1      -8.040   6.008  65.336  1.00  0.00     0.000 HD 
HETATM    4  C   UNL     2      -9.781   8.524  65.901  1.00  0.00    -0.031 C  
HETATM    5  H2  UNL     1      -7.104   4.622  65.508  1.00  0.00     0.000 HD 
HETATM    6  C   UNL     3      -5.925   8.095  68.567  1.00  0.00    -0.041 C  
HETATM    7  N   UNL     2     -10.068   8.390  67.313  1.00  0.00    -0.227 N  
HETATM    8  O   UNL     3      -8.085   6.568  69.761  1.00  0.00    -0.120 OA 
HETATM    9  N   UNL     3      -6.350   8.086  69.967  1.00  0.00    -0.033 N  
HETATM   10  O   UNL     2     -11.139   6.383  66.977  1.00  0.00    -0.384 OA 
HETATM   11  C   UNL     2      -9.614   9.302  68.233  1.00  0.00    -0.147 A  
HETATM   12  C   UNL     2      -9.953   9.205  69.545  1.00  0.00    -0.189 A  
HETATM   13  C   UNL     3      -7.348   7.249  70.472  1.00  0.00    -0.074 C  
HETATM   14  C   UNL     3      -5.912   9.095  70.779  1.00  0.00    -0.045 A  
HETATM   15  C   UNL     3      -8.533   6.271  72.362  1.00  0.00    -0.114 C  
HETATM   16  C   UNL     2     -10.744   8.156  70.076  1.00  0.00    -0.243 C  
HETATM   17  N   UNL     2      -9.298  10.225  70.170  1.00  0.00    -0.346 NA 
HETATM   18  C   UNL     3      -6.354   9.219  72.055  1.00  0.00     0.128 A  
HETATM   19  C   UNL     2      -8.544  10.849  69.210  1.00  0.00     0.020 A  
HETATM   20  N   UNL     2     -10.979   7.145  69.146  1.00  0.00    -0.162 N  
HETATM   21  N   UNL     3      -5.856  10.414  72.478  1.00  0.00     0.149 NA 
HETATM   22  H   UNL     2      -9.358  10.474  71.157  1.00  0.00     0.000 HD 
HETATM   23  C   UNL     3      -7.199   8.282  72.692  1.00  0.00    -0.103 C  
HETATM   24  O   UNL     2     -11.122   8.150  71.243  1.00  0.00    -0.239 OA 
HETATM   25  O   UNL     3      -7.604   8.458  73.846  1.00  0.00    -0.261 OA 
HETATM   26  N   UNL     3      -7.572   7.242  71.857  1.00  0.00    -0.084 N  
HETATM   27  C   UNL     3      -5.153  10.953  71.432  1.00  0.00    -0.076 A  
HETATM   28  H   UNL     3      -5.983  10.830  73.400  1.00  0.00     0.000 HD 
HETATM   29  C   UNL     2     -10.755   7.255  67.760  1.00  0.00    -0.197 C  
HETATM   30  N   UNL     2      -8.759  10.338  68.013  1.00  0.00    -0.122 NA 
HETATM   31  C   UNL     2     -11.386   5.844  69.637  1.00  0.00    -0.094 C  
HETATM   32  N   UNL     3      -5.140  10.149  70.392  1.00  0.00    -0.037 NA 
ENDROOT
BRANCH   2  33
HETATM   33  C   UNL     1      -6.610   4.723  68.162  1.00  0.00    -0.042 C  
HETATM   34  H2  UNL     1      -6.966   2.848  67.383  1.00  0.00     0.000 HD 
HETATM   35  N   UNL     1      -6.865   3.291  68.295  1.00  0.00    -0.048 NA 
HETATM   36  H1  UNL     1      -6.152   2.823  68.856  1.00  0.00     0.000 HD 
ENDBRANCH   2  33
TORSDOF 1
ENDMDL
MODEL       80
REMARK 921   NORMALIZED FREE ENERGY PREDICTED BY IDOCK:   -2.89 KCAL/MOL
REMARK 922        TOTAL FREE ENERGY PREDICTED BY IDOCK:   -3.43 KCAL/MOL
REMARK 923 INTER-LIGAND FREE ENERGY PREDICTED BY IDOCK:   -3.28 KCAL/MOL
REMARK 924 INTRA-LIGAND FREE ENERGY PREDICTED BY IDOCK:   -0.15 KCAL/MOL
REMARK 927      BINDING AFFINITY PREDICTED BY RF-SCORE:    0.00 PKD
ROOT
HETATM    1  N   UNL     1     -10.702   6.717  73.876  1.00  0.00    -0.500 NA 
HETATM    2  C   UNL     1     -10.600   5.684  72.842  1.00  0.00    -0.232 C  
HETATM    3  H1  UNL     1      -9.953   6.665  74.566  1.00  0.00     0.000 HD 
HETATM    4  C   UNL     2      -6.900   6.142  74.261  1.00  0.00    -0.083 C  
HETATM    5  H2  UNL     1     -11.616   6.691  74.327  1.00  0.00     0.000 HD 
HETATM    6  C   UNL     3      -9.118   7.504  70.339  1.00  0.00    -0.153 C  
HETATM    7  N   UNL     2      -6.860   5.156  73.204  1.00  0.00    -0.072 N  
HETATM    8  O   UNL     3      -9.386   4.630  70.637  1.00  0.00    -0.133 OA 
HETATM    9  N   UNL     3      -8.902   6.473  69.324  1.00  0.00    -0.132 N  
HETATM   10  O   UNL     2      -8.096   3.668  74.449  1.00  0.00    -0.079 OA 
HETATM   11  C   UNL     2      -6.273   5.418  71.991  1.00  0.00    -0.035 A  
HETATM   12  C   UNL     2      -6.176   4.459  71.035  1.00  0.00    -0.018 A  
HETATM   13  C   UNL     3      -9.142   5.112  69.533  1.00  0.00    -0.108 C  
HETATM   14  C   UNL     3      -8.224   6.820  68.189  1.00  0.00    -0.114 A  
HETATM   15  C   UNL     3      -9.396   2.851  68.665  1.00  0.00    -0.174 C  
HETATM   16  C   UNL     2      -6.701   3.150  71.180  1.00  0.00    -0.031 C  
HETATM   17  N   UNL     2      -5.597   5.067  69.961  1.00  0.00    -0.014 NA 
HETATM   18  C   UNL     3      -7.885   5.895  67.256  1.00  0.00    -0.102 A  
HETATM   19  C   UNL     2      -5.431   6.384  70.304  1.00  0.00    -0.014 A  
HETATM   20  N   UNL     2      -7.482   3.015  72.326  1.00  0.00    -0.051 N  
HETATM   21  N   UNL     3      -7.078   6.562  66.386  1.00  0.00    -0.066 NA 
HETATM   22  H   UNL     2      -5.338   4.628  69.077  1.00  0.00     0.000 HD 
HETATM   23  C   UNL     3      -8.284   4.540  67.307  1.00  0.00    -0.101 C  
HETATM   24  O   UNL     2      -6.509   2.273  70.344  1.00  0.00    -0.027 OA 
HETATM   25  O   UNL     3      -7.919   3.727  66.452  1.00  0.00    -0.089 OA 
HETATM   26  N   UNL     3      -9.021   4.240  68.441  1.00  0.00    -0.108 N  
HETATM   27  C   UNL     3      -6.962   7.849  66.846  1.00  0.00    -0.073 A  
HETATM   28  H   UNL     3      -6.641   6.177  65.549  1.00  0.00     0.000 HD 
HETATM   29  C   UNL     2      -7.512   3.931  73.395  1.00  0.00    -0.070 C  
HETATM   30  N   UNL     2      -5.787   6.611  71.553  1.00  0.00    -0.036 NA 
HETATM   31  C   UNL     2      -8.414   1.907  72.393  1.00  0.00    -0.054 C  
HETATM   32  N   UNL     3      -7.683   8.043  67.927  1.00  0.00    -0.112 NA 
ENDROOT
BRANCH   2  33
HETATM   33  C   UNL     1     -11.736   5.762  71.794  1.00  0.00     0.016 C  
HETATM   34  H2  UNL     1     -12.033   7.792  71.996  1.00  0.00     0.000 HD 
HETATM   35  N   UNL     1     -12.585   6.935  71.986  1.00  0.00    -0.516 NA 
HETATM   36  H1  UNL     1     -13.334   6.986  71.295  1.00  0.00     0.000 HD 
ENDBRANCH   2  33
TORSDOF 1
ENDMDL
MODEL       81
REMARK 921   NORMALIZED FREE ENERGY PREDICTED BY IDOCK:   -2.85 KCAL/MOL
REMARK 922        TOTAL FREE ENERGY PREDICTED BY IDOCK:   -3.38 KCAL/MOL
REMARK 923 INTER-LIGAND FREE ENERGY PREDICTED BY IDOCK:   -3.24 KCAL/MOL
REMARK 924 INTRA-LIGAND FREE ENERGY PREDICTED BY IDOCK:   -0.15 KCAL/MOL
REMARK 927      BINDING AFFINITY PREDICTED BY RF-SCORE:    0.00 PKD
ROOT
HETATM    1  N   UNL     1      -8.211  13.514  66.672  1.00  0.00    -0.358 NA 
HETATM    2  C   UNL     1      -7.951  14.439  67.779  1.00  0.00    -0.158 C  
HETATM    3  H1  UNL     1      -9.169  13.567  66.324  1.00  0.00     0.000 HD 
HETATM    4  C   UNL     2     -11.031  16.000  65.782  1.00  0.00    -0.140 C  
HETATM    5  H2  UNL     1      -7.972  12.557  66.933  1.00  0.00     0.000 HD 
HETATM    6  C   UNL     3      -6.439  16.995  66.061  1.00  0.00     0.289 C  
HETATM    7  N   UNL     2     -10.700  16.892  66.872  1.00  0.00    -0.199 N  
HETATM    8  O   UNL     3      -7.573  16.967  68.733  1.00  0.00    -0.221 OA 
HETATM    9  N   UNL     3      -6.262  17.988  67.121  1.00  0.00    -0.153 N  
HETATM   10  O   UNL     2     -11.367  15.343  68.436  1.00  0.00    -0.306 OA 
HETATM   11  C   UNL     2     -10.123  18.118  66.654  1.00  0.00    -0.373 A  
HETATM   12  C   UNL     2      -9.885  18.976  67.680  1.00  0.00    -0.332 A  
HETATM   13  C   UNL     3      -6.776  17.847  68.413  1.00  0.00    -0.219 C  
HETATM   14  C   UNL     3      -5.762  19.213  66.779  1.00  0.00    -0.155 A  
HETATM   15  C   UNL     3      -6.879  18.563  70.739  1.00  0.00     1.844 C  
HETATM   16  C   UNL     2     -10.160  18.672  69.036  1.00  0.00    -0.243 C  
HETATM   17  N   UNL     2      -9.267  20.055  67.121  1.00  0.00    -0.349 NA 
HETATM   18  C   UNL     3      -5.676  20.221  67.683  1.00  0.00    -0.190 A  
HETATM   19  C   UNL     2      -9.106  19.765  65.791  1.00  0.00     0.029 A  
HETATM   20  N   UNL     2     -10.524  17.340  69.219  1.00  0.00    -0.305 N  
HETATM   21  N   UNL     3      -5.317  21.311  66.951  1.00  0.00    -0.231 NA 
HETATM   22  H   UNL     2      -8.982  20.910  67.598  1.00  0.00     0.000 HD 
HETATM   23  C   UNL     3      -5.981  20.077  69.055  1.00  0.00    -0.283 C  
HETATM   24  O   UNL     2     -10.033  19.503  69.930  1.00  0.00    -0.033 OA 
HETATM   25  O   UNL     3      -5.923  21.035  69.834  1.00  0.00    -0.345 OA 
HETATM   26  N   UNL     3      -6.426  18.806  69.376  1.00  0.00    -0.275 N  
HETATM   27  C   UNL     3      -5.217  20.908  65.645  1.00  0.00    -0.202 A  
HETATM   28  H   UNL     3      -5.153  22.252  67.308  1.00  0.00     0.000 HD 
HETATM   29  C   UNL     2     -10.897  16.456  68.188  1.00  0.00    -0.346 C  
HETATM   30  N   UNL     2      -9.664  18.614  65.472  1.00  0.00    -0.051 NA 
HETATM   31  C   UNL     2     -10.419  16.777  70.550  1.00  0.00     0.694 C  
HETATM   32  N   UNL     3      -5.448  19.620  65.517  1.00  0.00    -0.159 NA 
ENDROOT
BRANCH   2  33
HETATM   33  C   UNL     1      -6.499  14.358  68.307  1.00  0.00    -0.115 C  
HETATM   34  H2  UNL     1      -5.684  13.755  66.512  1.00  0.00     0.000 HD 
HETATM   35  N   UNL     1      -5.663  13.479  67.493  1.00  0.00    -0.348 NA 
HETATM   36  H1  UNL     1      -4.706  13.426  67.841  1.00  0.00     0.000 HD 
ENDBRANCH   2  33
TORSDOF 1
ENDMDL
MODEL       82
REMARK 921   NORMALIZED FREE ENERGY PREDICTED BY IDOCK:   -2.80 KCAL/MOL
REMARK 922        TOTAL FREE ENERGY PREDICTED BY IDOCK:   -3.33 KCAL/MOL
REMARK 923 INTER-LIGAND FREE ENERGY PREDICTED BY IDOCK:   -2.97 KCAL/MOL
REMARK 924 INTRA-LIGAND FREE ENERGY PREDICTED BY IDOCK:   -0.36 KCAL/MOL
REMARK 927      BINDING AFFINITY PREDICTED BY RF-SCORE:    0.00 PKD
ROOT
HETATM    1  N   UNL     1     -10.651   4.704  66.740  1.00  0.00    -0.236 NA 
HETATM    2  C   UNL     1     -10.179   5.917  67.413  1.00  0.00    -0.194 C  
HETATM    3  H1  UNL     1      -9.929   4.255  66.175  1.00  0.00     0.000 HD 
HETATM    4  C   UNL     2      -6.910   3.739  66.722  1.00  0.00    -0.054 C  
HETATM    5  H2  UNL     1     -11.482   4.898  66.181  1.00  0.00     0.000 HD 
HETATM    6  C   UNL     3      -9.526   4.638  70.529  1.00  0.00    -0.177 C  
HETATM    7  N   UNL     2      -6.513   4.940  67.423  1.00  0.00    -0.044 N  
HETATM    8  O   UNL     3      -8.685   7.146  69.337  1.00  0.00    -0.133 OA 
HETATM    9  N   UNL     3      -8.949   5.802  71.202  1.00  0.00    -0.138 N  
HETATM   10  O   UNL     2      -7.080   6.261  65.627  1.00  0.00    -0.062 OA 
HETATM   11  C   UNL     2      -6.083   4.909  68.726  1.00  0.00    -0.030 A  
HETATM   12  C   UNL     2      -5.643   6.033  69.349  1.00  0.00    -0.012 A  
HETATM   13  C   UNL     3      -8.654   7.007  70.557  1.00  0.00    -0.141 C  
HETATM   14  C   UNL     3      -8.466   5.639  72.471  1.00  0.00    -0.117 A  
HETATM   15  C   UNL     3      -8.046   9.363  70.652  1.00  0.00    -0.161 C  
HETATM   16  C   UNL     2      -5.633   7.313  68.742  1.00  0.00    -0.022 C  
HETATM   17  N   UNL     2      -5.350   5.655  70.626  1.00  0.00    -0.008 NA 
HETATM   18  C   UNL     3      -7.815   6.640  73.114  1.00  0.00    -0.098 A  
HETATM   19  C   UNL     2      -5.689   4.330  70.726  1.00  0.00    -0.013 A  
HETATM   20  N   UNL     2      -6.290   7.324  67.514  1.00  0.00    -0.046 N  
HETATM   21  N   UNL     3      -7.331   6.062  74.248  1.00  0.00    -0.088 NA 
HETATM   22  H   UNL     2      -4.956   6.242  71.361  1.00  0.00     0.000 HD 
HETATM   23  C   UNL     3      -7.672   7.948  72.599  1.00  0.00    -0.114 C  
HETATM   24  O   UNL     2      -5.134   8.291  69.290  1.00  0.00    -0.026 OA 
HETATM   25  O   UNL     3      -7.037   8.816  73.207  1.00  0.00    -0.340 OA 
HETATM   26  N   UNL     3      -8.227   8.091  71.338  1.00  0.00    -0.105 N  
HETATM   27  C   UNL     3      -7.703   4.743  74.223  1.00  0.00    -0.093 A  
HETATM   28  H   UNL     3      -6.791   6.524  74.979  1.00  0.00     0.000 HD 
HETATM   29  C   UNL     2      -6.651   6.177  66.781  1.00  0.00    -0.059 C  
HETATM   30  N   UNL     2      -6.090   3.840  69.570  1.00  0.00    -0.026 NA 
HETATM   31  C   UNL     2      -6.735   8.598  66.985  1.00  0.00    -0.062 C  
HETATM   32  N   UNL     3      -8.431   4.467  73.164  1.00  0.00    -0.094 NA 
ENDROOT
BRANCH   2  33
HETATM   33  C   UNL     1     -11.273   6.598  68.269  1.00  0.00    -0.115 C  
HETATM   34  H2  UNL     1     -11.261   8.367  67.210  1.00  0.00     0.000 HD 
HETATM   35  N   UNL     1     -11.218   8.055  68.180  1.00  0.00    -0.158 NA 
HETATM   36  H1  UNL     1     -11.939   8.504  68.744  1.00  0.00     0.000 HD 
ENDBRANCH   2  33
TORSDOF 1
ENDMDL
MODEL       83
REMARK 921   NORMALIZED FREE ENERGY PREDICTED BY IDOCK:   -2.68 KCAL/MOL
REMARK 922        TOTAL FREE ENERGY PREDICTED BY IDOCK:   -3.21 KCAL/MOL
REMARK 923 INTER-LIGAND FREE ENERGY PREDICTED BY IDOCK:   -3.08 KCAL/MOL
REMARK 924 INTRA-LIGAND FREE ENERGY PREDICTED BY IDOCK:   -0.13 KCAL/MOL
REMARK 927      BINDING AFFINITY PREDICTED BY RF-SCORE:    0.00 PKD
ROOT
HETATM    1  N   UNL     1     -10.319   9.941  70.822  1.00  0.00    -0.365 NA 
HETATM    2  C   UNL     1     -10.113   8.542  70.439  1.00  0.00    -0.189 C  
HETATM    3  H1  UNL     1      -9.505  10.355  71.276  1.00  0.00     0.000 HD 
HETATM    4  C   UNL     2      -6.465  10.144  70.643  1.00  0.00    -0.084 C  
HETATM    5  H2  UNL     1     -11.150  10.039  71.406  1.00  0.00     0.000 HD 
HETATM    6  C   UNL     3      -9.349   8.953  67.119  1.00  0.00    -0.145 C  
HETATM    7  N   UNL     2      -6.330   8.765  70.230  1.00  0.00    -0.037 N  
HETATM    8  O   UNL     3      -8.953   6.655  68.846  1.00  0.00    -0.130 OA 
HETATM    9  N   UNL     3      -9.029   7.581  66.726  1.00  0.00    -0.137 N  
HETATM   10  O   UNL     2      -7.069   8.006  72.272  1.00  0.00    -0.072 OA 
HETATM   11  C   UNL     2      -5.953   8.425  68.954  1.00  0.00    -0.043 A  
HETATM   12  C   UNL     2      -5.759   7.129  68.600  1.00  0.00    -0.022 A  
HETATM   13  C   UNL     3      -8.944   6.514  67.624  1.00  0.00    -0.114 C  
HETATM   14  C   UNL     3      -8.574   7.365  65.455  1.00  0.00    -0.077 A  
HETATM   15  C   UNL     3      -8.798   4.122  68.061  1.00  0.00    -0.112 C  
HETATM   16  C   UNL     2      -5.968   6.035  69.477  1.00  0.00    -0.025 C  
HETATM   17  N   UNL     2      -5.448   7.153  67.273  1.00  0.00    -0.020 NA 
HETATM   18  C   UNL     3      -8.149   6.141  65.055  1.00  0.00    -0.133 A  
HETATM   19  C   UNL     2      -5.534   8.463  66.878  1.00  0.00    -0.037 A  
HETATM   20  N   UNL     2      -6.568   6.423  70.674  1.00  0.00    -0.051 N  
HETATM   21  N   UNL     3      -7.608   6.350  63.823  1.00  0.00    -0.085 NA 
HETATM   22  H   UNL     2      -5.201   6.353  66.689  1.00  0.00     0.000 HD 
HETATM   23  C   UNL     3      -8.237   4.976  65.849  1.00  0.00    -0.114 C  
HETATM   24  O   UNL     2      -5.685   4.884  69.164  1.00  0.00    -0.014 OA 
HETATM   25  O   UNL     3      -7.802   3.889  65.453  1.00  0.00    -0.087 OA 
HETATM   26  N   UNL     3      -8.760   5.223  67.107  1.00  0.00    -0.108 N  
HETATM   27  C   UNL     3      -7.722   7.689  63.551  1.00  0.00    -0.130 A  
HETATM   28  H   UNL     3      -7.194   5.643  63.216  1.00  0.00     0.000 HD 
HETATM   29  C   UNL     2      -6.676   7.750  71.130  1.00  0.00    -0.041 C  
HETATM   30  N   UNL     2      -5.789   9.263  67.894  1.00  0.00    -0.041 NA 
HETATM   31  C   UNL     2      -7.225   5.406  71.471  1.00  0.00    -0.076 C  
HETATM   32  N   UNL     3      -8.343   8.327  64.518  1.00  0.00    -0.130 NA 
ENDROOT
BRANCH   2  33
HETATM   33  C   UNL     1     -11.348   7.914  69.751  1.00  0.00     0.112 C  
HETATM   34  H2  UNL     1     -12.441   7.709  71.487  1.00  0.00     0.000 HD 
HETATM   35  N   UNL     1     -12.168   7.145  70.683  1.00  0.00    -0.571 NA 
HETATM   36  H1  UNL     1     -12.983   6.731  70.229  1.00  0.00     0.000 HD 
ENDBRANCH   2  33
TORSDOF 1
ENDMDL
MODEL       84
REMARK 921   NORMALIZED FREE ENERGY PREDICTED BY IDOCK:   -2.64 KCAL/MOL
REMARK 922        TOTAL FREE ENERGY PREDICTED BY IDOCK:   -3.16 KCAL/MOL
REMARK 923 INTER-LIGAND FREE ENERGY PREDICTED BY IDOCK:   -3.03 KCAL/MOL
REMARK 924 INTRA-LIGAND FREE ENERGY PREDICTED BY IDOCK:   -0.13 KCAL/MOL
REMARK 927      BINDING AFFINITY PREDICTED BY RF-SCORE:    0.00 PKD
ROOT
HETATM    1  N   UNL     1     -10.604  10.039  71.293  1.00  0.00    -0.117 NA 
HETATM    2  C   UNL     1     -10.759   8.881  70.409  1.00  0.00    -0.227 C  
HETATM    3  H1  UNL     1     -10.009   9.849  72.100  1.00  0.00     0.000 HD 
HETATM    4  C   UNL     2      -7.331   8.287  72.363  1.00  0.00    -0.110 C  
HETATM    5  H2  UNL     1     -11.514  10.396  71.587  1.00  0.00     0.000 HD 
HETATM    6  C   UNL     3      -8.444   9.669  68.003  1.00  0.00    -0.118 C  
HETATM    7  N   UNL     2      -7.523   7.188  71.441  1.00  0.00    -0.079 N  
HETATM    8  O   UNL     3      -9.752   7.140  68.564  1.00  0.00    -0.141 OA 
HETATM    9  N   UNL     3      -8.492   8.476  67.156  1.00  0.00    -0.117 N  
HETATM   10  O   UNL     2      -9.345   6.424  72.619  1.00  0.00    -0.143 OA 
HETATM   11  C   UNL     2      -6.743   7.039  70.321  1.00  0.00    -0.052 A  
HETATM   12  C   UNL     2      -6.885   5.963  69.504  1.00  0.00    -0.062 A  
HETATM   13  C   UNL     3      -9.225   7.329  67.470  1.00  0.00    -0.130 C  
HETATM   14  C   UNL     3      -7.608   8.388  66.118  1.00  0.00    -0.089 A  
HETATM   15  C   UNL     3     -10.166   5.177  66.824  1.00  0.00    -0.253 C  
HETATM   16  C   UNL     2      -7.855   4.949  69.702  1.00  0.00    -0.067 C  
HETATM   17  N   UNL     2      -6.005   6.160  68.481  1.00  0.00    -0.015 NA 
HETATM   18  C   UNL     3      -7.515   7.266  65.361  1.00  0.00    -0.087 A  
HETATM   19  C   UNL     2      -5.421   7.381  68.701  1.00  0.00    -0.022 A  
HETATM   20  N   UNL     2      -8.760   5.271  70.711  1.00  0.00    -0.129 N  
HETATM   21  N   UNL     3      -6.427   7.473  64.569  1.00  0.00    -0.044 NA 
HETATM   22  H   UNL     2      -5.819   5.524  67.706  1.00  0.00     0.000 HD 
HETATM   23  C   UNL     3      -8.374   6.152  65.493  1.00  0.00    -0.147 C  
HETATM   24  O   UNL     2      -7.892   3.937  69.010  1.00  0.00    -0.056 OA 
HETATM   25  O   UNL     3      -8.227   5.137  64.804  1.00  0.00    -0.117 OA 
HETATM   26  N   UNL     3      -9.296   6.304  66.515  1.00  0.00    -0.150 N  
HETATM   27  C   UNL     3      -5.914   8.702  64.898  1.00  0.00    -0.059 A  
HETATM   28  H   UNL     3      -6.062   6.835  63.863  1.00  0.00     0.000 HD 
HETATM   29  C   UNL     2      -8.586   6.303  71.654  1.00  0.00    -0.133 C  
HETATM   30  N   UNL     2      -5.816   7.912  69.841  1.00  0.00    -0.023 NA 
HETATM   31  C   UNL     2     -10.028   4.569  70.744  1.00  0.00    -0.199 C  
HETATM   32  N   UNL     3      -6.640   9.298  65.817  1.00  0.00    -0.068 NA 
ENDROOT
BRANCH   2  33
HETATM   33  C   UNL     1     -11.661   9.168  69.186  1.00  0.00     0.644 C  
HETATM   34  H2  UNL     1     -11.452  11.217  69.281  1.00  0.00     0.000 HD 
HETATM   35  N   UNL     1     -12.198  10.526  69.202  1.00  0.00    -0.721 NA 
HETATM   36  H1  UNL     1     -12.793  10.716  68.395  1.00  0.00     0.000 HD 
ENDBRANCH   2  33
TORSDOF 1
ENDMDL
MODEL       85
REMARK 921   NORMALIZED FREE ENERGY PREDICTED BY IDOCK:   -2.63 KCAL/MOL
REMARK 922        TOTAL FREE ENERGY PREDICTED BY IDOCK:   -3.15 KCAL/MOL
REMARK 923 INTER-LIGAND FREE ENERGY PREDICTED BY IDOCK:   -3.01 KCAL/MOL
REMARK 924 INTRA-LIGAND FREE ENERGY PREDICTED BY IDOCK:   -0.13 KCAL/MOL
REMARK 927      BINDING AFFINITY PREDICTED BY RF-SCORE:    0.00 PKD
ROOT
HETATM    1  N   UNL     1     -12.889   6.906  70.366  1.00  0.00    -0.362 NA 
HETATM    2  C   UNL     1     -11.934   7.947  69.978  1.00  0.00     0.518 C  
HETATM    3  H1  UNL     1     -12.833   6.074  69.777  1.00  0.00     0.000 HD 
HETATM    4  C   UNL     2     -10.393   4.526  68.624  1.00  0.00     0.301 C  
HETATM    5  H2  UNL     1     -13.840   7.274  70.386  1.00  0.00     0.000 HD 
HETATM    6  C   UNL     3      -9.454   7.348  72.272  1.00  0.00    -0.146 C  
HETATM    7  N   UNL     2      -9.472   5.594  68.303  1.00  0.00    -0.111 N  
HETATM    8  O   UNL     3      -9.383   8.901  69.821  1.00  0.00    -0.158 OA 
HETATM    9  N   UNL     3      -8.431   8.303  71.844  1.00  0.00    -0.146 N  
HETATM   10  O   UNL     2     -10.962   6.530  66.822  1.00  0.00    -0.354 OA 
HETATM   11  C   UNL     2      -8.262   5.721  68.938  1.00  0.00    -0.101 A  
HETATM   12  C   UNL     2      -7.375   6.685  68.576  1.00  0.00    -0.087 A  
HETATM   13  C   UNL     3      -8.524   9.075  70.684  1.00  0.00    -0.196 C  
HETATM   14  C   UNL     3      -7.224   8.284  72.486  1.00  0.00    -0.103 A  
HETATM   15  C   UNL     3      -7.734  10.917  69.299  1.00  0.00    -0.099 C  
HETATM   16  C   UNL     2      -7.633   7.650  67.571  1.00  0.00    -0.109 C  
HETATM   17  N   UNL     2      -6.323   6.557  69.433  1.00  0.00    -0.034 NA 
HETATM   18  C   UNL     3      -6.190   9.058  72.072  1.00  0.00    -0.028 A  
HETATM   19  C   UNL     2      -6.657   5.560  70.312  1.00  0.00    -0.042 A  
HETATM   20  N   UNL     2      -8.954   7.617  67.128  1.00  0.00    -0.123 N  
HETATM   21  N   UNL     3      -5.128   8.641  72.815  1.00  0.00    -0.041 NA 
HETATM   22  H   UNL     2      -5.457   7.097  69.422  1.00  0.00     0.000 HD 
HETATM   23  C   UNL     3      -6.286  10.016  71.038  1.00  0.00    -0.005 C  
HETATM   24  O   UNL     2      -6.776   8.442  67.192  1.00  0.00    -0.061 OA 
HETATM   25  O   UNL     3      -5.305  10.672  70.672  1.00  0.00    -0.067 OA 
HETATM   26  N   UNL     3      -7.541  10.049  70.453  1.00  0.00    -0.118 N  
HETATM   27  C   UNL     3      -5.573   7.630  73.628  1.00  0.00    -0.048 A  
HETATM   28  H   UNL     3      -4.179   9.011  72.775  1.00  0.00     0.000 HD 
HETATM   29  C   UNL     2      -9.864   6.573  67.382  1.00  0.00    -0.133 C  
HETATM   30  N   UNL     2      -7.810   5.001  70.001  1.00  0.00    -0.070 NA 
HETATM   31  C   UNL     2      -9.476   8.782  66.443  1.00  0.00    -0.228 C  
HETATM   32  N   UNL     3      -6.861   7.417  73.473  1.00  0.00    -0.065 NA 
ENDROOT
BRANCH   2  33
HETATM   33  C   UNL     1     -12.018   9.208  70.870  1.00  0.00    -0.242 C  
HETATM   34  H2  UNL     1     -13.614  10.039  69.864  1.00  0.00     0.000 HD 
HETATM   35  N   UNL     1     -12.691  10.316  70.198  1.00  0.00    -0.557 NA 
HETATM   36  H1  UNL     1     -12.747  11.148  70.787  1.00  0.00     0.000 HD 
ENDBRANCH   2  33
TORSDOF 1
ENDMDL
MODEL       86
REMARK 921   NORMALIZED FREE ENERGY PREDICTED BY IDOCK:   -2.60 KCAL/MOL
REMARK 922        TOTAL FREE ENERGY PREDICTED BY IDOCK:   -3.12 KCAL/MOL
REMARK 923 INTER-LIGAND FREE ENERGY PREDICTED BY IDOCK:   -2.96 KCAL/MOL
REMARK 924 INTRA-LIGAND FREE ENERGY PREDICTED BY IDOCK:   -0.16 KCAL/MOL
REMARK 927      BINDING AFFINITY PREDICTED BY RF-SCORE:    0.00 PKD
ROOT
HETATM    1  N   UNL     1      -7.596   4.821  63.731  1.00  0.00    -0.063 NA 
HETATM    2  C   UNL     1      -6.980   5.233  64.995  1.00  0.00    -0.057 C  
HETATM    3  H1  UNL     1      -8.476   4.322  63.860  1.00  0.00     0.000 HD 
HETATM    4  C   UNL     2     -10.870   4.829  65.783  1.00  0.00    -0.069 C  
HETATM    5  H2  UNL     1      -6.944   4.271  63.171  1.00  0.00     0.000 HD 
HETATM    6  C   UNL     3      -8.008   8.504  65.108  1.00  0.00    -0.130 C  
HETATM    7  N   UNL     2     -10.208   5.273  66.990  1.00  0.00    -0.214 N  
HETATM    8  O   UNL     3      -6.923   6.824  67.211  1.00  0.00    -0.070 OA 
HETATM    9  N   UNL     3      -7.500   8.920  66.416  1.00  0.00    -0.087 N  
HETATM   10  O   UNL     2      -9.066   3.285  67.179  1.00  0.00    -0.149 OA 
HETATM   11  C   UNL     2     -10.386   6.540  67.488  1.00  0.00    -0.201 A  
HETATM   12  C   UNL     2      -9.817   6.919  68.662  1.00  0.00    -0.145 A  
HETATM   13  C   UNL     3      -6.912   8.047  67.335  1.00  0.00    -0.075 C  
HETATM   14  C   UNL     3      -7.812  10.175  66.859  1.00  0.00    -0.107 A  
HETATM   15  C   UNL     3      -5.634   7.669  69.374  1.00  0.00    -0.023 C  
HETATM   16  C   UNL     2      -8.973   6.081  69.433  1.00  0.00    -0.126 C  
HETATM   17  N   UNL     2     -10.151   8.231  68.825  1.00  0.00    -0.195 NA 
HETATM   18  C   UNL     3      -7.476  10.589  68.106  1.00  0.00    -0.090 A  
HETATM   19  C   UNL     2     -10.854   8.594  67.705  1.00  0.00    -0.005 A  
HETATM   20  N   UNL     2      -8.646   4.902  68.767  1.00  0.00    -0.089 N  
HETATM   21  N   UNL     3      -8.101  11.791  68.250  1.00  0.00    -0.147 NA 
HETATM   22  H   UNL     2      -9.924   8.824  69.623  1.00  0.00     0.000 HD 
HETATM   23  C   UNL     3      -6.694   9.831  69.006  1.00  0.00    -0.049 C  
HETATM   24  O   UNL     2      -8.559   6.412  70.539  1.00  0.00    -0.139 OA 
HETATM   25  O   UNL     3      -6.445  10.236  70.146  1.00  0.00    -0.095 OA 
HETATM   26  N   UNL     3      -6.346   8.590  68.499  1.00  0.00    -0.053 N  
HETATM   27  C   UNL     3      -8.790  12.031  67.089  1.00  0.00    -0.188 A  
HETATM   28  H   UNL     3      -8.063  12.398  69.068  1.00  0.00     0.000 HD 
HETATM   29  C   UNL     2      -9.297   4.415  67.618  1.00  0.00    -0.154 C  
HETATM   30  N   UNL     2     -11.054   7.569  66.901  1.00  0.00     0.017 NA 
HETATM   31  C   UNL     2      -7.484   4.161  69.219  1.00  0.00    -0.054 C  
HETATM   32  N   UNL     3      -8.601  11.075  66.208  1.00  0.00    -0.164 NA 
ENDROOT
BRANCH   2  33
HETATM   33  C   UNL     1      -5.645   5.990  64.800  1.00  0.00    -0.017 C  
HETATM   34  H2  UNL     1      -6.249   6.995  63.104  1.00  0.00     0.000 HD 
HETATM   35  N   UNL     1      -5.458   6.435  63.422  1.00  0.00    -0.018 NA 
HETATM   36  H1  UNL     1      -4.578   6.934  63.293  1.00  0.00     0.000 HD 
ENDBRANCH   2  33
TORSDOF 1
ENDMDL
MODEL       87
REMARK 921   NORMALIZED FREE ENERGY PREDICTED BY IDOCK:   -2.59 KCAL/MOL
REMARK 922        TOTAL FREE ENERGY PREDICTED BY IDOCK:   -3.11 KCAL/MOL
REMARK 923 INTER-LIGAND FREE ENERGY PREDICTED BY IDOCK:   -3.16 KCAL/MOL
REMARK 924 INTRA-LIGAND FREE ENERGY PREDICTED BY IDOCK:    0.05 KCAL/MOL
REMARK 927      BINDING AFFINITY PREDICTED BY RF-SCORE:    0.00 PKD
ROOT
HETATM    1  N   UNL     1      -5.736   1.774  70.020  1.00  0.00    -0.017 NA 
HETATM    2  C   UNL     1      -5.652   3.191  70.382  1.00  0.00    -0.016 C  
HETATM    3  H1  UNL     1      -5.936   1.170  70.818  1.00  0.00     0.000 HD 
HETATM    4  C   UNL     2      -7.895   1.497  73.212  1.00  0.00    -0.037 C  
HETATM    5  H2  UNL     1      -4.891   1.471  69.536  1.00  0.00     0.000 HD 
HETATM    6  C   UNL     3      -8.799   4.214  69.476  1.00  0.00    -0.089 C  
HETATM    7  N   UNL     2      -7.805   2.913  73.494  1.00  0.00    -0.059 N  
HETATM    8  O   UNL     3      -6.830   5.527  71.156  1.00  0.00    -0.053 OA 
HETATM    9  N   UNL     3      -8.789   5.607  69.925  1.00  0.00    -0.127 N  
HETATM   10  O   UNL     2      -5.556   2.751  73.947  1.00  0.00     0.000 OA 
HETATM   11  C   UNL     2      -8.882   3.751  73.344  1.00  0.00    -0.092 A  
HETATM   12  C   UNL     2      -8.804   5.064  73.683  1.00  0.00    -0.108 A  
HETATM   13  C   UNL     3      -7.749   6.179  70.663  1.00  0.00    -0.105 C  
HETATM   14  C   UNL     3      -9.945   6.328  69.813  1.00  0.00    -0.168 A  
HETATM   15  C   UNL     3      -6.638   8.141  71.584  1.00  0.00    -0.058 C  
HETATM   16  C   UNL     2      -7.622   5.682  74.163  1.00  0.00    -0.092 C  
HETATM   17  N   UNL     2     -10.016   5.599  73.360  1.00  0.00    -0.168 NA 
HETATM   18  C   UNL     3     -10.045   7.585  70.312  1.00  0.00    -0.194 A  
HETATM   19  C   UNL     2     -10.744   4.592  72.783  1.00  0.00    -0.186 A  
HETATM   20  N   UNL     2      -6.512   4.844  74.075  1.00  0.00    -0.064 N  
HETATM   21  N   UNL     3     -11.363   7.902  70.184  1.00  0.00    -0.447 NA 
HETATM   22  H   UNL     2     -10.320   6.560  73.518  1.00  0.00     0.000 HD 
HETATM   23  C   UNL     3      -8.965   8.298  70.879  1.00  0.00    -0.151 C  
HETATM   24  O   UNL     2      -7.608   6.842  74.560  1.00  0.00    -0.111 OA 
HETATM   25  O   UNL     3      -9.115   9.429  71.354  1.00  0.00    -0.285 OA 
HETATM   26  N   UNL     3      -7.795   7.557  70.920  1.00  0.00    -0.093 N  
HETATM   27  C   UNL     3     -11.989   6.817  69.628  1.00  0.00     0.170 A  
HETATM   28  H   UNL     3     -11.802   8.783  70.451  1.00  0.00     0.000 HD 
HETATM   29  C   UNL     2      -6.564   3.456  73.848  1.00  0.00    -0.034 C  
HETATM   30  N   UNL     2     -10.095   3.445  72.808  1.00  0.00    -0.154 NA 
HETATM   31  C   UNL     2      -5.195   5.447  74.116  1.00  0.00    -0.022 C  
HETATM   32  N   UNL     3     -11.137   5.853  69.357  1.00  0.00    -0.357 NA 
ENDROOT
BRANCH   2  33
HETATM   33  C   UNL     1      -5.350   4.108  69.173  1.00  0.00    -0.011 C  
HETATM   34  H2  UNL     1      -7.065   3.620  68.139  1.00  0.00     0.000 HD 
HETATM   35  N   UNL     1      -6.062   3.688  67.969  1.00  0.00    -0.031 NA 
HETATM   36  H1  UNL     1      -5.863   4.292  67.172  1.00  0.00     0.000 HD 
ENDBRANCH   2  33
TORSDOF 1
ENDMDL
MODEL       88
REMARK 921   NORMALIZED FREE ENERGY PREDICTED BY IDOCK:   -2.45 KCAL/MOL
REMARK 922        TOTAL FREE ENERGY PREDICTED BY IDOCK:   -2.96 KCAL/MOL
REMARK 923 INTER-LIGAND FREE ENERGY PREDICTED BY IDOCK:   -2.70 KCAL/MOL
REMARK 924 INTRA-LIGAND FREE ENERGY PREDICTED BY IDOCK:   -0.26 KCAL/MOL
REMARK 927      BINDING AFFINITY PREDICTED BY RF-SCORE:    0.00 PKD
ROOT
HETATM    1  N   UNL     1      -7.978   8.309  72.359  1.00  0.00    -0.150 NA 
HETATM    2  C   UNL     1      -7.539   8.523  70.977  1.00  0.00    -0.090 C  
HETATM    3  H1  UNL     1      -8.989   8.199  72.444  1.00  0.00     0.000 HD 
HETATM    4  C   UNL     2     -11.044   6.639  70.704  1.00  0.00    -0.298 C  
HETATM    5  H2  UNL     1      -7.641   9.055  72.967  1.00  0.00     0.000 HD 
HETATM    6  C   UNL     3      -6.552   5.336  70.178  1.00  0.00    -0.039 C  
HETATM    7  N   UNL     2     -10.537   6.847  69.366  1.00  0.00    -0.219 N  
HETATM    8  O   UNL     3      -7.097   7.602  68.448  1.00  0.00    -0.076 OA 
HETATM    9  N   UNL     3      -6.207   5.489  68.764  1.00  0.00    -0.032 N  
HETATM   10  O   UNL     2     -10.782   9.126  69.551  1.00  0.00    -0.228 OA 
HETATM   11  C   UNL     2     -10.081   5.806  68.595  1.00  0.00    -0.175 A  
HETATM   12  C   UNL     2      -9.677   6.005  67.313  1.00  0.00    -0.125 A  
HETATM   13  C   UNL     3      -6.431   6.657  68.030  1.00  0.00    -0.056 C  
HETATM   14  C   UNL     3      -5.851   4.370  68.063  1.00  0.00    -0.022 A  
HETATM   15  C   UNL     3      -6.079   7.996  66.027  1.00  0.00    -0.041 C  
HETATM   16  C   UNL     2      -9.645   7.277  66.689  1.00  0.00    -0.178 C  
HETATM   17  N   UNL     2      -9.245   4.789  66.872  1.00  0.00    -0.120 NA 
HETATM   18  C   UNL     3      -5.629   4.413  66.726  1.00  0.00    -0.017 A  
HETATM   19  C   UNL     2      -9.352   3.929  67.934  1.00  0.00    -0.177 A  
HETATM   20  N   UNL     2      -9.896   8.314  67.584  1.00  0.00    -0.159 N  
HETATM   21  N   UNL     3      -5.487   3.110  66.358  1.00  0.00    -0.016 NA 
HETATM   22  H   UNL     2      -8.910   4.565  65.935  1.00  0.00     0.000 HD 
HETATM   23  C   UNL     3      -5.632   5.603  65.964  1.00  0.00    -0.013 C  
HETATM   24  O   UNL     2      -9.376   7.413  65.500  1.00  0.00     0.188 OA 
HETATM   25  O   UNL     3      -5.460   5.587  64.740  1.00  0.00    -0.015 OA 
HETATM   26  N   UNL     3      -5.935   6.723  66.719  1.00  0.00    -0.024 N  
HETATM   27  C   UNL     3      -5.643   2.350  67.489  1.00  0.00    -0.018 A  
HETATM   28  H   UNL     3      -5.299   2.764  65.418  1.00  0.00     0.000 HD 
HETATM   29  C   UNL     2     -10.431   8.154  68.876  1.00  0.00    -0.185 C  
HETATM   30  N   UNL     2      -9.906   4.512  68.979  1.00  0.00    -0.162 NA 
HETATM   31  C   UNL     2      -9.485   9.654  67.213  1.00  0.00    -0.143 C  
HETATM   32  N   UNL     3      -5.830   3.098  68.552  1.00  0.00    -0.023 NA 
ENDROOT
BRANCH   2  33
HETATM   33  C   UNL     1      -6.006   8.691  70.849  1.00  0.00    -0.036 C  
HETATM   34  H2  UNL     1      -6.049  10.751  70.811  1.00  0.00     0.000 HD 
HETATM   35  N   UNL     1      -5.638   9.984  70.280  1.00  0.00    -0.045 NA 
HETATM   36  H1  UNL     1      -4.627  10.095  70.195  1.00  0.00     0.000 HD 
ENDBRANCH   2  33
TORSDOF 1
ENDMDL
MODEL       89
REMARK 921   NORMALIZED FREE ENERGY PREDICTED BY IDOCK:   -2.44 KCAL/MOL
REMARK 922        TOTAL FREE ENERGY PREDICTED BY IDOCK:   -2.95 KCAL/MOL
REMARK 923 INTER-LIGAND FREE ENERGY PREDICTED BY IDOCK:   -2.83 KCAL/MOL
REMARK 924 INTRA-LIGAND FREE ENERGY PREDICTED BY IDOCK:   -0.12 KCAL/MOL
REMARK 927      BINDING AFFINITY PREDICTED BY RF-SCORE:    0.00 PKD
ROOT
HETATM    1  N   UNL     1      -9.960  14.394  66.154  1.00  0.00    -0.298 NA 
HETATM    2  C   UNL     1      -8.738  13.616  66.370  1.00  0.00     0.248 C  
HETATM    3  H1  UNL     1     -10.529  14.039  65.385  1.00  0.00     0.000 HD 
HETATM    4  C   UNL     2     -11.274  11.137  64.543  1.00  0.00     0.006 C  
HETATM    5  H2  UNL     1      -9.744  15.382  66.021  1.00  0.00     0.000 HD 
HETATM    6  C   UNL     3      -9.761  11.629  68.973  1.00  0.00     0.087 C  
HETATM    7  N   UNL     2     -10.053  10.412  64.819  1.00  0.00    -0.347 N  
HETATM    8  O   UNL     3      -7.473  11.349  67.210  1.00  0.00    -0.118 OA 
HETATM    9  N   UNL     3      -8.597  10.760  69.145  1.00  0.00    -0.128 N  
HETATM   10  O   UNL     2      -8.866  11.703  63.330  1.00  0.00     0.112 OA 
HETATM   11  C   UNL     2      -9.997   9.424  65.770  1.00  0.00    -0.208 A  
HETATM   12  C   UNL     2      -8.864   8.701  65.967  1.00  0.00    -0.178 A  
HETATM   13  C   UNL     3      -7.495  10.755  68.286  1.00  0.00    -0.092 C  
HETATM   14  C   UNL     3      -8.680   9.746  70.059  1.00  0.00    -0.209 A  
HETATM   15  C   UNL     3      -5.209  10.084  67.781  1.00  0.00    -0.035 C  
HETATM   16  C   UNL     2      -7.656   8.927  65.262  1.00  0.00    -0.098 C  
HETATM   17  N   UNL     2      -9.142   7.858  67.003  1.00  0.00    -0.132 NA 
HETATM   18  C   UNL     3      -7.688   8.831  70.193  1.00  0.00    -0.084 A  
HETATM   19  C   UNL     2     -10.412   8.162  67.421  1.00  0.00    -0.285 A  
HETATM   20  N   UNL     2      -7.704  10.082  64.484  1.00  0.00    -0.143 N  
HETATM   21  N   UNL     3      -8.195   7.895  71.041  1.00  0.00    -0.097 NA 
HETATM   22  H   UNL     2      -8.525   7.144  67.390  1.00  0.00     0.000 HD 
HETATM   23  C   UNL     3      -6.456   8.896  69.504  1.00  0.00    -0.043 C  
HETATM   24  O   UNL     2      -6.682   8.193  65.385  1.00  0.00    -0.051 OA 
HETATM   25  O   UNL     3      -5.597   8.018  69.632  1.00  0.00    -0.026 OA 
HETATM   26  N   UNL     3      -6.385   9.971  68.633  1.00  0.00    -0.048 N  
HETATM   27  C   UNL     3      -9.469   8.286  71.364  1.00  0.00    -0.175 A  
HETATM   28  H   UNL     3      -7.717   7.058  71.375  1.00  0.00     0.000 HD 
HETATM   29  C   UNL     2      -8.878  10.788  64.157  1.00  0.00    -0.111 C  
HETATM   30  N   UNL     2     -10.972   9.076  66.653  1.00  0.00     0.224 NA 
HETATM   31  C   UNL     2      -6.451  10.673  64.058  1.00  0.00     0.178 C  
HETATM   32  N   UNL     3      -9.777   9.435  70.805  1.00  0.00    -0.273 NA 
ENDROOT
BRANCH   2  33
HETATM   33  C   UNL     1      -7.875  14.154  67.536  1.00  0.00    -0.192 C  
HETATM   34  H2  UNL     1      -7.247  15.844  66.535  1.00  0.00     0.000 HD 
HETATM   35  N   UNL     1      -6.843  15.081  67.078  1.00  0.00    -0.312 NA 
HETATM   36  H1  UNL     1      -6.274  15.436  67.847  1.00  0.00     0.000 HD 
ENDBRANCH   2  33
TORSDOF 1
ENDMDL
MODEL       90
REMARK 921   NORMALIZED FREE ENERGY PREDICTED BY IDOCK:   -2.39 KCAL/MOL
REMARK 922        TOTAL FREE ENERGY PREDICTED BY IDOCK:   -2.90 KCAL/MOL
REMARK 923 INTER-LIGAND FREE ENERGY PREDICTED BY IDOCK:   -2.74 KCAL/MOL
REMARK 924 INTRA-LIGAND FREE ENERGY PREDICTED BY IDOCK:   -0.16 KCAL/MOL
REMARK 927      BINDING AFFINITY PREDICTED BY RF-SCORE:    0.00 PKD
ROOT
HETATM    1  N   UNL     1      -5.614   9.668  70.436  1.00  0.00    -0.041 NA 
HETATM    2  C   UNL     1      -6.730   8.920  69.851  1.00  0.00    -0.045 C  
HETATM    3  H1  UNL     1      -5.706   9.798  71.444  1.00  0.00     0.000 HD 
HETATM    4  C   UNL     2      -6.634   7.862  73.696  1.00  0.00    -0.095 C  
HETATM    5  H2  UNL     1      -5.488  10.563  69.964  1.00  0.00     0.000 HD 
HETATM    6  C   UNL     3      -5.315   5.800  69.676  1.00  0.00    -0.004 C  
HETATM    7  N   UNL     2      -7.698   7.125  73.051  1.00  0.00    -0.088 N  
HETATM    8  O   UNL     3      -8.100   6.591  69.473  1.00  0.00    -0.115 OA 
HETATM    9  N   UNL     3      -6.442   5.000  69.194  1.00  0.00    -0.034 N  
HETATM   10  O   UNL     2      -8.914   9.046  72.702  1.00  0.00    -0.238 OA 
HETATM   11  C   UNL     2      -7.609   5.773  72.825  1.00  0.00    -0.097 A  
HETATM   12  C   UNL     2      -8.645   5.080  72.285  1.00  0.00    -0.125 A  
HETATM   13  C   UNL     3      -7.741   5.495  69.047  1.00  0.00    -0.087 C  
HETATM   14  C   UNL     3      -6.275   3.647  69.092  1.00  0.00    -0.028 A  
HETATM   15  C   UNL     3     -10.013   5.256  68.203  1.00  0.00    -0.155 C  
HETATM   16  C   UNL     2      -9.861   5.681  71.873  1.00  0.00    -0.166 C  
HETATM   17  N   UNL     2      -8.201   3.798  72.155  1.00  0.00    -0.076 NA 
HETATM   18  C   UNL     3      -7.306   2.829  68.764  1.00  0.00    -0.048 A  
HETATM   19  C   UNL     2      -6.893   3.796  72.565  1.00  0.00    -0.041 A  
HETATM   20  N   UNL     2      -9.805   7.073  71.911  1.00  0.00    -0.164 N  
HETATM   21  N   UNL     3      -6.817   1.571  68.941  1.00  0.00    -0.029 NA 
HETATM   22  H   UNL     2      -8.738   2.998  71.819  1.00  0.00     0.000 HD 
HETATM   23  C   UNL     3      -8.590   3.288  68.396  1.00  0.00    -0.093 C  
HETATM   24  O   UNL     2     -10.818   5.018  71.487  1.00  0.00    -0.110 OA 
HETATM   25  O   UNL     3      -9.509   2.502  68.141  1.00  0.00    -0.211 OA 
HETATM   26  N   UNL     3      -8.704   4.667  68.452  1.00  0.00    -0.097 N  
HETATM   27  C   UNL     3      -5.523   1.696  69.377  1.00  0.00    -0.013 A  
HETATM   28  H   UNL     3      -7.319   0.699  68.778  1.00  0.00     0.000 HD 
HETATM   29  C   UNL     2      -8.811   7.823  72.568  1.00  0.00    -0.150 C  
HETATM   30  N   UNL     2      -6.525   4.975  73.026  1.00  0.00    -0.057 NA 
HETATM   31  C   UNL     2     -10.776   7.819  71.136  1.00  0.00    -0.227 C  
HETATM   32  N   UNL     3      -5.155   2.955  69.443  1.00  0.00    -0.010 NA 
ENDROOT
BRANCH   2  33
HETATM   33  C   UNL     1      -6.591   8.723  68.323  1.00  0.00    -0.060 C  
HETATM   34  H2  UNL     1      -4.562   8.358  68.368  1.00  0.00     0.000 HD 
HETATM   35  N   UNL     1      -5.224   8.944  67.859  1.00  0.00    -0.034 NA 
HETATM   36  H1  UNL     1      -5.132   8.813  66.852  1.00  0.00     0.000 HD 
ENDBRANCH   2  33
TORSDOF 1
ENDMDL
MODEL       91
REMARK 921   NORMALIZED FREE ENERGY PREDICTED BY IDOCK:   -1.50 KCAL/MOL
REMARK 922        TOTAL FREE ENERGY PREDICTED BY IDOCK:   -1.95 KCAL/MOL
REMARK 923 INTER-LIGAND FREE ENERGY PREDICTED BY IDOCK:   -1.61 KCAL/MOL
REMARK 924 INTRA-LIGAND FREE ENERGY PREDICTED BY IDOCK:   -0.34 KCAL/MOL
REMARK 927      BINDING AFFINITY PREDICTED BY RF-SCORE:    0.00 PKD
ROOT
HETATM    1  N   UNL     1      -8.600  20.103  65.588  1.00  0.00    -0.484 NA 
HETATM    2  C   UNL     1      -9.032  19.596  66.893  1.00  0.00    -0.331 C  
HETATM    3  H1  UNL     1      -7.616  19.915  65.393  1.00  0.00     0.000 HD 
HETATM    4  C   UNL     2      -5.862  17.393  65.889  1.00  0.00     0.061 C  
HETATM    5  H2  UNL     1      -8.805  21.098  65.498  1.00  0.00     0.000 HD 
HETATM    6  C   UNL     3     -10.512  16.658  65.919  1.00  0.00    -0.313 C  
HETATM    7  N   UNL     2      -6.362  16.914  67.159  1.00  0.00    -0.168 N  
HETATM    8  O   UNL     3      -9.666  17.528  68.556  1.00  0.00    -0.291 OA 
HETATM    9  N   UNL     3     -10.861  16.070  67.213  1.00  0.00    -0.293 N  
HETATM   10  O   UNL     2      -5.768  18.871  68.211  1.00  0.00    -0.194 OA 
HETATM   11  C   UNL     2      -6.989  15.698  67.278  1.00  0.00    -0.189 A  
HETATM   12  C   UNL     2      -7.386  15.228  68.489  1.00  0.00    -0.119 A  
HETATM   13  C   UNL     3     -10.478  16.612  68.443  1.00  0.00    -0.323 C  
HETATM   14  C   UNL     3     -11.398  14.813  67.225  1.00  0.00    -0.357 A  
HETATM   15  C   UNL     3     -10.666  16.691  70.870  1.00  0.00     0.701 C  
HETATM   16  C   UNL     2      -7.237  15.951  69.699  1.00  0.00    -0.104 C  
HETATM   17  N   UNL     2      -8.008  14.041  68.236  1.00  0.00    -0.137 NA 
HETATM   18  C   UNL     3     -11.641  14.158  68.387  1.00  0.00    -0.318 A  
HETATM   19  C   UNL     2      -8.009  13.886  66.874  1.00  0.00     0.219 A  
HETATM   20  N   UNL     2      -6.811  17.260  69.486  1.00  0.00    -0.160 N  
HETATM   21  N   UNL     3     -11.989  12.898  68.007  1.00  0.00    -0.328 NA 
HETATM   22  H   UNL     2      -8.395  13.396  68.926  1.00  0.00     0.000 HD 
HETATM   23  C   UNL     3     -11.474  14.733  69.667  1.00  0.00    -0.292 C  
HETATM   24  O   UNL     2      -7.509  15.460  70.790  1.00  0.00     0.858 OA 
HETATM   25  O   UNL     3     -11.673  14.084  70.699  1.00  0.00    -0.264 OA 
HETATM   26  N   UNL     3     -10.987  16.029  69.613  1.00  0.00    -0.300 N  
HETATM   27  C   UNL     3     -11.925  12.855  66.638  1.00  0.00    -0.366 A  
HETATM   28  H   UNL     3     -12.248  12.129  68.624  1.00  0.00     0.000 HD 
HETATM   29  C   UNL     2      -6.278  17.750  68.279  1.00  0.00    -0.176 C  
HETATM   30  N   UNL     2      -7.350  14.856  66.272  1.00  0.00     1.370 NA 
HETATM   31  C   UNL     2      -7.021  18.229  70.544  1.00  0.00     1.735 C  
HETATM   32  N   UNL     3     -11.602  14.024  66.132  1.00  0.00    -0.353 NA 
ENDROOT
BRANCH   2  33
HETATM   33  C   UNL     1     -10.524  19.881  67.189  1.00  0.00    -0.433 C  
HETATM   34  H2  UNL     1     -10.169  20.940  68.922  1.00  0.00     0.000 HD 
HETATM   35  N   UNL     1     -10.761  20.175  68.600  1.00  0.00    -0.257 NA 
HETATM   36  H1  UNL     1     -11.745  20.363  68.795  1.00  0.00     0.000 HD 
ENDBRANCH   2  33
TORSDOF 1
ENDMDL
MODEL       92
REMARK 921   NORMALIZED FREE ENERGY PREDICTED BY IDOCK:   -1.49 KCAL/MOL
REMARK 922        TOTAL FREE ENERGY PREDICTED BY IDOCK:   -1.94 KCAL/MOL
REMARK 923 INTER-LIGAND FREE ENERGY PREDICTED BY IDOCK:   -1.88 KCAL/MOL
REMARK 924 INTRA-LIGAND FREE ENERGY PREDICTED BY IDOCK:   -0.06 KCAL/MOL
REMARK 927      BINDING AFFINITY PREDICTED BY RF-SCORE:    0.00 PKD
ROOT
HETATM    1  N   UNL     1     -11.260   6.764  68.561  1.00  0.00    -0.542 NA 
HETATM    2  C   UNL     1     -10.888   7.989  67.849  1.00  0.00     0.026 C  
HETATM    3  H1  UNL     1     -10.793   5.933  68.198  1.00  0.00     0.000 HD 
HETATM    4  C   UNL     2      -7.860   5.457  67.275  1.00  0.00    -0.101 C  
HETATM    5  H2  UNL     1     -12.273   6.640  68.566  1.00  0.00     0.000 HD 
HETATM    6  C   UNL     3      -8.529   9.229  70.009  1.00  0.00    -0.176 C  
HETATM    7  N   UNL     2      -7.534   6.706  66.623  1.00  0.00    -0.078 N  
HETATM    8  O   UNL     3      -9.079   9.942  67.251  1.00  0.00    -0.134 OA 
HETATM    9  N   UNL     3      -8.055  10.402  69.274  1.00  0.00    -0.149 N  
HETATM   10  O   UNL     2      -9.216   6.422  65.080  1.00  0.00     0.265 OA 
HETATM   11  C   UNL     2      -6.556   7.541  67.105  1.00  0.00    -0.062 A  
HETATM   12  C   UNL     2      -6.210   8.674  66.442  1.00  0.00    -0.060 A  
HETATM   13  C   UNL     3      -8.444  10.712  67.969  1.00  0.00    -0.119 C  
HETATM   14  C   UNL     3      -7.012  11.113  69.800  1.00  0.00    -0.050 A  
HETATM   15  C   UNL     3      -8.546  12.279  66.107  1.00  0.00     0.237 C  
HETATM   16  C   UNL     2      -6.842   9.111  65.251  1.00  0.00    -0.077 C  
HETATM   17  N   UNL     2      -5.262   9.277  67.215  1.00  0.00    -0.036 NA 
HETATM   18  C   UNL     3      -6.444  12.141  69.123  1.00  0.00    -0.099 A  
HETATM   19  C   UNL     2      -5.131   8.505  68.341  1.00  0.00    -0.033 A  
HETATM   20  N   UNL     2      -7.969   8.355  64.940  1.00  0.00    -0.128 N  
HETATM   21  N   UNL     3      -5.347  12.474  69.858  1.00  0.00    -0.083 NA 
HETATM   22  H   UNL     2      -4.752  10.133  66.998  1.00  0.00     0.000 HD 
HETATM   23  C   UNL     3      -6.929  12.640  67.893  1.00  0.00    -0.110 C  
HETATM   24  O   UNL     2      -6.439  10.082  64.617  1.00  0.00    -0.113 OA 
HETATM   25  O   UNL     3      -6.354  13.555  67.295  1.00  0.00    -0.294 OA 
HETATM   26  N   UNL     3      -8.023  11.933  67.422  1.00  0.00    -0.153 N  
HETATM   27  C   UNL     3      -5.304  11.622  70.931  1.00  0.00    -0.127 A  
HETATM   28  H   UNL     3      -4.682  13.217  69.649  1.00  0.00     0.000 HD 
HETATM   29  C   UNL     2      -8.294   7.114  65.520  1.00  0.00    -0.129 C  
HETATM   30  N   UNL     2      -5.870   7.416  68.274  1.00  0.00    -0.026 NA 
HETATM   31  C   UNL     2      -8.944   8.921  64.029  1.00  0.00     0.201 C  
HETATM   32  N   UNL     3      -6.332  10.803  70.940  1.00  0.00    -0.336 NA 
ENDROOT
BRANCH   2  33
HETATM   33  C   UNL     1     -11.596   9.249  68.400  1.00  0.00     0.956 C  
HETATM   34  H2  UNL     1     -11.005   8.954  70.352  1.00  0.00     0.000 HD 
HETATM   35  N   UNL     1     -11.860   9.153  69.833  1.00  0.00    -0.351 NA 
HETATM   36  H1  UNL     1     -12.327   9.984  70.197  1.00  0.00     0.000 HD 
ENDBRANCH   2  33
TORSDOF 1
ENDMDL
MODEL       93
REMARK 921   NORMALIZED FREE ENERGY PREDICTED BY IDOCK:   -1.35 KCAL/MOL
REMARK 922        TOTAL FREE ENERGY PREDICTED BY IDOCK:   -1.79 KCAL/MOL
REMARK 923 INTER-LIGAND FREE ENERGY PREDICTED BY IDOCK:   -1.69 KCAL/MOL
REMARK 924 INTRA-LIGAND FREE ENERGY PREDICTED BY IDOCK:   -0.10 KCAL/MOL
REMARK 927      BINDING AFFINITY PREDICTED BY RF-SCORE:    0.00 PKD
ROOT
HETATM    1  N   UNL     1      -9.641  14.827  69.065  1.00  0.00    -0.299 NA 
HETATM    2  C   UNL     1      -9.754  13.372  69.198  1.00  0.00     0.430 C  
HETATM    3  H1  UNL     1      -8.706  15.176  69.278  1.00  0.00     0.000 HD 
HETATM    4  C   UNL     2      -5.885  14.089  68.543  1.00  0.00    -0.093 C  
HETATM    5  H2  UNL     1     -10.344  15.300  69.634  1.00  0.00     0.000 HD 
HETATM    6  C   UNL     3      -9.427  12.458  65.907  1.00  0.00    -0.129 C  
HETATM    7  N   UNL     2      -6.068  12.658  68.646  1.00  0.00    -0.063 N  
HETATM    8  O   UNL     3      -9.209  10.849  68.313  1.00  0.00    -0.148 OA 
HETATM    9  N   UNL     3      -9.426  10.999  66.014  1.00  0.00    -0.199 N  
HETATM   10  O   UNL     2      -6.622  12.818  70.872  1.00  0.00     0.478 OA 
HETATM   11  C   UNL     2      -5.952  11.833  67.554  1.00  0.00    -0.089 A  
HETATM   12  C   UNL     2      -6.054  10.484  67.679  1.00  0.00    -0.052 A  
HETATM   13  C   UNL     3      -9.407  10.307  67.227  1.00  0.00    -0.149 C  
HETATM   14  C   UNL     3      -9.212  10.270  64.877  1.00  0.00    -0.227 A  
HETATM   15  C   UNL     3      -9.639   8.234  68.485  1.00  0.00    -0.149 C  
HETATM   16  C   UNL     2      -6.329   9.827  68.905  1.00  0.00    -0.041 C  
HETATM   17  N   UNL     2      -5.944   9.989  66.413  1.00  0.00    -0.062 NA 
HETATM   18  C   UNL     3      -9.083   8.921  64.914  1.00  0.00    -0.000 A  
HETATM   19  C   UNL     2      -5.845  11.073  65.580  1.00  0.00     0.032 A  
HETATM   20  N   UNL     2      -6.663  10.719  69.921  1.00  0.00    -0.148 N  
HETATM   21  N   UNL     3      -8.701   8.576  63.654  1.00  0.00    -0.415 NA 
HETATM   22  H   UNL     2      -5.937   9.006  66.141  1.00  0.00     0.000 HD 
HETATM   23  C   UNL     3      -9.265   8.143  66.080  1.00  0.00    -0.147 C  
HETATM   24  O   UNL     2      -6.311   8.605  69.008  1.00  0.00    -0.043 OA 
HETATM   25  O   UNL     3      -9.100   6.919  66.072  1.00  0.00    -0.146 OA 
HETATM   26  N   UNL     3      -9.541   8.910  67.199  1.00  0.00    -0.162 N  
HETATM   27  C   UNL     3      -8.606   9.734  62.927  1.00  0.00    -0.195 A  
HETATM   28  H   UNL     3      -8.518   7.632  63.314  1.00  0.00     0.000 HD 
HETATM   29  C   UNL     2      -6.457  12.111  69.874  1.00  0.00    -0.009 C  
HETATM   30  N   UNL     2      -5.797  12.204  66.255  1.00  0.00     0.202 NA 
HETATM   31  C   UNL     2      -7.371  10.205  71.078  1.00  0.00     0.884 C  
HETATM   32  N   UNL     3      -8.950  10.782  63.641  1.00  0.00    -0.184 NA 
ENDROOT
BRANCH   2  33
HETATM   33  C   UNL     1     -11.171  12.843  68.876  1.00  0.00    -0.279 C  
HETATM   34  H2  UNL     1     -12.160  14.310  69.933  1.00  0.00     0.000 HD 
HETATM   35  N   UNL     1     -12.164  13.294  69.847  1.00  0.00    -0.282 NA 
HETATM   36  H1  UNL     1     -13.099  12.945  69.635  1.00  0.00     0.000 HD 
ENDBRANCH   2  33
TORSDOF 1
ENDMDL
MODEL       94
REMARK 921   NORMALIZED FREE ENERGY PREDICTED BY IDOCK:   -1.25 KCAL/MOL
REMARK 922        TOTAL FREE ENERGY PREDICTED BY IDOCK:   -1.69 KCAL/MOL
REMARK 923 INTER-LIGAND FREE ENERGY PREDICTED BY IDOCK:   -1.39 KCAL/MOL
REMARK 924 INTRA-LIGAND FREE ENERGY PREDICTED BY IDOCK:   -0.29 KCAL/MOL
REMARK 927      BINDING AFFINITY PREDICTED BY RF-SCORE:    0.00 PKD
ROOT
HETATM    1  N   UNL     1      -6.890  15.598  70.525  1.00  0.00     0.413 NA 
HETATM    2  C   UNL     1      -7.507  15.665  69.197  1.00  0.00    -0.201 C  
HETATM    3  H1  UNL     1      -7.559  15.733  71.283  1.00  0.00     0.000 HD 
HETATM    4  C   UNL     2     -10.451  14.660  71.694  1.00  0.00     2.053 C  
HETATM    5  H2  UNL     1      -6.116  16.259  70.600  1.00  0.00     0.000 HD 
HETATM    6  C   UNL     3      -7.855  12.315  68.545  1.00  0.00    -0.111 C  
HETATM    7  N   UNL     2     -10.991  14.706  70.354  1.00  0.00    -0.067 N  
HETATM    8  O   UNL     3      -9.092  14.599  67.250  1.00  0.00    -0.188 OA 
HETATM    9  N   UNL     3      -8.570  12.345  67.268  1.00  0.00    -0.178 N  
HETATM   10  O   UNL     2     -10.686  16.983  70.233  1.00  0.00    -0.015 OA 
HETATM   11  C   UNL     2     -11.364  13.567  69.684  1.00  0.00    -0.152 A  
HETATM   12  C   UNL     2     -11.939  13.631  68.455  1.00  0.00    -0.356 A  
HETATM   13  C   UNL     3      -9.058  13.512  66.677  1.00  0.00    -0.168 C  
HETATM   14  C   UNL     3      -8.977  11.155  66.731  1.00  0.00    -0.165 A  
HETATM   15  C   UNL     3      -9.996  14.677  64.754  1.00  0.00     0.109 C  
HETATM   16  C   UNL     2     -12.156  14.842  67.751  1.00  0.00    -0.106 C  
HETATM   17  N   UNL     2     -12.128  12.336  68.071  1.00  0.00    -0.409 NA 
HETATM   18  C   UNL     3      -9.743  11.109  65.612  1.00  0.00    -0.225 A  
HETATM   19  C   UNL     2     -11.598  11.555  69.064  1.00  0.00    -0.318 A  
HETATM   20  N   UNL     2     -11.552  15.932  68.373  1.00  0.00    -0.355 N  
HETATM   21  N   UNL     3     -10.097   9.800  65.491  1.00  0.00    -0.296 NA 
HETATM   22  H   UNL     2     -12.576  12.014  67.213  1.00  0.00     0.000 HD 
HETATM   23  C   UNL     3     -10.092  12.245  64.848  1.00  0.00    -0.250 C  
HETATM   24  O   UNL     2     -12.771  14.879  66.691  1.00  0.00     0.374 OA 
HETATM   25  O   UNL     3     -10.822  12.156  63.856  1.00  0.00    -0.331 OA 
HETATM   26  N   UNL     3      -9.609  13.425  65.389  1.00  0.00     0.019 N  
HETATM   27  C   UNL     3      -9.539   9.129  66.549  1.00  0.00    -0.227 A  
HETATM   28  H   UNL     3     -10.671   9.395  64.752  1.00  0.00     0.000 HD 
HETATM   29  C   UNL     2     -11.056  15.938  69.691  1.00  0.00    -0.320 C  
HETATM   30  N   UNL     2     -11.173  12.279  70.080  1.00  0.00     0.214 NA 
HETATM   31  C   UNL     2     -11.316  17.126  67.585  1.00  0.00     0.309 C  
HETATM   32  N   UNL     3      -8.818   9.928  67.302  1.00  0.00    -0.132 NA 
ENDROOT
BRANCH   2  33
HETATM   33  C   UNL     1      -6.492  15.461  68.048  1.00  0.00    -0.136 C  
HETATM   34  H2  UNL     1      -6.327  17.464  67.589  1.00  0.00     0.000 HD 
HETATM   35  N   UNL     1      -6.489  16.580  67.109  1.00  0.00    -0.180 NA 
HETATM   36  H1  UNL     1      -5.819  16.445  66.350  1.00  0.00     0.000 HD 
ENDBRANCH   2  33
TORSDOF 1
ENDMDL
MODEL       95
REMARK 921   NORMALIZED FREE ENERGY PREDICTED BY IDOCK:   -1.23 KCAL/MOL
REMARK 922        TOTAL FREE ENERGY PREDICTED BY IDOCK:   -1.67 KCAL/MOL
REMARK 923 INTER-LIGAND FREE ENERGY PREDICTED BY IDOCK:   -1.49 KCAL/MOL
REMARK 924 INTRA-LIGAND FREE ENERGY PREDICTED BY IDOCK:   -0.17 KCAL/MOL
REMARK 927      BINDING AFFINITY PREDICTED BY RF-SCORE:    0.00 PKD
ROOT
HETATM    1  N   UNL     1      -5.384   4.920  69.229  1.00  0.00    -0.004 NA 
HETATM    2  C   UNL     1      -6.665   5.604  69.028  1.00  0.00    -0.060 C  
HETATM    3  H1  UNL     1      -4.728   5.459  69.794  1.00  0.00     0.000 HD 
HETATM    4  C   UNL     2      -5.137   7.154  72.371  1.00  0.00    -0.036 C  
HETATM    5  H2  UNL     1      -4.967   4.660  68.335  1.00  0.00     0.000 HD 
HETATM    6  C   UNL     3      -8.545   4.045  71.436  1.00  0.00    -0.096 C  
HETATM    7  N   UNL     2      -6.427   7.766  72.138  1.00  0.00    -0.050 N  
HETATM    8  O   UNL     3      -9.063   6.496  69.973  1.00  0.00    -0.149 OA 
HETATM    9  N   UNL     3      -9.806   4.782  71.338  1.00  0.00    -0.178 N  
HETATM   10  O   UNL     2      -5.659   8.831  70.249  1.00  0.00    -0.027 OA 
HETATM   11  C   UNL     2      -7.513   7.491  72.932  1.00  0.00    -0.081 A  
HETATM   12  C   UNL     2      -8.698   8.128  72.747  1.00  0.00    -0.217 A  
HETATM   13  C   UNL     3      -9.986   5.910  70.534  1.00  0.00    -0.189 C  
HETATM   14  C   UNL     3     -10.793   4.492  72.239  1.00  0.00     0.033 A  
HETATM   15  C   UNL     3     -11.453   7.547  69.486  1.00  0.00     0.274 C  
HETATM   16  C   UNL     2      -8.929   9.073  71.716  1.00  0.00    -0.008 C  
HETATM   17  N   UNL     2      -9.553   7.585  73.658  1.00  0.00    -0.284 NA 
HETATM   18  C   UNL     3     -11.943   5.210  72.283  1.00  0.00     0.506 A  
HETATM   19  C   UNL     2      -8.855   6.599  74.307  1.00  0.00    -0.159 A  
HETATM   20  N   UNL     2      -7.873   9.137  70.809  1.00  0.00    -0.140 N  
HETATM   21  N   UNL     3     -12.584   4.764  73.398  1.00  0.00     0.006 NA 
HETATM   22  H   UNL     2     -10.522   7.858  73.825  1.00  0.00     0.000 HD 
HETATM   23  C   UNL     3     -12.275   6.225  71.359  1.00  0.00     0.011 C  
HETATM   24  O   UNL     2      -9.974   9.709  71.636  1.00  0.00    -0.028 OA 
HETATM   25  O   UNL     3     -13.319   6.877  71.463  1.00  0.00    -0.329 OA 
HETATM   26  N   UNL     3     -11.278   6.448  70.425  1.00  0.00    -0.343 N  
HETATM   27  C   UNL     3     -11.783   3.811  73.974  1.00  0.00     0.696 A  
HETATM   28  H   UNL     3     -13.491   5.079  73.742  1.00  0.00     0.000 HD 
HETATM   29  C   UNL     2      -6.592   8.594  71.021  1.00  0.00    -0.053 C  
HETATM   30  N   UNL     2      -7.596   6.557  73.918  1.00  0.00    -0.084 NA 
HETATM   31  C   UNL     2      -8.127   9.712  69.502  1.00  0.00    -0.129 C  
HETATM   32  N   UNL     3     -10.698   3.599  73.264  1.00  0.00    -0.188 NA 
ENDROOT
BRANCH   2  33
HETATM   33  C   UNL     1      -7.660   4.787  68.171  1.00  0.00    -0.081 C  
HETATM   34  H2  UNL     1      -8.090   6.327  66.869  1.00  0.00     0.000 HD 
HETATM   35  N   UNL     1      -8.589   5.642  67.436  1.00  0.00    -0.110 NA 
HETATM   36  H1  UNL     1      -9.245   5.103  66.871  1.00  0.00     0.000 HD 
ENDBRANCH   2  33
TORSDOF 1
ENDMDL
MODEL       96
REMARK 921   NORMALIZED FREE ENERGY PREDICTED BY IDOCK:   -1.18 KCAL/MOL
REMARK 922        TOTAL FREE ENERGY PREDICTED BY IDOCK:   -1.62 KCAL/MOL
REMARK 923 INTER-LIGAND FREE ENERGY PREDICTED BY IDOCK:   -1.49 KCAL/MOL
REMARK 924 INTRA-LIGAND FREE ENERGY PREDICTED BY IDOCK:   -0.13 KCAL/MOL
REMARK 927      BINDING AFFINITY PREDICTED BY RF-SCORE:    0.00 PKD
ROOT
HETATM    1  N   UNL     1     -13.199  11.488  69.924  1.00  0.00     0.708 NA 
HETATM    2  C   UNL     1     -11.740  11.361  69.974  1.00  0.00    -0.334 C  
HETATM    3  H1  UNL     1     -13.513  12.252  69.326  1.00  0.00     0.000 HD 
HETATM    4  C   UNL     2     -12.534  13.221  66.535  1.00  0.00    -0.119 C  
HETATM    5  H2  UNL     1     -13.589  11.576  70.862  1.00  0.00     0.000 HD 
HETATM    6  C   UNL     3     -11.294   8.832  67.698  1.00  0.00     1.009 C  
HETATM    7  N   UNL     2     -11.103  13.032  66.627  1.00  0.00    -0.282 N  
HETATM    8  O   UNL     3      -9.365  10.694  68.809  1.00  0.00    -0.165 OA 
HETATM    9  N   UNL     3      -9.834   8.752  67.641  1.00  0.00    -0.169 N  
HETATM   10  O   UNL     2     -10.951  14.493  68.397  1.00  0.00    -0.232 OA 
HETATM   11  C   UNL     2     -10.438  12.139  65.824  1.00  0.00    -0.253 A  
HETATM   12  C   UNL     2      -9.085  12.024  65.869  1.00  0.00    -0.042 A  
HETATM   13  C   UNL     3      -8.980   9.651  68.284  1.00  0.00    -0.123 C  
HETATM   14  C   UNL     3      -9.272   7.892  66.739  1.00  0.00    -0.166 A  
HETATM   15  C   UNL     3      -6.752  10.279  69.042  1.00  0.00    -0.055 C  
HETATM   16  C   UNL     2      -8.264  12.762  66.758  1.00  0.00     0.068 C  
HETATM   17  N   UNL     2      -8.772  11.026  64.995  1.00  0.00    -0.364 NA 
HETATM   18  C   UNL     3      -7.930   7.845  66.548  1.00  0.00    -0.102 A  
HETATM   19  C   UNL     2      -9.961  10.544  64.513  1.00  0.00    -0.345 A  
HETATM   20  N   UNL     2      -9.006  13.473  67.698  1.00  0.00    -0.189 N  
HETATM   21  N   UNL     3      -7.764   7.030  65.470  1.00  0.00    -0.098 NA 
HETATM   22  H   UNL     2      -7.836  10.702  64.748  1.00  0.00     0.000 HD 
HETATM   23  C   UNL     3      -6.997   8.577  67.317  1.00  0.00    -0.075 C  
HETATM   24  O   UNL     2      -7.040  12.716  66.705  1.00  0.00     0.120 OA 
HETATM   25  O   UNL     3      -5.786   8.529  67.081  1.00  0.00    -0.037 OA 
HETATM   26  N   UNL     3      -7.601   9.390  68.262  1.00  0.00    -0.082 N  
HETATM   27  C   UNL     3      -9.012   6.639  65.061  1.00  0.00     0.432 A  
HETATM   28  H   UNL     3      -6.876   6.761  65.046  1.00  0.00     0.000 HD 
HETATM   29  C   UNL     2     -10.390  13.717  67.619  1.00  0.00    -0.239 C  
HETATM   30  N   UNL     2     -10.987  11.239  64.963  1.00  0.00    -0.208 NA 
HETATM   31  C   UNL     2      -8.337  13.915  68.906  1.00  0.00     0.074 C  
HETATM   32  N   UNL     3      -9.951   7.123  65.843  1.00  0.00     0.447 NA 
ENDROOT
BRANCH   2  33
HETATM   33  C   UNL     1     -11.264  10.202  70.880  1.00  0.00    -0.307 C  
HETATM   34  H2  UNL     1     -13.047   9.169  70.811  1.00  0.00     0.000 HD 
HETATM   35  N   UNL     1     -12.379   9.497  71.508  1.00  0.00    -0.355 NA 
HETATM   36  H1  UNL     1     -12.065   8.732  72.106  1.00  0.00     0.000 HD 
ENDBRANCH   2  33
TORSDOF 1
ENDMDL
MODEL       97
REMARK 921   NORMALIZED FREE ENERGY PREDICTED BY IDOCK:   -0.96 KCAL/MOL
REMARK 922        TOTAL FREE ENERGY PREDICTED BY IDOCK:   -1.38 KCAL/MOL
REMARK 923 INTER-LIGAND FREE ENERGY PREDICTED BY IDOCK:   -1.27 KCAL/MOL
REMARK 924 INTRA-LIGAND FREE ENERGY PREDICTED BY IDOCK:   -0.11 KCAL/MOL
REMARK 927      BINDING AFFINITY PREDICTED BY RF-SCORE:    0.00 PKD
ROOT
HETATM    1  N   UNL     1      -9.588   2.705  65.046  1.00  0.00    -0.332 NA 
HETATM    2  C   UNL     1      -9.544   4.164  65.177  1.00  0.00    -0.185 C  
HETATM    3  H1  UNL     1      -8.694   2.259  65.253  1.00  0.00     0.000 HD 
HETATM    4  C   UNL     2      -6.592   2.793  67.484  1.00  0.00    -0.037 C  
HETATM    5  H2  UNL     1      -9.925   2.433  64.122  1.00  0.00     0.000 HD 
HETATM    6  C   UNL     3     -10.896   4.509  68.311  1.00  0.00     1.467 C  
HETATM    7  N   UNL     2      -6.625   4.235  67.601  1.00  0.00    -0.045 N  
HETATM    8  O   UNL     3      -9.401   6.414  66.713  1.00  0.00    -0.138 OA 
HETATM    9  N   UNL     3     -10.768   5.951  68.522  1.00  0.00    -0.257 N  
HETATM   10  O   UNL     2      -5.973   4.498  65.411  1.00  0.00    -0.021 OA 
HETATM   11  C   UNL     2      -7.041   4.858  68.752  1.00  0.00    -0.053 A  
HETATM   12  C   UNL     2      -6.997   6.210  68.874  1.00  0.00    -0.072 A  
HETATM   13  C   UNL     3     -10.097   6.809  67.646  1.00  0.00    -0.161 C  
HETATM   14  C   UNL     3     -11.127   6.458  69.740  1.00  0.00    -0.396 A  
HETATM   15  C   UNL     3      -9.551   9.060  66.894  1.00  0.00    -0.185 C  
HETATM   16  C   UNL     2      -6.575   7.079  67.836  1.00  0.00    -0.052 C  
HETATM   17  N   UNL     2      -7.524   6.486  70.101  1.00  0.00    -0.092 NA 
HETATM   18  C   UNL     3     -10.930   7.764  70.049  1.00  0.00    -0.214 A  
HETATM   19  C   UNL     2      -7.918   5.285  70.632  1.00  0.00    -0.103 A  
HETATM   20  N   UNL     2      -6.388   6.411  66.628  1.00  0.00    -0.040 N  
HETATM   21  N   UNL     3     -11.227   7.854  71.374  1.00  0.00    -0.243 NA 
HETATM   22  H   UNL     2      -7.607   7.404  70.537  1.00  0.00     0.000 HD 
HETATM   23  C   UNL     3     -10.452   8.728  69.133  1.00  0.00    -0.217 C  
HETATM   24  O   UNL     2      -6.446   8.286  68.009  1.00  0.00    -0.054 OA 
HETATM   25  O   UNL     3     -10.254   9.899  69.472  1.00  0.00    -0.195 OA 
HETATM   26  N   UNL     3     -10.157   8.189  67.891  1.00  0.00    -0.186 N  
HETATM   27  C   UNL     3     -11.575   6.597  71.798  1.00  0.00    -0.304 A  
HETATM   28  H   UNL     3     -11.197   8.697  71.945  1.00  0.00     0.000 HD 
HETATM   29  C   UNL     2      -6.305   5.013  66.482  1.00  0.00    -0.036 C  
HETATM   30  N   UNL     2      -7.589   4.275  69.852  1.00  0.00    -0.053 NA 
HETATM   31  C   UNL     2      -6.380   7.193  65.408  1.00  0.00    -0.037 C  
HETATM   32  N   UNL     3     -11.558   5.732  70.809  1.00  0.00     0.082 NA 
ENDROOT
BRANCH   2  33
HETATM   33  C   UNL     1     -10.899   4.841  64.863  1.00  0.00     0.278 C  
HETATM   34  H2  UNL     1     -11.159   3.898  63.048  1.00  0.00     0.000 HD 
HETATM   35  N   UNL     1     -11.198   4.842  63.434  1.00  0.00     0.612 NA 
HETATM   36  H1  UNL     1     -12.092   5.288  63.226  1.00  0.00     0.000 HD 
ENDBRANCH   2  33
TORSDOF 1
ENDMDL
MODEL       98
REMARK 921   NORMALIZED FREE ENERGY PREDICTED BY IDOCK:   -0.79 KCAL/MOL
REMARK 922        TOTAL FREE ENERGY PREDICTED BY IDOCK:   -1.20 KCAL/MOL
REMARK 923 INTER-LIGAND FREE ENERGY PREDICTED BY IDOCK:   -1.38 KCAL/MOL
REMARK 924 INTRA-LIGAND FREE ENERGY PREDICTED BY IDOCK:    0.18 KCAL/MOL
REMARK 927      BINDING AFFINITY PREDICTED BY RF-SCORE:    0.00 PKD
ROOT
HETATM    1  N   UNL     1      -9.905   3.999  70.158  1.00  0.00    -0.194 NA 
HETATM    2  C   UNL     1      -9.936   4.702  68.873  1.00  0.00    -0.098 C  
HETATM    3  H1  UNL     1      -9.071   3.424  70.278  1.00  0.00     0.000 HD 
HETATM    4  C   UNL     2      -6.083   3.960  69.593  1.00  0.00    -0.023 C  
HETATM    5  H2  UNL     1     -10.751   3.444  70.289  1.00  0.00     0.000 HD 
HETATM    6  C   UNL     3      -8.810   7.787  69.868  1.00  0.00    -0.142 C  
HETATM    7  N   UNL     2      -6.178   4.691  68.349  1.00  0.00    -0.031 N  
HETATM    8  O   UNL     3      -9.019   6.656  67.204  1.00  0.00    -0.116 OA 
HETATM    9  N   UNL     3      -8.724   8.488  68.587  1.00  0.00    -0.138 N  
HETATM   10  O   UNL     2      -7.229   2.928  67.311  1.00  0.00    -0.053 OA 
HETATM   11  C   UNL     2      -5.758   5.993  68.241  1.00  0.00    -0.012 A  
HETATM   12  C   UNL     2      -5.784   6.644  67.048  1.00  0.00    -0.014 A  
HETATM   13  C   UNL     3      -8.926   7.873  67.349  1.00  0.00    -0.127 C  
HETATM   14  C   UNL     3      -8.205   9.753  68.579  1.00  0.00    -0.106 A  
HETATM   15  C   UNL     3      -9.280   8.026  64.944  1.00  0.00     0.785 C  
HETATM   16  C   UNL     2      -6.278   6.068  65.851  1.00  0.00    -0.037 C  
HETATM   17  N   UNL     2      -5.356   7.911  67.312  1.00  0.00    -0.034 NA 
HETATM   18  C   UNL     3      -7.988  10.421  67.419  1.00  0.00    -0.107 A  
HETATM   19  C   UNL     2      -5.153   7.979  68.666  1.00  0.00    -0.024 A  
HETATM   20  N   UNL     2      -6.898   4.840  66.069  1.00  0.00    -0.057 N  
HETATM   21  N   UNL     3      -7.307  11.541  67.789  1.00  0.00    -0.091 NA 
HETATM   22  H   UNL     2      -5.214   8.660  66.635  1.00  0.00     0.000 HD 
HETATM   23  C   UNL     3      -8.368   9.938  66.147  1.00  0.00    -0.122 C  
HETATM   24  O   UNL     2      -6.192   6.640  64.769  1.00  0.00    -0.036 OA 
HETATM   25  O   UNL     3      -8.115  10.568  65.115  1.00  0.00    -0.155 OA 
HETATM   26  N   UNL     3      -8.946   8.681  66.201  1.00  0.00    -0.168 N  
HETATM   27  C   UNL     3      -7.138  11.483  69.149  1.00  0.00    -0.105 A  
HETATM   28  H   UNL     3      -6.983  12.284  67.171  1.00  0.00     0.000 HD 
HETATM   29  C   UNL     2      -6.791   4.080  67.249  1.00  0.00    -0.051 C  
HETATM   30  N   UNL     2      -5.342   6.810  69.246  1.00  0.00    -0.014 NA 
HETATM   31  C   UNL     2      -7.807   4.343  65.055  1.00  0.00    -0.089 C  
HETATM   32  N   UNL     3      -7.711  10.417  69.661  1.00  0.00    -0.159 NA 
ENDROOT
BRANCH   2  33
HETATM   33  C   UNL     1     -11.201   5.574  68.690  1.00  0.00     0.612 C  
HETATM   34  H2  UNL     1     -10.688   6.949  70.139  1.00  0.00     0.000 HD 
HETATM   35  N   UNL     1     -11.492   6.380  69.873  1.00  0.00    -0.476 NA 
HETATM   36  H1  UNL     1     -12.326   6.955  69.752  1.00  0.00     0.000 HD 
ENDBRANCH   2  33
TORSDOF 1
ENDMDL
MODEL       99
REMARK 921   NORMALIZED FREE ENERGY PREDICTED BY IDOCK:   -0.74 KCAL/MOL
REMARK 922        TOTAL FREE ENERGY PREDICTED BY IDOCK:   -1.15 KCAL/MOL
REMARK 923 INTER-LIGAND FREE ENERGY PREDICTED BY IDOCK:   -1.00 KCAL/MOL
REMARK 924 INTRA-LIGAND FREE ENERGY PREDICTED BY IDOCK:   -0.15 KCAL/MOL
REMARK 927      BINDING AFFINITY PREDICTED BY RF-SCORE:    0.00 PKD
ROOT
HETATM    1  N   UNL     1     -12.859  16.310  70.499  1.00  0.00    -0.167 NA 
HETATM    2  C   UNL     1     -11.471  15.840  70.511  1.00  0.00    -0.381 C  
HETATM    3  H1  UNL     1     -13.052  16.963  69.740  1.00  0.00     0.000 HD 
HETATM    4  C   UNL     2     -12.185  16.964  66.751  1.00  0.00     3.135 C  
HETATM    5  H2  UNL     1     -13.114  16.713  71.400  1.00  0.00     0.000 HD 
HETATM    6  C   UNL     3     -11.864  12.813  68.946  1.00  0.00    -0.308 C  
HETATM    7  N   UNL     2     -10.834  16.452  66.821  1.00  0.00    -0.175 N  
HETATM    8  O   UNL     3      -9.452  14.345  69.447  1.00  0.00     0.056 OA 
HETATM    9  N   UNL     3     -10.477  12.360  68.843  1.00  0.00    -0.147 N  
HETATM   10  O   UNL     2     -10.162  18.208  68.146  1.00  0.00    -0.351 OA 
HETATM   11  C   UNL     2     -10.483  15.257  66.245  1.00  0.00    -0.307 A  
HETATM   12  C   UNL     2      -9.195  14.824  66.254  1.00  0.00    -0.243 A  
HETATM   13  C   UNL     3      -9.375  13.146  69.191  1.00  0.00     0.629 C  
HETATM   14  C   UNL     3     -10.227  11.198  68.168  1.00  0.00    -0.181 A  
HETATM   15  C   UNL     3      -6.994  13.362  69.657  1.00  0.00     0.216 C  
HETATM   16  C   UNL     2      -8.136  15.524  66.884  1.00  0.00    -0.249 C  
HETATM   17  N   UNL     2      -9.215  13.600  65.653  1.00  0.00    -0.306 NA 
HETATM   18  C   UNL     3      -8.960  10.775  67.932  1.00  0.00    -0.139 A  
HETATM   19  C   UNL     2     -10.528  13.329  65.368  1.00  0.00    -0.297 A  
HETATM   20  N   UNL     2      -8.589  16.601  67.643  1.00  0.00    -0.198 N  
HETATM   21  N   UNL     3      -9.102   9.712  67.094  1.00  0.00    -0.134 NA 
HETATM   22  H   UNL     2      -8.411  13.005  65.455  1.00  0.00     0.000 HD 
HETATM   23  C   UNL     3      -7.807  11.413  68.442  1.00  0.00    -0.135 C  
HETATM   24  O   UNL     2      -6.968  15.164  66.787  1.00  0.00    -0.022 OA 
HETATM   25  O   UNL     3      -6.671  11.011  68.169  1.00  0.00    -0.061 OA 
HETATM   26  N   UNL     3      -8.103  12.552  69.172  1.00  0.00     0.355 N  
HETATM   27  C   UNL     3     -10.444   9.557  66.858  1.00  0.00    -0.208 A  
HETATM   28  H   UNL     3      -8.351   9.137  66.713  1.00  0.00     0.000 HD 
HETATM   29  C   UNL     2      -9.881  17.154  67.568  1.00  0.00    -0.266 C  
HETATM   30  N   UNL     2     -11.313  14.343  65.672  1.00  0.00    -0.323 NA 
HETATM   31  C   UNL     2      -7.710  17.137  68.663  1.00  0.00    -0.260 C  
HETATM   32  N   UNL     3     -11.157  10.431  67.533  1.00  0.00    -0.306 NA 
ENDROOT
BRANCH   2  33
HETATM   33  C   UNL     1     -11.177  14.849  71.663  1.00  0.00    -0.008 C  
HETATM   34  H2  UNL     1     -13.069  14.031  71.689  1.00  0.00     0.000 HD 
HETATM   35  N   UNL     1     -12.395  14.420  72.346  1.00  0.00    -0.217 NA 
HETATM   36  H1  UNL     1     -12.201  13.767  73.106  1.00  0.00     0.000 HD 
ENDBRANCH   2  33
TORSDOF 1
ENDMDL
MODEL      100
REMARK 921   NORMALIZED FREE ENERGY PREDICTED BY IDOCK:   -0.58 KCAL/MOL
REMARK 922        TOTAL FREE ENERGY PREDICTED BY IDOCK:   -0.97 KCAL/MOL
REMARK 923 INTER-LIGAND FREE ENERGY PREDICTED BY IDOCK:   -0.62 KCAL/MOL
REMARK 924 INTRA-LIGAND FREE ENERGY PREDICTED BY IDOCK:   -0.36 KCAL/MOL
REMARK 927      BINDING AFFINITY PREDICTED BY RF-SCORE:    0.00 PKD
ROOT
HETATM    1  N   UNL     1      -6.386  13.757  67.054  1.00  0.00    -0.258 NA 
HETATM    2  C   UNL     1      -6.382  12.442  67.701  1.00  0.00    -0.131 C  
HETATM    3  H1  UNL     1      -6.636  13.714  66.066  1.00  0.00     0.000 HD 
HETATM    4  C   UNL     2      -8.815  12.080  64.561  1.00  0.00     0.954 C  
HETATM    5  H2  UNL     1      -5.490  14.228  67.182  1.00  0.00     0.000 HD 
HETATM    6  C   UNL     3      -9.466  12.521  69.202  1.00  0.00     0.608 C  
HETATM    7  N   UNL     2      -8.798  10.818  65.267  1.00  0.00    -0.191 N  
HETATM    8  O   UNL     3      -7.703  10.272  68.696  1.00  0.00    -0.086 OA 
HETATM    9  N   UNL     3      -9.543  11.175  69.770  1.00  0.00     0.570 N  
HETATM   10  O   UNL     2      -6.595  10.456  64.714  1.00  0.00    -0.116 OA 
HETATM   11  C   UNL     2      -9.885  10.372  65.979  1.00  0.00    -0.232 A  
HETATM   12  C   UNL     2      -9.881   9.152  66.576  1.00  0.00    -0.264 A  
HETATM   13  C   UNL     3      -8.594  10.176  69.537  1.00  0.00    -0.164 C  
HETATM   14  C   UNL     3     -10.708  10.799  70.380  1.00  0.00     0.270 A  
HETATM   15  C   UNL     3      -7.638   8.000  70.070  1.00  0.00    -0.082 C  
HETATM   16  C   UNL     2      -8.770   8.273  66.560  1.00  0.00    -0.141 C  
HETATM   17  N   UNL     2     -11.076   9.058  67.226  1.00  0.00    -0.286 NA 
HETATM   18  C   UNL     3     -10.895   9.533  70.829  1.00  0.00    -0.318 A  
HETATM   19  C   UNL     2     -11.715  10.257  67.040  1.00  0.00     1.533 A  
HETATM   20  N   UNL     2      -7.629   8.870  66.028  1.00  0.00    -0.093 N  
HETATM   21  N   UNL     3     -12.206   9.488  71.195  1.00  0.00    -0.323 NA 
HETATM   22  H   UNL     2     -11.425   8.254  67.748  1.00  0.00     0.000 HD 
HETATM   23  C   UNL     3      -9.895   8.535  70.814  1.00  0.00    -0.182 C  
HETATM   24  O   UNL     2      -8.830   7.137  67.017  1.00  0.00    -0.119 OA 
HETATM   25  O   UNL     3     -10.125   7.384  71.200  1.00  0.00    -0.187 OA 
HETATM   26  N   UNL     3      -8.710   8.970  70.245  1.00  0.00    -0.165 N  
HETATM   27  C   UNL     3     -12.742  10.723  70.936  1.00  0.00    -0.384 A  
HETATM   28  H   UNL     3     -12.697   8.685  71.587  1.00  0.00     0.000 HD 
HETATM   29  C   UNL     2      -7.613  10.073  65.296  1.00  0.00    -0.137 C  
HETATM   30  N   UNL     2     -11.033  11.054  66.241  1.00  0.00    -0.178 NA 
HETATM   31  C   UNL     2      -6.341   8.276  66.329  1.00  0.00    -0.046 C  
HETATM   32  N   UNL     3     -11.838  11.555  70.472  1.00  0.00    -0.328 NA 
ENDROOT
BRANCH   2  33
HETATM   33  C   UNL     1      -6.002  12.506  69.199  1.00  0.00    -0.085 C  
HETATM   34  H2  UNL     1      -4.332  11.312  69.017  1.00  0.00     0.000 HD 
HETATM   35  N   UNL     1      -5.162  11.383  69.605  1.00  0.00    -0.055 NA 
HETATM   36  H1  UNL     1      -4.911  11.425  70.593  1.00  0.00     0.000 HD 
ENDBRANCH   2  33
TORSDOF 1
ENDMDL
MODEL      101
REMARK 921   NORMALIZED FREE ENERGY PREDICTED BY IDOCK:   -0.28 KCAL/MOL
REMARK 922        TOTAL FREE ENERGY PREDICTED BY IDOCK:   -0.66 KCAL/MOL
REMARK 923 INTER-LIGAND FREE ENERGY PREDICTED BY IDOCK:   -1.81 KCAL/MOL
REMARK 924 INTRA-LIGAND FREE ENERGY PREDICTED BY IDOCK:    1.14 KCAL/MOL
REMARK 927      BINDING AFFINITY PREDICTED BY RF-SCORE:    0.00 PKD
ROOT
HETATM    1  N   UNL     1      -6.879  13.579  68.577  1.00  0.00    -0.090 NA 
HETATM    2  C   UNL     1      -6.855  12.871  67.294  1.00  0.00    -0.057 C  
HETATM    3  H1  UNL     1      -7.819  13.851  68.865  1.00  0.00     0.000 HD 
HETATM    4  C   UNL     2     -10.532  12.331  68.744  1.00  0.00    -0.162 C  
HETATM    5  H2  UNL     1      -6.256  14.386  68.559  1.00  0.00     0.000 HD 
HETATM    6  C   UNL     3      -6.689   9.633  68.414  1.00  0.00    -0.057 C  
HETATM    7  N   UNL     2     -10.433  11.621  67.488  1.00  0.00    -0.195 N  
HETATM    8  O   UNL     3      -7.364  10.657  65.784  1.00  0.00    -0.148 OA 
HETATM    9  N   UNL     3      -6.773   8.890  67.157  1.00  0.00    -0.065 N  
HETATM   10  O   UNL     2     -10.237  13.587  66.310  1.00  0.00    -0.285 OA 
HETATM   11  C   UNL     2     -10.409  10.249  67.432  1.00  0.00    -0.233 A  
HETATM   12  C   UNL     2     -10.390   9.595  66.242  1.00  0.00    -0.160 A  
HETATM   13  C   UNL     3      -7.020   9.484  65.917  1.00  0.00    -0.091 C  
HETATM   14  C   UNL     3      -6.835   7.525  67.219  1.00  0.00    -0.071 A  
HETATM   15  C   UNL     3      -7.087   9.356  63.485  1.00  0.00    -0.097 C  
HETATM   16  C   UNL     2     -10.346  10.250  64.986  1.00  0.00    -0.104 C  
HETATM   17  N   UNL     2     -10.317   8.269  66.553  1.00  0.00    -0.423 NA 
HETATM   18  C   UNL     3      -7.030   6.775  66.106  1.00  0.00    -0.061 A  
HETATM   19  C   UNL     2     -10.231   8.195  67.919  1.00  0.00    -0.218 A  
HETATM   20  N   UNL     2     -10.139  11.622  65.110  1.00  0.00    -0.252 N  
HETATM   21  N   UNL     3      -7.219   5.510  66.572  1.00  0.00    -0.076 NA 
HETATM   22  H   UNL     2     -10.325   7.487  65.898  1.00  0.00     0.000 HD 
HETATM   23  C   UNL     3      -7.073   7.302  64.796  1.00  0.00    -0.064 C  
HETATM   24  O   UNL     2     -10.435   9.637  63.927  1.00  0.00     1.559 OA 
HETATM   25  O   UNL     3      -7.289   6.582  63.816  1.00  0.00    -0.062 OA 
HETATM   26  N   UNL     3      -6.945   8.681  64.768  1.00  0.00    -0.072 N  
HETATM   27  C   UNL     3      -7.143   5.566  67.940  1.00  0.00    -0.071 A  
HETATM   28  H   UNL     3      -7.387   4.676  66.010  1.00  0.00     0.000 HD 
HETATM   29  C   UNL     2     -10.272  12.354  66.306  1.00  0.00    -0.238 C  
HETATM   30  N   UNL     2     -10.336   9.384  68.479  1.00  0.00    -0.203 NA 
HETATM   31  C   UNL     2      -9.651  12.348  63.954  1.00  0.00     0.178 C  
HETATM   32  N   UNL     3      -6.872   6.781  68.359  1.00  0.00    -0.071 NA 
ENDROOT
BRANCH   2  33
HETATM   33  C   UNL     1      -5.430  12.459  66.856  1.00  0.00     0.174 C  
HETATM   34  H2  UNL     1      -5.877  12.357  64.846  1.00  0.00     0.000 HD 
HETATM   35  N   UNL     1      -5.423  11.787  65.559  1.00  0.00    -0.090 NA 
HETATM   36  H1  UNL     1      -4.482  11.515  65.271  1.00  0.00     0.000 HD 
ENDBRANCH   2  33
TORSDOF 1
ENDMDL
MODEL      102
REMARK 921   NORMALIZED FREE ENERGY PREDICTED BY IDOCK:   -0.01 KCAL/MOL
REMARK 922        TOTAL FREE ENERGY PREDICTED BY IDOCK:   -0.37 KCAL/MOL
REMARK 923 INTER-LIGAND FREE ENERGY PREDICTED BY IDOCK:   -0.15 KCAL/MOL
REMARK 924 INTRA-LIGAND FREE ENERGY PREDICTED BY IDOCK:   -0.22 KCAL/MOL
REMARK 927      BINDING AFFINITY PREDICTED BY RF-SCORE:    0.00 PKD
ROOT
HETATM    1  N   UNL     1      -9.102  11.885  65.679  1.00  0.00    -0.422 NA 
HETATM    2  C   UNL     1      -8.785  12.523  66.960  1.00  0.00    -0.205 C  
HETATM    3  H1  UNL     1     -10.082  11.989  65.413  1.00  0.00     0.000 HD 
HETATM    4  C   UNL     2     -12.021  14.416  65.596  1.00  0.00    -0.354 C  
HETATM    5  H2  UNL     1      -8.828  10.903  65.684  1.00  0.00     0.000 HD 
HETATM    6  C   UNL     3      -7.439  15.469  65.830  1.00  0.00     2.862 C  
HETATM    7  N   UNL     2     -11.633  15.028  66.848  1.00  0.00    -0.282 N  
HETATM    8  O   UNL     3      -8.390  14.755  68.477  1.00  0.00    -0.146 OA 
HETATM    9  N   UNL     3      -7.209  16.180  67.088  1.00  0.00    -0.200 N  
HETATM   10  O   UNL     2     -12.165  13.124  68.024  1.00  0.00    -0.260 OA 
HETATM   11  C   UNL     2     -11.094  16.289  66.901  1.00  0.00     0.055 A  
HETATM   12  C   UNL     2     -10.804  16.880  68.089  1.00  0.00    -0.351 A  
HETATM   13  C   UNL     3      -7.633  15.713  68.335  1.00  0.00    -0.121 C  
HETATM   14  C   UNL     3      -6.755  17.468  67.026  1.00  0.00    -0.176 A  
HETATM   15  C   UNL     3      -7.593  15.839  70.767  1.00  0.00     2.155 C  
HETATM   16  C   UNL     2     -10.981  16.247  69.345  1.00  0.00    -0.337 C  
HETATM   17  N   UNL     2     -10.245  18.083  67.774  1.00  0.00    -0.359 NA 
HETATM   18  C   UNL     3      -6.628  18.229  68.142  1.00  0.00    -0.205 A  
HETATM   19  C   UNL     2     -10.168  18.129  66.406  1.00  0.00    -0.399 A  
HETATM   20  N   UNL     2     -11.309  14.899  69.218  1.00  0.00    -0.279 N  
HETATM   21  N   UNL     3      -6.338  19.475  67.678  1.00  0.00    -0.206 NA 
HETATM   22  H   UNL     2      -9.943  18.806  68.428  1.00  0.00     0.000 HD 
HETATM   23  C   UNL     3      -6.837  17.747  69.453  1.00  0.00    -0.128 C  
HETATM   24  O   UNL     2     -10.810  16.841  70.405  1.00  0.00    -0.153 OA 
HETATM   25  O   UNL     3      -6.745  18.488  70.437  1.00  0.00     0.416 OA 
HETATM   26  N   UNL     3      -7.237  16.421  69.480  1.00  0.00    -0.169 N  
HETATM   27  C   UNL     3      -6.319  19.405  66.308  1.00  0.00    -0.178 A  
HETATM   28  H   UNL     3      -6.167  20.307  68.243  1.00  0.00     0.000 HD 
HETATM   29  C   UNL     2     -11.733  14.280  68.027  1.00  0.00    -0.351 C  
HETATM   30  N   UNL     2     -10.725  17.072  65.851  1.00  0.00    -0.214 NA 
HETATM   31  C   UNL     2     -11.104  14.034  70.363  1.00  0.00     0.336 C  
HETATM   32  N   UNL     3      -6.534  18.180  65.885  1.00  0.00    -0.245 NA 
ENDROOT
BRANCH   2  33
HETATM   33  C   UNL     1      -7.300  12.365  67.363  1.00  0.00    -0.149 C  
HETATM   34  H2  UNL     1      -7.600  10.683  68.517  1.00  0.00     0.000 HD 
HETATM   35  N   UNL     1      -7.140  11.590  68.591  1.00  0.00    -0.090 NA 
HETATM   36  H1  UNL     1      -6.160  11.486  68.857  1.00  0.00     0.000 HD 
ENDBRANCH   2  33
TORSDOF 1
ENDMDL
MODEL      103
REMARK 921   NORMALIZED FREE ENERGY PREDICTED BY IDOCK:    0.05 KCAL/MOL
REMARK 922        TOTAL FREE ENERGY PREDICTED BY IDOCK:   -0.31 KCAL/MOL
REMARK 923 INTER-LIGAND FREE ENERGY PREDICTED BY IDOCK:   -0.45 KCAL/MOL
REMARK 924 INTRA-LIGAND FREE ENERGY PREDICTED BY IDOCK:    0.14 KCAL/MOL
REMARK 927      BINDING AFFINITY PREDICTED BY RF-SCORE:    0.00 PKD
ROOT
HETATM    1  N   UNL     1     -10.999   4.856  66.881  1.00  0.00    -0.127 NA 
HETATM    2  C   UNL     1     -10.822   6.305  66.751  1.00  0.00    -0.296 C  
HETATM    3  H1  UNL     1     -10.445   4.325  66.208  1.00  0.00     0.000 HD 
HETATM    4  C   UNL     2      -7.521   4.683  65.207  1.00  0.00    -0.077 C  
HETATM    5  H2  UNL     1     -11.985   4.603  66.820  1.00  0.00     0.000 HD 
HETATM    6  C   UNL     3      -8.547   6.844  69.261  1.00  0.00    -0.132 C  
HETATM    7  N   UNL     2      -7.390   6.122  65.142  1.00  0.00    -0.070 N  
HETATM    8  O   UNL     3      -9.311   8.557  67.047  1.00  0.00    -0.147 OA 
HETATM    9  N   UNL     3      -8.263   8.269  69.090  1.00  0.00    -0.120 N  
HETATM   10  O   UNL     2      -9.091   6.277  63.601  1.00  0.00     0.740 OA 
HETATM   11  C   UNL     2      -6.507   6.805  65.941  1.00  0.00    -0.050 A  
HETATM   12  C   UNL     2      -6.342   8.148  65.818  1.00  0.00    -0.048 A  
HETATM   13  C   UNL     3      -8.749   9.038  68.029  1.00  0.00    -0.129 C  
HETATM   14  C   UNL     3      -7.298   8.833  69.878  1.00  0.00    -0.052 A  
HETATM   15  C   UNL     3      -9.139  11.207  66.993  1.00  0.00    -0.153 C  
HETATM   16  C   UNL     2      -7.080   8.950  64.911  1.00  0.00    -0.083 C  
HETATM   17  N   UNL     2      -5.446   8.498  66.784  1.00  0.00    -0.036 NA 
HETATM   18  C   UNL     3      -6.900  10.117  69.700  1.00  0.00    -0.087 A  
HETATM   19  C   UNL     2      -5.164   7.354  67.485  1.00  0.00    -0.025 A  
HETATM   20  N   UNL     2      -8.113   8.244  64.298  1.00  0.00    -0.160 N  
HETATM   21  N   UNL     3      -5.823  10.260  70.520  1.00  0.00    -0.083 NA 
HETATM   22  H   UNL     2      -5.062   9.428  66.952  1.00  0.00     0.000 HD 
HETATM   23  C   UNL     3      -7.502  11.010  68.786  1.00  0.00    -0.116 C  
HETATM   24  O   UNL     2      -6.837  10.140  64.747  1.00  0.00    -0.126 OA 
HETATM   25  O   UNL     3      -7.079  12.161  68.633  1.00  0.00    -0.092 OA 
HETATM   26  N   UNL     3      -8.516  10.421  68.049  1.00  0.00    -0.118 N  
HETATM   27  C   UNL     3      -5.620   9.054  71.139  1.00  0.00    -0.043 A  
HETATM   28  H   UNL     3      -5.270  11.107  70.650  1.00  0.00     0.000 HD 
HETATM   29  C   UNL     2      -8.247   6.843  64.302  1.00  0.00     0.040 C  
HETATM   30  N   UNL     2      -5.758   6.301  66.959  1.00  0.00    -0.012 NA 
HETATM   31  C   UNL     2      -9.194   8.999  63.696  1.00  0.00     0.547 C  
HETATM   32  N   UNL     3      -6.532   8.173  70.792  1.00  0.00    -0.036 NA 
ENDROOT
BRANCH   2  33
HETATM   33  C   UNL     1     -11.662   7.111  67.769  1.00  0.00     1.262 C  
HETATM   34  H2  UNL     1     -10.624   6.454  69.425  1.00  0.00     0.000 HD 
HETATM   35  N   UNL     1     -11.590   6.546  69.114  1.00  0.00    -0.624 NA 
HETATM   36  H1  UNL     1     -12.144   7.078  69.786  1.00  0.00     0.000 HD 
ENDBRANCH   2  33
TORSDOF 1
ENDMDL
MODEL      104
REMARK 921   NORMALIZED FREE ENERGY PREDICTED BY IDOCK:    1.23 KCAL/MOL
REMARK 922        TOTAL FREE ENERGY PREDICTED BY IDOCK:    0.94 KCAL/MOL
REMARK 923 INTER-LIGAND FREE ENERGY PREDICTED BY IDOCK:    1.07 KCAL/MOL
REMARK 924 INTRA-LIGAND FREE ENERGY PREDICTED BY IDOCK:   -0.13 KCAL/MOL
REMARK 927      BINDING AFFINITY PREDICTED BY RF-SCORE:    0.00 PKD
ROOT
HETATM    1  N   UNL     1      -7.033  13.251  70.280  1.00  0.00     0.078 NA 
HETATM    2  C   UNL     1      -7.843  13.568  69.101  1.00  0.00     0.276 C  
HETATM    3  H1  UNL     1      -7.539  12.704  70.977  1.00  0.00     0.000 HD 
HETATM    4  C   UNL     2      -9.493  10.300  70.686  1.00  0.00     0.927 C  
HETATM    5  H2  UNL     1      -6.647  14.100  70.695  1.00  0.00     0.000 HD 
HETATM    6  C   UNL     3      -6.737  11.125  66.960  1.00  0.00    -0.115 C  
HETATM    7  N   UNL     2     -10.230  10.643  69.489  1.00  0.00    -0.197 N  
HETATM    8  O   UNL     3      -9.093  12.812  66.796  1.00  0.00    -0.217 OA 
HETATM    9  N   UNL     3      -7.606  11.343  65.803  1.00  0.00     0.251 N  
HETATM   10  O   UNL     2     -11.024  12.577  70.448  1.00  0.00     0.842 OA 
HETATM   11  C   UNL     2     -10.157   9.879  68.351  1.00  0.00    -0.167 A  
HETATM   12  C   UNL     2     -10.910  10.171  67.259  1.00  0.00    -0.230 A  
HETATM   13  C   UNL     3      -8.672  12.246  65.790  1.00  0.00     0.467 C  
HETATM   14  C   UNL     3      -7.516  10.467  64.757  1.00  0.00     0.029 A  
HETATM   15  C   UNL     3     -10.371  13.495  64.571  1.00  0.00    -0.358 C  
HETATM   16  C   UNL     2     -11.780  11.288  67.181  1.00  0.00     0.126 C  
HETATM   17  N   UNL     2     -10.555   9.257  66.312  1.00  0.00    -0.032 NA 
HETATM   18  C   UNL     3      -8.366  10.536  63.702  1.00  0.00    -0.108 A  
HETATM   19  C   UNL     2      -9.555   8.497  66.862  1.00  0.00    -0.197 A  
HETATM   20  N   UNL     2     -11.638  12.147  68.268  1.00  0.00    -0.305 N  
HETATM   21  N   UNL     3      -8.099   9.418  62.972  1.00  0.00    -0.141 NA 
HETATM   22  H   UNL     2     -10.954   9.159  65.379  1.00  0.00     0.000 HD 
HETATM   23  C   UNL     3      -9.327  11.556  63.528  1.00  0.00    -0.131 C  
HETATM   24  O   UNL     2     -12.526  11.468  66.225  1.00  0.00     0.787 OA 
HETATM   25  O   UNL     3     -10.104  11.556  62.568  1.00  0.00     0.024 OA 
HETATM   26  N   UNL     3      -9.347  12.459  64.578  1.00  0.00     0.346 N  
HETATM   27  C   UNL     3      -7.114   8.728  63.631  1.00  0.00    -0.089 A  
HETATM   28  H   UNL     3      -8.549   9.144  62.099  1.00  0.00     0.000 HD 
HETATM   29  C   UNL     2     -10.969  11.831  69.466  1.00  0.00    -0.064 C  
HETATM   30  N   UNL     2      -9.330   8.823  68.119  1.00  0.00    -0.140 NA 
HETATM   31  C   UNL     2     -12.121  13.507  68.133  1.00  0.00    -0.255 C  
HETATM   32  N   UNL     3      -6.713   9.368  64.707  1.00  0.00    -0.084 NA 
ENDROOT
BRANCH   2  33
HETATM   33  C   UNL     1      -7.076  14.398  68.045  1.00  0.00    -0.138 C  
HETATM   34  H2  UNL     1      -7.205  16.176  69.079  1.00  0.00     0.000 HD 
HETATM   35  N   UNL     1      -7.377  15.824  68.138  1.00  0.00    -0.120 NA 
HETATM   36  H1  UNL     1      -6.871  16.372  67.442  1.00  0.00     0.000 HD 
ENDBRANCH   2  33
TORSDOF 1
ENDMDL
MODEL      105
REMARK 921   NORMALIZED FREE ENERGY PREDICTED BY IDOCK:    1.47 KCAL/MOL
REMARK 922        TOTAL FREE ENERGY PREDICTED BY IDOCK:    1.19 KCAL/MOL
REMARK 923 INTER-LIGAND FREE ENERGY PREDICTED BY IDOCK:    1.51 KCAL/MOL
REMARK 924 INTRA-LIGAND FREE ENERGY PREDICTED BY IDOCK:   -0.33 KCAL/MOL
REMARK 927      BINDING AFFINITY PREDICTED BY RF-SCORE:    0.00 PKD
ROOT
HETATM    1  N   UNL     1      -6.276  13.850  67.349  1.00  0.00    -0.384 NA 
HETATM    2  C   UNL     1      -7.492  13.073  67.607  1.00  0.00    -0.156 C  
HETATM    3  H1  UNL     1      -6.363  14.471  66.544  1.00  0.00     0.000 HD 
HETATM    4  C   UNL     2      -8.693  16.303  65.597  1.00  0.00     0.418 C  
HETATM    5  H2  UNL     1      -5.467  13.236  67.249  1.00  0.00     0.000 HD 
HETATM    6  C   UNL     3      -8.877  14.970  70.107  1.00  0.00     0.648 C  
HETATM    7  N   UNL     2      -9.859  15.509  65.916  1.00  0.00    -0.326 N  
HETATM    8  O   UNL     3     -10.080  12.910  68.454  1.00  0.00    -0.233 OA 
HETATM    9  N   UNL     3     -10.151  14.282  70.317  1.00  0.00     0.947 N  
HETATM   10  O   UNL     2      -9.176  13.814  64.520  1.00  0.00     1.058 OA 
HETATM   11  C   UNL     2     -10.783  15.921  66.845  1.00  0.00    -0.289 A  
HETATM   12  C   UNL     2     -11.911  15.202  67.081  1.00  0.00    -0.039 A  
HETATM   13  C   UNL     3     -10.612  13.235  69.514  1.00  0.00     0.368 C  
HETATM   14  C   UNL     3     -11.040  14.828  71.201  1.00  0.00     0.067 A  
HETATM   15  C   UNL     3     -12.171  11.409  69.108  1.00  0.00    -0.175 C  
HETATM   16  C   UNL     2     -12.206  13.972  66.443  1.00  0.00    -0.460 C  
HETATM   17  N   UNL     2     -12.563  15.860  68.081  1.00  0.00     0.548 NA 
HETATM   18  C   UNL     3     -12.284  14.313  71.362  1.00  0.00    -0.331 A  
HETATM   19  C   UNL     2     -11.761  16.912  68.442  1.00  0.00     0.561 A  
HETATM   20  N   UNL     2     -11.134  13.494  65.691  1.00  0.00    -0.289 N  
HETATM   21  N   UNL     3     -12.927  15.209  72.162  1.00  0.00    -0.328 NA 
HETATM   22  H   UNL     2     -13.470  15.618  68.481  1.00  0.00     0.000 HD 
HETATM   23  C   UNL     3     -12.736  13.129  70.737  1.00  0.00    -0.184 C  
HETATM   24  O   UNL     2     -13.278  13.397  66.596  1.00  0.00     0.566 OA 
HETATM   25  O   UNL     3     -13.891  12.720  70.887  1.00  0.00     0.929 OA 
HETATM   26  N   UNL     3     -11.787  12.571  69.897  1.00  0.00    -0.329 N  
HETATM   27  C   UNL     3     -12.042  16.222  72.429  1.00  0.00    -0.513 A  
HETATM   28  H   UNL     3     -13.886  15.140  72.499  1.00  0.00     0.000 HD 
HETATM   29  C   UNL     2     -10.005  14.250  65.323  1.00  0.00    -0.279 C  
HETATM   30  N   UNL     2     -10.696  17.000  67.670  1.00  0.00    -0.328 NA 
HETATM   31  C   UNL     2     -11.116  12.087  65.342  1.00  0.00    -0.320 C  
HETATM   32  N   UNL     3     -10.868  15.995  71.883  1.00  0.00     0.591 NA 
ENDROOT
BRANCH   2  33
HETATM   33  C   UNL     1      -7.361  12.131  68.826  1.00  0.00    -0.090 C  
HETATM   34  H2  UNL     1      -7.837  10.416  67.786  1.00  0.00     0.000 HD 
HETATM   35  N   UNL     1      -8.108  10.889  68.648  1.00  0.00    -0.135 NA 
HETATM   36  H1  UNL     1      -8.021  10.267  69.453  1.00  0.00     0.000 HD 
ENDBRANCH   2  33
TORSDOF 1
ENDMDL
MODEL      106
REMARK 921   NORMALIZED FREE ENERGY PREDICTED BY IDOCK:    2.90 KCAL/MOL
REMARK 922        TOTAL FREE ENERGY PREDICTED BY IDOCK:    2.70 KCAL/MOL
REMARK 923 INTER-LIGAND FREE ENERGY PREDICTED BY IDOCK:    2.85 KCAL/MOL
REMARK 924 INTRA-LIGAND FREE ENERGY PREDICTED BY IDOCK:   -0.15 KCAL/MOL
REMARK 927      BINDING AFFINITY PREDICTED BY RF-SCORE:    0.00 PKD
ROOT
HETATM    1  N   UNL     1      -6.924  12.683  69.472  1.00  0.00    -0.334 NA 
HETATM    2  C   UNL     1      -7.496  13.858  68.808  1.00  0.00    -0.114 C  
HETATM    3  H1  UNL     1      -7.491  12.350  70.252  1.00  0.00     0.000 HD 
HETATM    4  C   UNL     2     -10.569  12.023  70.570  1.00  0.00     2.712 C  
HETATM    5  H2  UNL     1      -5.965  12.865  69.770  1.00  0.00     0.000 HD 
HETATM    6  C   UNL     3      -9.018  12.337  66.137  1.00  0.00    -0.005 C  
HETATM    7  N   UNL     2     -11.077  13.178  69.862  1.00  0.00     0.140 N  
HETATM    8  O   UNL     3      -9.384  15.008  67.210  1.00  0.00    -0.194 OA 
HETATM    9  N   UNL     3      -9.695  13.471  65.508  1.00  0.00    -0.120 N  
HETATM   10  O   UNL     2      -9.986  14.619  71.285  1.00  0.00     1.592 OA 
HETATM   11  C   UNL     2     -11.839  13.053  68.727  1.00  0.00    -0.317 A  
HETATM   12  C   UNL     2     -12.372  14.142  68.115  1.00  0.00     0.028 A  
HETATM   13  C   UNL     3      -9.746  14.752  66.063  1.00  0.00    -0.321 C  
HETATM   14  C   UNL     3     -10.505  13.223  64.435  1.00  0.00    -0.404 A  
HETATM   15  C   UNL     3     -10.238  17.129  65.859  1.00  0.00    -0.276 C  
HETATM   16  C   UNL     2     -12.155  15.473  68.552  1.00  0.00    -0.024 C  
HETATM   17  N   UNL     2     -13.013  13.665  67.010  1.00  0.00     0.165 NA 
HETATM   18  C   UNL     3     -11.253  14.205  63.871  1.00  0.00     0.339 A  
HETATM   19  C   UNL     2     -12.780  12.315  66.978  1.00  0.00     2.110 A  
HETATM   20  N   UNL     2     -11.195  15.551  69.558  1.00  0.00    -0.275 N  
HETATM   21  N   UNL     3     -12.050  13.559  62.976  1.00  0.00    -0.883 NA 
HETATM   22  H   UNL     2     -13.559  14.207  66.340  1.00  0.00     0.000 HD 
HETATM   23  C   UNL     3     -11.188  15.564  64.252  1.00  0.00    -0.081 C  
HETATM   24  O   UNL     2     -12.732  16.428  68.044  1.00  0.00     1.661 OA 
HETATM   25  O   UNL     3     -11.917  16.416  63.734  1.00  0.00    -0.964 OA 
HETATM   26  N   UNL     3     -10.311  15.786  65.301  1.00  0.00    -0.384 N  
HETATM   27  C   UNL     3     -11.751  12.223  63.056  1.00  0.00    -0.009 A  
HETATM   28  H   UNL     3     -12.741  13.989  62.361  1.00  0.00     0.000 HD 
HETATM   29  C   UNL     2     -10.711  14.456  70.299  1.00  0.00     0.326 C  
HETATM   30  N   UNL     2     -12.111  11.910  68.040  1.00  0.00    -0.507 NA 
HETATM   31  C   UNL     2     -10.562  16.832  69.803  1.00  0.00    -0.174 C  
HETATM   32  N   UNL     3     -10.783  11.995  63.914  1.00  0.00    -0.355 NA 
ENDROOT
BRANCH   2  33
HETATM   33  C   UNL     1      -6.636  14.364  67.626  1.00  0.00    -0.152 C  
HETATM   34  H2  UNL     1      -5.932  12.499  67.099  1.00  0.00     0.000 HD 
HETATM   35  N   UNL     1      -5.565  13.432  67.283  1.00  0.00    -0.326 NA 
HETATM   36  H1  UNL     1      -4.998  13.766  66.503  1.00  0.00     0.000 HD 
ENDBRANCH   2  33
TORSDOF 1
ENDMDL
MODEL      107
REMARK 921   NORMALIZED FREE ENERGY PREDICTED BY IDOCK:    2.94 KCAL/MOL
REMARK 922        TOTAL FREE ENERGY PREDICTED BY IDOCK:    2.75 KCAL/MOL
REMARK 923 INTER-LIGAND FREE ENERGY PREDICTED BY IDOCK:    0.99 KCAL/MOL
REMARK 924 INTRA-LIGAND FREE ENERGY PREDICTED BY IDOCK:    1.76 KCAL/MOL
REMARK 927      BINDING AFFINITY PREDICTED BY RF-SCORE:    0.00 PKD
ROOT
HETATM    1  N   UNL     1      -5.316   4.043  70.921  1.00  0.00    -0.004 NA 
HETATM    2  C   UNL     1      -5.766   5.437  70.885  1.00  0.00    -0.016 C  
HETATM    3  H1  UNL     1      -5.726   3.511  71.690  1.00  0.00     0.000 HD 
HETATM    4  C   UNL     2      -8.617   3.445  72.839  1.00  0.00    -0.082 C  
HETATM    5  H2  UNL     1      -4.298   3.990  70.944  1.00  0.00     0.000 HD 
HETATM    6  C   UNL     3      -8.211   5.200  68.490  1.00  0.00    -0.089 C  
HETATM    7  N   UNL     2      -9.022   4.829  72.736  1.00  0.00    -0.120 N  
HETATM    8  O   UNL     3      -7.699   7.306  70.420  1.00  0.00    -0.090 OA 
HETATM    9  N   UNL     3      -8.759   6.556  68.504  1.00  0.00    -0.123 N  
HETATM   10  O   UNL     2      -7.318   5.505  74.125  1.00  0.00    -0.088 OA 
HETATM   11  C   UNL     2     -10.056   5.223  71.922  1.00  0.00    -0.197 A  
HETATM   12  C   UNL     2     -10.474   6.514  71.891  1.00  0.00    -0.206 A  
HETATM   13  C   UNL     3      -8.386   7.537  69.427  1.00  0.00    -0.132 C  
HETATM   14  C   UNL     3      -9.849   6.818  67.721  1.00  0.00    -0.126 A  
HETATM   15  C   UNL     3      -8.381   9.859  70.160  1.00  0.00    -0.126 C  
HETATM   16  C   UNL     2      -9.867   7.554  72.640  1.00  0.00    -0.191 C  
HETATM   17  N   UNL     2     -11.462   6.558  70.953  1.00  0.00    -0.332 NA 
HETATM   18  C   UNL     3     -10.482   8.017  67.768  1.00  0.00    -0.214 A  
HETATM   19  C   UNL     2     -11.547   5.299  70.419  1.00  0.00     1.761 A  
HETATM   20  N   UNL     2      -8.690   7.143  73.262  1.00  0.00    -0.129 N  
HETATM   21  N   UNL     3     -11.601   7.845  67.012  1.00  0.00     1.090 NA 
HETATM   22  H   UNL     2     -12.028   7.369  70.700  1.00  0.00     0.000 HD 
HETATM   23  C   UNL     3     -10.026   9.121  68.522  1.00  0.00    -0.174 C  
HETATM   24  O   UNL     2     -10.330   8.689  72.673  1.00  0.00    -0.253 OA 
HETATM   25  O   UNL     3     -10.657  10.182  68.562  1.00  0.00    -0.194 OA 
HETATM   26  N   UNL     3      -8.885   8.837  69.254  1.00  0.00    -0.138 N  
HETATM   27  C   UNL     3     -11.592   6.551  66.561  1.00  0.00     1.360 A  
HETATM   28  H   UNL     3     -12.314   8.548  66.818  1.00  0.00     0.000 HD 
HETATM   29  C   UNL     2      -8.286   5.804  73.420  1.00  0.00    -0.115 C  
HETATM   30  N   UNL     2     -10.736   4.455  71.027  1.00  0.00     0.370 NA 
HETATM   31  C   UNL     2      -7.752   8.161  73.692  1.00  0.00    -0.172 C  
HETATM   32  N   UNL     3     -10.512   5.911  66.950  1.00  0.00    -0.254 NA 
ENDROOT
BRANCH   2  33
HETATM   33  C   UNL     1      -5.145   6.243  69.720  1.00  0.00    -0.012 C  
HETATM   34  H2  UNL     1      -6.888   6.355  68.624  1.00  0.00     0.000 HD 
HETATM   35  N   UNL     1      -5.910   6.105  68.483  1.00  0.00    -0.012 NA 
HETATM   36  H1  UNL     1      -5.501   6.637  67.714  1.00  0.00     0.000 HD 
ENDBRANCH   2  33
TORSDOF 1
ENDMDL
MODEL      108
REMARK 921   NORMALIZED FREE ENERGY PREDICTED BY IDOCK:    3.30 KCAL/MOL
REMARK 922        TOTAL FREE ENERGY PREDICTED BY IDOCK:    3.13 KCAL/MOL
REMARK 923 INTER-LIGAND FREE ENERGY PREDICTED BY IDOCK:    3.26 KCAL/MOL
REMARK 924 INTRA-LIGAND FREE ENERGY PREDICTED BY IDOCK:   -0.13 KCAL/MOL
REMARK 927      BINDING AFFINITY PREDICTED BY RF-SCORE:    0.00 PKD
ROOT
HETATM    1  N   UNL     1      -7.427  18.676  69.243  1.00  0.00    -0.127 NA 
HETATM    2  C   UNL     1      -7.730  17.812  68.099  1.00  0.00    -0.254 C  
HETATM    3  H1  UNL     1      -8.263  19.016  69.719  1.00  0.00     0.000 HD 
HETATM    4  C   UNL     2     -10.923  17.592  70.481  1.00  0.00     1.452 C  
HETATM    5  H2  UNL     1      -6.827  19.452  68.964  1.00  0.00     0.000 HD 
HETATM    6  C   UNL     3      -7.296  14.737  69.557  1.00  0.00    -0.148 C  
HETATM    7  N   UNL     2     -11.146  16.726  69.344  1.00  0.00    -0.184 N  
HETATM    8  O   UNL     3      -8.611  15.445  67.068  1.00  0.00    -0.197 OA 
HETATM    9  N   UNL     3      -7.698  13.845  68.469  1.00  0.00    -0.135 N  
HETATM   10  O   UNL     2     -11.249  18.520  67.908  1.00  0.00    -0.042 OA 
HETATM   11  C   UNL     2     -11.141  15.358  69.464  1.00  0.00    -0.284 A  
HETATM   12  C   UNL     2     -11.426  14.558  68.404  1.00  0.00    -0.302 A  
HETATM   13  C   UNL     3      -8.248  14.286  67.263  1.00  0.00    -0.192 C  
HETATM   14  C   UNL     3      -7.746  12.502  68.723  1.00  0.00     0.003 A  
HETATM   15  C   UNL     3      -8.928  13.855  64.964  1.00  0.00     2.235 C  
HETATM   16  C   UNL     2     -11.699  15.048  67.102  1.00  0.00    -0.215 C  
HETATM   17  N   UNL     2     -11.281  13.281  68.857  1.00  0.00    -0.265 NA 
HETATM   18  C   UNL     3      -8.218  11.625  67.802  1.00  0.00    -0.141 A  
HETATM   19  C   UNL     2     -10.852  13.377  70.156  1.00  0.00     0.883 A  
HETATM   20  N   UNL     2     -11.463  16.417  66.990  1.00  0.00     0.358 N  
HETATM   21  N   UNL     3      -8.287  10.436  68.463  1.00  0.00    -0.118 NA 
HETATM   22  H   UNL     2     -11.456  12.424  68.334  1.00  0.00     0.000 HD 
HETATM   23  C   UNL     3      -8.589  11.984  66.487  1.00  0.00    -0.100 C  
HETATM   24  O   UNL     2     -12.055  14.311  66.189  1.00  0.00    -0.407 OA 
HETATM   25  O   UNL     3      -9.049  11.155  65.695  1.00  0.00    -0.205 OA 
HETATM   26  N   UNL     3      -8.469  13.343  66.248  1.00  0.00     0.502 N  
HETATM   27  C   UNL     3      -7.867  10.661  69.748  1.00  0.00     0.045 A  
HETATM   28  H   UNL     3      -8.594   9.545  68.074  1.00  0.00     0.000 HD 
HETATM   29  C   UNL     2     -11.287  17.297  68.074  1.00  0.00     0.276 C  
HETATM   30  N   UNL     2     -10.809  14.630  70.564  1.00  0.00     0.049 NA 
HETATM   31  C   UNL     2     -11.281  16.974  65.664  1.00  0.00     0.436 C  
HETATM   32  N   UNL     3      -7.495  11.910  69.923  1.00  0.00     0.681 NA 
ENDROOT
BRANCH   2  33
HETATM   33  C   UNL     1      -6.463  17.297  67.377  1.00  0.00    -0.146 C  
HETATM   34  H2  UNL     1      -6.115  19.047  66.344  1.00  0.00     0.000 HD 
HETATM   35  N   UNL     1      -6.179  18.047  66.156  1.00  0.00    -0.203 NA 
HETATM   36  H1  UNL     1      -5.343  17.708  65.680  1.00  0.00     0.000 HD 
ENDBRANCH   2  33
TORSDOF 1
ENDMDL
MODEL      109
REMARK 921   NORMALIZED FREE ENERGY PREDICTED BY IDOCK:    3.82 KCAL/MOL
REMARK 922        TOTAL FREE ENERGY PREDICTED BY IDOCK:    3.68 KCAL/MOL
REMARK 923 INTER-LIGAND FREE ENERGY PREDICTED BY IDOCK:    3.80 KCAL/MOL
REMARK 924 INTRA-LIGAND FREE ENERGY PREDICTED BY IDOCK:   -0.12 KCAL/MOL
REMARK 927      BINDING AFFINITY PREDICTED BY RF-SCORE:    0.00 PKD
ROOT
HETATM    1  N   UNL     1     -12.882  16.754  69.095  1.00  0.00     1.203 NA 
HETATM    2  C   UNL     1     -11.606  16.499  69.769  1.00  0.00     0.173 C  
HETATM    3  H1  UNL     1     -12.861  17.582  68.499  1.00  0.00     0.000 HD 
HETATM    4  C   UNL     2     -10.696  18.651  66.536  1.00  0.00    -0.238 C  
HETATM    5  H2  UNL     1     -13.645  16.811  69.770  1.00  0.00     0.000 HD 
HETATM    6  C   UNL     3     -10.312  14.102  67.683  1.00  0.00    -0.241 C  
HETATM    7  N   UNL     2      -9.467  18.333  67.228  1.00  0.00    -0.261 N  
HETATM    8  O   UNL     3      -8.995  15.711  69.708  1.00  0.00    -0.222 OA 
HETATM    9  N   UNL     3      -8.986  13.900  68.266  1.00  0.00    -0.184 N  
HETATM   10  O   UNL     2     -10.052  19.651  69.020  1.00  0.00    -0.445 OA 
HETATM   11  C   UNL     2      -8.556  17.443  66.715  1.00  0.00    -0.260 A  
HETATM   12  C   UNL     2      -7.373  17.210  67.339  1.00  0.00    -0.153 A  
HETATM   13  C   UNL     3      -8.466  14.677  69.305  1.00  0.00     0.030 C  
HETATM   14  C   UNL     3      -8.121  13.059  67.623  1.00  0.00    -0.172 A  
HETATM   15  C   UNL     3      -6.783  15.057  71.024  1.00  0.00     0.699 C  
HETATM   16  C   UNL     2      -7.000  17.811  68.567  1.00  0.00    -0.238 C  
HETATM   17  N   UNL     2      -6.750  16.250  66.597  1.00  0.00    -0.240 NA 
HETATM   18  C   UNL     3      -6.838  12.910  68.038  1.00  0.00    -0.108 A  
HETATM   19  C   UNL     2      -7.621  15.906  65.596  1.00  0.00     2.879 A  
HETATM   20  N   UNL     2      -8.049  18.518  69.151  1.00  0.00    -0.068 N  
HETATM   21  N   UNL     3      -6.248  12.159  67.068  1.00  0.00    -0.276 NA 
HETATM   22  H   UNL     2      -5.819  15.864  66.756  1.00  0.00     0.000 HD 
HETATM   23  C   UNL     3      -6.313  13.504  69.207  1.00  0.00    -0.109 C  
HETATM   24  O   UNL     2      -5.884  17.664  69.053  1.00  0.00    -0.178 OA 
HETATM   25  O   UNL     3      -5.127  13.369  69.524  1.00  0.00    -0.082 OA 
HETATM   26  N   UNL     3      -7.236  14.300  69.866  1.00  0.00     0.092 N  
HETATM   27  C   UNL     3      -7.200  11.906  66.114  1.00  0.00     0.659 A  
HETATM   28  H   UNL     3      -5.278  11.844  67.053  1.00  0.00     0.000 HD 
HETATM   29  C   UNL     2      -9.240  18.885  68.495  1.00  0.00    -0.361 C  
HETATM   30  N   UNL     2      -8.706  16.655  65.616  1.00  0.00    -0.325 NA 
HETATM   31  C   UNL     2      -7.969  18.817  70.567  1.00  0.00     2.824 C  
HETATM   32  N   UNL     3      -8.365  12.414  66.448  1.00  0.00     0.112 NA 
ENDROOT
BRANCH   2  33
HETATM   33  C   UNL     1     -11.639  15.244  70.672  1.00  0.00    -0.319 C  
HETATM   34  H2  UNL     1     -12.860  16.082  72.108  1.00  0.00     0.000 HD 
HETATM   35  N   UNL     1     -11.981  15.567  72.055  1.00  0.00    -0.387 NA 
HETATM   36  H1  UNL     1     -12.003  14.739  72.651  1.00  0.00     0.000 HD 
ENDBRANCH   2  33
TORSDOF 1
ENDMDL
MODEL      110
REMARK 921   NORMALIZED FREE ENERGY PREDICTED BY IDOCK:    4.17 KCAL/MOL
REMARK 922        TOTAL FREE ENERGY PREDICTED BY IDOCK:    4.05 KCAL/MOL
REMARK 923 INTER-LIGAND FREE ENERGY PREDICTED BY IDOCK:    4.16 KCAL/MOL
REMARK 924 INTRA-LIGAND FREE ENERGY PREDICTED BY IDOCK:   -0.11 KCAL/MOL
REMARK 927      BINDING AFFINITY PREDICTED BY RF-SCORE:    0.00 PKD
ROOT
HETATM    1  N   UNL     1     -10.816  15.595  71.730  1.00  0.00     0.009 NA 
HETATM    2  C   UNL     1     -10.966  14.343  70.983  1.00  0.00     0.702 C  
HETATM    3  H1  UNL     1      -9.842  15.878  71.841  1.00  0.00     0.000 HD 
HETATM    4  C   UNL     2      -7.446  15.843  69.856  1.00  0.00     0.241 C  
HETATM    5  H2  UNL     1     -11.284  15.537  72.634  1.00  0.00     0.000 HD 
HETATM    6  C   UNL     3     -11.711  15.600  67.879  1.00  0.00    -0.090 C  
HETATM    7  N   UNL     2      -7.671  14.618  69.121  1.00  0.00    -0.132 N  
HETATM    8  O   UNL     3     -10.864  12.933  68.650  1.00  0.00    -0.246 OA 
HETATM    9  N   UNL     3     -11.761  14.376  67.078  1.00  0.00    -0.385 N  
HETATM   10  O   UNL     2      -7.511  13.356  71.038  1.00  0.00     2.641 OA 
HETATM   11  C   UNL     2      -7.941  14.620  67.775  1.00  0.00    -0.156 A  
HETATM   12  C   UNL     2      -8.078  13.459  67.083  1.00  0.00    -0.083 A  
HETATM   13  C   UNL     3     -11.413  13.113  67.565  1.00  0.00    -0.328 C  
HETATM   14  C   UNL     3     -11.945  14.496  65.729  1.00  0.00    -0.306 A  
HETATM   15  C   UNL     3     -11.370  10.690  67.321  1.00  0.00    -0.040 C  
HETATM   16  C   UNL     2      -8.003  12.176  67.681  1.00  0.00    -0.157 C  
HETATM   17  N   UNL     2      -8.387  13.826  65.807  1.00  0.00     1.221 NA 
HETATM   18  C   UNL     3     -11.889  13.418  64.908  1.00  0.00    -0.372 A  
HETATM   19  C   UNL     2      -8.485  15.193  65.809  1.00  0.00     1.321 A  
HETATM   20  N   UNL     2      -7.960  12.240  69.072  1.00  0.00     0.142 N  
HETATM   21  N   UNL     3     -11.929  13.940  63.651  1.00  0.00    -0.762 NA 
HETATM   22  H   UNL     2      -8.520  13.205  65.009  1.00  0.00     0.000 HD 
HETATM   23  C   UNL     3     -11.752  12.087  65.362  1.00  0.00    -0.255 C  
HETATM   24  O   UNL     2      -8.025  11.145  67.017  1.00  0.00    -0.132 OA 
HETATM   25  O   UNL     3     -11.668  11.141  64.573  1.00  0.00     0.129 OA 
HETATM   26  N   UNL     3     -11.630  12.000  66.739  1.00  0.00    -0.347 N  
HETATM   27  C   UNL     3     -11.994  15.303  63.779  1.00  0.00     0.415 A  
HETATM   28  H   UNL     3     -11.914  13.414  62.777  1.00  0.00     0.000 HD 
HETATM   29  C   UNL     2      -7.699  13.404  69.819  1.00  0.00     1.140 C  
HETATM   30  N   UNL     2      -8.167  15.703  66.983  1.00  0.00    -0.212 NA 
HETATM   31  C   UNL     2      -8.311  11.051  69.823  1.00  0.00     0.661 C  
HETATM   32  N   UNL     3     -12.043  15.668  65.041  1.00  0.00     0.252 NA 
ENDROOT
BRANCH   2  33
HETATM   33  C   UNL     1     -12.443  13.913  70.814  1.00  0.00    -0.375 C  
HETATM   34  H2  UNL     1     -13.231  15.652  71.590  1.00  0.00     0.000 HD 
HETATM   35  N   UNL     1     -13.337  14.645  71.707  1.00  0.00    -0.336 NA 
HETATM   36  H1  UNL     1     -14.311  14.361  71.596  1.00  0.00     0.000 HD 
ENDBRANCH   2  33
TORSDOF 1
ENDMDL
MODEL      111
REMARK 921   NORMALIZED FREE ENERGY PREDICTED BY IDOCK:    5.00 KCAL/MOL
REMARK 922        TOTAL FREE ENERGY PREDICTED BY IDOCK:    4.93 KCAL/MOL
REMARK 923 INTER-LIGAND FREE ENERGY PREDICTED BY IDOCK:    5.07 KCAL/MOL
REMARK 924 INTRA-LIGAND FREE ENERGY PREDICTED BY IDOCK:   -0.14 KCAL/MOL
REMARK 927      BINDING AFFINITY PREDICTED BY RF-SCORE:    0.00 PKD
ROOT
HETATM    1  N   UNL     1      -9.990  17.978  66.258  1.00  0.00    -0.432 NA 
HETATM    2  C   UNL     1      -9.494  16.644  65.910  1.00  0.00    -0.183 C  
HETATM    3  H1  UNL     1     -10.962  17.974  66.567  1.00  0.00     0.000 HD 
HETATM    4  C   UNL     2     -12.524  16.032  68.431  1.00  0.00     1.085 C  
HETATM    5  H2  UNL     1      -9.857  18.629  65.484  1.00  0.00     0.000 HD 
HETATM    6  C   UNL     3      -7.835  15.861  68.810  1.00  0.00    -0.185 C  
HETATM    7  N   UNL     2     -11.964  14.746  68.077  1.00  0.00    -0.284 N  
HETATM    8  O   UNL     3      -8.679  14.141  66.630  1.00  0.00    -0.169 OA 
HETATM    9  N   UNL     3      -7.416  14.486  68.538  1.00  0.00    -0.115 N  
HETATM   10  O   UNL     2     -12.668  14.960  65.898  1.00  0.00     0.122 OA 
HETATM   11  C   UNL     2     -11.251  13.995  68.978  1.00  0.00    -0.276 A  
HETATM   12  C   UNL     2     -10.794  12.757  68.655  1.00  0.00    -0.253 A  
HETATM   13  C   UNL     3      -7.808  13.761  67.410  1.00  0.00    -0.153 C  
HETATM   14  C   UNL     3      -6.792  13.794  69.539  1.00  0.00     0.001 A  
HETATM   15  C   UNL     3      -7.572  11.825  65.952  1.00  0.00     0.705 C  
HETATM   16  C   UNL     2     -10.965  12.165  67.379  1.00  0.00    -0.260 C  
HETATM   17  N   UNL     2     -10.097  12.327  69.745  1.00  0.00     0.595 NA 
HETATM   18  C   UNL     3      -6.478  12.481  69.402  1.00  0.00    -0.102 A  
HETATM   19  C   UNL     2     -10.116  13.357  70.650  1.00  0.00     4.288 A  
HETATM   20  N   UNL     2     -11.487  13.058  66.446  1.00  0.00    -0.324 N  
HETATM   21  N   UNL     3      -6.052  12.099  70.637  1.00  0.00    -0.523 NA 
HETATM   22  H   UNL     2      -9.650  11.417  69.864  1.00  0.00     0.000 HD 
HETATM   23  C   UNL     3      -6.656  11.748  68.208  1.00  0.00    -0.056 C  
HETATM   24  O   UNL     2     -10.635  11.007  67.147  1.00  0.00    -0.223 OA 
HETATM   25  O   UNL     3      -6.388  10.544  68.143  1.00  0.00    -0.057 OA 
HETATM   26  N   UNL     3      -7.234  12.499  67.198  1.00  0.00    -0.106 N  
HETATM   27  C   UNL     3      -6.144  13.195  71.456  1.00  0.00     0.927 A  
HETATM   28  H   UNL     3      -5.726  11.170  70.904  1.00  0.00     0.000 HD 
HETATM   29  C   UNL     2     -12.080  14.297  66.757  1.00  0.00    -0.417 C  
HETATM   30  N   UNL     2     -10.855  14.363  70.227  1.00  0.00     0.103 NA 
HETATM   31  C   UNL     2     -11.321  12.752  65.038  1.00  0.00    -0.309 C  
HETATM   32  N   UNL     3      -6.559  14.255  70.799  1.00  0.00     0.066 NA 
ENDROOT
BRANCH   2  33
HETATM   33  C   UNL     1      -8.020  16.649  65.441  1.00  0.00     2.098 C  
HETATM   34  H2  UNL     1      -7.530  18.410  66.396  1.00  0.00     0.000 HD 
HETATM   35  N   UNL     1      -7.435  17.988  65.473  1.00  0.00    -0.488 NA 
HETATM   36  H1  UNL     1      -6.462  17.991  65.164  1.00  0.00     0.000 HD 
ENDBRANCH   2  33
TORSDOF 1
ENDMDL
MODEL      112
REMARK 921   NORMALIZED FREE ENERGY PREDICTED BY IDOCK:    5.60 KCAL/MOL
REMARK 922        TOTAL FREE ENERGY PREDICTED BY IDOCK:    5.56 KCAL/MOL
REMARK 923 INTER-LIGAND FREE ENERGY PREDICTED BY IDOCK:    5.66 KCAL/MOL
REMARK 924 INTRA-LIGAND FREE ENERGY PREDICTED BY IDOCK:   -0.10 KCAL/MOL
REMARK 927      BINDING AFFINITY PREDICTED BY RF-SCORE:    0.00 PKD
ROOT
HETATM    1  N   UNL     1      -6.587  16.722  67.807  1.00  0.00    -0.138 NA 
HETATM    2  C   UNL     1      -7.966  16.609  67.324  1.00  0.00    -0.167 C  
HETATM    3  H1  UNL     1      -6.492  16.503  68.799  1.00  0.00     0.000 HD 
HETATM    4  C   UNL     2      -7.766  14.265  70.546  1.00  0.00     1.638 C  
HETATM    5  H2  UNL     1      -6.203  17.645  67.600  1.00  0.00     0.000 HD 
HETATM    6  C   UNL     3      -7.832  13.489  65.904  1.00  0.00     3.109 C  
HETATM    7  N   UNL     2      -9.101  14.167  69.997  1.00  0.00     1.378 N  
HETATM    8  O   UNL     3     -10.132  15.101  66.634  1.00  0.00    -0.252 OA 
HETATM    9  N   UNL     3      -9.227  13.295  65.504  1.00  0.00     0.364 N  
HETATM   10  O   UNL     2      -9.560  16.355  70.535  1.00  0.00     1.178 OA 
HETATM   11  C   UNL     2      -9.544  13.027  69.373  1.00  0.00     1.056 A  
HETATM   12  C   UNL     2     -10.823  12.922  68.928  1.00  0.00    -0.200 A  
HETATM   13  C   UNL     3     -10.259  14.177  65.833  1.00  0.00    -0.319 C  
HETATM   14  C   UNL     3      -9.583  12.087  64.974  1.00  0.00    -0.046 A  
HETATM   15  C   UNL     3     -12.549  14.955  65.544  1.00  0.00     0.192 C  
HETATM   16  C   UNL     2     -11.776  13.967  69.022  1.00  0.00    -0.330 C  
HETATM   17  N   UNL     2     -10.903  11.702  68.325  1.00  0.00    -0.207 NA 
HETATM   18  C   UNL     3     -10.876  11.793  64.687  1.00  0.00    -0.307 A  
HETATM   19  C   UNL     2      -9.646  11.158  68.380  1.00  0.00    -0.192 A  
HETATM   20  N   UNL     2     -11.208  15.166  69.449  1.00  0.00    -0.266 N  
HETATM   21  N   UNL     3     -10.865  10.471  64.363  1.00  0.00    -0.042 NA 
HETATM   22  H   UNL     2     -11.735  11.278  67.913  1.00  0.00     0.000 HD 
HETATM   23  C   UNL     3     -11.938  12.718  64.798  1.00  0.00    -0.402 C  
HETATM   24  O   UNL     2     -12.951  13.809  68.708  1.00  0.00     0.905 OA 
HETATM   25  O   UNL     3     -13.106  12.392  64.560  1.00  0.00    -0.823 OA 
HETATM   26  N   UNL     3     -11.529  13.950  65.279  1.00  0.00    -0.307 N  
HETATM   27  C   UNL     3      -9.571  10.034  64.484  1.00  0.00    -0.279 A  
HETATM   28  H   UNL     3     -11.669   9.910  64.083  1.00  0.00     0.000 HD 
HETATM   29  C   UNL     2      -9.931  15.293  70.029  1.00  0.00    -0.107 C  
HETATM   30  N   UNL     2      -8.814  11.923  69.059  1.00  0.00     0.195 NA 
HETATM   31  C   UNL     2     -11.930  16.396  69.190  1.00  0.00     0.219 C  
HETATM   32  N   UNL     3      -8.760  11.012  64.821  1.00  0.00    -0.047 NA 
ENDROOT
BRANCH   2  33
HETATM   33  C   UNL     1      -8.109  16.941  65.820  1.00  0.00     0.367 C  
HETATM   34  H2  UNL     1      -6.542  18.280  65.776  1.00  0.00     0.000 HD 
HETATM   35  N   UNL     1      -7.517  18.232  65.480  1.00  0.00    -0.512 NA 
HETATM   36  H1  UNL     1      -7.611  18.451  64.488  1.00  0.00     0.000 HD 
ENDBRANCH   2  33
TORSDOF 1
ENDMDL
MODEL      113
REMARK 921   NORMALIZED FREE ENERGY PREDICTED BY IDOCK:    5.76 KCAL/MOL
REMARK 922        TOTAL FREE ENERGY PREDICTED BY IDOCK:    5.73 KCAL/MOL
REMARK 923 INTER-LIGAND FREE ENERGY PREDICTED BY IDOCK:    6.10 KCAL/MOL
REMARK 924 INTRA-LIGAND FREE ENERGY PREDICTED BY IDOCK:   -0.36 KCAL/MOL
REMARK 927      BINDING AFFINITY PREDICTED BY RF-SCORE:    0.00 PKD
ROOT
HETATM    1  N   UNL     1      -9.164  15.760  71.069  1.00  0.00     1.970 NA 
HETATM    2  C   UNL     1      -8.930  15.089  69.788  1.00  0.00     0.127 C  
HETATM    3  H1  UNL     1     -10.095  15.584  71.448  1.00  0.00     0.000 HD 
HETATM    4  C   UNL     2     -11.806  12.988  71.585  1.00  0.00     1.491 C  
HETATM    5  H2  UNL     1      -8.986  16.762  70.993  1.00  0.00     0.000 HD 
HETATM    6  C   UNL     3      -7.198  12.335  70.879  1.00  0.00     4.142 C  
HETATM    7  N   UNL     2     -11.501  12.350  70.324  1.00  0.00     0.033 N  
HETATM    8  O   UNL     3      -8.493  12.825  68.329  1.00  0.00    -0.168 OA 
HETATM    9  N   UNL     3      -7.040  11.583  69.634  1.00  0.00     0.005 N  
HETATM   10  O   UNL     2     -12.333  14.136  69.138  1.00  0.00    -0.301 OA 
HETATM   11  C   UNL     2     -10.854  11.140  70.262  1.00  0.00     0.395 A  
HETATM   12  C   UNL     2     -10.640  10.517  69.074  1.00  0.00    -0.222 A  
HETATM   13  C   UNL     3      -7.639  11.947  68.425  1.00  0.00    -0.120 C  
HETATM   14  C   UNL     3      -6.463  10.346  69.698  1.00  0.00    -0.076 A  
HETATM   15  C   UNL     3      -7.851  11.700  66.011  1.00  0.00     0.318 C  
HETATM   16  C   UNL     2     -11.012  11.066  67.821  1.00  0.00    -0.269 C  
HETATM   17  N   UNL     2      -9.940   9.386  69.373  1.00  0.00    -0.175 NA 
HETATM   18  C   UNL     3      -6.387   9.543  68.607  1.00  0.00    -0.048 A  
HETATM   19  C   UNL     2      -9.711   9.417  70.725  1.00  0.00    -0.264 A  
HETATM   20  N   UNL     2     -11.449  12.385  67.929  1.00  0.00    -0.305 N  
HETATM   21  N   UNL     3      -5.933   8.353  69.086  1.00  0.00    -0.041 NA 
HETATM   22  H   UNL     2      -9.645   8.660  68.720  1.00  0.00     0.000 HD 
HETATM   23  C   UNL     3      -6.781   9.937  67.308  1.00  0.00    -0.074 C  
HETATM   24  O   UNL     2     -10.902  10.437  66.775  1.00  0.00    -0.207 OA 
HETATM   25  O   UNL     3      -6.727   9.157  66.352  1.00  0.00    -0.069 OA 
HETATM   26  N   UNL     3      -7.304  11.219  67.272  1.00  0.00    -0.114 N  
HETATM   27  C   UNL     3      -5.772   8.495  70.440  1.00  0.00    -0.027 A  
HETATM   28  H   UNL     3      -5.747   7.512  68.540  1.00  0.00     0.000 HD 
HETATM   29  C   UNL     2     -11.798  13.025  69.133  1.00  0.00    -0.310 C  
HETATM   30  N   UNL     2     -10.302  10.448  71.295  1.00  0.00     1.167 NA 
HETATM   31  C   UNL     2     -11.451  13.205  66.733  1.00  0.00    -0.343 C  
HETATM   32  N   UNL     3      -6.054   9.716  70.835  1.00  0.00    -0.079 NA 
ENDROOT
BRANCH   2  33
HETATM   33  C   UNL     1      -7.518  15.356  69.214  1.00  0.00    -0.207 C  
HETATM   34  H2  UNL     1      -8.185  16.393  67.561  1.00  0.00     0.000 HD 
HETATM   35  N   UNL     1      -7.548  15.627  67.779  1.00  0.00    -0.130 NA 
HETATM   36  H1  UNL     1      -6.617  15.804  67.400  1.00  0.00     0.000 HD 
ENDBRANCH   2  33
TORSDOF 1
ENDMDL
MODEL      114
REMARK 921   NORMALIZED FREE ENERGY PREDICTED BY IDOCK:    6.31 KCAL/MOL
REMARK 922        TOTAL FREE ENERGY PREDICTED BY IDOCK:    6.32 KCAL/MOL
REMARK 923 INTER-LIGAND FREE ENERGY PREDICTED BY IDOCK:    6.44 KCAL/MOL
REMARK 924 INTRA-LIGAND FREE ENERGY PREDICTED BY IDOCK:   -0.12 KCAL/MOL
REMARK 927      BINDING AFFINITY PREDICTED BY RF-SCORE:    0.00 PKD
ROOT
HETATM    1  N   UNL     1      -9.067  12.277  69.465  1.00  0.00     0.662 NA 
HETATM    2  C   UNL     1      -8.091  11.188  69.380  1.00  0.00     0.152 C  
HETATM    3  H1  UNL     1      -9.259  12.712  68.562  1.00  0.00     0.000 HD 
HETATM    4  C   UNL     2      -9.674  11.489  65.731  1.00  0.00    -0.235 C  
HETATM    5  H2  UNL     1      -8.777  12.974  70.151  1.00  0.00     0.000 HD 
HETATM    6  C   UNL     3     -10.218   8.497  69.323  1.00  0.00    -0.208 C  
HETATM    7  N   UNL     2      -8.723  10.400  65.722  1.00  0.00    -0.161 N  
HETATM    8  O   UNL     3      -7.404   8.656  68.632  1.00  0.00    -0.078 OA 
HETATM    9  N   UNL     3      -9.278   7.392  69.129  1.00  0.00    -0.147 N  
HETATM   10  O   UNL     2      -6.959  11.843  66.033  1.00  0.00     0.493 OA 
HETATM   11  C   UNL     2      -9.123   9.090  65.631  1.00  0.00    -0.223 A  
HETATM   12  C   UNL     2      -8.217   8.081  65.550  1.00  0.00    -0.138 A  
HETATM   13  C   UNL     3      -7.914   7.566  68.884  1.00  0.00    -0.126 C  
HETATM   14  C   UNL     3      -9.788   6.136  68.958  1.00  0.00    -0.141 A  
HETATM   15  C   UNL     3      -5.662   6.652  68.711  1.00  0.00    -0.017 C  
HETATM   16  C   UNL     2      -6.815   8.281  65.598  1.00  0.00    -0.066 C  
HETATM   17  N   UNL     2      -8.948   6.931  65.526  1.00  0.00    -0.368 NA 
HETATM   18  C   UNL     3      -8.988   5.082  68.659  1.00  0.00    -0.106 A  
HETATM   19  C   UNL     2     -10.261   7.303  65.659  1.00  0.00     1.726 A  
HETATM   20  N   UNL     2      -6.476   9.593  65.922  1.00  0.00    -0.076 N  
HETATM   21  N   UNL     3      -9.849   4.063  68.385  1.00  0.00    -0.053 NA 
HETATM   22  H   UNL     2      -8.589   5.981  65.428  1.00  0.00     0.000 HD 
HETATM   23  C   UNL     3      -7.578   5.151  68.608  1.00  0.00    -0.078 C  
HETATM   24  O   UNL     2      -6.019   7.365  65.417  1.00  0.00    -0.037 OA 
HETATM   25  O   UNL     3      -6.894   4.171  68.295  1.00  0.00    -0.046 OA 
HETATM   26  N   UNL     3      -7.095   6.427  68.847  1.00  0.00    -0.079 N  
HETATM   27  C   UNL     3     -11.121   4.558  68.519  1.00  0.00     2.764 A  
HETATM   28  H   UNL     3      -9.595   3.110  68.127  1.00  0.00     0.000 HD 
HETATM   29  C   UNL     2      -7.363  10.685  65.897  1.00  0.00    -0.128 C  
HETATM   30  N   UNL     2     -10.398   8.614  65.673  1.00  0.00     0.928 NA 
HETATM   31  C   UNL     2      -5.140   9.852  66.422  1.00  0.00    -0.039 C  
HETATM   32  N   UNL     3     -11.111   5.814  68.905  1.00  0.00    -0.193 NA 
ENDROOT
BRANCH   2  33
HETATM   33  C   UNL     1      -7.800  10.528  70.748  1.00  0.00     1.778 C  
HETATM   34  H2  UNL     1      -6.777  12.143  71.519  1.00  0.00     0.000 HD 
HETATM   35  N   UNL     1      -6.656  11.135  71.424  1.00  0.00     0.682 NA 
HETATM   36  H1  UNL     1      -6.465  10.700  72.326  1.00  0.00     0.000 HD 
ENDBRANCH   2  33
TORSDOF 1
ENDMDL
MODEL      115
REMARK 921   NORMALIZED FREE ENERGY PREDICTED BY IDOCK:    8.45 KCAL/MOL
REMARK 922        TOTAL FREE ENERGY PREDICTED BY IDOCK:    8.58 KCAL/MOL
REMARK 923 INTER-LIGAND FREE ENERGY PREDICTED BY IDOCK:    8.16 KCAL/MOL
REMARK 924 INTRA-LIGAND FREE ENERGY PREDICTED BY IDOCK:    0.42 KCAL/MOL
REMARK 927      BINDING AFFINITY PREDICTED BY RF-SCORE:    0.00 PKD
ROOT
HETATM    1  N   UNL     1      -5.366   5.457  71.038  1.00  0.00    -0.008 NA 
HETATM    2  C   UNL     1      -6.215   5.882  69.922  1.00  0.00    -0.027 C  
HETATM    3  H1  UNL     1      -4.950   6.239  71.544  1.00  0.00     0.000 HD 
HETATM    4  C   UNL     2      -6.131   8.975  72.440  1.00  0.00     0.003 C  
HETATM    5  H2  UNL     1      -4.648   4.805  70.721  1.00  0.00     0.000 HD 
HETATM    6  C   UNL     3      -9.297   5.648  71.411  1.00  0.00    -0.147 C  
HETATM    7  N   UNL     2      -6.989   9.320  71.329  1.00  0.00    -0.056 N  
HETATM    8  O   UNL     3      -8.512   7.005  68.969  1.00  0.00    -0.127 OA 
HETATM    9  N   UNL     3     -10.166   6.171  70.356  1.00  0.00    -0.194 N  
HETATM   10  O   UNL     2      -5.211   9.332  69.869  1.00  0.00    -0.032 OA 
HETATM   11  C   UNL     2      -8.350   9.426  71.471  1.00  0.00     0.522 A  
HETATM   12  C   UNL     2      -9.136   9.824  70.437  1.00  0.00    -0.097 A  
HETATM   13  C   UNL     3      -9.694   6.733  69.167  1.00  0.00    -0.146 C  
HETATM   14  C   UNL     3     -11.496   6.322  70.634  1.00  0.00    -0.329 A  
HETATM   15  C   UNL     3     -10.095   7.547  66.907  1.00  0.00    -0.266 C  
HETATM   16  C   UNL     2      -8.641  10.111  69.140  1.00  0.00    -0.165 C  
HETATM   17  N   UNL     2     -10.415   9.768  70.905  1.00  0.00    -0.321 NA 
HETATM   18  C   UNL     3     -12.341   6.906  69.749  1.00  0.00     0.716 A  
HETATM   19  C   UNL     2     -10.340   9.277  72.183  1.00  0.00     0.328 A  
HETATM   20  N   UNL     2      -7.300   9.765  68.995  1.00  0.00    -0.075 N  
HETATM   21  N   UNL     3     -13.511   7.048  70.431  1.00  0.00     0.323 NA 
HETATM   22  H   UNL     2     -11.261  10.039  70.403  1.00  0.00     0.000 HD 
HETATM   23  C   UNL     3     -11.968   7.303  68.445  1.00  0.00     2.043 C  
HETATM   24  O   UNL     2      -9.357  10.568  68.255  1.00  0.00    -0.147 OA 
HETATM   25  O   UNL     3     -12.766   7.865  67.687  1.00  0.00     6.689 OA 
HETATM   26  N   UNL     3     -10.628   7.077  68.178  1.00  0.00    -0.206 N  
HETATM   27  C   UNL     3     -13.306   6.554  71.694  1.00  0.00     0.189 A  
HETATM   28  H   UNL     3     -14.377   7.446  70.071  1.00  0.00     0.000 HD 
HETATM   29  C   UNL     2      -6.423   9.467  70.056  1.00  0.00    -0.061 C  
HETATM   30  N   UNL     2      -9.090   9.110  72.568  1.00  0.00     0.082 NA 
HETATM   31  C   UNL     2      -6.778   9.594  67.654  1.00  0.00    -0.066 C  
HETATM   32  N   UNL     3     -12.092   6.070  71.833  1.00  0.00    -0.168 NA 
ENDROOT
BRANCH   2  33
HETATM   33  C   UNL     1      -6.846   4.696  69.156  1.00  0.00    -0.050 C  
HETATM   34  H2  UNL     1      -8.334   4.352  70.541  1.00  0.00     0.000 HD 
HETATM   35  N   UNL     1      -7.626   3.825  70.031  1.00  0.00    -0.048 NA 
HETATM   36  H1  UNL     1      -8.043   3.042  69.525  1.00  0.00     0.000 HD 
ENDBRANCH   2  33
TORSDOF 1
ENDMDL
MODEL      116
REMARK 921   NORMALIZED FREE ENERGY PREDICTED BY IDOCK:    9.38 KCAL/MOL
REMARK 922        TOTAL FREE ENERGY PREDICTED BY IDOCK:    9.56 KCAL/MOL
REMARK 923 INTER-LIGAND FREE ENERGY PREDICTED BY IDOCK:    9.66 KCAL/MOL
REMARK 924 INTRA-LIGAND FREE ENERGY PREDICTED BY IDOCK:   -0.10 KCAL/MOL
REMARK 927      BINDING AFFINITY PREDICTED BY RF-SCORE:    0.00 PKD
ROOT
HETATM    1  N   UNL     1     -10.059  14.634  71.437  1.00  0.00     1.428 NA 
HETATM    2  C   UNL     1      -9.122  14.480  70.320  1.00  0.00     1.510 C  
HETATM    3  H1  UNL     1     -11.034  14.666  71.138  1.00  0.00     0.000 HD 
HETATM    4  C   UNL     2     -12.593  13.015  69.011  1.00  0.00     0.610 C  
HETATM    5  H2  UNL     1      -9.823  15.451  72.000  1.00  0.00     0.000 HD 
HETATM    6  C   UNL     3      -8.557  11.101  70.493  1.00  0.00     3.464 C  
HETATM    7  N   UNL     2     -11.611  12.857  67.961  1.00  0.00    -0.320 N  
HETATM    8  O   UNL     3      -7.994  12.972  68.347  1.00  0.00    -0.142 OA 
HETATM    9  N   UNL     3      -7.706  10.892  69.320  1.00  0.00    -0.126 N  
HETATM   10  O   UNL     2     -11.456  15.133  67.667  1.00  0.00    -0.332 OA 
HETATM   11  C   UNL     2     -11.122  11.624  67.607  1.00  0.00    -0.255 A  
HETATM   12  C   UNL     2     -10.256  11.482  66.571  1.00  0.00    -0.218 A  
HETATM   13  C   UNL     3      -7.420  11.885  68.380  1.00  0.00    -0.102 C  
HETATM   14  C   UNL     3      -7.350   9.610  69.004  1.00  0.00    -0.073 A  
HETATM   15  C   UNL     3      -6.122  12.692  66.484  1.00  0.00     1.435 C  
HETATM   16  C   UNL     2      -9.755  12.569  65.812  1.00  0.00    -0.187 C  
HETATM   17  N   UNL     2      -9.941  10.156  66.533  1.00  0.00    -0.214 NA 
HETATM   18  C   UNL     3      -6.660   9.327  67.870  1.00  0.00    -0.063 A  
HETATM   19  C   UNL     2     -10.587   9.574  67.593  1.00  0.00    -0.269 A  
HETATM   20  N   UNL     2     -10.102  13.803  66.359  1.00  0.00    -0.287 N  
HETATM   21  N   UNL     3      -6.653   7.968  67.802  1.00  0.00    -0.056 NA 
HETATM   22  H   UNL     2      -9.344   9.690  65.851  1.00  0.00     0.000 HD 
HETATM   23  C   UNL     3      -6.158  10.309  66.986  1.00  0.00    -0.055 C  
HETATM   24  O   UNL     2      -9.058  12.404  64.816  1.00  0.00     0.485 OA 
HETATM   25  O   UNL     3      -5.567  10.000  65.946  1.00  0.00    -0.050 OA 
HETATM   26  N   UNL     3      -6.486  11.597  67.373  1.00  0.00    -0.090 N  
HETATM   27  C   UNL     3      -7.349   7.503  68.888  1.00  0.00    -0.094 A  
HETATM   28  H   UNL     3      -6.213   7.401  67.078  1.00  0.00     0.000 HD 
HETATM   29  C   UNL     2     -11.084  14.000  67.348  1.00  0.00    -0.303 C  
HETATM   30  N   UNL     2     -11.352  10.437  68.232  1.00  0.00    -0.268 NA 
HETATM   31  C   UNL     2      -9.332  14.967  65.966  1.00  0.00    -0.241 C  
HETATM   32  N   UNL     3      -7.754   8.487  69.660  1.00  0.00    -0.091 NA 
ENDROOT
BRANCH   2  33
HETATM   33  C   UNL     1      -7.644  14.430  70.773  1.00  0.00     1.821 C  
HETATM   34  H2  UNL     1      -8.055  14.708  72.775  1.00  0.00     0.000 HD 
HETATM   35  N   UNL     1      -7.437  15.091  72.059  1.00  0.00     2.747 NA 
HETATM   36  H1  UNL     1      -6.462  15.058  72.358  1.00  0.00     0.000 HD 
ENDBRANCH   2  33
TORSDOF 1
ENDMDL
MODEL      117
REMARK 921   NORMALIZED FREE ENERGY PREDICTED BY IDOCK:   10.84 KCAL/MOL
REMARK 922        TOTAL FREE ENERGY PREDICTED BY IDOCK:   11.11 KCAL/MOL
REMARK 923 INTER-LIGAND FREE ENERGY PREDICTED BY IDOCK:   11.35 KCAL/MOL
REMARK 924 INTRA-LIGAND FREE ENERGY PREDICTED BY IDOCK:   -0.24 KCAL/MOL
REMARK 927      BINDING AFFINITY PREDICTED BY RF-SCORE:    0.00 PKD
ROOT
HETATM    1  N   UNL     1      -6.619   6.559  70.223  1.00  0.00    -0.047 NA 
HETATM    2  C   UNL     1      -7.526   6.744  69.087  1.00  0.00    -0.095 C  
HETATM    3  H1  UNL     1      -5.743   7.073  70.123  1.00  0.00     0.000 HD 
HETATM    4  C   UNL     2      -5.148   9.948  69.091  1.00  0.00    -0.036 C  
HETATM    5  H2  UNL     1      -6.442   5.568  70.390  1.00  0.00     0.000 HD 
HETATM    6  C   UNL     3      -9.603   9.147  70.383  1.00  0.00    -0.224 C  
HETATM    7  N   UNL     2      -6.096  10.090  68.008  1.00  0.00    -0.049 N  
HETATM    8  O   UNL     3      -9.239   8.292  67.634  1.00  0.00    -0.136 OA 
HETATM    9  N   UNL     3     -10.459   9.437  69.233  1.00  0.00    -0.213 N  
HETATM   10  O   UNL     2      -5.173   8.316  66.872  1.00  0.00    -0.030 OA 
HETATM   11  C   UNL     2      -7.107  11.018  68.048  1.00  0.00    -0.077 A  
HETATM   12  C   UNL     2      -7.945  11.191  66.994  1.00  0.00    -0.145 A  
HETATM   13  C   UNL     3     -10.254   8.907  67.956  1.00  0.00    -0.213 C  
HETATM   14  C   UNL     3     -11.375  10.446  69.349  1.00  0.00    -0.250 A  
HETATM   15  C   UNL     3     -11.036   8.488  65.688  1.00  0.00     3.853 C  
HETATM   16  C   UNL     2      -7.884  10.418  65.807  1.00  0.00    -0.150 C  
HETATM   17  N   UNL     2      -8.843  12.138  67.389  1.00  0.00    -0.174 NA 
HETATM   18  C   UNL     3     -12.123  10.848  68.292  1.00  0.00     0.237 A  
HETATM   19  C   UNL     2      -8.538  12.443  68.691  1.00  0.00     0.032 A  
HETATM   20  N   UNL     2      -6.998   9.348  65.916  1.00  0.00    -0.088 N  
HETATM   21  N   UNL     3     -12.765  11.966  68.730  1.00  0.00     0.509 NA 
HETATM   22  H   UNL     2      -9.593  12.540  66.827  1.00  0.00     0.000 HD 
HETATM   23  C   UNL     3     -12.114  10.211  67.031  1.00  0.00     3.728 C  
HETATM   24  O   UNL     2      -8.584  10.665  64.831  1.00  0.00    -0.178 OA 
HETATM   25  O   UNL     3     -12.787  10.637  66.087  1.00  0.00     5.391 OA 
HETATM   26  N   UNL     3     -11.220   9.155  66.969  1.00  0.00     0.468 N  
HETATM   27  C   UNL     3     -12.361  12.187  70.022  1.00  0.00    -0.096 A  
HETATM   28  H   UNL     3     -13.423  12.534  68.197  1.00  0.00     0.000 HD 
HETATM   29  C   UNL     2      -6.032   9.200  66.929  1.00  0.00    -0.053 C  
HETATM   30  N   UNL     2      -7.454  11.812  69.098  1.00  0.00    -0.027 NA 
HETATM   31  C   UNL     2      -7.137   8.247  64.984  1.00  0.00    -0.075 C  
HETATM   32  N   UNL     3     -11.539  11.250  70.437  1.00  0.00    -0.288 NA 
ENDROOT
BRANCH   2  33
HETATM   33  C   UNL     1      -8.853   5.965  69.239  1.00  0.00    -0.118 C  
HETATM   34  H2  UNL     1      -8.237   4.335  68.136  1.00  0.00     0.000 HD 
HETATM   35  N   UNL     1      -9.033   4.970  68.185  1.00  0.00    -0.106 NA 
HETATM   36  H1  UNL     1      -9.909   4.456  68.285  1.00  0.00     0.000 HD 
ENDBRANCH   2  33
TORSDOF 1
ENDMDL
MODEL      118
REMARK 921   NORMALIZED FREE ENERGY PREDICTED BY IDOCK:   11.44 KCAL/MOL
REMARK 922        TOTAL FREE ENERGY PREDICTED BY IDOCK:   11.74 KCAL/MOL
REMARK 923 INTER-LIGAND FREE ENERGY PREDICTED BY IDOCK:   11.83 KCAL/MOL
REMARK 924 INTRA-LIGAND FREE ENERGY PREDICTED BY IDOCK:   -0.09 KCAL/MOL
REMARK 927      BINDING AFFINITY PREDICTED BY RF-SCORE:    0.00 PKD
ROOT
HETATM    1  N   UNL     1     -11.497  19.229  66.517  1.00  0.00     0.556 NA 
HETATM    2  C   UNL     1     -10.568  18.144  66.190  1.00  0.00    -0.274 C  
HETATM    3  H1  UNL     1     -12.360  18.899  66.948  1.00  0.00     0.000 HD 
HETATM    4  C   UNL     2     -12.883  16.725  69.112  1.00  0.00     3.637 C  
HETATM    5  H2  UNL     1     -11.695  19.798  65.694  1.00  0.00     0.000 HD 
HETATM    6  C   UNL     3      -8.466  18.337  68.894  1.00  0.00    -0.138 C  
HETATM    7  N   UNL     2     -11.914  15.707  68.768  1.00  0.00    -0.310 N  
HETATM    8  O   UNL     3      -8.801  16.209  66.950  1.00  0.00    -0.190 OA 
HETATM    9  N   UNL     3      -7.586  17.193  68.656  1.00  0.00    -0.248 N  
HETATM   10  O   UNL     2     -12.854  15.416  66.689  1.00  0.00     1.412 OA 
HETATM   11  C   UNL     2     -10.887  15.370  69.614  1.00  0.00    -0.283 A  
HETATM   12  C   UNL     2     -10.028  14.362  69.311  1.00  0.00     0.021 A  
HETATM   13  C   UNL     3      -7.781  16.261  67.633  1.00  0.00    -0.143 C  
HETATM   14  C   UNL     3      -6.653  16.889  69.608  1.00  0.00    -0.138 A  
HETATM   15  C   UNL     3      -6.970  14.407  66.277  1.00  0.00     3.701 C  
HETATM   16  C   UNL     2     -10.085  13.618  68.106  1.00  0.00    -0.245 C  
HETATM   17  N   UNL     2      -9.119  14.336  70.327  1.00  0.00     1.081 NA 
HETATM   18  C   UNL     3      -5.880  15.779  69.512  1.00  0.00    -0.131 A  
HETATM   19  C   UNL     2      -9.439  15.376  71.161  1.00  0.00     2.343 A  
HETATM   20  N   UNL     2     -10.993  14.153  67.195  1.00  0.00    -0.294 N  
HETATM   21  N   UNL     3      -5.223  15.712  70.703  1.00  0.00    -0.156 NA 
HETATM   22  H   UNL     2      -8.352  13.674  70.442  1.00  0.00     0.000 HD 
HETATM   23  C   UNL     3      -5.880  14.910  68.397  1.00  0.00    -0.106 C  
HETATM   24  O   UNL     2      -9.365  12.646  67.905  1.00  0.00    -0.190 OA 
HETATM   25  O   UNL     3      -5.184  13.890  68.372  1.00  0.00    -0.087 OA 
HETATM   26  N   UNL     3      -6.794  15.285  67.426  1.00  0.00    -0.187 N  
HETATM   27  C   UNL     3      -5.644  16.776  71.458  1.00  0.00     0.611 A  
HETATM   28  H   UNL     3      -4.546  15.003  70.981  1.00  0.00     0.000 HD 
HETATM   29  C   UNL     2     -11.978  15.110  67.503  1.00  0.00     0.033 C  
HETATM   30  N   UNL     2     -10.541  15.988  70.777  1.00  0.00     0.060 NA 
HETATM   31  C   UNL     2     -10.860  13.784  65.799  1.00  0.00    -0.277 C  
HETATM   32  N   UNL     3      -6.491  17.533  70.797  1.00  0.00     1.245 NA 
ENDROOT
BRANCH   2  33
HETATM   33  C   UNL     1      -9.259  18.644  65.536  1.00  0.00     1.060 C  
HETATM   34  H2  UNL     1      -8.856  20.054  66.985  1.00  0.00     0.000 HD 
HETATM   35  N   UNL     1      -8.905  19.993  65.969  1.00  0.00    -0.527 NA 
HETATM   36  H1  UNL     1      -8.041  20.323  65.538  1.00  0.00     0.000 HD 
ENDBRANCH   2  33
TORSDOF 1
ENDMDL
MODEL      119
REMARK 921   NORMALIZED FREE ENERGY PREDICTED BY IDOCK:   11.98 KCAL/MOL
REMARK 922        TOTAL FREE ENERGY PREDICTED BY IDOCK:   12.31 KCAL/MOL
REMARK 923 INTER-LIGAND FREE ENERGY PREDICTED BY IDOCK:   12.44 KCAL/MOL
REMARK 924 INTRA-LIGAND FREE ENERGY PREDICTED BY IDOCK:   -0.13 KCAL/MOL
REMARK 927      BINDING AFFINITY PREDICTED BY RF-SCORE:    0.00 PKD
ROOT
HETATM    1  N   UNL     1      -9.731  15.108  71.967  1.00  0.00     2.563 NA 
HETATM    2  C   UNL     1      -8.631  14.937  71.014  1.00  0.00     2.953 C  
HETATM    3  H1  UNL     1     -10.429  15.783  71.654  1.00  0.00     0.000 HD 
HETATM    4  C   UNL     2     -11.713  16.273  68.862  1.00  0.00    -0.160 C  
HETATM    5  H2  UNL     1      -9.376  15.355  72.891  1.00  0.00     0.000 HD 
HETATM    6  C   UNL     3      -9.667  12.073  69.435  1.00  0.00     0.796 C  
HETATM    7  N   UNL     2     -10.600  16.047  67.966  1.00  0.00    -0.285 N  
HETATM    8  O   UNL     3      -7.659  14.010  68.639  1.00  0.00    -0.123 OA 
HETATM    9  N   UNL     3      -8.644  11.930  68.399  1.00  0.00    -0.166 N  
HETATM   10  O   UNL     2      -9.393  17.757  68.920  1.00  0.00    -0.248 OA 
HETATM   11  C   UNL     2     -10.599  15.016  67.059  1.00  0.00    -0.293 A  
HETATM   12  C   UNL     2      -9.581  14.860  66.174  1.00  0.00    -0.310 A  
HETATM   13  C   UNL     3      -7.657  12.886  68.143  1.00  0.00    -0.135 C  
HETATM   14  C   UNL     3      -8.787  10.921  67.488  1.00  0.00    -0.133 A  
HETATM   15  C   UNL     3      -5.576  13.540  67.060  1.00  0.00     1.007 C  
HETATM   16  C   UNL     2      -8.436  15.695  66.138  1.00  0.00    -0.002 C  
HETATM   17  N   UNL     2      -9.874  13.728  65.473  1.00  0.00    -0.504 NA 
HETATM   18  C   UNL     3      -7.944  10.796  66.432  1.00  0.00    -0.151 A  
HETATM   19  C   UNL     2     -11.026  13.222  66.016  1.00  0.00    -0.279 A  
HETATM   20  N   UNL     2      -8.384  16.570  67.221  1.00  0.00    -0.169 N  
HETATM   21  N   UNL     3      -8.498   9.818  65.663  1.00  0.00    -0.134 NA 
HETATM   22  H   UNL     2      -9.340  13.335  64.697  1.00  0.00     0.000 HD 
HETATM   23  C   UNL     3      -6.801  11.602  66.236  1.00  0.00     0.249 C  
HETATM   24  O   UNL     2      -7.583  15.596  65.263  1.00  0.00     3.635 OA 
HETATM   25  O   UNL     3      -6.083  11.474  65.239  1.00  0.00     0.448 OA 
HETATM   26  N   UNL     3      -6.655  12.573  67.212  1.00  0.00    -0.152 N  
HETATM   27  C   UNL     3      -9.651   9.415  66.287  1.00  0.00    -0.234 A  
HETATM   28  H   UNL     3      -8.126   9.454  64.787  1.00  0.00     0.000 HD 
HETATM   29  C   UNL     2      -9.459  16.849  68.086  1.00  0.00    -0.251 C  
HETATM   30  N   UNL     2     -11.514  14.015  66.949  1.00  0.00    -0.338 NA 
HETATM   31  C   UNL     2      -7.107  17.167  67.558  1.00  0.00    -0.154 C  
HETATM   32  N   UNL     3      -9.832  10.048  67.424  1.00  0.00    -0.177 NA 
ENDROOT
BRANCH   2  33
HETATM   33  C   UNL     1      -7.572  13.915  71.489  1.00  0.00     5.059 C  
HETATM   34  H2  UNL     1      -6.545  15.251  72.676  1.00  0.00     0.000 HD 
HETATM   35  N   UNL     1      -6.347  14.562  71.951  1.00  0.00     0.131 NA 
HETATM   36  H1  UNL     1      -5.648  13.888  72.265  1.00  0.00     0.000 HD 
ENDBRANCH   2  33
TORSDOF 1
ENDMDL
MODEL      120
REMARK 921   NORMALIZED FREE ENERGY PREDICTED BY IDOCK:   13.15 KCAL/MOL
REMARK 922        TOTAL FREE ENERGY PREDICTED BY IDOCK:   13.55 KCAL/MOL
REMARK 923 INTER-LIGAND FREE ENERGY PREDICTED BY IDOCK:   13.71 KCAL/MOL
REMARK 924 INTRA-LIGAND FREE ENERGY PREDICTED BY IDOCK:   -0.16 KCAL/MOL
REMARK 927      BINDING AFFINITY PREDICTED BY RF-SCORE:    0.00 PKD
ROOT
HETATM    1  N   UNL     1      -7.990   9.744  71.538  1.00  0.00     0.210 NA 
HETATM    2  C   UNL     1      -7.683  10.024  70.133  1.00  0.00    -0.143 C  
HETATM    3  H1  UNL     1      -7.729  10.507  72.163  1.00  0.00     0.000 HD 
HETATM    4  C   UNL     2      -8.024  13.592  71.883  1.00  0.00     9.114 C  
HETATM    5  H2  UNL     1      -7.563   8.867  71.836  1.00  0.00     0.000 HD 
HETATM    6  C   UNL     3     -10.777  11.035  69.049  1.00  0.00    -0.219 C  
HETATM    7  N   UNL     2      -7.756  13.802  70.478  1.00  0.00     2.079 N  
HETATM    8  O   UNL     3      -8.175  11.364  67.808  1.00  0.00    -0.118 OA 
HETATM    9  N   UNL     3     -10.484  11.428  67.670  1.00  0.00    -0.188 N  
HETATM   10  O   UNL     2      -5.638  12.928  70.678  1.00  0.00    -0.158 OA 
HETATM   11  C   UNL     2      -8.714  14.290  69.624  1.00  0.00     0.723 A  
HETATM   12  C   UNL     2      -8.428  14.552  68.322  1.00  0.00    -0.161 A  
HETATM   13  C   UNL     3      -9.195  11.475  67.132  1.00  0.00    -0.169 C  
HETATM   14  C   UNL     3     -11.489  11.989  66.933  1.00  0.00    -0.337 A  
HETATM   15  C   UNL     3      -7.711  11.660  65.209  1.00  0.00     1.252 C  
HETATM   16  C   UNL     2      -7.162  14.307  67.732  1.00  0.00    -0.175 C  
HETATM   17  N   UNL     2      -9.601  14.966  67.764  1.00  0.00    -0.206 NA 
HETATM   18  C   UNL     3     -11.264  12.482  65.689  1.00  0.00    -0.317 A  
HETATM   19  C   UNL     2     -10.553  14.871  68.746  1.00  0.00    -0.247 A  
HETATM   20  N   UNL     2      -6.309  13.603  68.579  1.00  0.00    -0.084 N  
HETATM   21  N   UNL     3     -12.424  13.113  65.354  1.00  0.00    -0.478 NA 
HETATM   22  H   UNL     2      -9.742  15.283  66.805  1.00  0.00     0.000 HD 
HETATM   23  C   UNL     3     -10.033  12.368  65.006  1.00  0.00    -0.197 C  
HETATM   24  O   UNL     2      -6.901  14.650  66.584  1.00  0.00     0.536 OA 
HETATM   25  O   UNL     3      -9.866  12.866  63.888  1.00  0.00    -0.258 OA 
HETATM   26  N   UNL     3      -9.057  11.739  65.761  1.00  0.00    -0.143 N  
HETATM   27  C   UNL     3     -13.281  12.979  66.416  1.00  0.00     2.284 A  
HETATM   28  H   UNL     3     -12.618  13.595  64.477  1.00  0.00     0.000 HD 
HETATM   29  C   UNL     2      -6.514  13.418  69.959  1.00  0.00     0.046 C  
HETATM   30  N   UNL     2     -10.028  14.511  69.900  1.00  0.00     0.315 NA 
HETATM   31  C   UNL     2      -5.175  12.916  67.992  1.00  0.00    -0.094 C  
HETATM   32  N   UNL     3     -12.747  12.263  67.380  1.00  0.00     1.104 NA 
ENDROOT
BRANCH   2  33
HETATM   33  C   UNL     1      -8.079   8.867  69.185  1.00  0.00    -0.117 C  
HETATM   34  H2  UNL     1      -9.832   8.412  70.170  1.00  0.00     0.000 HD 
HETATM   35  N   UNL     1      -9.007   7.931  69.813  1.00  0.00    -0.145 NA 
HETATM   36  H1  UNL     1      -9.268   7.168  69.188  1.00  0.00     0.000 HD 
ENDBRANCH   2  33
TORSDOF 1
ENDMDL
MODEL      121
REMARK 921   NORMALIZED FREE ENERGY PREDICTED BY IDOCK:   13.97 KCAL/MOL
REMARK 922        TOTAL FREE ENERGY PREDICTED BY IDOCK:   14.43 KCAL/MOL
REMARK 923 INTER-LIGAND FREE ENERGY PREDICTED BY IDOCK:   14.18 KCAL/MOL
REMARK 924 INTRA-LIGAND FREE ENERGY PREDICTED BY IDOCK:    0.25 KCAL/MOL
REMARK 927      BINDING AFFINITY PREDICTED BY RF-SCORE:    0.00 PKD
ROOT
HETATM    1  N   UNL     1      -5.385  13.786  69.134  1.00  0.00    -0.076 NA 
HETATM    2  C   UNL     1      -6.093  12.521  69.345  1.00  0.00    -0.108 C  
HETATM    3  H1  UNL     1      -5.291  14.031  68.148  1.00  0.00     0.000 HD 
HETATM    4  C   UNL     2      -7.295  13.835  65.776  1.00  0.00     5.678 C  
HETATM    5  H2  UNL     1      -4.475  13.776  69.595  1.00  0.00     0.000 HD 
HETATM    6  C   UNL     3      -9.227  13.716  70.066  1.00  0.00     2.571 C  
HETATM    7  N   UNL     2      -7.991  12.599  66.060  1.00  0.00     1.115 N  
HETATM    8  O   UNL     3      -8.384  11.040  69.326  1.00  0.00    -0.085 OA 
HETATM    9  N   UNL     3      -9.990  12.472  70.177  1.00  0.00     2.638 N  
HETATM   10  O   UNL     2      -6.039  11.388  65.935  1.00  0.00    -0.028 OA 
HETATM   11  C   UNL     2      -9.334  12.573  66.343  1.00  0.00    -0.209 A  
HETATM   12  C   UNL     2      -9.990  11.399  66.536  1.00  0.00    -0.211 A  
HETATM   13  C   UNL     3      -9.469  11.211  69.877  1.00  0.00     1.132 C  
HETATM   14  C   UNL     3     -11.341  12.561  70.369  1.00  0.00     0.637 A  
HETATM   15  C   UNL     3      -9.641   8.782  69.940  1.00  0.00    -0.177 C  
HETATM   16  C   UNL     2      -9.355  10.132  66.510  1.00  0.00    -0.164 C  
HETATM   17  N   UNL     2     -11.273  11.741  66.842  1.00  0.00    -0.314 NA 
HETATM   18  C   UNL     3     -12.129  11.457  70.367  1.00  0.00    -0.384 A  
HETATM   19  C   UNL     2     -11.311  13.111  66.881  1.00  0.00    -0.318 A  
HETATM   20  N   UNL     2      -7.967  10.236  66.450  1.00  0.00    -0.117 N  
HETATM   21  N   UNL     3     -13.401  11.943  70.398  1.00  0.00     0.823 NA 
HETATM   22  H   UNL     2     -12.052  11.103  67.009  1.00  0.00     0.000 HD 
HETATM   23  C   UNL     3     -11.637  10.136  70.282  1.00  0.00    -0.302 C  
HETATM   24  O   UNL     2      -9.987   9.084  66.582  1.00  0.00    -0.232 OA 
HETATM   25  O   UNL     3     -12.398   9.163  70.247  1.00  0.00     0.163 OA 
HETATM   26  N   UNL     3     -10.259  10.084  70.150  1.00  0.00    -0.265 N  
HETATM   27  C   UNL     3     -13.313  13.311  70.403  1.00  0.00     0.761 A  
HETATM   28  H   UNL     3     -14.259  11.392  70.413  1.00  0.00     0.000 HD 
HETATM   29  C   UNL     2      -7.257  11.409  66.132  1.00  0.00     0.149 C  
HETATM   30  N   UNL     2     -10.156  13.641  66.531  1.00  0.00    -0.279 NA 
HETATM   31  C   UNL     2      -7.177   9.085  66.843  1.00  0.00    -0.086 C  
HETATM   32  N   UNL     3     -12.063  13.715  70.424  1.00  0.00    -0.349 NA 
ENDROOT
BRANCH   2  33
HETATM   33  C   UNL     1      -6.236  12.149  70.840  1.00  0.00     0.769 C  
HETATM   34  H2  UNL     1      -7.639  13.600  71.257  1.00  0.00     0.000 HD 
HETATM   35  N   UNL     1      -6.758  13.256  71.637  1.00  0.00     1.442 NA 
HETATM   36  H1  UNL     1      -6.853  13.011  72.623  1.00  0.00     0.000 HD 
ENDBRANCH   2  33
TORSDOF 1
ENDMDL
MODEL      122
REMARK 921   NORMALIZED FREE ENERGY PREDICTED BY IDOCK:   15.16 KCAL/MOL
REMARK 922        TOTAL FREE ENERGY PREDICTED BY IDOCK:   15.68 KCAL/MOL
REMARK 923 INTER-LIGAND FREE ENERGY PREDICTED BY IDOCK:   15.78 KCAL/MOL
REMARK 924 INTRA-LIGAND FREE ENERGY PREDICTED BY IDOCK:   -0.10 KCAL/MOL
REMARK 927      BINDING AFFINITY PREDICTED BY RF-SCORE:    0.00 PKD
ROOT
HETATM    1  N   UNL     1     -12.232  11.073  67.884  1.00  0.00    -0.433 NA 
HETATM    2  C   UNL     1     -11.114  11.623  68.655  1.00  0.00    -0.234 C  
HETATM    3  H1  UNL     1     -13.137  11.444  68.174  1.00  0.00     0.000 HD 
HETATM    4  C   UNL     2     -14.035  14.325  68.933  1.00  0.00     7.145 C  
HETATM    5  H2  UNL     1     -12.230  10.053  67.917  1.00  0.00     0.000 HD 
HETATM    6  C   UNL     3     -10.033  14.039  66.472  1.00  0.00    -0.284 C  
HETATM    7  N   UNL     2     -12.883  14.830  69.647  1.00  0.00     0.063 N  
HETATM    8  O   UNL     3      -9.446  13.686  69.292  1.00  0.00     0.308 OA 
HETATM    9  N   UNL     3      -8.981  14.685  67.257  1.00  0.00    -0.194 N  
HETATM   10  O   UNL     2     -13.060  13.183  71.242  1.00  0.00    -0.289 OA 
HETATM   11  C   UNL     2     -12.146  15.887  69.174  1.00  0.00    -0.142 A  
HETATM   12  C   UNL     2     -11.111  16.399  69.891  1.00  0.00    -0.310 A  
HETATM   13  C   UNL     3      -8.714  14.386  68.596  1.00  0.00    -0.164 C  
HETATM   14  C   UNL     3      -8.371  15.789  66.731  1.00  0.00    -0.274 A  
HETATM   15  C   UNL     3      -7.276  14.552  70.554  1.00  0.00     0.649 C  
HETATM   16  C   UNL     2     -10.681  15.872  71.134  1.00  0.00     0.293 C  
HETATM   17  N   UNL     2     -10.580  17.386  69.115  1.00  0.00    -0.382 NA 
HETATM   18  C   UNL     3      -7.469  16.508  67.445  1.00  0.00    -0.149 A  
HETATM   19  C   UNL     2     -11.284  17.377  67.939  1.00  0.00     0.154 A  
HETATM   20  N   UNL     2     -11.311  14.669  71.447  1.00  0.00    -0.085 N  
HETATM   21  N   UNL     3      -7.226  17.610  66.684  1.00  0.00    -0.207 NA 
HETATM   22  H   UNL     2      -9.811  18.009  69.362  1.00  0.00     0.000 HD 
HETATM   23  C   UNL     3      -6.999  16.136  68.724  1.00  0.00    -0.148 C  
HETATM   24  O   UNL     2      -9.813  16.416  71.808  1.00  0.00     3.844 OA 
HETATM   25  O   UNL     3      -6.204  16.843  69.352  1.00  0.00    -0.200 OA 
HETATM   26  N   UNL     3      -7.594  14.979  69.199  1.00  0.00    -0.163 N  
HETATM   27  C   UNL     3      -8.002  17.506  65.558  1.00  0.00     0.847 A  
HETATM   28  H   UNL     3      -6.587  18.372  66.909  1.00  0.00     0.000 HD 
HETATM   29  C   UNL     2     -12.460  14.168  70.805  1.00  0.00    -0.366 C  
HETATM   30  N   UNL     2     -12.275  16.509  67.970  1.00  0.00     0.970 NA 
HETATM   31  C   UNL     2     -10.691  13.808  72.435  1.00  0.00     5.943 C  
HETATM   32  N   UNL     3      -8.685  16.382  65.545  1.00  0.00    -0.054 NA 
ENDROOT
BRANCH   2  33
HETATM   33  C   UNL     1      -9.741  11.060  68.216  1.00  0.00    -0.177 C  
HETATM   34  H2  UNL     1     -10.025  11.430  66.208  1.00  0.00     0.000 HD 
HETATM   35  N   UNL     1      -9.731  10.662  66.811  1.00  0.00    -0.180 NA 
HETATM   36  H1  UNL     1      -8.826  10.291  66.521  1.00  0.00     0.000 HD 
ENDBRANCH   2  33
TORSDOF 1
ENDMDL
MODEL      123
REMARK 921   NORMALIZED FREE ENERGY PREDICTED BY IDOCK:   17.97 KCAL/MOL
REMARK 922        TOTAL FREE ENERGY PREDICTED BY IDOCK:   18.66 KCAL/MOL
REMARK 923 INTER-LIGAND FREE ENERGY PREDICTED BY IDOCK:   18.79 KCAL/MOL
REMARK 924 INTRA-LIGAND FREE ENERGY PREDICTED BY IDOCK:   -0.13 KCAL/MOL
REMARK 927      BINDING AFFINITY PREDICTED BY RF-SCORE:    0.00 PKD
ROOT
HETATM    1  N   UNL     1      -7.334  13.449  65.820  1.00  0.00     3.209 NA 
HETATM    2  C   UNL     1      -7.382  14.509  66.831  1.00  0.00     0.580 C  
HETATM    3  H1  UNL     1      -7.980  12.683  66.014  1.00  0.00     0.000 HD 
HETATM    4  C   UNL     2     -10.918  12.675  67.038  1.00  0.00    -0.265 C  
HETATM    5  H2  UNL     1      -6.382  13.101  65.702  1.00  0.00     0.000 HD 
HETATM    6  C   UNL     3      -9.422  16.754  65.228  1.00  0.00     0.959 C  
HETATM    7  N   UNL     2     -10.917  13.762  67.992  1.00  0.00    -0.245 N  
HETATM    8  O   UNL     3      -8.650  16.610  68.022  1.00  0.00    -0.186 OA 
HETATM    9  N   UNL     3      -9.580  17.782  66.256  1.00  0.00    -0.274 N  
HETATM   10  O   UNL     2      -9.317  12.725  69.278  1.00  0.00     0.550 OA 
HETATM   11  C   UNL     2     -11.675  14.891  67.803  1.00  0.00    -0.317 A  
HETATM   12  C   UNL     2     -11.721  15.872  68.742  1.00  0.00    -0.349 A  
HETATM   13  C   UNL     3      -9.097  17.659  67.561  1.00  0.00    -0.239 C  
HETATM   14  C   UNL     3     -10.432  18.821  66.002  1.00  0.00    -0.432 A  
HETATM   15  C   UNL     3      -8.574  18.646  69.726  1.00  0.00     1.042 C  
HETATM   16  C   UNL     2     -10.974  15.841  69.946  1.00  0.00    -0.333 C  
HETATM   17  N   UNL     2     -12.512  16.848  68.215  1.00  0.00     1.218 NA 
HETATM   18  C   UNL     3     -10.718  19.749  66.948  1.00  0.00    -0.421 A  
HETATM   19  C   UNL     2     -12.853  16.433  66.953  1.00  0.00     4.430 A  
HETATM   20  N   UNL     2     -10.055  14.794  69.975  1.00  0.00     0.135 N  
HETATM   21  N   UNL     3     -11.719  20.496  66.406  1.00  0.00     2.359 NA 
HETATM   22  H   UNL     2     -12.795  17.716  68.670  1.00  0.00     0.000 HD 
HETATM   23  C   UNL     3     -10.098  19.801  68.216  1.00  0.00    -0.458 C  
HETATM   24  O   UNL     2     -11.114  16.688  70.823  1.00  0.00    -0.194 OA 
HETATM   25  O   UNL     3     -10.420  20.644  69.060  1.00  0.00     0.037 OA 
HETATM   26  N   UNL     3      -9.197  18.768  68.415  1.00  0.00    -0.328 N  
HETATM   27  C   UNL     3     -11.993  19.972  65.169  1.00  0.00     3.608 A  
HETATM   28  H   UNL     3     -12.180  21.296  66.839  1.00  0.00     0.000 HD 
HETATM   29  C   UNL     2     -10.054  13.697  69.092  1.00  0.00     0.172 C  
HETATM   30  N   UNL     2     -12.398  15.222  66.699  1.00  0.00     0.582 NA 
HETATM   31  C   UNL     2      -8.951  14.877  70.910  1.00  0.00     2.518 C  
HETATM   32  N   UNL     3     -11.194  18.969  64.882  1.00  0.00     0.222 NA 
ENDROOT
BRANCH   2  33
HETATM   33  C   UNL     1      -6.403  15.670  66.537  1.00  0.00     1.544 C  
HETATM   34  H2  UNL     1      -4.738  14.697  67.267  1.00  0.00     0.000 HD 
HETATM   35  N   UNL     1      -5.200  15.601  67.362  1.00  0.00    -0.333 NA 
HETATM   36  H1  UNL     1      -4.554  16.367  67.168  1.00  0.00     0.000 HD 
ENDBRANCH   2  33
TORSDOF 1
ENDMDL
MODEL      124
REMARK 921   NORMALIZED FREE ENERGY PREDICTED BY IDOCK:   20.37 KCAL/MOL
REMARK 922        TOTAL FREE ENERGY PREDICTED BY IDOCK:   21.19 KCAL/MOL
REMARK 923 INTER-LIGAND FREE ENERGY PREDICTED BY IDOCK:   21.34 KCAL/MOL
REMARK 924 INTRA-LIGAND FREE ENERGY PREDICTED BY IDOCK:   -0.15 KCAL/MOL
REMARK 927      BINDING AFFINITY PREDICTED BY RF-SCORE:    0.00 PKD
ROOT
HETATM    1  N   UNL     1     -10.091   2.554  66.688  1.00  0.00     0.553 NA 
HETATM    2  C   UNL     1     -10.512   3.368  67.831  1.00  0.00     2.196 C  
HETATM    3  H1  UNL     1     -10.289   2.996  65.789  1.00  0.00     0.000 HD 
HETATM    4  C   UNL     2      -9.982   5.939  64.827  1.00  0.00     1.763 C  
HETATM    5  H2  UNL     1     -10.502   1.622  66.734  1.00  0.00     0.000 HD 
HETATM    6  C   UNL     3      -7.509   4.801  68.667  1.00  0.00    -0.065 C  
HETATM    7  N   UNL     2     -10.365   6.690  66.002  1.00  0.00     0.455 N  
HETATM    8  O   UNL     3     -10.203   5.541  69.452  1.00  0.00    -0.210 OA 
HETATM    9  N   UNL     3      -7.913   5.708  69.741  1.00  0.00    -0.097 N  
HETATM   10  O   UNL     2     -12.469   5.761  65.998  1.00  0.00     3.155 OA 
HETATM   11  C   UNL     2      -9.477   7.502  66.663  1.00  0.00    -0.191 A  
HETATM   12  C   UNL     2      -9.869   8.258  67.721  1.00  0.00    -0.170 A  
HETATM   13  C   UNL     3      -9.241   5.938  70.108  1.00  0.00    -0.153 C  
HETATM   14  C   UNL     3      -6.966   6.541  70.270  1.00  0.00    -0.066 A  
HETATM   15  C   UNL     3     -10.880   6.846  71.664  1.00  0.00    -0.226 C  
HETATM   16  C   UNL     2     -11.182   8.242  68.254  1.00  0.00     0.626 C  
HETATM   17  N   UNL     2      -8.742   8.888  68.160  1.00  0.00    -0.133 NA 
HETATM   18  C   UNL     3      -7.289   7.487  71.187  1.00  0.00    -0.071 A  
HETATM   19  C   UNL     2      -7.712   8.429  67.381  1.00  0.00    -0.098 A  
HETATM   20  N   UNL     2     -11.969   7.238  67.695  1.00  0.00     1.947 N  
HETATM   21  N   UNL     3      -6.155   8.226  71.334  1.00  0.00    -0.036 NA 
HETATM   22  H   UNL     2      -8.679   9.568  68.918  1.00  0.00     0.000 HD 
HETATM   23  C   UNL     3      -8.575   7.629  71.755  1.00  0.00    -0.113 C  
HETATM   24  O   UNL     2     -11.536   9.012  69.141  1.00  0.00     0.255 OA 
HETATM   25  O   UNL     3      -8.830   8.530  72.560  1.00  0.00    -0.261 OA 
HETATM   26  N   UNL     3      -9.492   6.728  71.240  1.00  0.00    -0.166 N  
HETATM   27  C   UNL     3      -5.213   7.696  70.490  1.00  0.00    -0.023 A  
HETATM   28  H   UNL     3      -6.029   9.024  71.956  1.00  0.00     0.000 HD 
HETATM   29  C   UNL     2     -11.651   6.518  66.528  1.00  0.00     1.360 C  
HETATM   30  N   UNL     2      -8.142   7.623  66.430  1.00  0.00    -0.109 NA 
HETATM   31  C   UNL     2     -13.157   6.819  68.413  1.00  0.00     9.967 C  
HETATM   32  N   UNL     3      -5.673   6.641  69.855  1.00  0.00    -0.018 NA 
ENDROOT
BRANCH   2  33
HETATM   33  C   UNL     1     -10.212   2.700  69.193  1.00  0.00     1.397 C  
HETATM   34  H2  UNL     1      -8.550   1.673  68.533  1.00  0.00     0.000 HD 
HETATM   35  N   UNL     1      -9.410   1.488  69.050  1.00  0.00    -0.126 NA 
HETATM   36  H1  UNL     1      -9.211   1.047  69.948  1.00  0.00     0.000 HD 
ENDBRANCH   2  33
TORSDOF 1
ENDMDL
MODEL      125
REMARK 921   NORMALIZED FREE ENERGY PREDICTED BY IDOCK:   21.62 KCAL/MOL
REMARK 922        TOTAL FREE ENERGY PREDICTED BY IDOCK:   22.52 KCAL/MOL
REMARK 923 INTER-LIGAND FREE ENERGY PREDICTED BY IDOCK:   22.62 KCAL/MOL
REMARK 924 INTRA-LIGAND FREE ENERGY PREDICTED BY IDOCK:   -0.10 KCAL/MOL
REMARK 927      BINDING AFFINITY PREDICTED BY RF-SCORE:    0.00 PKD
ROOT
HETATM    1  N   UNL     1     -10.655  18.121  72.929  1.00  0.00     3.124 NA 
HETATM    2  C   UNL     1     -10.212  17.039  72.046  1.00  0.00     5.289 C  
HETATM    3  H1  UNL     1      -9.916  18.791  73.142  1.00  0.00     0.000 HD 
HETATM    4  C   UNL     2      -7.724  20.079  71.346  1.00  0.00     1.755 C  
HETATM    5  H2  UNL     1     -11.063  17.746  73.786  1.00  0.00     0.000 HD 
HETATM    6  C   UNL     3     -11.385  18.218  69.045  1.00  0.00     2.161 C  
HETATM    7  N   UNL     2      -7.360  18.986  70.471  1.00  0.00     1.258 N  
HETATM    8  O   UNL     3      -9.442  16.133  69.590  1.00  0.00    -0.186 OA 
HETATM    9  N   UNL     3     -10.864  17.213  68.118  1.00  0.00    -0.363 N  
HETATM   10  O   UNL     2      -6.684  17.694  72.250  1.00  0.00     4.537 OA 
HETATM   11  C   UNL     2      -7.577  19.040  69.117  1.00  0.00    -0.208 A  
HETATM   12  C   UNL     2      -7.163  18.038  68.298  1.00  0.00    -0.248 A  
HETATM   13  C   UNL     3      -9.993  16.187  68.493  1.00  0.00    -0.229 C  
HETATM   14  C   UNL     3     -11.058  17.410  66.779  1.00  0.00     0.372 A  
HETATM   15  C   UNL     3      -8.859  14.089  67.998  1.00  0.00    -0.181 C  
HETATM   16  C   UNL     2      -6.530  16.857  68.760  1.00  0.00    -0.178 C  
HETATM   17  N   UNL     2      -7.581  18.388  67.048  1.00  0.00    -0.216 NA 
HETATM   18  C   UNL     3     -10.507  16.584  65.856  1.00  0.00    -0.323 A  
HETATM   19  C   UNL     2      -8.285  19.557  67.188  1.00  0.00    -0.277 A  
HETATM   20  N   UNL     2      -6.546  16.756  70.150  1.00  0.00     0.235 N  
HETATM   21  N   UNL     3     -10.755  17.188  64.661  1.00  0.00    -0.498 NA 
HETATM   22  H   UNL     2      -7.405  17.881  66.181  1.00  0.00     0.000 HD 
HETATM   23  C   UNL     3      -9.793  15.407  66.175  1.00  0.00    -0.311 C  
HETATM   24  O   UNL     2      -6.073  16.018  67.991  1.00  0.00    -0.110 OA 
HETATM   25  O   UNL     3      -9.278  14.706  65.299  1.00  0.00     0.324 OA 
HETATM   26  N   UNL     3      -9.670  15.208  67.540  1.00  0.00    -0.205 N  
HETATM   27  C   UNL     3     -11.430  18.352  64.928  1.00  0.00     2.802 A  
HETATM   28  H   UNL     3     -10.488  16.841  63.740  1.00  0.00     0.000 HD 
HETATM   29  C   UNL     2      -6.850  17.809  71.033  1.00  0.00     3.194 C  
HETATM   30  N   UNL     2      -8.253  20.000  68.429  1.00  0.00    -0.181 NA 
HETATM   31  C   UNL     2      -6.336  15.450  70.743  1.00  0.00     0.334 C  
HETATM   32  N   UNL     3     -11.660  18.493  66.214  1.00  0.00     1.577 NA 
ENDROOT
BRANCH   2  33
HETATM   33  C   UNL     1     -11.332  16.022  71.724  1.00  0.00    -0.190 C  
HETATM   34  H2  UNL     1     -12.309  16.249  73.525  1.00  0.00     0.000 HD 
HETATM   35  N   UNL     1     -11.964  15.496  72.931  1.00  0.00    -0.435 NA 
HETATM   36  H1  UNL     1     -12.703  14.825  72.719  1.00  0.00     0.000 HD 
ENDBRANCH   2  33
TORSDOF 1
ENDMDL
MODEL      126
REMARK 921   NORMALIZED FREE ENERGY PREDICTED BY IDOCK:   22.28 KCAL/MOL
REMARK 922        TOTAL FREE ENERGY PREDICTED BY IDOCK:   23.21 KCAL/MOL
REMARK 923 INTER-LIGAND FREE ENERGY PREDICTED BY IDOCK:   23.32 KCAL/MOL
REMARK 924 INTRA-LIGAND FREE ENERGY PREDICTED BY IDOCK:   -0.11 KCAL/MOL
REMARK 927      BINDING AFFINITY PREDICTED BY RF-SCORE:    0.00 PKD
ROOT
HETATM    1  N   UNL     1      -6.956  10.982  68.171  1.00  0.00    -0.067 NA 
HETATM    2  C   UNL     1      -7.626  10.614  69.421  1.00  0.00    -0.134 C  
HETATM    3  H1  UNL     1      -6.176  10.367  67.940  1.00  0.00     0.000 HD 
HETATM    4  C   UNL     2      -5.862   7.277  68.130  1.00  0.00    -0.023 C  
HETATM    5  H2  UNL     1      -6.657  11.957  68.192  1.00  0.00     0.000 HD 
HETATM    6  C   UNL     3     -10.294   8.862  68.161  1.00  0.00    -0.212 C  
HETATM    7  N   UNL     2      -6.576   6.968  69.349  1.00  0.00    -0.043 N  
HETATM    8  O   UNL     3      -9.233   8.944  70.861  1.00  0.00    -0.188 OA 
HETATM    9  N   UNL     3     -10.929   8.384  69.389  1.00  0.00    -0.082 N  
HETATM   10  O   UNL     2      -5.158   8.281  70.596  1.00  0.00    -0.023 OA 
HETATM   11  C   UNL     2      -7.712   6.197  69.347  1.00  0.00    -0.099 A  
HETATM   12  C   UNL     2      -8.330   5.853  70.507  1.00  0.00    -0.123 A  
HETATM   13  C   UNL     3     -10.379   8.546  70.663  1.00  0.00    -0.199 C  
HETATM   14  C   UNL     3     -12.003   7.545  69.274  1.00  0.00     1.266 A  
HETATM   15  C   UNL     3     -10.596   8.456  73.087  1.00  0.00     0.391 C  
HETATM   16  C   UNL     2      -7.899   6.287  71.785  1.00  0.00    -0.101 C  
HETATM   17  N   UNL     2      -9.434   5.143  70.138  1.00  0.00    -0.156 NA 
HETATM   18  C   UNL     3     -12.572   6.971  70.363  1.00  0.00     0.187 A  
HETATM   19  C   UNL     2      -9.460   5.149  68.768  1.00  0.00    -0.133 A  
HETATM   20  N   UNL     2      -6.891   7.246  71.708  1.00  0.00    -0.058 N  
HETATM   21  N   UNL     3     -13.466   6.079  69.855  1.00  0.00     5.208 NA 
HETATM   22  H   UNL     2     -10.108   4.695  70.760  1.00  0.00     0.000 HD 
HETATM   23  C   UNL     3     -12.197   7.261  71.694  1.00  0.00    -0.343 C  
HETATM   24  O   UNL     2      -8.412   5.877  72.821  1.00  0.00    -0.122 OA 
HETATM   25  O   UNL     3     -12.721   6.684  72.653  1.00  0.00     0.250 OA 
HETATM   26  N   UNL     3     -11.148   8.162  71.773  1.00  0.00    -0.256 N  
HETATM   27  C   UNL     3     -13.380   6.152  68.488  1.00  0.00    13.461 A  
HETATM   28  H   UNL     3     -14.084   5.470  70.390  1.00  0.00     0.000 HD 
HETATM   29  C   UNL     2      -6.144   7.541  70.551  1.00  0.00    -0.031 C  
HETATM   30  N   UNL     2      -8.395   5.740  68.263  1.00  0.00    -0.107 NA 
HETATM   31  C   UNL     2      -6.651   8.082  72.867  1.00  0.00    -0.081 C  
HETATM   32  N   UNL     3     -12.518   7.068  68.107  1.00  0.00     3.816 NA 
ENDROOT
BRANCH   2  33
HETATM   33  C   UNL     1      -8.809  11.546  69.771  1.00  0.00     1.532 C  
HETATM   34  H2  UNL     1      -8.794  12.548  67.969  1.00  0.00     0.000 HD 
HETATM   35  N   UNL     1      -8.810  12.765  68.966  1.00  0.00    -0.207 NA 
HETATM   36  H1  UNL     1      -9.591  13.380  69.197  1.00  0.00     0.000 HD 
ENDBRANCH   2  33
TORSDOF 1
ENDMDL
MODEL      127
REMARK 921   NORMALIZED FREE ENERGY PREDICTED BY IDOCK:   28.18 KCAL/MOL
REMARK 922        TOTAL FREE ENERGY PREDICTED BY IDOCK:   29.46 KCAL/MOL
REMARK 923 INTER-LIGAND FREE ENERGY PREDICTED BY IDOCK:   29.57 KCAL/MOL
REMARK 924 INTRA-LIGAND FREE ENERGY PREDICTED BY IDOCK:   -0.11 KCAL/MOL
REMARK 927      BINDING AFFINITY PREDICTED BY RF-SCORE:    0.00 PKD
ROOT
HETATM    1  N   UNL     1     -11.105  15.596  72.998  1.00  0.00     0.529 NA 
HETATM    2  C   UNL     1     -10.730  15.104  71.669  1.00  0.00     0.468 C  
HETATM    3  H1  UNL     1     -10.299  15.807  73.587  1.00  0.00     0.000 HD 
HETATM    4  C   UNL     2      -7.593  17.206  72.954  1.00  0.00    14.267 C  
HETATM    5  H2  UNL     1     -11.736  14.943  73.463  1.00  0.00     0.000 HD 
HETATM    6  C   UNL     3     -11.050  18.001  69.860  1.00  0.00     2.129 C  
HETATM    7  N   UNL     2      -7.298  16.722  71.623  1.00  0.00     6.462 N  
HETATM    8  O   UNL     3      -9.708  15.521  69.174  1.00  0.00    -0.217 OA 
HETATM    9  N   UNL     3     -10.578  17.571  68.544  1.00  0.00    -0.345 N  
HETATM   10  O   UNL     2      -7.247  14.541  72.352  1.00  0.00     2.047 OA 
HETATM   11  C   UNL     2      -7.239  17.566  70.542  1.00  0.00     2.614 A  
HETATM   12  C   UNL     2      -6.889  17.109  69.312  1.00  0.00    -0.209 A  
HETATM   13  C   UNL     3     -10.019  16.316  68.289  1.00  0.00    -0.236 C  
HETATM   14  C   UNL     3     -10.470  18.513  67.559  1.00  0.00    -0.418 A  
HETATM   15  C   UNL     3      -9.260  14.617  66.718  1.00  0.00    -0.264 C  
HETATM   16  C   UNL     2      -6.607  15.749  69.031  1.00  0.00    -0.134 C  
HETATM   17  N   UNL     2      -6.983  18.185  68.480  1.00  0.00    -0.237 NA 
HETATM   18  C   UNL     3      -9.932  18.215  66.350  1.00  0.00    -0.376 A  
HETATM   19  C   UNL     2      -7.448  19.225  69.242  1.00  0.00    -0.220 A  
HETATM   20  N   UNL     2      -6.906  14.912  70.104  1.00  0.00    -0.143 N  
HETATM   21  N   UNL     3      -9.822  19.415  65.717  1.00  0.00    -0.411 NA 
HETATM   22  H   UNL     2      -6.752  18.210  67.487  1.00  0.00     0.000 HD 
HETATM   23  C   UNL     3      -9.545  16.914  65.958  1.00  0.00    -0.209 C  
HETATM   24  O   UNL     2      -6.191  15.381  67.937  1.00  0.00    -0.126 OA 
HETATM   25  O   UNL     3      -9.026  16.698  64.858  1.00  0.00     1.481 OA 
HETATM   26  N   UNL     3      -9.726  15.975  66.960  1.00  0.00    -0.226 N  
HETATM   27  C   UNL     3     -10.285  20.374  66.580  1.00  0.00    -0.248 A  
HETATM   28  H   UNL     3      -9.461  19.572  64.776  1.00  0.00     0.000 HD 
HETATM   29  C   UNL     2      -7.153  15.344  71.420  1.00  0.00     2.338 C  
HETATM   30  N   UNL     2      -7.563  18.887  70.511  1.00  0.00     1.764 NA 
HETATM   31  C   UNL     2      -7.081  13.497  69.840  1.00  0.00     0.488 C  
HETATM   32  N   UNL     3     -10.722  19.844  67.701  1.00  0.00    -0.335 NA 
ENDROOT
BRANCH   2  33
HETATM   33  C   UNL     1     -11.952  14.784  70.776  1.00  0.00    -0.310 C  
HETATM   34  H2  UNL     1     -12.950  13.692  72.211  1.00  0.00     0.000 HD 
HETATM   35  N   UNL     1     -12.677  13.601  71.233  1.00  0.00    -0.357 NA 
HETATM   36  H1  UNL     1     -13.483  13.391  70.644  1.00  0.00     0.000 HD 
ENDBRANCH   2  33
TORSDOF 1
ENDMDL
MODEL      128
REMARK 921   NORMALIZED FREE ENERGY PREDICTED BY IDOCK:   29.16 KCAL/MOL
REMARK 922        TOTAL FREE ENERGY PREDICTED BY IDOCK:   30.50 KCAL/MOL
REMARK 923 INTER-LIGAND FREE ENERGY PREDICTED BY IDOCK:   29.58 KCAL/MOL
REMARK 924 INTRA-LIGAND FREE ENERGY PREDICTED BY IDOCK:    0.91 KCAL/MOL
REMARK 927      BINDING AFFINITY PREDICTED BY RF-SCORE:    0.00 PKD
ROOT
HETATM    1  N   UNL     1     -11.864   4.252  67.662  1.00  0.00     6.855 NA 
HETATM    2  C   UNL     1     -11.888   5.669  68.039  1.00  0.00     3.124 C  
HETATM    3  H1  UNL     1     -11.249   4.060  66.871  1.00  0.00     0.000 HD 
HETATM    4  C   UNL     2      -8.410   5.120  66.162  1.00  0.00    -0.114 C  
HETATM    5  H2  UNL     1     -12.807   3.908  67.483  1.00  0.00     0.000 HD 
HETATM    6  C   UNL     3      -9.683   5.613  70.667  1.00  0.00    -0.180 C  
HETATM    7  N   UNL     2      -8.478   6.498  66.594  1.00  0.00    -0.113 N  
HETATM    8  O   UNL     3     -10.696   7.862  69.138  1.00  0.00    -0.204 OA 
HETATM    9  N   UNL     3      -9.599   7.035  71.000  1.00  0.00    -0.170 N  
HETATM   10  O   UNL     2     -10.199   6.945  65.134  1.00  0.00     2.208 OA 
HETATM   11  C   UNL     2      -7.690   6.978  67.611  1.00  0.00    -0.112 A  
HETATM   12  C   UNL     2      -7.710   8.292  67.956  1.00  0.00    -0.107 A  
HETATM   13  C   UNL     3     -10.195   8.048  70.246  1.00  0.00    -0.200 C  
HETATM   14  C   UNL     3      -8.712   7.417  71.969  1.00  0.00    -0.110 A  
HETATM   15  C   UNL     3     -10.888  10.369  69.993  1.00  0.00    -0.289 C  
HETATM   16  C   UNL     2      -8.559   9.250  67.348  1.00  0.00    -0.122 C  
HETATM   17  N   UNL     2      -6.862   8.406  69.017  1.00  0.00    -0.055 NA 
HETATM   18  C   UNL     3      -8.495   8.726  72.252  1.00  0.00     0.036 A  
HETATM   19  C   UNL     2      -6.419   7.139  69.298  1.00  0.00    -0.036 A  
HETATM   20  N   UNL     2      -9.492   8.667  66.494  1.00  0.00    -0.197 N  
HETATM   21  N   UNL     3      -7.440   8.721  73.113  1.00  0.00    -0.364 NA 
HETATM   22  H   UNL     2      -6.606   9.264  69.505  1.00  0.00     0.000 HD 
HETATM   23  C   UNL     3      -9.222   9.790  71.673  1.00  0.00     1.706 C  
HETATM   24  O   UNL     2      -8.483  10.447  67.607  1.00  0.00    -0.115 OA 
HETATM   25  O   UNL     3      -8.962  10.968  71.936  1.00  0.00     8.223 OA 
HETATM   26  N   UNL     3     -10.153   9.360  70.742  1.00  0.00    -0.285 N  
HETATM   27  C   UNL     3      -7.069   7.413  73.293  1.00  0.00    -0.073 A  
HETATM   28  H   UNL     3      -7.007   9.537  73.543  1.00  0.00     0.000 HD 
HETATM   29  C   UNL     2      -9.434   7.343  66.017  1.00  0.00     0.076 C  
HETATM   30  N   UNL     2      -6.869   6.260  68.424  1.00  0.00    -0.068 NA 
HETATM   31  C   UNL     2     -10.672   9.433  66.143  1.00  0.00     0.429 C  
HETATM   32  N   UNL     3      -7.855   6.593  72.633  1.00  0.00    -0.101 NA 
ENDROOT
BRANCH   2  33
HETATM   33  C   UNL     1     -12.820   5.960  69.238  1.00  0.00     7.195 C  
HETATM   34  H2  UNL     1     -11.343   5.787  70.666  1.00  0.00     0.000 HD 
HETATM   35  N   UNL     1     -12.285   5.439  70.493  1.00  0.00     2.745 NA 
HETATM   36  H1  UNL     1     -12.900   5.632  71.284  1.00  0.00     0.000 HD 
ENDBRANCH   2  33
TORSDOF 1
ENDMDL
MODEL      129
REMARK 921   NORMALIZED FREE ENERGY PREDICTED BY IDOCK:   32.35 KCAL/MOL
REMARK 922        TOTAL FREE ENERGY PREDICTED BY IDOCK:   33.88 KCAL/MOL
REMARK 923 INTER-LIGAND FREE ENERGY PREDICTED BY IDOCK:   33.98 KCAL/MOL
REMARK 924 INTRA-LIGAND FREE ENERGY PREDICTED BY IDOCK:   -0.10 KCAL/MOL
REMARK 927      BINDING AFFINITY PREDICTED BY RF-SCORE:    0.00 PKD
ROOT
HETATM    1  N   UNL     1      -7.301  14.211  64.861  1.00  0.00    10.622 NA 
HETATM    2  C   UNL     1      -6.905  15.028  66.012  1.00  0.00     4.774 C  
HETATM    3  H1  UNL     1      -7.755  13.338  65.129  1.00  0.00     0.000 HD 
HETATM    4  C   UNL     2      -9.872  12.704  67.320  1.00  0.00    -0.206 C  
HETATM    5  H2  UNL     1      -6.504  14.034  64.249  1.00  0.00     0.000 HD 
HETATM    6  C   UNL     3      -9.531  17.235  66.092  1.00  0.00    -0.179 C  
HETATM    7  N   UNL     2      -9.460  13.565  68.406  1.00  0.00    -0.208 N  
HETATM    8  O   UNL     3      -7.538  16.643  68.117  1.00  0.00    -0.162 OA 
HETATM    9  N   UNL     3      -9.224  18.002  67.300  1.00  0.00    -0.253 N  
HETATM   10  O   UNL     2      -7.411  12.530  68.545  1.00  0.00    -0.116 OA 
HETATM   11  C   UNL     2     -10.255  14.589  68.859  1.00  0.00    -0.229 A  
HETATM   12  C   UNL     2      -9.889  15.343  69.927  1.00  0.00    -0.179 A  
HETATM   13  C   UNL     3      -8.183  17.688  68.177  1.00  0.00    -0.257 C  
HETATM   14  C   UNL     3     -10.130  18.938  67.716  1.00  0.00    -0.369 A  
HETATM   15  C   UNL     3      -6.742  18.283  70.048  1.00  0.00     0.369 C  
HETATM   16  C   UNL     2      -8.665  15.178  70.623  1.00  0.00     1.749 C  
HETATM   17  N   UNL     2     -10.867  16.283  70.066  1.00  0.00    -0.343 NA 
HETATM   18  C   UNL     3      -9.971  19.606  68.885  1.00  0.00    -0.438 A  
HETATM   19  C   UNL     2     -11.745  16.086  69.031  1.00  0.00    -0.318 A  
HETATM   20  N   UNL     2      -7.806  14.289  69.981  1.00  0.00     0.601 N  
HETATM   21  N   UNL     3     -11.133  20.296  69.049  1.00  0.00     0.531 NA 
HETATM   22  H   UNL     2     -10.933  16.992  70.796  1.00  0.00     0.000 HD 
HETATM   23  C   UNL     3      -8.832  19.488  69.713  1.00  0.00     0.663 C  
HETATM   24  O   UNL     2      -8.408  15.802  71.647  1.00  0.00     4.741 OA 
HETATM   25  O   UNL     3      -8.749  20.090  70.788  1.00  0.00     1.257 OA 
HETATM   26  N   UNL     3      -7.908  18.577  69.228  1.00  0.00    -0.002 N  
HETATM   27  C   UNL     3     -11.936  19.998  67.977  1.00  0.00     2.924 A  
HETATM   28  H   UNL     3     -11.364  20.918  69.823  1.00  0.00     0.000 HD 
HETATM   29  C   UNL     2      -8.182  13.403  68.952  1.00  0.00     0.177 C  
HETATM   30  N   UNL     2     -11.421  15.029  68.312  1.00  0.00    -0.320 NA 
HETATM   31  C   UNL     2      -6.396  14.338  70.313  1.00  0.00    -0.140 C  
HETATM   32  N   UNL     3     -11.331  19.198  67.128  1.00  0.00     0.117 NA 
ENDROOT
BRANCH   2  33
HETATM   33  C   UNL     1      -6.217  16.352  65.606  1.00  0.00     3.172 C  
HETATM   34  H2  UNL     1      -5.503  15.645  63.806  1.00  0.00     0.000 HD 
HETATM   35  N   UNL     1      -5.156  16.145  64.624  1.00  0.00     5.998 NA 
HETATM   36  H1  UNL     1      -4.701  17.019  64.356  1.00  0.00     0.000 HD 
ENDBRANCH   2  33
TORSDOF 1
ENDMDL
MODEL      130
REMARK 921   NORMALIZED FREE ENERGY PREDICTED BY IDOCK:   35.43 KCAL/MOL
REMARK 922        TOTAL FREE ENERGY PREDICTED BY IDOCK:   37.14 KCAL/MOL
REMARK 923 INTER-LIGAND FREE ENERGY PREDICTED BY IDOCK:   34.09 KCAL/MOL
REMARK 924 INTRA-LIGAND FREE ENERGY PREDICTED BY IDOCK:    3.05 KCAL/MOL
REMARK 927      BINDING AFFINITY PREDICTED BY RF-SCORE:    0.00 PKD
ROOT
HETATM    1  N   UNL     1     -12.587  16.063  71.664  1.00  0.00    -0.545 NA 
HETATM    2  C   UNL     1     -11.186  16.008  71.238  1.00  0.00    -0.220 C  
HETATM    3  H1  UNL     1     -12.988  16.999  71.597  1.00  0.00     0.000 HD 
HETATM    4  C   UNL     2     -12.737  19.195  69.407  1.00  0.00    14.309 C  
HETATM    5  H2  UNL     1     -12.695  15.688  72.607  1.00  0.00     0.000 HD 
HETATM    6  C   UNL     3     -11.595  14.839  68.038  1.00  0.00    -0.343 C  
HETATM    7  N   UNL     2     -11.357  19.064  68.995  1.00  0.00     2.245 N  
HETATM    8  O   UNL     3      -9.287  16.083  69.280  1.00  0.00    -0.241 OA 
HETATM    9  N   UNL     3     -10.219  14.874  67.542  1.00  0.00    -0.233 N  
HETATM   10  O   UNL     2     -10.603  19.552  71.112  1.00  0.00     1.660 OA 
HETATM   11  C   UNL     2     -11.015  18.678  67.722  1.00  0.00    -0.120 A  
HETATM   12  C   UNL     2      -9.717  18.631  67.326  1.00  0.00    -0.302 A  
HETATM   13  C   UNL     3      -9.149  15.422  68.253  1.00  0.00    -0.187 C  
HETATM   14  C   UNL     3     -10.000  14.558  66.230  1.00  0.00    -0.305 A  
HETATM   15  C   UNL     3      -6.755  15.752  68.552  1.00  0.00    -0.119 C  
HETATM   16  C   UNL     2      -8.624  18.920  68.182  1.00  0.00    -0.316 C  
HETATM   17  N   UNL     2      -9.740  18.166  66.045  1.00  0.00    -0.527 NA 
HETATM   18  C   UNL     3      -8.771  14.679  65.669  1.00  0.00     1.391 A  
HETATM   19  C   UNL     2     -11.052  17.895  65.754  1.00  0.00     0.493 A  
HETATM   20  N   UNL     2      -9.017  19.077  69.509  1.00  0.00     0.240 N  
HETATM   21  N   UNL     3      -8.976  14.461  64.340  1.00  0.00     2.845 NA 
HETATM   22  H   UNL     2      -8.939  18.043  65.426  1.00  0.00     0.000 HD 
HETATM   23  C   UNL     3      -7.605  15.024  66.388  1.00  0.00     1.249 C  
HETATM   24  O   UNL     2      -7.470  18.971  67.771  1.00  0.00    -0.241 OA 
HETATM   25  O   UNL     3      -6.514  15.157  65.826  1.00  0.00     4.627 OA 
HETATM   26  N   UNL     3      -7.857  15.277  67.727  1.00  0.00    -0.136 N  
HETATM   27  C   UNL     3     -10.318  14.235  64.168  1.00  0.00     0.917 A  
HETATM   28  H   UNL     3      -8.265  14.467  63.610  1.00  0.00     0.000 HD 
HETATM   29  C   UNL     2     -10.344  19.253  69.943  1.00  0.00     0.835 C  
HETATM   30  N   UNL     2     -11.853  18.247  66.740  1.00  0.00     2.218 NA 
HETATM   31  C   UNL     2      -8.007  18.949  70.542  1.00  0.00     2.593 C  
HETATM   32  N   UNL     3     -10.961  14.251  65.314  1.00  0.00    -0.324 NA 
ENDROOT
BRANCH   2  33
HETATM   33  C   UNL     1     -10.577  14.590  71.340  1.00  0.00     1.708 C  
HETATM   34  H2  UNL     1      -8.751  15.114  70.539  1.00  0.00     0.000 HD 
HETATM   35  N   UNL     1      -9.465  14.397  70.413  1.00  0.00     0.923 NA 
HETATM   36  H1  UNL     1      -9.063  13.462  70.481  1.00  0.00     0.000 HD 
ENDBRANCH   2  33
TORSDOF 1
ENDMDL
MODEL      131
REMARK 921   NORMALIZED FREE ENERGY PREDICTED BY IDOCK:   36.94 KCAL/MOL
REMARK 922        TOTAL FREE ENERGY PREDICTED BY IDOCK:   38.73 KCAL/MOL
REMARK 923 INTER-LIGAND FREE ENERGY PREDICTED BY IDOCK:   37.67 KCAL/MOL
REMARK 924 INTRA-LIGAND FREE ENERGY PREDICTED BY IDOCK:    1.06 KCAL/MOL
REMARK 927      BINDING AFFINITY PREDICTED BY RF-SCORE:    0.00 PKD
ROOT
HETATM    1  N   UNL     1      -7.163  17.753  66.984  1.00  0.00    -0.176 NA 
HETATM    2  C   UNL     1      -8.608  17.538  67.091  1.00  0.00    -0.225 C  
HETATM    3  H1  UNL     1      -6.707  17.859  67.890  1.00  0.00     0.000 HD 
HETATM    4  C   UNL     2      -7.088  16.340  70.579  1.00  0.00     1.568 C  
HETATM    5  H2  UNL     1      -6.957  18.548  66.378  1.00  0.00     0.000 HD 
HETATM    6  C   UNL     3      -8.717  14.125  66.759  1.00  0.00    -0.123 C  
HETATM    7  N   UNL     2      -8.516  16.117  70.608  1.00  0.00     2.468 N  
HETATM    8  O   UNL     3     -10.742  15.963  67.732  1.00  0.00    -0.304 OA 
HETATM    9  N   UNL     3     -10.141  13.862  66.970  1.00  0.00    -0.252 N  
HETATM   10  O   UNL     2      -8.942  18.377  70.570  1.00  0.00     2.819 OA 
HETATM   11  C   UNL     2      -9.052  14.853  70.572  1.00  0.00     1.463 A  
HETATM   12  C   UNL     2     -10.392  14.655  70.674  1.00  0.00     0.757 A  
HETATM   13  C   UNL     3     -11.063  14.837  67.359  1.00  0.00    -0.324 C  
HETATM   14  C   UNL     3     -10.556  12.560  67.006  1.00  0.00    -0.232 A  
HETATM   15  C   UNL     3     -13.366  15.558  67.690  1.00  0.00     4.649 C  
HETATM   16  C   UNL     2     -11.336  15.707  70.777  1.00  0.00    -0.371 C  
HETATM   17  N   UNL     2     -10.575  13.309  70.549  1.00  0.00     1.518 NA 
HETATM   18  C   UNL     3     -11.837  12.234  67.311  1.00  0.00    -0.260 A  
HETATM   19  C   UNL     2      -9.337  12.770  70.313  1.00  0.00     4.784 A  
HETATM   20  N   UNL     2     -10.759  16.959  70.577  1.00  0.00     0.250 N  
HETATM   21  N   UNL     3     -11.828  10.878  67.431  1.00  0.00    -0.428 NA 
HETATM   22  H   UNL     2     -11.459  12.804  70.618  1.00  0.00     0.000 HD 
HETATM   23  C   UNL     3     -12.868  13.181  67.505  1.00  0.00     1.703 C  
HETATM   24  O   UNL     2     -12.528  15.497  70.973  1.00  0.00    -0.372 OA 
HETATM   25  O   UNL     3     -14.012  12.836  67.817  1.00  0.00     7.689 OA 
HETATM   26  N   UNL     3     -12.422  14.488  67.400  1.00  0.00     0.043 N  
HETATM   27  C   UNL     3     -10.542  10.459  67.206  1.00  0.00    -0.267 A  
HETATM   28  H   UNL     3     -12.628  10.284  67.648  1.00  0.00     0.000 HD 
HETATM   29  C   UNL     2      -9.376  17.222  70.587  1.00  0.00     3.883 C  
HETATM   30  N   UNL     2      -8.388  13.683  70.373  1.00  0.00     3.064 NA 
HETATM   31  C   UNL     2     -11.628  18.066  70.228  1.00  0.00     4.613 C  
HETATM   32  N   UNL     3      -9.752  11.465  66.907  1.00  0.00    -0.190 NA 
ENDROOT
BRANCH   2  33
HETATM   33  C   UNL     1      -9.299  17.377  65.717  1.00  0.00     0.182 C  
HETATM   34  H2  UNL     1     -11.153  18.003  66.368  1.00  0.00     0.000 HD 
HETATM   35  N   UNL     1     -10.747  17.231  65.840  1.00  0.00    -0.255 NA 
HETATM   36  H1  UNL     1     -11.204  17.125  64.934  1.00  0.00     0.000 HD 
ENDBRANCH   2  33
TORSDOF 1
ENDMDL
MODEL      132
REMARK 921   NORMALIZED FREE ENERGY PREDICTED BY IDOCK:   39.89 KCAL/MOL
REMARK 922        TOTAL FREE ENERGY PREDICTED BY IDOCK:   41.86 KCAL/MOL
REMARK 923 INTER-LIGAND FREE ENERGY PREDICTED BY IDOCK:   38.90 KCAL/MOL
REMARK 924 INTRA-LIGAND FREE ENERGY PREDICTED BY IDOCK:    2.96 KCAL/MOL
REMARK 927      BINDING AFFINITY PREDICTED BY RF-SCORE:    0.00 PKD
ROOT
HETATM    1  N   UNL     1     -12.853  11.761  70.381  1.00  0.00     0.045 NA 
HETATM    2  C   UNL     1     -12.643  12.032  68.956  1.00  0.00     0.742 C  
HETATM    3  H1  UNL     1     -12.672  10.789  70.633  1.00  0.00     0.000 HD 
HETATM    4  C   UNL     2     -10.422   8.820  69.771  1.00  0.00    -0.219 C  
HETATM    5  H2  UNL     1     -13.789  12.045  70.672  1.00  0.00     0.000 HD 
HETATM    6  C   UNL     3      -9.492  13.382  69.075  1.00  0.00     0.348 C  
HETATM    7  N   UNL     2     -10.228   9.163  68.379  1.00  0.00    -0.194 N  
HETATM    8  O   UNL     3     -10.990  12.358  66.810  1.00  0.00    -0.245 OA 
HETATM    9  N   UNL     3      -9.204  13.565  67.652  1.00  0.00    -0.204 N  
HETATM   10  O   UNL     2     -12.403   8.615  67.868  1.00  0.00     4.327 OA 
HETATM   11  C   UNL     2      -9.045   9.687  67.921  1.00  0.00    -0.125 A  
HETATM   12  C   UNL     2      -8.850   9.935  66.600  1.00  0.00    -0.135 A  
HETATM   13  C   UNL     3     -10.035  13.109  66.625  1.00  0.00    -0.270 C  
HETATM   14  C   UNL     3      -7.960  14.008  67.298  1.00  0.00    -0.137 A  
HETATM   15  C   UNL     3     -10.668  13.074  64.274  1.00  0.00    -0.407 C  
HETATM   16  C   UNL     2      -9.841   9.726  65.608  1.00  0.00    -0.301 C  
HETATM   17  N   UNL     2      -7.609  10.491  66.509  1.00  0.00    -0.121 NA 
HETATM   18  C   UNL     3      -7.583  14.093  65.998  1.00  0.00     3.548 A  
HETATM   19  C   UNL     2      -7.141  10.609  67.792  1.00  0.00    -0.083 A  
HETATM   20  N   UNL     2     -11.084   9.416  66.156  1.00  0.00     0.949 N  
HETATM   21  N   UNL     3      -6.253  14.384  66.044  1.00  0.00     4.648 NA 
HETATM   22  H   UNL     2      -7.124  10.765  65.654  1.00  0.00     0.000 HD 
HETATM   23  C   UNL     3      -8.447  13.849  64.908  1.00  0.00     5.164 C  
HETATM   24  O   UNL     2      -9.605   9.858  64.412  1.00  0.00    -0.294 OA 
HETATM   25  O   UNL     3      -8.046  13.904  63.740  1.00  0.00     9.609 OA 
HETATM   26  N   UNL     3      -9.716  13.463  65.305  1.00  0.00    -0.056 N  
HETATM   27  C   UNL     3      -5.896  14.446  67.366  1.00  0.00     0.324 A  
HETATM   28  H   UNL     3      -5.638  14.528  65.244  1.00  0.00     0.000 HD 
HETATM   29  C   UNL     2     -11.304   9.035  67.493  1.00  0.00     0.968 C  
HETATM   30  N   UNL     2      -7.975  10.080  68.665  1.00  0.00    -0.093 NA 
HETATM   31  C   UNL     2     -12.261   9.595  65.329  1.00  0.00     9.755 C  
HETATM   32  N   UNL     3      -6.930  14.256  68.155  1.00  0.00    -0.113 NA 
ENDROOT
BRANCH   2  33
HETATM   33  C   UNL     1     -12.917  13.506  68.574  1.00  0.00     1.960 C  
HETATM   34  H2  UNL     1     -12.417  13.276  66.587  1.00  0.00     0.000 HD 
HETATM   35  N   UNL     1     -12.205  13.903  67.362  1.00  0.00    -0.491 NA 
HETATM   36  H1  UNL     1     -12.386  14.875  67.109  1.00  0.00     0.000 HD 
ENDBRANCH   2  33
TORSDOF 1
ENDMDL
MODEL      133
REMARK 921   NORMALIZED FREE ENERGY PREDICTED BY IDOCK:   41.50 KCAL/MOL
REMARK 922        TOTAL FREE ENERGY PREDICTED BY IDOCK:   43.56 KCAL/MOL
REMARK 923 INTER-LIGAND FREE ENERGY PREDICTED BY IDOCK:   41.54 KCAL/MOL
REMARK 924 INTRA-LIGAND FREE ENERGY PREDICTED BY IDOCK:    2.02 KCAL/MOL
REMARK 927      BINDING AFFINITY PREDICTED BY RF-SCORE:    0.00 PKD
ROOT
HETATM    1  N   UNL     1      -6.983  15.456  71.252  1.00  0.00     1.355 NA 
HETATM    2  C   UNL     1      -8.156  16.184  70.759  1.00  0.00     3.316 C  
HETATM    3  H1  UNL     1      -7.224  14.696  71.889  1.00  0.00     0.000 HD 
HETATM    4  C   UNL     2      -9.498  12.574  71.799  1.00  0.00    17.595 C  
HETATM    5  H2  UNL     1      -6.314  16.094  71.683  1.00  0.00     0.000 HD 
HETATM    6  C   UNL     3      -8.534  14.678  67.700  1.00  0.00    -0.180 C  
HETATM    7  N   UNL     2     -10.608  13.333  71.265  1.00  0.00     4.676 N  
HETATM    8  O   UNL     3     -10.392  16.324  69.203  1.00  0.00    -0.237 OA 
HETATM    9  N   UNL     3      -9.766  15.306  67.221  1.00  0.00    -0.212 N  
HETATM   10  O   UNL     2     -10.557  14.792  73.042  1.00  0.00     1.719 OA 
HETATM   11  C   UNL     2     -11.171  13.034  70.049  1.00  0.00     0.273 A  
HETATM   12  C   UNL     2     -12.260  13.707  69.594  1.00  0.00    -0.270 A  
HETATM   13  C   UNL     3     -10.556  16.159  67.995  1.00  0.00    -0.304 C  
HETATM   14  C   UNL     3     -10.293  14.869  66.038  1.00  0.00    -0.299 A  
HETATM   15  C   UNL     3     -12.368  17.776  68.182  1.00  0.00     3.993 C  
HETATM   16  C   UNL     2     -12.867  14.781  70.292  1.00  0.00    -0.217 C  
HETATM   17  N   UNL     2     -12.516  13.197  68.356  1.00  0.00     0.165 NA 
HETATM   18  C   UNL     3     -11.490  15.321  65.587  1.00  0.00    -0.123 A  
HETATM   19  C   UNL     2     -11.527  12.283  68.101  1.00  0.00    -0.316 A  
HETATM   20  N   UNL     2     -12.120  15.187  71.396  1.00  0.00    -0.309 N  
HETATM   21  N   UNL     3     -11.767  14.543  64.505  1.00  0.00    -0.537 NA 
HETATM   22  H   UNL     2     -13.292  13.446  67.742  1.00  0.00     0.000 HD 
HETATM   23  C   UNL     3     -12.236  16.342  66.217  1.00  0.00     2.252 C  
HETATM   24  O   UNL     2     -13.910  15.301  69.909  1.00  0.00     0.835 OA 
HETATM   25  O   UNL     3     -13.340  16.694  65.789  1.00  0.00     5.905 OA 
HETATM   26  N   UNL     3     -11.640  16.802  67.380  1.00  0.00     0.475 N  
HETATM   27  C   UNL     3     -10.731  13.655  64.368  1.00  0.00    -0.354 A  
HETATM   28  H   UNL     3     -12.590  14.608  63.908  1.00  0.00     0.000 HD 
HETATM   29  C   UNL     2     -11.064  14.454  71.970  1.00  0.00     1.593 C  
HETATM   30  N   UNL     2     -10.726  12.129  69.136  1.00  0.00    -0.125 NA 
HETATM   31  C   UNL     2     -12.367  16.507  71.942  1.00  0.00     0.272 C  
HETATM   32  N   UNL     3      -9.798  13.858  65.271  1.00  0.00    -0.205 NA 
ENDROOT
BRANCH   2  33
HETATM   33  C   UNL     1      -7.791  17.336  69.793  1.00  0.00     1.012 C  
HETATM   34  H2  UNL     1      -8.646  16.463  68.133  1.00  0.00     0.000 HD 
HETATM   35  N   UNL     1      -7.765  16.901  68.399  1.00  0.00    -0.208 NA 
HETATM   36  H1  UNL     1      -7.524  17.661  67.762  1.00  0.00     0.000 HD 
ENDBRANCH   2  33
TORSDOF 1
ENDMDL
MODEL      134
REMARK 921   NORMALIZED FREE ENERGY PREDICTED BY IDOCK:   42.87 KCAL/MOL
REMARK 922        TOTAL FREE ENERGY PREDICTED BY IDOCK:   45.01 KCAL/MOL
REMARK 923 INTER-LIGAND FREE ENERGY PREDICTED BY IDOCK:   42.73 KCAL/MOL
REMARK 924 INTRA-LIGAND FREE ENERGY PREDICTED BY IDOCK:    2.28 KCAL/MOL
REMARK 927      BINDING AFFINITY PREDICTED BY RF-SCORE:    0.00 PKD
ROOT
HETATM    1  N   UNL     1      -9.357  10.702  74.015  1.00  0.00    12.862 NA 
HETATM    2  C   UNL     1      -8.408  10.203  73.017  1.00  0.00     7.266 C  
HETATM    3  H1  UNL     1      -9.580  11.690  73.895  1.00  0.00     0.000 HD 
HETATM    4  C   UNL     2     -10.144  13.381  71.345  1.00  0.00     7.963 C  
HETATM    5  H2  UNL     1      -9.023  10.516  74.961  1.00  0.00     0.000 HD 
HETATM    6  C   UNL     3     -10.590   8.725  70.821  1.00  0.00    -0.220 C  
HETATM    7  N   UNL     2      -9.217  12.818  70.389  1.00  0.00     5.048 N  
HETATM    8  O   UNL     3      -7.807   9.463  70.461  1.00  0.00    -0.140 OA 
HETATM    9  N   UNL     3      -9.683   8.308  69.751  1.00  0.00    -0.178 N  
HETATM   10  O   UNL     2      -7.412  13.392  71.694  1.00  0.00     4.393 OA 
HETATM   11  C   UNL     2      -9.648  12.167  69.259  1.00  0.00     0.679 A  
HETATM   12  C   UNL     2      -8.767  11.708  68.333  1.00  0.00    -0.158 A  
HETATM   13  C   UNL     3      -8.327   8.643  69.707  1.00  0.00    -0.123 C  
HETATM   14  C   UNL     3     -10.226   7.752  68.627  1.00  0.00    -0.201 A  
HETATM   15  C   UNL     3      -6.105   8.346  68.755  1.00  0.00    -0.044 C  
HETATM   16  C   UNL     2      -7.360  11.813  68.468  1.00  0.00    -0.103 C  
HETATM   17  N   UNL     2      -9.522  11.081  67.387  1.00  0.00    -0.159 NA 
HETATM   18  C   UNL     3      -9.462   7.446  67.549  1.00  0.00    -0.138 A  
HETATM   19  C   UNL     2     -10.820  11.139  67.825  1.00  0.00    -0.239 A  
HETATM   20  N   UNL     2      -6.980  12.268  69.729  1.00  0.00     0.210 N  
HETATM   21  N   UNL     3     -10.354   7.097  66.581  1.00  0.00    -0.473 NA 
HETATM   22  H   UNL     2      -9.187  10.653  66.523  1.00  0.00     0.000 HD 
HETATM   23  C   UNL     3      -8.054   7.563  67.520  1.00  0.00    -0.113 C  
HETATM   24  O   UNL     2      -6.592  11.484  67.570  1.00  0.00    -0.071 OA 
HETATM   25  O   UNL     3      -7.404   7.308  66.501  1.00  0.00    -0.077 OA 
HETATM   26  N   UNL     3      -7.534   8.073  68.699  1.00  0.00    -0.096 N  
HETATM   27  C   UNL     3     -11.608   7.223  67.122  1.00  0.00     1.217 A  
HETATM   28  H   UNL     3     -10.132   6.799  65.632  1.00  0.00     0.000 HD 
HETATM   29  C   UNL     2      -7.845  12.863  70.667  1.00  0.00     5.106 C  
HETATM   30  N   UNL     2     -10.928  11.840  68.936  1.00  0.00    -0.229 NA 
HETATM   31  C   UNL     2      -5.619  12.025  70.163  1.00  0.00    -0.139 C  
HETATM   32  N   UNL     3     -11.556   7.586  68.384  1.00  0.00     0.918 NA 
ENDROOT
BRANCH   2  33
HETATM   33  C   UNL     1      -8.071   8.704  73.198  1.00  0.00     0.117 C  
HETATM   34  H2  UNL     1      -8.867   8.116  71.390  1.00  0.00     0.000 HD 
HETATM   35  N   UNL     1      -8.913   7.844  72.371  1.00  0.00    -0.146 NA 
HETATM   36  H1  UNL     1      -8.691   6.855  72.491  1.00  0.00     0.000 HD 
ENDBRANCH   2  33
TORSDOF 1
ENDMDL
MODEL      135
REMARK 921   NORMALIZED FREE ENERGY PREDICTED BY IDOCK:   48.45 KCAL/MOL
REMARK 922        TOTAL FREE ENERGY PREDICTED BY IDOCK:   50.92 KCAL/MOL
REMARK 923 INTER-LIGAND FREE ENERGY PREDICTED BY IDOCK:   48.80 KCAL/MOL
REMARK 924 INTRA-LIGAND FREE ENERGY PREDICTED BY IDOCK:    2.12 KCAL/MOL
REMARK 927      BINDING AFFINITY PREDICTED BY RF-SCORE:    0.00 PKD
ROOT
HETATM    1  N   UNL     1      -7.492  17.310  64.455  1.00  0.00     5.914 NA 
HETATM    2  C   UNL     1      -8.926  17.052  64.611  1.00  0.00     5.241 C  
HETATM    3  H1  UNL     1      -7.010  17.439  65.345  1.00  0.00     0.000 HD 
HETATM    4  C   UNL     2      -7.256  15.932  68.057  1.00  0.00    -0.132 C  
HETATM    5  H2  UNL     1      -7.331  18.105  63.836  1.00  0.00     0.000 HD 
HETATM    6  C   UNL     3      -8.940  13.634  64.310  1.00  0.00     4.191 C  
HETATM    7  N   UNL     2      -8.675  15.666  68.135  1.00  0.00    -0.166 N  
HETATM    8  O   UNL     3     -10.988  15.418  65.335  1.00  0.00    -0.346 OA 
HETATM    9  N   UNL     3     -10.347  13.329  64.571  1.00  0.00    -0.398 N  
HETATM   10  O   UNL     2      -9.172  17.911  68.092  1.00  0.00    -0.264 OA 
HETATM   11  C   UNL     2      -9.173  14.386  68.126  1.00  0.00    -0.199 A  
HETATM   12  C   UNL     2     -10.502  14.147  68.274  1.00  0.00    -0.249 A  
HETATM   13  C   UNL     3     -11.286  14.279  64.982  1.00  0.00    -0.365 C  
HETATM   14  C   UNL     3     -10.721  12.015  64.631  1.00  0.00    -0.309 A  
HETATM   15  C   UNL     3     -13.598  14.932  65.383  1.00  0.00     1.751 C  
HETATM   16  C   UNL     2     -11.474  15.171  68.400  1.00  0.00    -0.332 C  
HETATM   17  N   UNL     2     -10.646  12.796  68.167  1.00  0.00    -0.222 NA 
HETATM   18  C   UNL     3     -11.980  11.653  64.980  1.00  0.00     0.199 A  
HETATM   19  C   UNL     2      -9.401  12.292  67.894  1.00  0.00    -0.190 A  
HETATM   20  N   UNL     2     -10.943  16.438  68.171  1.00  0.00    -0.347 N  
HETATM   21  N   UNL     3     -11.925  10.299  65.111  1.00  0.00     3.193 NA 
HETATM   22  H   UNL     2     -11.511  12.265  68.269  1.00  0.00     0.000 HD 
HETATM   23  C   UNL     3     -13.033  12.569  65.200  1.00  0.00     0.330 C  
HETATM   24  O   UNL     2     -12.652  14.926  68.637  1.00  0.00     0.121 OA 
HETATM   25  O   UNL     3     -14.155  12.192  65.553  1.00  0.00     4.020 OA 
HETATM   26  N   UNL     3     -12.631  13.889  65.070  1.00  0.00    -0.416 N  
HETATM   27  C   UNL     3     -10.635   9.917  64.847  1.00  0.00     1.037 A  
HETATM   28  H   UNL     3     -12.699   9.683  65.359  1.00  0.00     0.000 HD 
HETATM   29  C   UNL     2      -9.569  16.743  68.134  1.00  0.00    -0.242 C  
HETATM   30  N   UNL     2      -8.479  13.234  67.915  1.00  0.00    -0.164 NA 
HETATM   31  C   UNL     2     -11.856  17.514  67.842  1.00  0.00     1.609 C  
HETATM   32  N   UNL     3      -9.886  10.945  64.514  1.00  0.00    -0.272 NA 
ENDROOT
BRANCH   2  33
HETATM   33  C   UNL     1      -9.657  16.857  63.262  1.00  0.00    15.065 C  
HETATM   34  H2  UNL     1     -10.134  14.879  63.595  1.00  0.00     0.000 HD 
HETATM   35  N   UNL     1      -9.716  15.454  62.863  1.00  0.00    10.742 NA 
HETATM   36  H1  UNL     1     -10.199  15.325  61.973  1.00  0.00     0.000 HD 
ENDBRANCH   2  33
TORSDOF 1
ENDMDL
MODEL      136
REMARK 921   NORMALIZED FREE ENERGY PREDICTED BY IDOCK:   55.33 KCAL/MOL
REMARK 922        TOTAL FREE ENERGY PREDICTED BY IDOCK:   58.20 KCAL/MOL
REMARK 923 INTER-LIGAND FREE ENERGY PREDICTED BY IDOCK:   57.76 KCAL/MOL
REMARK 924 INTRA-LIGAND FREE ENERGY PREDICTED BY IDOCK:    0.44 KCAL/MOL
REMARK 927      BINDING AFFINITY PREDICTED BY RF-SCORE:    0.00 PKD
ROOT
HETATM    1  N   UNL     1      -9.606  13.106  70.746  1.00  0.00     5.550 NA 
HETATM    2  C   UNL     1      -8.564  12.140  71.102  1.00  0.00    11.389 C  
HETATM    3  H1  UNL     1      -9.863  13.071  69.759  1.00  0.00     0.000 HD 
HETATM    4  C   UNL     2     -10.312  10.671  67.831  1.00  0.00    -0.199 C  
HETATM    5  H2  UNL     1      -9.334  14.051  71.018  1.00  0.00     0.000 HD 
HETATM    6  C   UNL     3     -10.510   9.640  72.419  1.00  0.00     2.079 C  
HETATM    7  N   UNL     2      -9.292   9.737  68.256  1.00  0.00    -0.129 N  
HETATM    8  O   UNL     3      -7.743   9.576  71.546  1.00  0.00    -0.266 OA 
HETATM    9  N   UNL     3      -9.509   8.608  72.687  1.00  0.00    -0.213 N  
HETATM   10  O   UNL     2      -7.616  11.231  67.756  1.00  0.00    -0.098 OA 
HETATM   11  C   UNL     2      -9.609   8.517  68.799  1.00  0.00    -0.149 A  
HETATM   12  C   UNL     2      -8.643   7.620  69.126  1.00  0.00    -0.139 A  
HETATM   13  C   UNL     3      -8.170   8.704  72.300  1.00  0.00    -0.039 C  
HETATM   14  C   UNL     3      -9.942   7.393  73.142  1.00  0.00    -0.268 A  
HETATM   15  C   UNL     3      -5.872   7.903  72.413  1.00  0.00    -0.041 C  
HETATM   16  C   UNL     2      -7.255   7.875  68.985  1.00  0.00    -0.075 C  
HETATM   17  N   UNL     2      -9.297   6.559  69.677  1.00  0.00    -0.143 NA 
HETATM   18  C   UNL     3      -9.087   6.353  73.304  1.00  0.00    -0.128 A  
HETATM   19  C   UNL     2     -10.625   6.898  69.713  1.00  0.00    -0.233 A  
HETATM   20  N   UNL     2      -6.991   9.202  68.651  1.00  0.00    -0.062 N  
HETATM   21  N   UNL     3      -9.889   5.288  73.581  1.00  0.00    -0.155 NA 
HETATM   22  H   UNL     2      -8.880   5.685  69.999  1.00  0.00     0.000 HD 
HETATM   23  C   UNL     3      -7.688   6.447  73.133  1.00  0.00    -0.098 C  
HETATM   24  O   UNL     2      -6.409   7.011  69.188  1.00  0.00    -0.033 OA 
HETATM   25  O   UNL     3      -6.954   5.461  73.256  1.00  0.00    -0.077 OA 
HETATM   26  N   UNL     3      -7.280   7.708  72.732  1.00  0.00    -0.072 N  
HETATM   27  C   UNL     3     -11.184   5.739  73.560  1.00  0.00     0.046 A  
HETATM   28  H   UNL     3      -9.584   4.334  73.770  1.00  0.00     0.000 HD 
HETATM   29  C   UNL     2      -7.949  10.125  68.190  1.00  0.00    -0.104 C  
HETATM   30  N   UNL     2     -10.847   8.063  69.138  1.00  0.00    -0.095 NA 
HETATM   31  C   UNL     2      -5.656   9.714  68.889  1.00  0.00    -0.036 C  
HETATM   32  N   UNL     3     -11.242   7.032  73.330  1.00  0.00    -0.170 NA 
ENDROOT
BRANCH   2  33
HETATM   33  C   UNL     1      -8.175  12.193  72.598  1.00  0.00    20.671 C  
HETATM   34  H2  UNL     1      -9.786  11.081  73.247  1.00  0.00     0.000 HD 
HETATM   35  N   UNL     1      -9.319  11.959  73.475  1.00  0.00    21.046 NA 
HETATM   36  H1  UNL     1      -9.062  11.993  74.462  1.00  0.00     0.000 HD 
ENDBRANCH   2  33
TORSDOF 1
ENDMDL
MODEL      137
REMARK 921   NORMALIZED FREE ENERGY PREDICTED BY IDOCK:   55.72 KCAL/MOL
REMARK 922        TOTAL FREE ENERGY PREDICTED BY IDOCK:   58.61 KCAL/MOL
REMARK 923 INTER-LIGAND FREE ENERGY PREDICTED BY IDOCK:   58.76 KCAL/MOL
REMARK 924 INTRA-LIGAND FREE ENERGY PREDICTED BY IDOCK:   -0.15 KCAL/MOL
REMARK 927      BINDING AFFINITY PREDICTED BY RF-SCORE:    0.00 PKD
ROOT
HETATM    1  N   UNL     1     -11.724  16.092  71.532  1.00  0.00    -0.547 NA 
HETATM    2  C   UNL     1     -10.662  16.955  71.008  1.00  0.00     1.133 C  
HETATM    3  H1  UNL     1     -12.636  16.283  71.116  1.00  0.00     0.000 HD 
HETATM    4  C   UNL     2     -13.474  16.883  68.180  1.00  0.00     6.552 C  
HETATM    5  H2  UNL     1     -11.770  16.149  72.550  1.00  0.00     0.000 HD 
HETATM    6  C   UNL     3      -9.270  14.832  68.700  1.00  0.00    -0.194 C  
HETATM    7  N   UNL     2     -12.375  17.694  67.704  1.00  0.00     3.049 N  
HETATM    8  O   UNL     3      -8.974  17.704  69.000  1.00  0.00    -0.170 OA 
HETATM    9  N   UNL     3      -8.271  15.701  68.078  1.00  0.00    -0.142 N  
HETATM   10  O   UNL     2     -12.778  19.303  69.298  1.00  0.00     9.925 OA 
HETATM   11  C   UNL     2     -11.550  17.271  66.692  1.00  0.00     1.556 A  
HETATM   12  C   UNL     2     -10.567  18.073  66.204  1.00  0.00    -0.261 A  
HETATM   13  C   UNL     3      -8.148  17.066  68.351  1.00  0.00    -0.245 C  
HETATM   14  C   UNL     3      -7.564  15.211  67.015  1.00  0.00    -0.086 A  
HETATM   15  C   UNL     3      -6.899  19.151  68.191  1.00  0.00    -0.248 C  
HETATM   16  C   UNL     2     -10.283  19.364  66.715  1.00  0.00    -0.420 C  
HETATM   17  N   UNL     2      -9.920  17.330  65.262  1.00  0.00    -0.207 NA 
HETATM   18  C   UNL     3      -6.705  15.993  66.315  1.00  0.00     1.344 A  
HETATM   19  C   UNL     2     -10.507  16.091  65.274  1.00  0.00    -0.358 A  
HETATM   20  N   UNL     2     -10.993  19.642  67.881  1.00  0.00    -0.152 N  
HETATM   21  N   UNL     3      -6.341  15.233  65.246  1.00  0.00     8.757 NA 
HETATM   22  H   UNL     2      -9.151  17.636  64.666  1.00  0.00     0.000 HD 
HETATM   23  C   UNL     3      -6.377  17.320  66.672  1.00  0.00    -0.213 C  
HETATM   24  O   UNL     2      -9.461  20.107  66.188  1.00  0.00    -0.372 OA 
HETATM   25  O   UNL     3      -5.616  18.006  65.981  1.00  0.00    -0.161 OA 
HETATM   26  N   UNL     3      -7.066  17.761  67.789  1.00  0.00    -0.192 N  
HETATM   27  C   UNL     3      -7.009  14.040  65.349  1.00  0.00    10.414 A  
HETATM   28  H   UNL     3      -5.693  15.502  64.505  1.00  0.00     0.000 HD 
HETATM   29  C   UNL     2     -12.095  18.904  68.350  1.00  0.00     4.416 C  
HETATM   30  N   UNL     2     -11.534  16.046  66.099  1.00  0.00     0.312 NA 
HETATM   31  C   UNL     2     -10.510  20.706  68.739  1.00  0.00     0.430 C  
HETATM   32  N   UNL     3      -7.735  13.987  66.442  1.00  0.00     1.088 NA 
ENDROOT
BRANCH   2  33
HETATM   33  C   UNL     1      -9.280  16.666  71.640  1.00  0.00     7.935 C  
HETATM   34  H2  UNL     1      -9.659  14.672  72.007  1.00  0.00     0.000 HD 
HETATM   35  N   UNL     1      -9.303  15.488  72.504  1.00  0.00     5.816 NA 
HETATM   36  H1  UNL     1      -8.391  15.297  72.920  1.00  0.00     0.000 HD 
ENDBRANCH   2  33
TORSDOF 1
ENDMDL
MODEL      138
REMARK 921   NORMALIZED FREE ENERGY PREDICTED BY IDOCK:   57.61 KCAL/MOL
REMARK 922        TOTAL FREE ENERGY PREDICTED BY IDOCK:   60.61 KCAL/MOL
REMARK 923 INTER-LIGAND FREE ENERGY PREDICTED BY IDOCK:   60.74 KCAL/MOL
REMARK 924 INTRA-LIGAND FREE ENERGY PREDICTED BY IDOCK:   -0.13 KCAL/MOL
REMARK 927      BINDING AFFINITY PREDICTED BY RF-SCORE:    0.00 PKD
ROOT
HETATM    1  N   UNL     1      -9.457  10.816  74.225  1.00  0.00    14.331 NA 
HETATM    2  C   UNL     1      -8.480  11.061  73.160  1.00  0.00    16.336 C  
HETATM    3  H1  UNL     1      -9.924  11.666  74.541  1.00  0.00     0.000 HD 
HETATM    4  C   UNL     2     -11.055  14.102  72.969  1.00  0.00     3.073 C  
HETATM    5  H2  UNL     1      -9.025  10.325  75.008  1.00  0.00     0.000 HD 
HETATM    6  C   UNL     3     -10.368  10.200  70.427  1.00  0.00    -0.114 C  
HETATM    7  N   UNL     2     -10.082  14.267  71.912  1.00  0.00     4.326 N  
HETATM    8  O   UNL     3      -7.884  11.693  70.574  1.00  0.00     2.067 OA 
HETATM    9  N   UNL     3      -9.458  10.537  69.332  1.00  0.00    -0.179 N  
HETATM   10  O   UNL     2      -8.394  14.643  73.429  1.00  0.00     6.050 OA 
HETATM   11  C   UNL     2     -10.411  14.093  70.591  1.00  0.00     1.554 A  
HETATM   12  C   UNL     2      -9.507  14.323  69.604  1.00  0.00     0.655 A  
HETATM   13  C   UNL     3      -8.233  11.185  69.510  1.00  0.00     0.346 C  
HETATM   14  C   UNL     3      -9.919  10.413  68.051  1.00  0.00    -0.155 A  
HETATM   15  C   UNL     3      -6.074  11.904  68.642  1.00  0.00    -0.052 C  
HETATM   16  C   UNL     2      -8.163  14.707  69.845  1.00  0.00     0.483 C  
HETATM   17  N   UNL     2     -10.143  14.007  68.441  1.00  0.00    -0.232 NA 
HETATM   18  C   UNL     3      -9.175  10.814  66.990  1.00  0.00    -0.152 A  
HETATM   19  C   UNL     2     -11.383  13.540  68.792  1.00  0.00    -0.290 A  
HETATM   20  N   UNL     2      -7.827  14.642  71.195  1.00  0.00     2.323 N  
HETATM   21  N   UNL     3     -10.014  10.713  65.923  1.00  0.00    -0.243 NA 
HETATM   22  H   UNL     2      -9.770  14.100  67.496  1.00  0.00     0.000 HD 
HETATM   23  C   UNL     3      -7.845  11.280  67.089  1.00  0.00    -0.151 C  
HETATM   24  O   UNL     2      -7.399  15.009  68.935  1.00  0.00    -0.119 OA 
HETATM   25  O   UNL     3      -7.220  11.669  66.097  1.00  0.00     0.126 OA 
HETATM   26  N   UNL     3      -7.391  11.334  68.397  1.00  0.00    -0.090 N  
HETATM   27  C   UNL     3     -11.222  10.270  66.397  1.00  0.00     0.505 A  
HETATM   28  H   UNL     3      -9.788  10.926  64.952  1.00  0.00     0.000 HD 
HETATM   29  C   UNL     2      -8.749  14.528  72.253  1.00  0.00     7.516 C  
HETATM   30  N   UNL     2     -11.589  13.630  70.091  1.00  0.00    -0.195 NA 
HETATM   31  C   UNL     2      -6.422  14.583  71.549  1.00  0.00     0.673 C  
HETATM   32  N   UNL     3     -11.179  10.043  67.691  1.00  0.00    -0.186 NA 
ENDROOT
BRANCH   2  33
HETATM   33  C   UNL     1      -7.772   9.772  72.680  1.00  0.00     2.916 C  
HETATM   34  H2  UNL     1      -9.182   8.486  73.459  1.00  0.00     0.000 HD 
HETATM   35  N   UNL     1      -8.169   8.601  73.458  1.00  0.00    -0.385 NA 
HETATM   36  H1  UNL     1      -7.702   7.751  73.141  1.00  0.00     0.000 HD 
ENDBRANCH   2  33
TORSDOF 1
ENDMDL
MODEL      139
REMARK 921   NORMALIZED FREE ENERGY PREDICTED BY IDOCK:   64.98 KCAL/MOL
REMARK 922        TOTAL FREE ENERGY PREDICTED BY IDOCK:   68.42 KCAL/MOL
REMARK 923 INTER-LIGAND FREE ENERGY PREDICTED BY IDOCK:   65.13 KCAL/MOL
REMARK 924 INTRA-LIGAND FREE ENERGY PREDICTED BY IDOCK:    3.29 KCAL/MOL
REMARK 927      BINDING AFFINITY PREDICTED BY RF-SCORE:    0.00 PKD
ROOT
HETATM    1  N   UNL     1     -12.925  15.788  71.773  1.00  0.00    -0.459 NA 
HETATM    2  C   UNL     1     -11.480  15.876  71.552  1.00  0.00    -0.410 C  
HETATM    3  H1  UNL     1     -13.285  16.540  72.362  1.00  0.00     0.000 HD 
HETATM    4  C   UNL     2     -12.653  19.586  72.433  1.00  0.00    18.771 C  
HETATM    5  H2  UNL     1     -13.181  14.876  72.151  1.00  0.00     0.000 HD 
HETATM    6  C   UNL     3     -11.451  17.364  68.461  1.00  0.00     0.756 C  
HETATM    7  N   UNL     2     -11.232  19.612  72.165  1.00  0.00     6.075 N  
HETATM    8  O   UNL     3      -9.313  17.071  70.402  1.00  0.00     1.866 OA 
HETATM    9  N   UNL     3     -10.017  17.567  68.254  1.00  0.00    -0.310 N  
HETATM   10  O   UNL     2     -10.782  18.367  74.046  1.00  0.00     1.628 OA 
HETATM   11  C   UNL     2     -10.719  20.197  71.034  1.00  0.00     3.237 A  
HETATM   12  C   UNL     2      -9.379  20.281  70.831  1.00  0.00     1.879 A  
HETATM   13  C   UNL     3      -9.046  17.316  69.227  1.00  0.00     0.147 C  
HETATM   14  C   UNL     3      -9.617  18.244  67.134  1.00  0.00    -0.281 A  
HETATM   15  C   UNL     3      -6.713  17.037  69.865  1.00  0.00     0.237 C  
HETATM   16  C   UNL     2      -8.415  19.744  71.721  1.00  0.00     3.327 C  
HETATM   17  N   UNL     2      -9.228  20.862  69.607  1.00  0.00     1.911 NA 
HETATM   18  C   UNL     3      -8.317  18.570  66.931  1.00  0.00    -0.263 A  
HETATM   19  C   UNL     2     -10.491  21.042  69.104  1.00  0.00     1.018 A  
HETATM   20  N   UNL     2      -8.993  18.967  72.723  1.00  0.00     6.903 N  
HETATM   21  N   UNL     3      -8.332  19.380  65.837  1.00  0.00    -0.437 NA 
HETATM   22  H   UNL     2      -8.349  21.113  69.155  1.00  0.00     0.000 HD 
HETATM   23  C   UNL     3      -7.259  18.159  67.773  1.00  0.00    -0.213 C  
HETATM   24  O   UNL     2      -7.212  19.925  71.566  1.00  0.00     0.728 OA 
HETATM   25  O   UNL     3      -6.094  18.513  67.567  1.00  0.00    -0.172 OA 
HETATM   26  N   UNL     3      -7.696  17.424  68.863  1.00  0.00    -0.242 N  
HETATM   27  C   UNL     3      -9.639  19.510  65.446  1.00  0.00     0.801 A  
HETATM   28  H   UNL     3      -7.522  19.810  65.391  1.00  0.00     0.000 HD 
HETATM   29  C   UNL     2     -10.364  18.950  73.042  1.00  0.00     3.813 C  
HETATM   30  N   UNL     2     -11.416  20.692  69.975  1.00  0.00     2.768 NA 
HETATM   31  C   UNL     2      -8.149  18.025  73.431  1.00  0.00    12.969 C  
HETATM   32  N   UNL     3     -10.443  18.795  66.201  1.00  0.00    -0.456 NA 
ENDROOT
BRANCH   2  33
HETATM   33  C   UNL     1     -10.934  14.737  70.659  1.00  0.00     0.009 C  
HETATM   34  H2  UNL     1      -9.032  15.519  70.504  1.00  0.00     0.000 HD 
HETATM   35  N   UNL     1      -9.760  15.149  69.893  1.00  0.00    -0.471 NA 
HETATM   36  H1  UNL     1      -9.400  14.398  69.304  1.00  0.00     0.000 HD 
ENDBRANCH   2  33
TORSDOF 1
ENDMDL
MODEL      140
REMARK 921   NORMALIZED FREE ENERGY PREDICTED BY IDOCK:   67.58 KCAL/MOL
REMARK 922        TOTAL FREE ENERGY PREDICTED BY IDOCK:   71.16 KCAL/MOL
REMARK 923 INTER-LIGAND FREE ENERGY PREDICTED BY IDOCK:   71.27 KCAL/MOL
REMARK 924 INTRA-LIGAND FREE ENERGY PREDICTED BY IDOCK:   -0.11 KCAL/MOL
REMARK 927      BINDING AFFINITY PREDICTED BY RF-SCORE:    0.00 PKD
ROOT
HETATM    1  N   UNL     1     -10.209  12.914  73.960  1.00  0.00    13.222 NA 
HETATM    2  C   UNL     1     -10.058  12.522  72.556  1.00  0.00    17.839 C  
HETATM    3  H1  UNL     1     -11.183  12.953  74.261  1.00  0.00     0.000 HD 
HETATM    4  C   UNL     2     -13.590  11.062  73.699  1.00  0.00     7.040 C  
HETATM    5  H2  UNL     1      -9.736  13.799  74.144  1.00  0.00     0.000 HD 
HETATM    6  C   UNL     3      -9.335   9.192  72.953  1.00  0.00     1.511 C  
HETATM    7  N   UNL     2     -13.364  10.675  72.324  1.00  0.00    -0.267 N  
HETATM    8  O   UNL     3     -10.168  10.643  70.582  1.00  0.00     0.504 OA 
HETATM    9  N   UNL     3      -9.284   8.742  71.562  1.00  0.00    -0.243 N  
HETATM   10  O   UNL     2     -13.509  12.857  71.611  1.00  0.00    -0.336 OA 
HETATM   11  C   UNL     2     -13.102   9.374  71.973  1.00  0.00    -0.433 A  
HETATM   12  C   UNL     2     -12.965   9.011  70.671  1.00  0.00     0.390 A  
HETATM   13  C   UNL     3      -9.626   9.545  70.471  1.00  0.00    -0.251 C  
HETATM   14  C   UNL     3      -9.109   7.407  71.323  1.00  0.00    -0.142 A  
HETATM   15  C   UNL     3      -9.661   9.948  68.069  1.00  0.00    -0.138 C  
HETATM   16  C   UNL     2     -13.031   9.925  69.590  1.00  0.00     1.266 C  
HETATM   17  N   UNL     2     -12.664   7.681  70.690  1.00  0.00    -0.467 NA 
HETATM   18  C   UNL     3      -9.165   6.899  70.067  1.00  0.00    -0.155 A  
HETATM   19  C   UNL     2     -12.571   7.323  72.010  1.00  0.00    -0.220 A  
HETATM   20  N   UNL     2     -13.067  11.251  70.018  1.00  0.00     0.272 N  
HETATM   21  N   UNL     3      -9.134   5.549  70.239  1.00  0.00    -0.136 NA 
HETATM   22  H   UNL     2     -12.533   7.074  69.881  1.00  0.00     0.000 HD 
HETATM   23  C   UNL     3      -9.295   7.688  68.902  1.00  0.00    -0.145 C  
HETATM   24  O   UNL     2     -13.009   9.556  68.421  1.00  0.00     4.707 OA 
HETATM   25  O   UNL     3      -9.379   7.177  67.781  1.00  0.00    -0.128 OA 
HETATM   26  N   UNL     3      -9.409   9.040  69.180  1.00  0.00    -0.147 N  
HETATM   27  C   UNL     3      -9.073   5.313  71.589  1.00  0.00    -0.138 A  
HETATM   28  H   UNL     3      -9.152   4.845  69.503  1.00  0.00     0.000 HD 
HETATM   29  C   UNL     2     -13.328  11.667  71.337  1.00  0.00     0.064 C  
HETATM   30  N   UNL     2     -12.884   8.323  72.810  1.00  0.00    -0.064 NA 
HETATM   31  C   UNL     2     -12.708  12.286  69.069  1.00  0.00     1.108 C  
HETATM   32  N   UNL     3      -9.019   6.434  72.273  1.00  0.00    -0.139 NA 
ENDROOT
BRANCH   2  33
HETATM   33  C   UNL     1      -8.581  12.464  72.100  1.00  0.00    20.546 C  
HETATM   34  H2  UNL     1      -8.188  14.449  72.491  1.00  0.00     0.000 HD 
HETATM   35  N   UNL     1      -8.063  13.779  71.733  1.00  0.00     6.356 NA 
HETATM   36  H1  UNL     1      -7.089  13.740  71.432  1.00  0.00     0.000 HD 
ENDBRANCH   2  33
TORSDOF 1
ENDMDL
MODEL      141
REMARK 921   NORMALIZED FREE ENERGY PREDICTED BY IDOCK:   73.68 KCAL/MOL
REMARK 922        TOTAL FREE ENERGY PREDICTED BY IDOCK:   77.62 KCAL/MOL
REMARK 923 INTER-LIGAND FREE ENERGY PREDICTED BY IDOCK:   76.67 KCAL/MOL
REMARK 924 INTRA-LIGAND FREE ENERGY PREDICTED BY IDOCK:    0.95 KCAL/MOL
REMARK 927      BINDING AFFINITY PREDICTED BY RF-SCORE:    0.00 PKD
ROOT
HETATM    1  N   UNL     1     -12.335  15.271  68.858  1.00  0.00    -0.604 NA 
HETATM    2  C   UNL     1     -12.771  13.991  69.424  1.00  0.00     0.357 C  
HETATM    3  H1  UNL     1     -11.561  15.692  69.373  1.00  0.00     0.000 HD 
HETATM    4  C   UNL     2      -8.988  14.449  70.605  1.00  0.00     2.836 C  
HETATM    5  H2  UNL     1     -13.118  15.920  68.782  1.00  0.00     0.000 HD 
HETATM    6  C   UNL     3     -11.124  11.833  67.326  1.00  0.00    -0.287 C  
HETATM    7  N   UNL     2      -9.466  13.178  71.103  1.00  0.00     9.366 N  
HETATM    8  O   UNL     3     -12.366  11.336  69.901  1.00  0.00    -0.284 OA 
HETATM    9  N   UNL     3     -11.450  10.541  67.930  1.00  0.00    -0.232 N  
HETATM   10  O   UNL     2     -10.956  14.213  72.518  1.00  0.00     2.210 OA 
HETATM   11  C   UNL     2      -9.013  11.985  70.597  1.00  0.00     7.114 A  
HETATM   12  C   UNL     2      -9.415  10.799  71.124  1.00  0.00     4.549 A  
HETATM   13  C   UNL     3     -12.132  10.398  69.141  1.00  0.00     0.119 C  
HETATM   14  C   UNL     3     -10.871   9.420  67.403  1.00  0.00    -0.119 A  
HETATM   15  C   UNL     3     -13.315   9.005  70.751  1.00  0.00     0.314 C  
HETATM   16  C   UNL     2     -10.350  10.688  72.184  1.00  0.00     6.725 C  
HETATM   17  N   UNL     2      -8.823   9.838  70.361  1.00  0.00    -0.327 NA 
HETATM   18  C   UNL     3     -11.034   8.203  67.979  1.00  0.00     0.192 A  
HETATM   19  C   UNL     2      -8.142  10.495  69.369  1.00  0.00    -0.128 A  
HETATM   20  N   UNL     2     -10.945  11.909  72.497  1.00  0.00     9.487 N  
HETATM   21  N   UNL     3     -10.181   7.385  67.303  1.00  0.00    -0.231 NA 
HETATM   22  H   UNL     2      -8.876   8.829  70.500  1.00  0.00     0.000 HD 
HETATM   23  C   UNL     3     -11.884   7.958  69.081  1.00  0.00     1.469 C  
HETATM   24  O   UNL     2     -10.616   9.612  72.709  1.00  0.00     1.993 OA 
HETATM   25  O   UNL     3     -11.971   6.838  69.594  1.00  0.00    -0.128 OA 
HETATM   26  N   UNL     3     -12.500   9.107  69.548  1.00  0.00     1.566 N  
HETATM   27  C   UNL     3      -9.539   8.153  66.366  1.00  0.00    -0.216 A  
HETATM   28  H   UNL     3     -10.044   6.388  67.464  1.00  0.00     0.000 HD 
HETATM   29  C   UNL     2     -10.481  13.167  72.068  1.00  0.00     9.685 C  
HETATM   30  N   UNL     2      -8.200  11.803  69.521  1.00  0.00     0.674 NA 
HETATM   31  C   UNL     2     -12.194  11.893  73.232  1.00  0.00     7.575 C  
HETATM   32  N   UNL     3      -9.970   9.395  66.382  1.00  0.00    -0.265 NA 
ENDROOT
BRANCH   2  33
HETATM   33  C   UNL     1     -13.944  13.353  68.644  1.00  0.00     9.153 C  
HETATM   34  H2  UNL     1     -12.749  12.185  67.436  1.00  0.00     0.000 HD 
HETATM   35  N   UNL     1     -13.527  12.837  67.343  1.00  0.00     4.110 NA 
HETATM   36  H1  UNL     1     -14.301  12.416  66.828  1.00  0.00     0.000 HD 
ENDBRANCH   2  33
TORSDOF 1
ENDMDL
MODEL      142
REMARK 921   NORMALIZED FREE ENERGY PREDICTED BY IDOCK:   76.07 KCAL/MOL
REMARK 922        TOTAL FREE ENERGY PREDICTED BY IDOCK:   80.15 KCAL/MOL
REMARK 923 INTER-LIGAND FREE ENERGY PREDICTED BY IDOCK:   77.34 KCAL/MOL
REMARK 924 INTRA-LIGAND FREE ENERGY PREDICTED BY IDOCK:    2.81 KCAL/MOL
REMARK 927      BINDING AFFINITY PREDICTED BY RF-SCORE:    0.00 PKD
ROOT
HETATM    1  N   UNL     1      -6.555   9.756  67.203  1.00  0.00    -0.070 NA 
HETATM    2  C   UNL     1      -7.455   9.056  68.124  1.00  0.00    -0.084 C  
HETATM    3  H1  UNL     1      -5.859   9.141  66.782  1.00  0.00     0.000 HD 
HETATM    4  C   UNL     2      -6.080   6.255  65.640  1.00  0.00    -0.030 C  
HETATM    5  H2  UNL     1      -6.109  10.550  67.663  1.00  0.00     0.000 HD 
HETATM    6  C   UNL     3     -10.152   8.579  66.057  1.00  0.00     0.168 C  
HETATM    7  N   UNL     2      -7.008   5.630  66.556  1.00  0.00    -0.063 N  
HETATM    8  O   UNL     3      -9.508   7.321  68.592  1.00  0.00    -0.139 OA 
HETATM    9  N   UNL     3     -11.032   7.784  66.914  1.00  0.00    -0.051 N  
HETATM   10  O   UNL     2      -5.600   5.986  68.339  1.00  0.00    -0.010 OA 
HETATM   11  C   UNL     2      -8.241   5.185  66.146  1.00  0.00    -0.109 A  
HETATM   12  C   UNL     2      -9.073   4.534  67.000  1.00  0.00    -0.125 A  
HETATM   13  C   UNL     3     -10.661   7.289  68.166  1.00  0.00    -0.177 C  
HETATM   14  C   UNL     3     -12.198   7.312  66.376  1.00  0.00     6.610 A  
HETATM   15  C   UNL     3     -11.249   6.260  70.294  1.00  0.00    -0.388 C  
HETATM   16  C   UNL     2      -8.773   4.304  68.366  1.00  0.00    -0.098 C  
HETATM   17  N   UNL     2     -10.209   4.286  66.288  1.00  0.00    -0.402 NA 
HETATM   18  C   UNL     3     -13.008   6.475  67.071  1.00  0.00    10.943 A  
HETATM   19  C   UNL     2     -10.028   4.859  65.055  1.00  0.00     0.163 A  
HETATM   20  N   UNL     2      -7.623   4.975  68.777  1.00  0.00    -0.076 N  
HETATM   21  N   UNL     3     -13.948   6.079  66.168  1.00  0.00    11.379 NA 
HETATM   22  H   UNL     2     -11.031   3.775  66.609  1.00  0.00     0.000 HD 
HETATM   23  C   UNL     3     -12.796   6.107  68.418  1.00  0.00     9.125 C  
HETATM   24  O   UNL     2      -9.495   3.623  69.086  1.00  0.00    -0.168 OA 
HETATM   25  O   UNL     3     -13.543   5.312  68.997  1.00  0.00    14.454 OA 
HETATM   26  N   UNL     3     -11.638   6.654  68.947  1.00  0.00    -0.019 N  
HETATM   27  C   UNL     3     -13.648   6.687  64.976  1.00  0.00    12.562 A  
HETATM   28  H   UNL     3     -14.729   5.448  66.346  1.00  0.00     0.000 HD 
HETATM   29  C   UNL     2      -6.674   5.555  67.914  1.00  0.00    -0.055 C  
HETATM   30  N   UNL     2      -8.818   5.367  64.927  1.00  0.00    -0.102 NA 
HETATM   31  C   UNL     2      -7.428   5.191  70.197  1.00  0.00    -0.063 C  
HETATM   32  N   UNL     3     -12.603   7.476  65.086  1.00  0.00    14.461 NA 
ENDROOT
BRANCH   2  33
HETATM   33  C   UNL     1      -8.511   9.989  68.763  1.00  0.00    -0.126 C  
HETATM   34  H2  UNL     1      -9.400   8.512  69.896  1.00  0.00     0.000 HD 
HETATM   35  N   UNL     1      -9.675   9.253  69.251  1.00  0.00    -0.165 NA 
HETATM   36  H1  UNL     1     -10.372   9.868  69.673  1.00  0.00     0.000 HD 
ENDBRANCH   2  33
TORSDOF 1
ENDMDL
MODEL      143
REMARK 921   NORMALIZED FREE ENERGY PREDICTED BY IDOCK:   96.03 KCAL/MOL
REMARK 922        TOTAL FREE ENERGY PREDICTED BY IDOCK:  101.28 KCAL/MOL
REMARK 923 INTER-LIGAND FREE ENERGY PREDICTED BY IDOCK:  101.53 KCAL/MOL
REMARK 924 INTRA-LIGAND FREE ENERGY PREDICTED BY IDOCK:   -0.25 KCAL/MOL
REMARK 927      BINDING AFFINITY PREDICTED BY RF-SCORE:    0.00 PKD
ROOT
HETATM    1  N   UNL     1     -12.592  21.003  71.113  1.00  0.00    11.831 NA 
HETATM    2  C   UNL     1     -11.884  20.029  70.278  1.00  0.00     7.858 C  
HETATM    3  H1  UNL     1     -13.198  20.567  71.808  1.00  0.00     0.000 HD 
HETATM    4  C   UNL     2     -12.776  18.095  73.651  1.00  0.00     4.879 C  
HETATM    5  H2  UNL     1     -13.114  21.665  70.538  1.00  0.00     0.000 HD 
HETATM    6  C   UNL     3      -8.848  19.986  71.876  1.00  0.00     2.814 C  
HETATM    7  N   UNL     2     -12.039  17.193  72.794  1.00  0.00     0.542 N  
HETATM    8  O   UNL     3      -9.962  18.120  69.952  1.00  0.00     0.408 OA 
HETATM    9  N   UNL     3      -8.147  18.939  71.131  1.00  0.00     4.484 N  
HETATM   10  O   UNL     2     -13.757  17.126  71.266  1.00  0.00     6.452 OA 
HETATM   11  C   UNL     2     -10.753  16.809  73.083  1.00  0.00     4.177 A  
HETATM   12  C   UNL     2     -10.099  15.904  72.310  1.00  0.00     4.127 A  
HETATM   13  C   UNL     3      -8.750  18.142  70.155  1.00  0.00     2.504 C  
HETATM   14  C   UNL     3      -6.903  18.567  71.560  1.00  0.00     3.506 A  
HETATM   15  C   UNL     3      -8.577  16.539  68.329  1.00  0.00    -0.200 C  
HETATM   16  C   UNL     2     -10.651  15.326  71.139  1.00  0.00     0.233 C  
HETATM   17  N   UNL     2      -8.850  15.797  72.846  1.00  0.00    10.355 NA 
HETATM   18  C   UNL     3      -6.240  17.529  70.993  1.00  0.00     1.460 A  
HETATM   19  C   UNL     2      -8.793  16.694  73.881  1.00  0.00    18.996 A  
HETATM   20  N   UNL     2     -11.855  15.922  70.771  1.00  0.00    -0.387 N  
HETATM   21  N   UNL     3      -5.149  17.343  71.785  1.00  0.00    -0.351 NA 
HETATM   22  H   UNL     2      -8.104  15.173  72.537  1.00  0.00     0.000 HD 
HETATM   23  C   UNL     3      -6.705  16.819  69.863  1.00  0.00     0.182 C  
HETATM   24  O   UNL     2     -10.080  14.435  70.520  1.00  0.00     0.862 OA 
HETATM   25  O   UNL     3      -6.083  15.855  69.405  1.00  0.00    -0.126 OA 
HETATM   26  N   UNL     3      -7.939  17.264  69.420  1.00  0.00     0.135 N  
HETATM   27  C   UNL     3      -5.217  18.269  72.794  1.00  0.00     3.366 A  
HETATM   28  H   UNL     3      -4.417  16.645  71.653  1.00  0.00     0.000 HD 
HETATM   29  C   UNL     2     -12.623  16.768  71.594  1.00  0.00     2.078 C  
HETATM   30  N   UNL     2      -9.956  17.285  74.078  1.00  0.00     9.015 NA 
HETATM   31  C   UNL     2     -12.314  15.752  69.407  1.00  0.00    -0.009 C  
HETATM   32  N   UNL     3      -6.261  19.055  72.659  1.00  0.00     1.259 NA 
ENDROOT
BRANCH   2  33
HETATM   33  C   UNL     1     -10.964  20.691  69.225  1.00  0.00     1.298 C  
HETATM   34  H2  UNL     1     -11.756  19.669  67.619  1.00  0.00     0.000 HD 
HETATM   35  N   UNL     1     -10.841  19.884  68.013  1.00  0.00    -0.217 NA 
HETATM   36  H1  UNL     1     -10.234  20.321  67.319  1.00  0.00     0.000 HD 
ENDBRANCH   2  33
TORSDOF 1
ENDMDL
