MODEL        1
REMARK 921   NORMALIZED FREE ENERGY PREDICTED BY IDOCK:   -5.95 KCAL/MOL
REMARK 922        TOTAL FREE ENERGY PREDICTED BY IDOCK:   -6.87 KCAL/MOL
REMARK 923 INTER-LIGAND FREE ENERGY PREDICTED BY IDOCK:   -6.65 KCAL/MOL
REMARK 924 INTRA-LIGAND FREE ENERGY PREDICTED BY IDOCK:   -0.22 KCAL/MOL
REMARK 927      BINDING AFFINITY PREDICTED BY RF-SCORE:    0.00 PKD
ROOT
HETATM    1  N   UNL     1     -12.971  16.076  74.408  1.00  0.00    -0.929 NA 
HETATM    2  H2  UNL     1     -13.219  17.063  74.344  1.00  0.00     0.000 HD 
HETATM    3  C   UNL     1     -12.829  15.573  73.112  1.00  0.00    -0.497 A  
HETATM    4  H1  UNL     1     -13.607  15.627  75.067  1.00  0.00     0.000 HD 
HETATM    5  C   UNL     1     -11.957  16.187  72.210  1.00  0.00    -0.637 A  
HETATM    6  C   UNL     1     -11.699  15.614  70.960  1.00  0.00    -0.444 A  
HETATM    7  C   UNL     1     -12.292  14.399  70.611  1.00  0.00    -0.422 A  
HETATM    8  C   UNL     1     -13.116  13.743  71.533  1.00  0.00    -0.435 A  
HETATM    9  C   UNL     1     -13.360  14.322  72.783  1.00  0.00    -0.621 A  
ENDROOT
BRANCH   7  10
HETATM   10  C   UNL     1     -11.972  13.801  69.288  1.00  0.00    -0.352 C  
HETATM   11  N   UNL     1     -12.327  14.542  68.179  1.00  0.00    -0.588 N  
HETATM   12  O   UNL     1     -11.426  12.709  69.209  1.00  0.00    -0.277 OA 
HETATM   13  H   UNL     1     -12.912  15.371  68.288  1.00  0.00     0.000 HD 
BRANCH  11  14
HETATM   14  C   UNL     1     -11.867  14.146  66.843  1.00  0.00    -0.431 C  
HETATM   15  C   UNL     1     -10.903  15.149  66.214  1.00  0.00    -0.333 C  
HETATM   16  O   UNL     1     -10.351  14.980  65.136  1.00  0.00    -0.379 OA 
HETATM   17  O   UNL     1     -10.672  16.237  66.985  1.00  0.00    -0.306 OA 
ENDBRANCH  11  14
ENDBRANCH   7  10
TORSDOF 2
ENDMDL
MODEL        2
REMARK 921   NORMALIZED FREE ENERGY PREDICTED BY IDOCK:   -5.87 KCAL/MOL
REMARK 922        TOTAL FREE ENERGY PREDICTED BY IDOCK:   -6.78 KCAL/MOL
REMARK 923 INTER-LIGAND FREE ENERGY PREDICTED BY IDOCK:   -6.58 KCAL/MOL
REMARK 924 INTRA-LIGAND FREE ENERGY PREDICTED BY IDOCK:   -0.19 KCAL/MOL
REMARK 927      BINDING AFFINITY PREDICTED BY RF-SCORE:    0.00 PKD
ROOT
HETATM    1  N   UNL     1     -11.519  16.439  63.839  1.00  0.00    -1.618 NA 
HETATM    2  H2  UNL     1     -10.552  16.683  63.625  1.00  0.00     0.000 HD 
HETATM    3  C   UNL     1     -11.516  15.408  64.782  1.00  0.00    -0.336 A  
HETATM    4  H1  UNL     1     -12.024  16.330  62.959  1.00  0.00     0.000 HD 
HETATM    5  C   UNL     1     -10.824  15.559  65.987  1.00  0.00    -0.301 A  
HETATM    6  C   UNL     1     -10.928  14.596  66.997  1.00  0.00    -0.317 A  
HETATM    7  C   UNL     1     -11.752  13.482  66.821  1.00  0.00    -0.430 A  
HETATM    8  C   UNL     1     -12.499  13.356  65.644  1.00  0.00    -0.519 A  
HETATM    9  C   UNL     1     -12.394  14.328  64.644  1.00  0.00    -0.433 A  
ENDROOT
BRANCH   7  10
HETATM   10  C   UNL     1     -11.865  12.494  67.926  1.00  0.00    -0.323 C  
HETATM   11  N   UNL     1     -11.772  12.997  69.209  1.00  0.00    -0.304 N  
HETATM   12  O   UNL     1     -12.029  11.306  67.690  1.00  0.00    -0.634 OA 
HETATM   13  H   UNL     1     -11.486  13.966  69.355  1.00  0.00     0.000 HD 
BRANCH  11  14
HETATM   14  C   UNL     1     -12.084  12.147  70.364  1.00  0.00    -0.309 C  
HETATM   15  C   UNL     1     -12.966  12.837  71.401  1.00  0.00    -0.266 C  
HETATM   16  O   UNL     1     -13.395  12.287  72.405  1.00  0.00    -0.453 OA 
HETATM   17  O   UNL     1     -13.275  14.118  71.087  1.00  0.00    -0.339 OA 
ENDBRANCH  11  14
ENDBRANCH   7  10
TORSDOF 2
ENDMDL
MODEL        3
REMARK 921   NORMALIZED FREE ENERGY PREDICTED BY IDOCK:   -5.79 KCAL/MOL
REMARK 922        TOTAL FREE ENERGY PREDICTED BY IDOCK:   -6.68 KCAL/MOL
REMARK 923 INTER-LIGAND FREE ENERGY PREDICTED BY IDOCK:   -6.49 KCAL/MOL
REMARK 924 INTRA-LIGAND FREE ENERGY PREDICTED BY IDOCK:   -0.19 KCAL/MOL
REMARK 927      BINDING AFFINITY PREDICTED BY RF-SCORE:    0.00 PKD
ROOT
HETATM    1  N   UNL     1     -13.086  15.612  74.425  1.00  0.00    -0.671 NA 
HETATM    2  H2  UNL     1     -13.422  16.570  74.522  1.00  0.00     0.000 HD 
HETATM    3  C   UNL     1     -12.787  15.385  73.079  1.00  0.00    -0.463 A  
HETATM    4  H1  UNL     1     -13.730  14.994  74.919  1.00  0.00     0.000 HD 
HETATM    5  C   UNL     1     -11.905  16.231  72.401  1.00  0.00    -0.606 A  
HETATM    6  C   UNL     1     -11.488  15.936  71.099  1.00  0.00    -0.471 A  
HETATM    7  C   UNL     1     -11.929  14.770  70.470  1.00  0.00    -0.373 A  
HETATM    8  C   UNL     1     -12.760  13.883  71.163  1.00  0.00    -0.441 A  
HETATM    9  C   UNL     1     -13.165  14.185  72.468  1.00  0.00    -0.596 A  
ENDROOT
BRANCH   7  10
HETATM   10  C   UNL     1     -11.441  14.469  69.098  1.00  0.00    -0.294 C  
HETATM   11  N   UNL     1     -12.402  14.110  68.172  1.00  0.00    -0.538 N  
HETATM   12  O   UNL     1     -10.251  14.539  68.825  1.00  0.00    -0.235 OA 
HETATM   13  H   UNL     1     -13.355  13.918  68.478  1.00  0.00     0.000 HD 
BRANCH  11  14
HETATM   14  C   UNL     1     -12.057  14.003  66.749  1.00  0.00    -0.447 C  
HETATM   15  C   UNL     1     -11.844  12.563  66.287  1.00  0.00    -0.390 C  
HETATM   16  O   UNL     1     -11.615  12.247  65.128  1.00  0.00    -0.340 OA 
HETATM   17  O   UNL     1     -11.977  11.649  67.277  1.00  0.00    -0.627 OA 
ENDBRANCH  11  14
ENDBRANCH   7  10
TORSDOF 2
ENDMDL
MODEL        4
REMARK 921   NORMALIZED FREE ENERGY PREDICTED BY IDOCK:   -5.77 KCAL/MOL
REMARK 922        TOTAL FREE ENERGY PREDICTED BY IDOCK:   -6.66 KCAL/MOL
REMARK 923 INTER-LIGAND FREE ENERGY PREDICTED BY IDOCK:   -6.51 KCAL/MOL
REMARK 924 INTRA-LIGAND FREE ENERGY PREDICTED BY IDOCK:   -0.15 KCAL/MOL
REMARK 927      BINDING AFFINITY PREDICTED BY RF-SCORE:    0.00 PKD
ROOT
HETATM    1  N   UNL     1     -10.040  19.757  69.295  1.00  0.00    -0.589 NA 
HETATM    2  H2  UNL     1      -9.271  19.454  69.892  1.00  0.00     0.000 HD 
HETATM    3  C   UNL     1     -10.134  18.874  68.216  1.00  0.00    -0.388 A  
HETATM    4  H1  UNL     1      -9.944  20.760  69.132  1.00  0.00     0.000 HD 
HETATM    5  C   UNL     1     -10.265  17.501  68.439  1.00  0.00    -0.372 A  
HETATM    6  C   UNL     1     -10.501  16.622  67.376  1.00  0.00    -0.314 A  
HETATM    7  C   UNL     1     -10.637  17.115  66.077  1.00  0.00    -0.205 A  
HETATM    8  C   UNL     1     -10.571  18.495  65.852  1.00  0.00    -0.336 A  
HETATM    9  C   UNL     1     -10.343  19.366  66.923  1.00  0.00    -0.541 A  
ENDROOT
BRANCH   7  10
HETATM   10  C   UNL     1     -10.919  16.159  64.975  1.00  0.00    -0.344 C  
HETATM   11  N   UNL     1     -10.570  14.842  65.203  1.00  0.00    -0.388 N  
HETATM   12  O   UNL     1     -11.430  16.538  63.930  1.00  0.00    -1.145 OA 
HETATM   13  H   UNL     1     -10.012  14.599  66.021  1.00  0.00     0.000 HD 
BRANCH  11  14
HETATM   14  C   UNL     1     -10.998  13.789  64.274  1.00  0.00    -0.251 C  
HETATM   15  C   UNL     1     -12.364  13.200  64.617  1.00  0.00    -0.405 C  
HETATM   16  O   UNL     1     -12.935  12.360  63.936  1.00  0.00    -0.754 OA 
HETATM   17  O   UNL     1     -12.920  13.730  65.733  1.00  0.00    -0.477 OA 
ENDBRANCH  11  14
ENDBRANCH   7  10
TORSDOF 2
ENDMDL
MODEL        5
REMARK 921   NORMALIZED FREE ENERGY PREDICTED BY IDOCK:   -5.69 KCAL/MOL
REMARK 922        TOTAL FREE ENERGY PREDICTED BY IDOCK:   -6.57 KCAL/MOL
REMARK 923 INTER-LIGAND FREE ENERGY PREDICTED BY IDOCK:   -6.40 KCAL/MOL
REMARK 924 INTRA-LIGAND FREE ENERGY PREDICTED BY IDOCK:   -0.17 KCAL/MOL
REMARK 927      BINDING AFFINITY PREDICTED BY RF-SCORE:    0.00 PKD
ROOT
HETATM    1  N   UNL     1     -13.425   9.913  72.453  1.00  0.00    -0.625 NA 
HETATM    2  H2  UNL     1     -12.734   9.191  72.656  1.00  0.00     0.000 HD 
HETATM    3  C   UNL     1     -12.864  10.819  71.549  1.00  0.00    -0.462 A  
HETATM    4  H1  UNL     1     -13.814  10.242  73.337  1.00  0.00     0.000 HD 
HETATM    5  C   UNL     1     -12.331  10.367  70.339  1.00  0.00    -0.370 A  
HETATM    6  C   UNL     1     -11.895  11.273  69.366  1.00  0.00    -0.424 A  
HETATM    7  C   UNL     1     -12.015  12.647  69.585  1.00  0.00    -0.352 A  
HETATM    8  C   UNL     1     -12.606  13.109  70.767  1.00  0.00    -0.338 A  
HETATM    9  C   UNL     1     -13.046  12.193  71.729  1.00  0.00    -0.457 A  
ENDROOT
BRANCH   7  10
HETATM   10  C   UNL     1     -11.572  13.583  68.519  1.00  0.00    -0.333 C  
HETATM   11  N   UNL     1     -11.973  13.279  67.232  1.00  0.00    -0.364 N  
HETATM   12  O   UNL     1     -10.888  14.561  68.786  1.00  0.00    -0.232 OA 
HETATM   13  H   UNL     1     -12.410  12.378  67.036  1.00  0.00     0.000 HD 
BRANCH  11  14
HETATM   14  C   UNL     1     -11.773  14.244  66.145  1.00  0.00    -0.390 C  
HETATM   15  C   UNL     1     -12.485  13.853  64.852  1.00  0.00    -0.391 C  
HETATM   16  O   UNL     1     -12.503  14.549  63.847  1.00  0.00    -0.814 OA 
HETATM   17  O   UNL     1     -13.143  12.672  64.930  1.00  0.00    -0.850 OA 
ENDBRANCH  11  14
ENDBRANCH   7  10
TORSDOF 2
ENDMDL
MODEL        6
REMARK 921   NORMALIZED FREE ENERGY PREDICTED BY IDOCK:   -5.54 KCAL/MOL
REMARK 922        TOTAL FREE ENERGY PREDICTED BY IDOCK:   -6.40 KCAL/MOL
REMARK 923 INTER-LIGAND FREE ENERGY PREDICTED BY IDOCK:   -6.20 KCAL/MOL
REMARK 924 INTRA-LIGAND FREE ENERGY PREDICTED BY IDOCK:   -0.20 KCAL/MOL
REMARK 927      BINDING AFFINITY PREDICTED BY RF-SCORE:    0.00 PKD
ROOT
HETATM    1  N   UNL     1     -13.202  16.272  73.903  1.00  0.00    -0.921 NA 
HETATM    2  H2  UNL     1     -13.503  17.205  73.622  1.00  0.00     0.000 HD 
HETATM    3  C   UNL     1     -13.006  15.507  72.750  1.00  0.00    -0.457 A  
HETATM    4  H1  UNL     1     -13.826  15.942  74.639  1.00  0.00     0.000 HD 
HETATM    5  C   UNL     1     -12.152  15.959  71.741  1.00  0.00    -0.567 A  
HETATM    6  C   UNL     1     -11.838  15.142  70.649  1.00  0.00    -0.371 A  
HETATM    7  C   UNL     1     -12.356  13.848  70.571  1.00  0.00    -0.439 A  
HETATM    8  C   UNL     1     -13.161  13.363  71.609  1.00  0.00    -0.463 A  
HETATM    9  C   UNL     1     -13.462  14.185  72.699  1.00  0.00    -0.634 A  
ENDROOT
BRANCH   7  10
HETATM   10  C   UNL     1     -11.977  12.994  69.415  1.00  0.00    -0.281 C  
HETATM   11  N   UNL     1     -11.760  13.647  68.217  1.00  0.00    -0.343 N  
HETATM   12  O   UNL     1     -11.871  11.782  69.537  1.00  0.00    -0.300 OA 
HETATM   13  H   UNL     1     -12.006  14.633  68.124  1.00  0.00     0.000 HD 
BRANCH  11  14
HETATM   14  C   UNL     1     -11.178  12.931  67.076  1.00  0.00    -0.288 C  
HETATM   15  C   UNL     1     -11.887  13.221  65.756  1.00  0.00    -0.387 C  
HETATM   16  O   UNL     1     -11.522  12.780  64.675  1.00  0.00    -0.302 OA 
HETATM   17  O   UNL     1     -12.944  14.058  65.879  1.00  0.00    -0.451 OA 
ENDBRANCH  11  14
ENDBRANCH   7  10
TORSDOF 2
ENDMDL
MODEL        7
REMARK 921   NORMALIZED FREE ENERGY PREDICTED BY IDOCK:   -5.50 KCAL/MOL
REMARK 922        TOTAL FREE ENERGY PREDICTED BY IDOCK:   -6.36 KCAL/MOL
REMARK 923 INTER-LIGAND FREE ENERGY PREDICTED BY IDOCK:   -6.16 KCAL/MOL
REMARK 924 INTRA-LIGAND FREE ENERGY PREDICTED BY IDOCK:   -0.20 KCAL/MOL
REMARK 927      BINDING AFFINITY PREDICTED BY RF-SCORE:    0.00 PKD
ROOT
HETATM    1  N   UNL     1     -10.278  13.819  64.348  1.00  0.00    -0.729 NA 
HETATM    2  H2  UNL     1     -10.854  13.242  63.735  1.00  0.00     0.000 HD 
HETATM    3  C   UNL     1     -10.899  13.887  65.598  1.00  0.00    -0.292 A  
HETATM    4  H1  UNL     1     -10.034  14.674  63.848  1.00  0.00     0.000 HD 
HETATM    5  C   UNL     1     -11.233  12.716  66.283  1.00  0.00    -0.354 A  
HETATM    6  C   UNL     1     -11.724  12.767  67.592  1.00  0.00    -0.422 A  
HETATM    7  C   UNL     1     -11.858  13.995  68.242  1.00  0.00    -0.406 A  
HETATM    8  C   UNL     1     -11.465  15.169  67.588  1.00  0.00    -0.319 A  
HETATM    9  C   UNL     1     -10.968  15.105  66.282  1.00  0.00    -0.335 A  
ENDROOT
BRANCH   7  10
HETATM   10  C   UNL     1     -12.352  14.013  69.644  1.00  0.00    -0.260 C  
HETATM   11  N   UNL     1     -13.032  15.148  70.040  1.00  0.00    -0.632 N  
HETATM   12  O   UNL     1     -12.155  13.065  70.391  1.00  0.00    -0.359 OA 
HETATM   13  H   UNL     1     -13.041  15.970  69.436  1.00  0.00     0.000 HD 
BRANCH  11  14
HETATM   14  C   UNL     1     -13.742  15.179  71.324  1.00  0.00    -0.478 C  
HETATM   15  C   UNL     1     -12.979  15.922  72.417  1.00  0.00    -0.433 C  
HETATM   16  O   UNL     1     -13.419  16.121  73.541  1.00  0.00    -0.638 OA 
HETATM   17  O   UNL     1     -11.773  16.390  72.017  1.00  0.00    -0.499 OA 
ENDBRANCH  11  14
ENDBRANCH   7  10
TORSDOF 2
ENDMDL
MODEL        8
REMARK 921   NORMALIZED FREE ENERGY PREDICTED BY IDOCK:   -5.49 KCAL/MOL
REMARK 922        TOTAL FREE ENERGY PREDICTED BY IDOCK:   -6.35 KCAL/MOL
REMARK 923 INTER-LIGAND FREE ENERGY PREDICTED BY IDOCK:   -6.18 KCAL/MOL
REMARK 924 INTRA-LIGAND FREE ENERGY PREDICTED BY IDOCK:   -0.17 KCAL/MOL
REMARK 927      BINDING AFFINITY PREDICTED BY RF-SCORE:    0.00 PKD
ROOT
HETATM    1  N   UNL     1     -12.321  13.830  63.277  1.00  0.00    -1.124 NA 
HETATM    2  H2  UNL     1     -13.317  13.651  63.147  1.00  0.00     0.000 HD 
HETATM    3  C   UNL     1     -12.109  14.189  64.611  1.00  0.00    -0.452 A  
HETATM    4  H1  UNL     1     -12.004  14.440  62.524  1.00  0.00     0.000 HD 
HETATM    5  C   UNL     1     -12.544  13.354  65.643  1.00  0.00    -0.496 A  
HETATM    6  C   UNL     1     -12.215  13.630  66.975  1.00  0.00    -0.373 A  
HETATM    7  C   UNL     1     -11.419  14.735  67.284  1.00  0.00    -0.378 A  
HETATM    8  C   UNL     1     -10.925  15.541  66.252  1.00  0.00    -0.242 A  
HETATM    9  C   UNL     1     -11.253  15.251  64.924  1.00  0.00    -0.422 A  
ENDROOT
BRANCH   7  10
HETATM   10  C   UNL     1     -11.061  14.982  68.706  1.00  0.00    -0.261 C  
HETATM   11  N   UNL     1     -11.969  15.712  69.448  1.00  0.00    -0.456 N  
HETATM   12  O   UNL     1     -10.013  14.557  69.172  1.00  0.00    -0.197 OA 
HETATM   13  H   UNL     1     -12.751  16.173  68.983  1.00  0.00     0.000 HD 
BRANCH  11  14
HETATM   14  C   UNL     1     -11.816  15.827  70.903  1.00  0.00    -0.414 C  
HETATM   15  C   UNL     1     -13.137  15.716  71.660  1.00  0.00    -0.475 C  
HETATM   16  O   UNL     1     -13.226  15.719  72.880  1.00  0.00    -0.463 OA 
HETATM   17  O   UNL     1     -14.214  15.564  70.854  1.00  0.00    -0.423 OA 
ENDBRANCH  11  14
ENDBRANCH   7  10
TORSDOF 2
ENDMDL
MODEL        9
REMARK 921   NORMALIZED FREE ENERGY PREDICTED BY IDOCK:   -5.47 KCAL/MOL
REMARK 922        TOTAL FREE ENERGY PREDICTED BY IDOCK:   -6.33 KCAL/MOL
REMARK 923 INTER-LIGAND FREE ENERGY PREDICTED BY IDOCK:   -6.10 KCAL/MOL
REMARK 924 INTRA-LIGAND FREE ENERGY PREDICTED BY IDOCK:   -0.23 KCAL/MOL
REMARK 927      BINDING AFFINITY PREDICTED BY RF-SCORE:    0.00 PKD
ROOT
HETATM    1  N   UNL     1     -11.662   8.268  70.276  1.00  0.00    -0.470 NA 
HETATM    2  H2  UNL     1     -12.505   7.700  70.369  1.00  0.00     0.000 HD 
HETATM    3  C   UNL     1     -12.023   9.613  70.387  1.00  0.00    -0.106 A  
HETATM    4  H1  UNL     1     -11.142   7.940  69.463  1.00  0.00     0.000 HD 
HETATM    5  C   UNL     1     -12.735  10.062  71.502  1.00  0.00    -0.532 A  
HETATM    6  C   UNL     1     -12.980  11.426  71.694  1.00  0.00    -0.523 A  
HETATM    7  C   UNL     1     -12.486  12.361  70.782  1.00  0.00    -0.356 A  
HETATM    8  C   UNL     1     -11.717  11.927  69.696  1.00  0.00    -0.413 A  
HETATM    9  C   UNL     1     -11.472  10.561  69.519  1.00  0.00    -0.339 A  
ENDROOT
BRANCH   7  10
HETATM   10  C   UNL     1     -12.736  13.805  71.031  1.00  0.00    -0.343 C  
HETATM   11  N   UNL     1     -13.465  14.114  72.163  1.00  0.00    -0.409 N  
HETATM   12  O   UNL     1     -12.313  14.657  70.263  1.00  0.00    -0.317 OA 
HETATM   13  H   UNL     1     -13.924  13.370  72.689  1.00  0.00     0.000 HD 
BRANCH  11  14
HETATM   14  C   UNL     1     -13.583  15.506  72.614  1.00  0.00    -0.564 C  
HETATM   15  C   UNL     1     -12.731  15.816  73.842  1.00  0.00    -0.605 C  
HETATM   16  O   UNL     1     -12.632  16.929  74.339  1.00  0.00    -0.599 OA 
HETATM   17  O   UNL     1     -12.047  14.746  74.314  1.00  0.00    -0.526 OA 
ENDBRANCH  11  14
ENDBRANCH   7  10
TORSDOF 2
ENDMDL
MODEL       10
REMARK 921   NORMALIZED FREE ENERGY PREDICTED BY IDOCK:   -5.45 KCAL/MOL
REMARK 922        TOTAL FREE ENERGY PREDICTED BY IDOCK:   -6.30 KCAL/MOL
REMARK 923 INTER-LIGAND FREE ENERGY PREDICTED BY IDOCK:   -6.08 KCAL/MOL
REMARK 924 INTRA-LIGAND FREE ENERGY PREDICTED BY IDOCK:   -0.22 KCAL/MOL
REMARK 927      BINDING AFFINITY PREDICTED BY RF-SCORE:    0.00 PKD
ROOT
HETATM    1  N   UNL     1     -11.752  12.802  63.027  1.00  0.00    -0.789 NA 
HETATM    2  H2  UNL     1     -11.348  13.628  62.583  1.00  0.00     0.000 HD 
HETATM    3  C   UNL     1     -11.664  12.960  64.413  1.00  0.00    -0.372 A  
HETATM    4  H1  UNL     1     -11.361  11.974  62.578  1.00  0.00     0.000 HD 
HETATM    5  C   UNL     1     -12.199  14.095  65.027  1.00  0.00    -0.450 A  
HETATM    6  C   UNL     1     -12.244  14.200  66.421  1.00  0.00    -0.473 A  
HETATM    7  C   UNL     1     -11.779  13.152  67.218  1.00  0.00    -0.425 A  
HETATM    8  C   UNL     1     -11.301  11.984  66.612  1.00  0.00    -0.399 A  
HETATM    9  C   UNL     1     -11.267  11.887  65.217  1.00  0.00    -0.351 A  
ENDROOT
BRANCH   7  10
HETATM   10  C   UNL     1     -11.870  13.282  68.696  1.00  0.00    -0.345 C  
HETATM   11  N   UNL     1     -12.330  14.492  69.177  1.00  0.00    -0.571 N  
HETATM   12  O   UNL     1     -11.549  12.356  69.428  1.00  0.00    -0.282 OA 
HETATM   13  H   UNL     1     -12.441  15.282  68.541  1.00  0.00     0.000 HD 
BRANCH  11  14
HETATM   14  C   UNL     1     -12.660  14.649  70.599  1.00  0.00    -0.357 C  
HETATM   15  C   UNL     1     -11.925  15.810  71.264  1.00  0.00    -0.434 C  
HETATM   16  O   UNL     1     -12.105  16.155  72.424  1.00  0.00    -0.481 OA 
HETATM   17  O   UNL     1     -11.078  16.464  70.435  1.00  0.00    -0.356 OA 
ENDBRANCH  11  14
ENDBRANCH   7  10
TORSDOF 2
ENDMDL
MODEL       11
REMARK 921   NORMALIZED FREE ENERGY PREDICTED BY IDOCK:   -5.42 KCAL/MOL
REMARK 922        TOTAL FREE ENERGY PREDICTED BY IDOCK:   -6.27 KCAL/MOL
REMARK 923 INTER-LIGAND FREE ENERGY PREDICTED BY IDOCK:   -6.07 KCAL/MOL
REMARK 924 INTRA-LIGAND FREE ENERGY PREDICTED BY IDOCK:   -0.20 KCAL/MOL
REMARK 927      BINDING AFFINITY PREDICTED BY RF-SCORE:    0.00 PKD
ROOT
HETATM    1  N   UNL     1     -13.499  13.856  72.828  1.00  0.00    -0.669 NA 
HETATM    2  H2  UNL     1     -12.898  13.303  73.439  1.00  0.00     0.000 HD 
HETATM    3  C   UNL     1     -12.889  13.947  71.574  1.00  0.00    -0.361 A  
HETATM    4  H1  UNL     1     -13.775  14.701  73.327  1.00  0.00     0.000 HD 
HETATM    5  C   UNL     1     -12.511  12.788  70.889  1.00  0.00    -0.373 A  
HETATM    6  C   UNL     1     -12.030  12.857  69.577  1.00  0.00    -0.346 A  
HETATM    7  C   UNL     1     -11.948  14.089  68.925  1.00  0.00    -0.387 A  
HETATM    8  C   UNL     1     -12.384  15.247  69.580  1.00  0.00    -0.210 A  
HETATM    9  C   UNL     1     -12.871  15.165  70.889  1.00  0.00    -0.479 A  
ENDROOT
BRANCH   7  10
HETATM   10  C   UNL     1     -11.462  14.124  67.521  1.00  0.00    -0.340 C  
HETATM   11  N   UNL     1     -12.421  14.314  66.545  1.00  0.00    -0.528 N  
HETATM   12  O   UNL     1     -10.274  13.988  67.264  1.00  0.00    -0.255 OA 
HETATM   13  H   UNL     1     -13.410  14.272  66.792  1.00  0.00     0.000 HD 
BRANCH  11  14
HETATM   14  C   UNL     1     -12.026  14.578  65.157  1.00  0.00    -0.369 C  
HETATM   15  C   UNL     1     -12.493  13.499  64.182  1.00  0.00    -0.239 C  
HETATM   16  O   UNL     1     -12.327  13.557  62.972  1.00  0.00    -0.661 OA 
HETATM   17  O   UNL     1     -13.157  12.479  64.776  1.00  0.00    -0.853 OA 
ENDBRANCH  11  14
ENDBRANCH   7  10
TORSDOF 2
ENDMDL
MODEL       12
REMARK 921   NORMALIZED FREE ENERGY PREDICTED BY IDOCK:   -5.42 KCAL/MOL
REMARK 922        TOTAL FREE ENERGY PREDICTED BY IDOCK:   -6.27 KCAL/MOL
REMARK 923 INTER-LIGAND FREE ENERGY PREDICTED BY IDOCK:   -6.04 KCAL/MOL
REMARK 924 INTRA-LIGAND FREE ENERGY PREDICTED BY IDOCK:   -0.23 KCAL/MOL
REMARK 927      BINDING AFFINITY PREDICTED BY RF-SCORE:    0.00 PKD
ROOT
HETATM    1  N   UNL     1     -10.337  13.467  64.006  1.00  0.00    -0.706 NA 
HETATM    2  H2  UNL     1     -11.136  13.039  63.537  1.00  0.00     0.000 HD 
HETATM    3  C   UNL     1     -10.785  14.048  65.196  1.00  0.00    -0.382 A  
HETATM    4  H1  UNL     1      -9.825  14.024  63.323  1.00  0.00     0.000 HD 
HETATM    5  C   UNL     1     -11.487  13.284  66.132  1.00  0.00    -0.359 A  
HETATM    6  C   UNL     1     -11.817  13.813  67.384  1.00  0.00    -0.431 A  
HETATM    7  C   UNL     1     -11.420  15.108  67.724  1.00  0.00    -0.329 A  
HETATM    8  C   UNL     1     -10.660  15.857  66.818  1.00  0.00    -0.309 A  
HETATM    9  C   UNL     1     -10.329  15.316  65.572  1.00  0.00    -0.408 A  
ENDROOT
BRANCH   7  10
HETATM   10  C   UNL     1     -11.758  15.628  69.075  1.00  0.00    -0.395 C  
HETATM   11  N   UNL     1     -12.905  15.124  69.656  1.00  0.00    -0.516 N  
HETATM   12  O   UNL     1     -11.048  16.460  69.623  1.00  0.00    -0.333 OA 
HETATM   13  H   UNL     1     -13.544  14.551  69.104  1.00  0.00     0.000 HD 
BRANCH  11  14
HETATM   14  C   UNL     1     -13.211  15.407  71.063  1.00  0.00    -0.496 C  
HETATM   15  C   UNL     1     -13.172  14.166  71.951  1.00  0.00    -0.387 C  
HETATM   16  O   UNL     1     -13.331  14.189  73.163  1.00  0.00    -0.634 OA 
HETATM   17  O   UNL     1     -12.896  13.024  71.277  1.00  0.00    -0.353 OA 
ENDBRANCH  11  14
ENDBRANCH   7  10
TORSDOF 2
ENDMDL
MODEL       13
REMARK 921   NORMALIZED FREE ENERGY PREDICTED BY IDOCK:   -5.40 KCAL/MOL
REMARK 922        TOTAL FREE ENERGY PREDICTED BY IDOCK:   -6.24 KCAL/MOL
REMARK 923 INTER-LIGAND FREE ENERGY PREDICTED BY IDOCK:   -6.04 KCAL/MOL
REMARK 924 INTRA-LIGAND FREE ENERGY PREDICTED BY IDOCK:   -0.20 KCAL/MOL
REMARK 927      BINDING AFFINITY PREDICTED BY RF-SCORE:    0.00 PKD
ROOT
HETATM    1  N   UNL     1     -14.154   8.870  73.277  1.00  0.00    -1.248 NA 
HETATM    2  H2  UNL     1     -13.707   8.331  74.019  1.00  0.00     0.000 HD 
HETATM    3  C   UNL     1     -13.178   9.226  72.342  1.00  0.00    -0.426 A  
HETATM    4  H1  UNL     1     -14.737   9.587  73.709  1.00  0.00     0.000 HD 
HETATM    5  C   UNL     1     -12.378   8.244  71.751  1.00  0.00    -0.366 A  
HETATM    6  C   UNL     1     -11.497   8.567  70.713  1.00  0.00    -0.281 A  
HETATM    7  C   UNL     1     -11.428   9.878  70.236  1.00  0.00    -0.349 A  
HETATM    8  C   UNL     1     -12.272  10.855  70.777  1.00  0.00    -0.483 A  
HETATM    9  C   UNL     1     -13.155  10.519  71.809  1.00  0.00    -0.570 A  
ENDROOT
BRANCH   7  10
HETATM   10  C   UNL     1     -10.505  10.182  69.111  1.00  0.00    -0.222 C  
HETATM   11  N   UNL     1     -11.038  10.089  67.840  1.00  0.00    -0.464 N  
HETATM   12  O   UNL     1      -9.341  10.493  69.321  1.00  0.00    -0.199 OA 
HETATM   13  H   UNL     1     -11.963   9.682  67.706  1.00  0.00     0.000 HD 
BRANCH  11  14
HETATM   14  C   UNL     1     -10.279  10.573  66.680  1.00  0.00    -0.233 C  
HETATM   15  C   UNL     1     -10.909  11.793  66.013  1.00  0.00    -0.296 C  
HETATM   16  O   UNL     1     -10.405  12.392  65.074  1.00  0.00    -0.281 OA 
HETATM   17  O   UNL     1     -12.069  12.189  66.589  1.00  0.00    -0.622 OA 
ENDBRANCH  11  14
ENDBRANCH   7  10
TORSDOF 2
ENDMDL
MODEL       14
REMARK 921   NORMALIZED FREE ENERGY PREDICTED BY IDOCK:   -5.38 KCAL/MOL
REMARK 922        TOTAL FREE ENERGY PREDICTED BY IDOCK:   -6.22 KCAL/MOL
REMARK 923 INTER-LIGAND FREE ENERGY PREDICTED BY IDOCK:   -6.02 KCAL/MOL
REMARK 924 INTRA-LIGAND FREE ENERGY PREDICTED BY IDOCK:   -0.20 KCAL/MOL
REMARK 927      BINDING AFFINITY PREDICTED BY RF-SCORE:    0.00 PKD
ROOT
HETATM    1  N   UNL     1     -12.216  11.561  62.834  1.00  0.00    -0.855 NA 
HETATM    2  H2  UNL     1     -11.517  10.819  62.793  1.00  0.00     0.000 HD 
HETATM    3  C   UNL     1     -11.889  12.415  63.891  1.00  0.00    -0.466 A  
HETATM    4  H1  UNL     1     -13.141  11.134  62.786  1.00  0.00     0.000 HD 
HETATM    5  C   UNL     1     -10.622  13.001  63.957  1.00  0.00    -0.371 A  
HETATM    6  C   UNL     1     -10.329  13.965  64.927  1.00  0.00    -0.430 A  
HETATM    7  C   UNL     1     -11.314  14.375  65.828  1.00  0.00    -0.330 A  
HETATM    8  C   UNL     1     -12.605  13.841  65.729  1.00  0.00    -0.525 A  
HETATM    9  C   UNL     1     -12.889  12.884  64.749  1.00  0.00    -0.359 A  
ENDROOT
BRANCH   7  10
HETATM   10  C   UNL     1     -10.980  15.424  66.826  1.00  0.00    -0.282 C  
HETATM   11  N   UNL     1     -10.255  16.504  66.360  1.00  0.00    -0.304 N  
HETATM   12  O   UNL     1     -11.333  15.317  67.992  1.00  0.00    -0.318 OA 
HETATM   13  H   UNL     1      -9.854  16.479  65.423  1.00  0.00     0.000 HD 
BRANCH  11  14
HETATM   14  C   UNL     1     -10.060  17.687  67.206  1.00  0.00    -0.331 C  
HETATM   15  C   UNL     1     -10.471  18.990  66.525  1.00  0.00    -0.443 C  
HETATM   16  O   UNL     1     -10.451  20.082  67.075  1.00  0.00    -0.434 OA 
HETATM   17  O   UNL     1     -10.910  18.825  65.255  1.00  0.00    -0.576 OA 
ENDBRANCH  11  14
ENDBRANCH   7  10
TORSDOF 2
ENDMDL
MODEL       15
REMARK 921   NORMALIZED FREE ENERGY PREDICTED BY IDOCK:   -5.38 KCAL/MOL
REMARK 922        TOTAL FREE ENERGY PREDICTED BY IDOCK:   -6.22 KCAL/MOL
REMARK 923 INTER-LIGAND FREE ENERGY PREDICTED BY IDOCK:   -6.04 KCAL/MOL
REMARK 924 INTRA-LIGAND FREE ENERGY PREDICTED BY IDOCK:   -0.18 KCAL/MOL
REMARK 927      BINDING AFFINITY PREDICTED BY RF-SCORE:    0.00 PKD
ROOT
HETATM    1  N   UNL     1      -7.196  21.355  66.934  1.00  0.00    -0.829 NA 
HETATM    2  H2  UNL     1      -6.604  21.629  66.149  1.00  0.00     0.000 HD 
HETATM    3  C   UNL     1      -7.755  20.106  66.649  1.00  0.00    -0.295 A  
HETATM    4  H1  UNL     1      -7.796  22.144  67.173  1.00  0.00     0.000 HD 
HETATM    5  C   UNL     1      -6.933  19.026  66.321  1.00  0.00    -0.253 A  
HETATM    6  C   UNL     1      -7.465  17.740  66.172  1.00  0.00    -0.322 A  
HETATM    7  C   UNL     1      -8.828  17.519  66.379  1.00  0.00    -0.269 A  
HETATM    8  C   UNL     1      -9.649  18.583  66.772  1.00  0.00    -0.329 A  
HETATM    9  C   UNL     1      -9.104  19.862  66.925  1.00  0.00    -0.452 A  
ENDROOT
BRANCH   7  10
HETATM   10  C   UNL     1      -9.357  16.136  66.245  1.00  0.00    -0.317 C  
HETATM   11  N   UNL     1     -10.658  16.019  65.794  1.00  0.00    -0.356 N  
HETATM   12  O   UNL     1      -8.663  15.169  66.525  1.00  0.00    -0.278 OA 
HETATM   13  H   UNL     1     -11.245  16.849  65.718  1.00  0.00     0.000 HD 
BRANCH  11  14
HETATM   14  C   UNL     1     -11.199  14.706  65.424  1.00  0.00    -0.347 C  
HETATM   15  C   UNL     1     -12.126  14.756  64.212  1.00  0.00    -0.394 C  
HETATM   16  O   UNL     1     -12.631  13.767  63.699  1.00  0.00    -0.742 OA 
HETATM   17  O   UNL     1     -12.308  16.003  63.717  1.00  0.00    -0.858 OA 
ENDBRANCH  11  14
ENDBRANCH   7  10
TORSDOF 2
ENDMDL
MODEL       16
REMARK 921   NORMALIZED FREE ENERGY PREDICTED BY IDOCK:   -5.35 KCAL/MOL
REMARK 922        TOTAL FREE ENERGY PREDICTED BY IDOCK:   -6.19 KCAL/MOL
REMARK 923 INTER-LIGAND FREE ENERGY PREDICTED BY IDOCK:   -6.03 KCAL/MOL
REMARK 924 INTRA-LIGAND FREE ENERGY PREDICTED BY IDOCK:   -0.16 KCAL/MOL
REMARK 927      BINDING AFFINITY PREDICTED BY RF-SCORE:    0.00 PKD
ROOT
HETATM    1  N   UNL     1     -13.175   9.317  72.863  1.00  0.00    -0.674 NA 
HETATM    2  H2  UNL     1     -14.164   9.406  73.096  1.00  0.00     0.000 HD 
HETATM    3  C   UNL     1     -12.885  10.206  71.824  1.00  0.00    -0.452 A  
HETATM    4  H1  UNL     1     -12.956   8.326  72.768  1.00  0.00     0.000 HD 
HETATM    5  C   UNL     1     -13.186  11.564  71.954  1.00  0.00    -0.479 A  
HETATM    6  C   UNL     1     -12.776  12.484  70.984  1.00  0.00    -0.316 A  
HETATM    7  C   UNL     1     -12.031  12.056  69.883  1.00  0.00    -0.391 A  
HETATM    8  C   UNL     1     -11.670  10.708  69.776  1.00  0.00    -0.385 A  
HETATM    9  C   UNL     1     -12.079   9.798  70.756  1.00  0.00    -0.364 A  
ENDROOT
BRANCH   7  10
HETATM   10  C   UNL     1     -11.583  13.064  68.887  1.00  0.00    -0.311 C  
HETATM   11  N   UNL     1     -12.211  13.031  67.656  1.00  0.00    -0.183 N  
HETATM   12  O   UNL     1     -10.703  13.869  69.160  1.00  0.00    -0.225 OA 
HETATM   13  H   UNL     1     -12.826  12.252  67.422  1.00  0.00     0.000 HD 
BRANCH  11  14
HETATM   14  C   UNL     1     -11.997  14.109  66.684  1.00  0.00    -0.444 C  
HETATM   15  C   UNL     1     -12.480  13.760  65.279  1.00  0.00    -0.480 C  
HETATM   16  O   UNL     1     -12.457  14.539  64.337  1.00  0.00    -0.633 OA 
HETATM   17  O   UNL     1     -12.988  12.509  65.174  1.00  0.00    -0.700 OA 
ENDBRANCH  11  14
ENDBRANCH   7  10
TORSDOF 2
ENDMDL
MODEL       17
REMARK 921   NORMALIZED FREE ENERGY PREDICTED BY IDOCK:   -5.33 KCAL/MOL
REMARK 922        TOTAL FREE ENERGY PREDICTED BY IDOCK:   -6.17 KCAL/MOL
REMARK 923 INTER-LIGAND FREE ENERGY PREDICTED BY IDOCK:   -5.99 KCAL/MOL
REMARK 924 INTRA-LIGAND FREE ENERGY PREDICTED BY IDOCK:   -0.17 KCAL/MOL
REMARK 927      BINDING AFFINITY PREDICTED BY RF-SCORE:    0.00 PKD
ROOT
HETATM    1  N   UNL     1      -7.887  20.681  66.709  1.00  0.00    -0.542 NA 
HETATM    2  H2  UNL     1      -8.302  21.227  67.464  1.00  0.00     0.000 HD 
HETATM    3  C   UNL     1      -8.509  19.430  66.677  1.00  0.00    -0.320 A  
HETATM    4  H1  UNL     1      -6.873  20.749  66.784  1.00  0.00     0.000 HD 
HETATM    5  C   UNL     1      -9.900  19.337  66.574  1.00  0.00    -0.444 A  
HETATM    6  C   UNL     1     -10.524  18.097  66.399  1.00  0.00    -0.364 A  
HETATM    7  C   UNL     1      -9.756  16.935  66.297  1.00  0.00    -0.301 A  
HETATM    8  C   UNL     1      -8.359  17.025  66.334  1.00  0.00    -0.319 A  
HETATM    9  C   UNL     1      -7.746  18.271  66.501  1.00  0.00    -0.279 A  
ENDROOT
BRANCH   7  10
HETATM   10  C   UNL     1     -10.448  15.638  66.079  1.00  0.00    -0.331 C  
HETATM   11  N   UNL     1     -10.308  15.071  64.827  1.00  0.00    -0.484 N  
HETATM   12  O   UNL     1     -11.102  15.118  66.973  1.00  0.00    -0.329 OA 
HETATM   13  H   UNL     1      -9.883  15.609  64.072  1.00  0.00     0.000 HD 
BRANCH  11  14
HETATM   14  C   UNL     1     -10.767  13.700  64.577  1.00  0.00    -0.407 C  
HETATM   15  C   UNL     1     -12.151  13.635  63.935  1.00  0.00    -0.411 C  
HETATM   16  O   UNL     1     -12.690  12.595  63.584  1.00  0.00    -0.711 OA 
HETATM   17  O   UNL     1     -12.718  14.849  63.742  1.00  0.00    -0.754 OA 
ENDBRANCH  11  14
ENDBRANCH   7  10
TORSDOF 2
ENDMDL
MODEL       18
REMARK 921   NORMALIZED FREE ENERGY PREDICTED BY IDOCK:   -5.32 KCAL/MOL
REMARK 922        TOTAL FREE ENERGY PREDICTED BY IDOCK:   -6.16 KCAL/MOL
REMARK 923 INTER-LIGAND FREE ENERGY PREDICTED BY IDOCK:   -5.98 KCAL/MOL
REMARK 924 INTRA-LIGAND FREE ENERGY PREDICTED BY IDOCK:   -0.18 KCAL/MOL
REMARK 927      BINDING AFFINITY PREDICTED BY RF-SCORE:    0.00 PKD
ROOT
HETATM    1  N   UNL     1     -13.033  16.190  74.247  1.00  0.00    -0.953 NA 
HETATM    2  H2  UNL     1     -13.277  17.174  74.139  1.00  0.00     0.000 HD 
HETATM    3  C   UNL     1     -12.835  15.643  72.976  1.00  0.00    -0.490 A  
HETATM    4  H1  UNL     1     -13.698  15.763  74.891  1.00  0.00     0.000 HD 
HETATM    5  C   UNL     1     -11.924  16.228  72.092  1.00  0.00    -0.575 A  
HETATM    6  C   UNL     1     -11.612  15.613  70.875  1.00  0.00    -0.424 A  
HETATM    7  C   UNL     1     -12.190  14.387  70.541  1.00  0.00    -0.411 A  
HETATM    8  C   UNL     1     -13.054  13.761  71.448  1.00  0.00    -0.413 A  
HETATM    9  C   UNL     1     -13.353  14.381  72.666  1.00  0.00    -0.599 A  
ENDROOT
BRANCH   7  10
HETATM   10  C   UNL     1     -11.813  13.744  69.255  1.00  0.00    -0.344 C  
HETATM   11  N   UNL     1     -11.059  12.590  69.344  1.00  0.00    -0.452 N  
HETATM   12  O   UNL     1     -12.160  14.228  68.186  1.00  0.00    -0.323 OA 
HETATM   13  H   UNL     1     -10.667  12.309  70.243  1.00  0.00     0.000 HD 
BRANCH  11  14
HETATM   14  C   UNL     1     -10.818  11.767  68.154  1.00  0.00    -0.217 C  
HETATM   15  C   UNL     1     -10.957  10.269  68.418  1.00  0.00    -0.260 C  
HETATM   16  O   UNL     1     -10.863   9.413  67.550  1.00  0.00    -0.269 OA 
HETATM   17  O   UNL     1     -11.244   9.969  69.707  1.00  0.00    -0.247 OA 
ENDBRANCH  11  14
ENDBRANCH   7  10
TORSDOF 2
ENDMDL
MODEL       19
REMARK 921   NORMALIZED FREE ENERGY PREDICTED BY IDOCK:   -5.30 KCAL/MOL
REMARK 922        TOTAL FREE ENERGY PREDICTED BY IDOCK:   -6.14 KCAL/MOL
REMARK 923 INTER-LIGAND FREE ENERGY PREDICTED BY IDOCK:   -5.94 KCAL/MOL
REMARK 924 INTRA-LIGAND FREE ENERGY PREDICTED BY IDOCK:   -0.20 KCAL/MOL
REMARK 927      BINDING AFFINITY PREDICTED BY RF-SCORE:    0.00 PKD
ROOT
HETATM    1  N   UNL     1     -11.729  11.534  63.180  1.00  0.00    -0.890 NA 
HETATM    2  H2  UNL     1     -12.569  11.674  62.618  1.00  0.00     0.000 HD 
HETATM    3  C   UNL     1     -11.672  12.543  64.145  1.00  0.00    -0.399 A  
HETATM    4  H1  UNL     1     -10.943  11.382  62.548  1.00  0.00     0.000 HD 
HETATM    5  C   UNL     1     -12.749  12.752  65.010  1.00  0.00    -0.455 A  
HETATM    6  C   UNL     1     -12.651  13.661  66.069  1.00  0.00    -0.441 A  
HETATM    7  C   UNL     1     -11.458  14.351  66.291  1.00  0.00    -0.361 A  
HETATM    8  C   UNL     1     -10.352  14.101  65.470  1.00  0.00    -0.368 A  
HETATM    9  C   UNL     1     -10.459  13.184  64.418  1.00  0.00    -0.427 A  
ENDROOT
BRANCH   7  10
HETATM   10  C   UNL     1     -11.376  15.286  67.444  1.00  0.00    -0.284 C  
HETATM   11  N   UNL     1     -12.163  14.980  68.538  1.00  0.00    -0.602 N  
HETATM   12  O   UNL     1     -10.648  16.268  67.406  1.00  0.00    -0.308 OA 
HETATM   13  H   UNL     1     -12.863  14.241  68.468  1.00  0.00     0.000 HD 
BRANCH  11  14
HETATM   14  C   UNL     1     -11.996  15.710  69.799  1.00  0.00    -0.354 C  
HETATM   15  C   UNL     1     -11.855  14.794  71.013  1.00  0.00    -0.329 C  
HETATM   16  O   UNL     1     -11.642  15.195  72.148  1.00  0.00    -0.414 OA 
HETATM   17  O   UNL     1     -11.941  13.477  70.712  1.00  0.00    -0.305 OA 
ENDBRANCH  11  14
ENDBRANCH   7  10
TORSDOF 2
ENDMDL
MODEL       20
REMARK 921   NORMALIZED FREE ENERGY PREDICTED BY IDOCK:   -5.30 KCAL/MOL
REMARK 922        TOTAL FREE ENERGY PREDICTED BY IDOCK:   -6.13 KCAL/MOL
REMARK 923 INTER-LIGAND FREE ENERGY PREDICTED BY IDOCK:   -5.91 KCAL/MOL
REMARK 924 INTRA-LIGAND FREE ENERGY PREDICTED BY IDOCK:   -0.23 KCAL/MOL
REMARK 927      BINDING AFFINITY PREDICTED BY RF-SCORE:    0.00 PKD
ROOT
HETATM    1  N   UNL     1     -12.675   9.913  70.777  1.00  0.00    -0.498 NA 
HETATM    2  H2  UNL     1     -11.950   9.204  70.662  1.00  0.00     0.000 HD 
HETATM    3  C   UNL     1     -12.224  11.102  70.197  1.00  0.00    -0.337 A  
HETATM    4  H1  UNL     1     -12.984   9.900  71.749  1.00  0.00     0.000 HD 
HETATM    5  C   UNL     1     -11.800  11.120  68.866  1.00  0.00    -0.406 A  
HETATM    6  C   UNL     1     -11.481  12.325  68.232  1.00  0.00    -0.367 A  
HETATM    7  C   UNL     1     -11.612  13.534  68.920  1.00  0.00    -0.364 A  
HETATM    8  C   UNL     1     -12.097  13.532  70.233  1.00  0.00    -0.425 A  
HETATM    9  C   UNL     1     -12.421  12.321  70.854  1.00  0.00    -0.371 A  
ENDROOT
BRANCH   7  10
HETATM   10  C   UNL     1     -11.296  14.800  68.208  1.00  0.00    -0.301 C  
HETATM   11  N   UNL     1     -10.677  14.673  66.979  1.00  0.00    -0.285 N  
HETATM   12  O   UNL     1     -11.574  15.884  68.701  1.00  0.00    -0.382 OA 
HETATM   13  H   UNL     1     -10.329  13.763  66.677  1.00  0.00     0.000 HD 
BRANCH  11  14
HETATM   14  C   UNL     1     -10.518  15.841  66.104  1.00  0.00    -0.317 C  
HETATM   15  C   UNL     1     -11.240  15.696  64.767  1.00  0.00    -0.382 C  
HETATM   16  O   UNL     1     -11.290  16.578  63.921  1.00  0.00    -1.057 OA 
HETATM   17  O   UNL     1     -11.868  14.506  64.614  1.00  0.00    -0.413 OA 
ENDBRANCH  11  14
ENDBRANCH   7  10
TORSDOF 2
ENDMDL
MODEL       21
REMARK 921   NORMALIZED FREE ENERGY PREDICTED BY IDOCK:   -5.29 KCAL/MOL
REMARK 922        TOTAL FREE ENERGY PREDICTED BY IDOCK:   -6.13 KCAL/MOL
REMARK 923 INTER-LIGAND FREE ENERGY PREDICTED BY IDOCK:   -5.96 KCAL/MOL
REMARK 924 INTRA-LIGAND FREE ENERGY PREDICTED BY IDOCK:   -0.17 KCAL/MOL
REMARK 927      BINDING AFFINITY PREDICTED BY RF-SCORE:    0.00 PKD
ROOT
HETATM    1  N   UNL     1     -12.141   8.289  72.481  1.00  0.00    -0.511 NA 
HETATM    2  H2  UNL     1     -13.094   7.947  72.607  1.00  0.00     0.000 HD 
HETATM    3  C   UNL     1     -12.180   9.399  71.633  1.00  0.00    -0.390 A  
HETATM    4  H1  UNL     1     -11.542   7.494  72.261  1.00  0.00     0.000 HD 
HETATM    5  C   UNL     1     -13.001  10.488  71.935  1.00  0.00    -0.553 A  
HETATM    6  C   UNL     1     -12.945  11.660  71.174  1.00  0.00    -0.308 A  
HETATM    7  C   UNL     1     -12.042  11.765  70.115  1.00  0.00    -0.398 A  
HETATM    8  C   UNL     1     -11.169  10.704  69.844  1.00  0.00    -0.378 A  
HETATM    9  C   UNL     1     -11.229   9.539  70.617  1.00  0.00    -0.364 A  
ENDROOT
BRANCH   7  10
HETATM   10  C   UNL     1     -11.984  13.036  69.346  1.00  0.00    -0.281 C  
HETATM   11  N   UNL     1     -11.772  12.919  67.986  1.00  0.00    -0.343 N  
HETATM   12  O   UNL     1     -12.117  14.115  69.906  1.00  0.00    -0.308 OA 
HETATM   13  H   UNL     1     -11.517  12.015  67.587  1.00  0.00     0.000 HD 
BRANCH  11  14
HETATM   14  C   UNL     1     -11.912  14.089  67.110  1.00  0.00    -0.430 C  
HETATM   15  C   UNL     1     -12.306  13.728  65.680  1.00  0.00    -0.482 C  
HETATM   16  O   UNL     1     -12.539  14.553  64.808  1.00  0.00    -0.567 OA 
HETATM   17  O   UNL     1     -12.423  12.395  65.468  1.00  0.00    -0.643 OA 
ENDBRANCH  11  14
ENDBRANCH   7  10
TORSDOF 2
ENDMDL
MODEL       22
REMARK 921   NORMALIZED FREE ENERGY PREDICTED BY IDOCK:   -5.25 KCAL/MOL
REMARK 922        TOTAL FREE ENERGY PREDICTED BY IDOCK:   -6.08 KCAL/MOL
REMARK 923 INTER-LIGAND FREE ENERGY PREDICTED BY IDOCK:   -5.85 KCAL/MOL
REMARK 924 INTRA-LIGAND FREE ENERGY PREDICTED BY IDOCK:   -0.23 KCAL/MOL
REMARK 927      BINDING AFFINITY PREDICTED BY RF-SCORE:    0.00 PKD
ROOT
HETATM    1  N   UNL     1     -12.419   9.698  70.800  1.00  0.00    -0.472 NA 
HETATM    2  H2  UNL     1     -13.319   9.748  71.278  1.00  0.00     0.000 HD 
HETATM    3  C   UNL     1     -12.244  10.872  70.063  1.00  0.00    -0.347 A  
HETATM    4  H1  UNL     1     -12.349   8.789  70.342  1.00  0.00     0.000 HD 
HETATM    5  C   UNL     1     -12.339  12.117  70.691  1.00  0.00    -0.385 A  
HETATM    6  C   UNL     1     -12.029  13.293  69.999  1.00  0.00    -0.399 A  
HETATM    7  C   UNL     1     -11.590  13.231  68.675  1.00  0.00    -0.362 A  
HETATM    8  C   UNL     1     -11.430  11.985  68.058  1.00  0.00    -0.392 A  
HETATM    9  C   UNL     1     -11.735  10.815  68.762  1.00  0.00    -0.315 A  
ENDROOT
BRANCH   7  10
HETATM   10  C   UNL     1     -11.238  14.496  67.978  1.00  0.00    -0.292 C  
HETATM   11  N   UNL     1     -10.670  14.368  66.725  1.00  0.00    -0.289 N  
HETATM   12  O   UNL     1     -11.445  15.581  68.504  1.00  0.00    -0.328 OA 
HETATM   13  H   UNL     1     -10.378  13.449  66.392  1.00  0.00     0.000 HD 
BRANCH  11  14
HETATM   14  C   UNL     1     -10.484  15.546  65.870  1.00  0.00    -0.342 C  
HETATM   15  C   UNL     1     -11.417  15.567  64.661  1.00  0.00    -0.324 C  
HETATM   16  O   UNL     1     -11.472  16.489  63.860  1.00  0.00    -1.145 OA 
HETATM   17  O   UNL     1     -12.222  14.482  64.577  1.00  0.00    -0.462 OA 
ENDBRANCH  11  14
ENDBRANCH   7  10
TORSDOF 2
ENDMDL
MODEL       23
REMARK 921   NORMALIZED FREE ENERGY PREDICTED BY IDOCK:   -5.22 KCAL/MOL
REMARK 922        TOTAL FREE ENERGY PREDICTED BY IDOCK:   -6.04 KCAL/MOL
REMARK 923 INTER-LIGAND FREE ENERGY PREDICTED BY IDOCK:   -5.88 KCAL/MOL
REMARK 924 INTRA-LIGAND FREE ENERGY PREDICTED BY IDOCK:   -0.16 KCAL/MOL
REMARK 927      BINDING AFFINITY PREDICTED BY RF-SCORE:    0.00 PKD
ROOT
HETATM    1  N   UNL     1     -13.732  13.096  72.887  1.00  0.00    -0.649 NA 
HETATM    2  H2  UNL     1     -14.527  13.720  72.749  1.00  0.00     0.000 HD 
HETATM    3  C   UNL     1     -13.139  12.858  71.643  1.00  0.00    -0.335 A  
HETATM    4  H1  UNL     1     -14.034  12.315  73.470  1.00  0.00     0.000 HD 
HETATM    5  C   UNL     1     -12.727  13.927  70.844  1.00  0.00    -0.410 A  
HETATM    6  C   UNL     1     -12.007  13.704  69.666  1.00  0.00    -0.402 A  
HETATM    7  C   UNL     1     -11.667  12.403  69.289  1.00  0.00    -0.386 A  
HETATM    8  C   UNL     1     -12.019  11.330  70.116  1.00  0.00    -0.452 A  
HETATM    9  C   UNL     1     -12.732  11.566  71.296  1.00  0.00    -0.469 A  
ENDROOT
BRANCH   7  10
HETATM   10  C   UNL     1     -10.873  12.202  68.048  1.00  0.00    -0.222 C  
HETATM   11  N   UNL     1     -11.588  12.140  66.867  1.00  0.00    -0.354 N  
HETATM   12  O   UNL     1      -9.656  12.097  68.091  1.00  0.00    -0.198 OA 
HETATM   13  H   UNL     1     -12.606  12.080  66.893  1.00  0.00     0.000 HD 
BRANCH  11  14
HETATM   14  C   UNL     1     -10.892  12.160  65.576  1.00  0.00    -0.283 C  
HETATM   15  C   UNL     1     -11.808  12.495  64.401  1.00  0.00    -0.386 C  
HETATM   16  O   UNL     1     -11.419  12.628  63.250  1.00  0.00    -0.483 OA 
HETATM   17  O   UNL     1     -13.102  12.680  64.756  1.00  0.00    -0.852 OA 
ENDBRANCH  11  14
ENDBRANCH   7  10
TORSDOF 2
ENDMDL
MODEL       24
REMARK 921   NORMALIZED FREE ENERGY PREDICTED BY IDOCK:   -5.20 KCAL/MOL
REMARK 922        TOTAL FREE ENERGY PREDICTED BY IDOCK:   -6.02 KCAL/MOL
REMARK 923 INTER-LIGAND FREE ENERGY PREDICTED BY IDOCK:   -5.80 KCAL/MOL
REMARK 924 INTRA-LIGAND FREE ENERGY PREDICTED BY IDOCK:   -0.23 KCAL/MOL
REMARK 927      BINDING AFFINITY PREDICTED BY RF-SCORE:    0.00 PKD
ROOT
HETATM    1  N   UNL     1     -12.731   6.559  72.152  1.00  0.00    -0.546 NA 
HETATM    2  H2  UNL     1     -11.858   6.146  72.478  1.00  0.00     0.000 HD 
HETATM    3  C   UNL     1     -12.499   7.906  71.860  1.00  0.00    -0.321 A  
HETATM    4  H1  UNL     1     -13.473   6.295  72.800  1.00  0.00     0.000 HD 
HETATM    5  C   UNL     1     -11.483   8.268  70.971  1.00  0.00    -0.303 A  
HETATM    6  C   UNL     1     -11.330   9.597  70.562  1.00  0.00    -0.360 A  
HETATM    7  C   UNL     1     -12.215  10.576  71.017  1.00  0.00    -0.505 A  
HETATM    8  C   UNL     1     -13.275  10.213  71.856  1.00  0.00    -0.557 A  
HETATM    9  C   UNL     1     -13.423   8.879  72.253  1.00  0.00    -0.503 A  
ENDROOT
BRANCH   7  10
HETATM   10  C   UNL     1     -12.045  11.973  70.538  1.00  0.00    -0.311 C  
HETATM   11  N   UNL     1     -11.163  12.159  69.491  1.00  0.00    -0.450 N  
HETATM   12  O   UNL     1     -12.661  12.894  71.056  1.00  0.00    -0.366 OA 
HETATM   13  H   UNL     1     -10.562  11.390  69.193  1.00  0.00     0.000 HD 
BRANCH  11  14
HETATM   14  C   UNL     1     -11.084  13.454  68.807  1.00  0.00    -0.262 C  
HETATM   15  C   UNL     1     -11.640  13.421  67.385  1.00  0.00    -0.354 C  
HETATM   16  O   UNL     1     -11.730  14.405  66.666  1.00  0.00    -0.371 OA 
HETATM   17  O   UNL     1     -12.074  12.197  67.000  1.00  0.00    -0.591 OA 
ENDBRANCH  11  14
ENDBRANCH   7  10
TORSDOF 2
ENDMDL
MODEL       25
REMARK 921   NORMALIZED FREE ENERGY PREDICTED BY IDOCK:   -5.20 KCAL/MOL
REMARK 922        TOTAL FREE ENERGY PREDICTED BY IDOCK:   -6.02 KCAL/MOL
REMARK 923 INTER-LIGAND FREE ENERGY PREDICTED BY IDOCK:   -5.87 KCAL/MOL
REMARK 924 INTRA-LIGAND FREE ENERGY PREDICTED BY IDOCK:   -0.15 KCAL/MOL
REMARK 927      BINDING AFFINITY PREDICTED BY RF-SCORE:    0.00 PKD
ROOT
HETATM    1  N   UNL     1     -11.625   7.162  73.079  1.00  0.00    -0.550 NA 
HETATM    2  H2  UNL     1     -10.768   7.155  73.631  1.00  0.00     0.000 HD 
HETATM    3  C   UNL     1     -11.679   8.361  72.362  1.00  0.00    -0.382 A  
HETATM    4  H1  UNL     1     -12.399   6.892  73.686  1.00  0.00     0.000 HD 
HETATM    5  C   UNL     1     -10.618   8.731  71.531  1.00  0.00    -0.379 A  
HETATM    6  C   UNL     1     -10.717   9.854  70.702  1.00  0.00    -0.372 A  
HETATM    7  C   UNL     1     -11.895  10.603  70.675  1.00  0.00    -0.463 A  
HETATM    8  C   UNL     1     -12.986  10.202  71.455  1.00  0.00    -0.547 A  
HETATM    9  C   UNL     1     -12.879   9.074  72.275  1.00  0.00    -0.474 A  
ENDROOT
BRANCH   7  10
HETATM   10  C   UNL     1     -11.980  11.771  69.759  1.00  0.00    -0.322 C  
HETATM   11  N   UNL     1     -11.777  13.013  70.330  1.00  0.00    -0.542 N  
HETATM   12  O   UNL     1     -12.219  11.619  68.570  1.00  0.00    -0.485 OA 
HETATM   13  H   UNL     1     -11.732  13.103  71.345  1.00  0.00     0.000 HD 
BRANCH  11  14
HETATM   14  C   UNL     1     -11.627  14.202  69.484  1.00  0.00    -0.295 C  
HETATM   15  C   UNL     1     -11.359  15.478  70.279  1.00  0.00    -0.332 C  
HETATM   16  O   UNL     1     -11.138  16.566  69.767  1.00  0.00    -0.337 OA 
HETATM   17  O   UNL     1     -11.341  15.289  71.620  1.00  0.00    -0.390 OA 
ENDBRANCH  11  14
ENDBRANCH   7  10
TORSDOF 2
ENDMDL
MODEL       26
REMARK 921   NORMALIZED FREE ENERGY PREDICTED BY IDOCK:   -5.20 KCAL/MOL
REMARK 922        TOTAL FREE ENERGY PREDICTED BY IDOCK:   -6.02 KCAL/MOL
REMARK 923 INTER-LIGAND FREE ENERGY PREDICTED BY IDOCK:   -5.84 KCAL/MOL
REMARK 924 INTRA-LIGAND FREE ENERGY PREDICTED BY IDOCK:   -0.18 KCAL/MOL
REMARK 927      BINDING AFFINITY PREDICTED BY RF-SCORE:    0.00 PKD
ROOT
HETATM    1  N   UNL     1      -6.888  18.004  68.554  1.00  0.00    -0.228 NA 
HETATM    2  H2  UNL     1      -7.325  18.493  69.335  1.00  0.00     0.000 HD 
HETATM    3  C   UNL     1      -7.897  17.455  67.758  1.00  0.00    -0.200 A  
HETATM    4  H1  UNL     1      -6.144  17.411  68.923  1.00  0.00     0.000 HD 
HETATM    5  C   UNL     1      -8.916  18.267  67.253  1.00  0.00    -0.259 A  
HETATM    6  C   UNL     1      -9.850  17.760  66.343  1.00  0.00    -0.328 A  
HETATM    7  C   UNL     1      -9.755  16.438  65.906  1.00  0.00    -0.327 A  
HETATM    8  C   UNL     1      -8.701  15.635  66.356  1.00  0.00    -0.354 A  
HETATM    9  C   UNL     1      -7.767  16.154  67.260  1.00  0.00    -0.212 A  
ENDROOT
BRANCH   7  10
HETATM   10  C   UNL     1     -10.745  15.940  64.914  1.00  0.00    -0.341 C  
HETATM   11  N   UNL     1     -10.941  14.573  64.878  1.00  0.00    -0.395 N  
HETATM   12  O   UNL     1     -11.339  16.714  64.177  1.00  0.00    -1.141 OA 
HETATM   13  H   UNL     1     -10.318  13.957  65.400  1.00  0.00     0.000 HD 
BRANCH  11  14
HETATM   14  C   UNL     1     -12.042  14.002  64.093  1.00  0.00    -0.422 C  
HETATM   15  C   UNL     1     -12.572  12.689  64.663  1.00  0.00    -0.440 C  
HETATM   16  O   UNL     1     -13.528  12.082  64.201  1.00  0.00    -0.672 OA 
HETATM   17  O   UNL     1     -11.911  12.270  65.769  1.00  0.00    -0.521 OA 
ENDBRANCH  11  14
ENDBRANCH   7  10
TORSDOF 2
ENDMDL
MODEL       27
REMARK 921   NORMALIZED FREE ENERGY PREDICTED BY IDOCK:   -5.18 KCAL/MOL
REMARK 922        TOTAL FREE ENERGY PREDICTED BY IDOCK:   -6.01 KCAL/MOL
REMARK 923 INTER-LIGAND FREE ENERGY PREDICTED BY IDOCK:   -5.81 KCAL/MOL
REMARK 924 INTRA-LIGAND FREE ENERGY PREDICTED BY IDOCK:   -0.20 KCAL/MOL
REMARK 927      BINDING AFFINITY PREDICTED BY RF-SCORE:    0.00 PKD
ROOT
HETATM    1  N   UNL     1     -12.500  13.884  63.125  1.00  0.00    -1.079 NA 
HETATM    2  H2  UNL     1     -12.828  13.225  62.419  1.00  0.00     0.000 HD 
HETATM    3  C   UNL     1     -12.135  13.163  64.265  1.00  0.00    -0.414 A  
HETATM    4  H1  UNL     1     -13.177  14.644  63.193  1.00  0.00     0.000 HD 
HETATM    5  C   UNL     1     -11.208  12.121  64.172  1.00  0.00    -0.433 A  
HETATM    6  C   UNL     1     -10.729  11.485  65.322  1.00  0.00    -0.337 A  
HETATM    7  C   UNL     1     -11.153  11.906  66.584  1.00  0.00    -0.360 A  
HETATM    8  C   UNL     1     -12.031  12.991  66.691  1.00  0.00    -0.453 A  
HETATM    9  C   UNL     1     -12.498  13.625  65.534  1.00  0.00    -0.544 A  
ENDROOT
BRANCH   7  10
HETATM   10  C   UNL     1     -10.600  11.231  67.787  1.00  0.00    -0.201 C  
HETATM   11  N   UNL     1     -11.427  10.316  68.410  1.00  0.00    -0.523 N  
HETATM   12  O   UNL     1      -9.473  11.487  68.188  1.00  0.00    -0.171 OA 
HETATM   13  H   UNL     1     -12.406  10.247  68.134  1.00  0.00     0.000 HD 
BRANCH  11  14
HETATM   14  C   UNL     1     -10.904   9.444  69.469  1.00  0.00    -0.213 C  
HETATM   15  C   UNL     1     -11.353   9.858  70.868  1.00  0.00    -0.370 C  
HETATM   16  O   UNL     1     -11.086   9.230  71.883  1.00  0.00    -0.367 OA 
HETATM   17  O   UNL     1     -12.123  10.972  70.885  1.00  0.00    -0.342 OA 
ENDBRANCH  11  14
ENDBRANCH   7  10
TORSDOF 2
ENDMDL
MODEL       28
REMARK 921   NORMALIZED FREE ENERGY PREDICTED BY IDOCK:   -5.18 KCAL/MOL
REMARK 922        TOTAL FREE ENERGY PREDICTED BY IDOCK:   -6.00 KCAL/MOL
REMARK 923 INTER-LIGAND FREE ENERGY PREDICTED BY IDOCK:   -5.81 KCAL/MOL
REMARK 924 INTRA-LIGAND FREE ENERGY PREDICTED BY IDOCK:   -0.19 KCAL/MOL
REMARK 927      BINDING AFFINITY PREDICTED BY RF-SCORE:    0.00 PKD
ROOT
HETATM    1  N   UNL     1     -13.815   8.885  73.220  1.00  0.00    -1.162 NA 
HETATM    2  H2  UNL     1     -14.813   9.078  73.127  1.00  0.00     0.000 HD 
HETATM    3  C   UNL     1     -13.153   9.454  72.129  1.00  0.00    -0.442 A  
HETATM    4  H1  UNL     1     -13.699   7.894  73.432  1.00  0.00     0.000 HD 
HETATM    5  C   UNL     1     -13.313  10.811  71.838  1.00  0.00    -0.445 A  
HETATM    6  C   UNL     1     -12.550  11.424  70.838  1.00  0.00    -0.453 A  
HETATM    7  C   UNL     1     -11.595  10.687  70.136  1.00  0.00    -0.414 A  
HETATM    8  C   UNL     1     -11.382   9.343  70.464  1.00  0.00    -0.328 A  
HETATM    9  C   UNL     1     -12.145   8.742  71.471  1.00  0.00    -0.388 A  
ENDROOT
BRANCH   7  10
HETATM   10  C   UNL     1     -10.778  11.375  69.102  1.00  0.00    -0.189 C  
HETATM   11  N   UNL     1     -11.449  12.258  68.279  1.00  0.00    -0.291 N  
HETATM   12  O   UNL     1      -9.579  11.156  69.001  1.00  0.00    -0.175 OA 
HETATM   13  H   UNL     1     -12.469  12.296  68.299  1.00  0.00     0.000 HD 
BRANCH  11  14
HETATM   14  C   UNL     1     -10.705  13.143  67.375  1.00  0.00    -0.253 C  
HETATM   15  C   UNL     1     -11.314  13.227  65.977  1.00  0.00    -0.305 C  
HETATM   16  O   UNL     1     -10.889  13.957  65.092  1.00  0.00    -0.320 OA 
HETATM   17  O   UNL     1     -12.409  12.448  65.813  1.00  0.00    -0.644 OA 
ENDBRANCH  11  14
ENDBRANCH   7  10
TORSDOF 2
ENDMDL
MODEL       29
REMARK 921   NORMALIZED FREE ENERGY PREDICTED BY IDOCK:   -5.17 KCAL/MOL
REMARK 922        TOTAL FREE ENERGY PREDICTED BY IDOCK:   -5.99 KCAL/MOL
REMARK 923 INTER-LIGAND FREE ENERGY PREDICTED BY IDOCK:   -5.78 KCAL/MOL
REMARK 924 INTRA-LIGAND FREE ENERGY PREDICTED BY IDOCK:   -0.21 KCAL/MOL
REMARK 927      BINDING AFFINITY PREDICTED BY RF-SCORE:    0.00 PKD
ROOT
HETATM    1  N   UNL     1     -13.454   9.063  72.860  1.00  0.00    -0.886 NA 
HETATM    2  H2  UNL     1     -12.774   8.447  73.305  1.00  0.00     0.000 HD 
HETATM    3  C   UNL     1     -12.777   9.885  71.954  1.00  0.00    -0.409 A  
HETATM    4  H1  UNL     1     -14.040   9.472  73.587  1.00  0.00     0.000 HD 
HETATM    5  C   UNL     1     -11.975   9.324  70.958  1.00  0.00    -0.369 A  
HETATM    6  C   UNL     1     -11.406  10.124  69.961  1.00  0.00    -0.351 A  
HETATM    7  C   UNL     1     -11.661  11.497  69.936  1.00  0.00    -0.387 A  
HETATM    8  C   UNL     1     -12.516  12.058  70.891  1.00  0.00    -0.384 A  
HETATM    9  C   UNL     1     -13.085  11.247  71.879  1.00  0.00    -0.510 A  
ENDROOT
BRANCH   7  10
HETATM   10  C   UNL     1     -11.068  12.314  68.845  1.00  0.00    -0.242 C  
HETATM   11  N   UNL     1     -11.949  13.074  68.100  1.00  0.00    -0.329 N  
HETATM   12  O   UNL     1      -9.863  12.299  68.633  1.00  0.00    -0.184 OA 
HETATM   13  H   UNL     1     -12.954  12.940  68.213  1.00  0.00     0.000 HD 
BRANCH  11  14
HETATM   14  C   UNL     1     -11.448  14.072  67.148  1.00  0.00    -0.352 C  
HETATM   15  C   UNL     1     -11.892  13.811  65.711  1.00  0.00    -0.372 C  
HETATM   16  O   UNL     1     -11.641  14.557  64.775  1.00  0.00    -0.377 OA 
HETATM   17  O   UNL     1     -12.639  12.691  65.567  1.00  0.00    -0.634 OA 
ENDBRANCH  11  14
ENDBRANCH   7  10
TORSDOF 2
ENDMDL
MODEL       30
REMARK 921   NORMALIZED FREE ENERGY PREDICTED BY IDOCK:   -5.16 KCAL/MOL
REMARK 922        TOTAL FREE ENERGY PREDICTED BY IDOCK:   -5.98 KCAL/MOL
REMARK 923 INTER-LIGAND FREE ENERGY PREDICTED BY IDOCK:   -5.79 KCAL/MOL
REMARK 924 INTRA-LIGAND FREE ENERGY PREDICTED BY IDOCK:   -0.19 KCAL/MOL
REMARK 927      BINDING AFFINITY PREDICTED BY RF-SCORE:    0.00 PKD
ROOT
HETATM    1  N   UNL     1     -12.888  16.161  74.265  1.00  0.00    -0.951 NA 
HETATM    2  H2  UNL     1     -13.178  17.130  74.131  1.00  0.00     0.000 HD 
HETATM    3  C   UNL     1     -12.725  15.572  73.008  1.00  0.00    -0.454 A  
HETATM    4  H1  UNL     1     -13.505  15.734  74.956  1.00  0.00     0.000 HD 
HETATM    5  C   UNL     1     -11.880  16.157  72.061  1.00  0.00    -0.615 A  
HETATM    6  C   UNL     1     -11.598  15.508  70.854  1.00  0.00    -0.410 A  
HETATM    7  C   UNL     1     -12.139  14.246  70.595  1.00  0.00    -0.417 A  
HETATM    8  C   UNL     1     -12.933  13.623  71.565  1.00  0.00    -0.443 A  
HETATM    9  C   UNL     1     -13.203  14.279  72.771  1.00  0.00    -0.614 A  
ENDROOT
BRANCH   7  10
HETATM   10  C   UNL     1     -11.794  13.568  69.318  1.00  0.00    -0.341 C  
HETATM   11  N   UNL     1     -11.153  12.349  69.425  1.00  0.00    -0.443 N  
HETATM   12  O   UNL     1     -12.068  14.080  68.242  1.00  0.00    -0.355 OA 
HETATM   13  H   UNL     1     -10.810  12.034  70.333  1.00  0.00     0.000 HD 
BRANCH  11  14
HETATM   14  C   UNL     1     -10.963  11.504  68.241  1.00  0.00    -0.224 C  
HETATM   15  C   UNL     1      -9.556  11.596  67.654  1.00  0.00    -0.181 C  
HETATM   16  O   UNL     1      -9.168  10.926  66.708  1.00  0.00    -0.156 OA 
HETATM   17  O   UNL     1      -8.749  12.464  68.309  1.00  0.00    -0.183 OA 
ENDBRANCH  11  14
ENDBRANCH   7  10
TORSDOF 2
ENDMDL
MODEL       31
REMARK 921   NORMALIZED FREE ENERGY PREDICTED BY IDOCK:   -5.06 KCAL/MOL
REMARK 922        TOTAL FREE ENERGY PREDICTED BY IDOCK:   -5.87 KCAL/MOL
REMARK 923 INTER-LIGAND FREE ENERGY PREDICTED BY IDOCK:   -5.69 KCAL/MOL
REMARK 924 INTRA-LIGAND FREE ENERGY PREDICTED BY IDOCK:   -0.18 KCAL/MOL
REMARK 927      BINDING AFFINITY PREDICTED BY RF-SCORE:    0.00 PKD
ROOT
HETATM    1  N   UNL     1     -12.672  15.195  70.307  1.00  0.00    -0.585 NA 
HETATM    2  H2  UNL     1     -12.467  15.764  71.128  1.00  0.00     0.000 HD 
HETATM    3  C   UNL     1     -12.587  13.849  70.672  1.00  0.00    -0.335 A  
HETATM    4  H1  UNL     1     -12.123  15.551  69.524  1.00  0.00     0.000 HD 
HETATM    5  C   UNL     1     -13.340  13.361  71.743  1.00  0.00    -0.479 A  
HETATM    6  C   UNL     1     -13.373  11.992  72.031  1.00  0.00    -0.447 A  
HETATM    7  C   UNL     1     -12.673  11.091  71.226  1.00  0.00    -0.537 A  
HETATM    8  C   UNL     1     -11.969  11.562  70.112  1.00  0.00    -0.452 A  
HETATM    9  C   UNL     1     -11.949  12.932  69.830  1.00  0.00    -0.365 A  
ENDROOT
BRANCH   7  10
HETATM   10  C   UNL     1     -12.756   9.640  71.539  1.00  0.00    -0.387 C  
HETATM   11  N   UNL     1     -12.115   8.787  70.661  1.00  0.00    -0.481 N  
HETATM   12  O   UNL     1     -13.364   9.243  72.523  1.00  0.00    -0.457 OA 
HETATM   13  H   UNL     1     -11.753   9.146  69.778  1.00  0.00     0.000 HD 
BRANCH  11  14
HETATM   14  C   UNL     1     -11.954   7.366  70.991  1.00  0.00    -0.306 C  
HETATM   15  C   UNL     1     -11.157   6.590  69.945  1.00  0.00    -0.371 C  
HETATM   16  O   UNL     1     -10.852   5.411  70.058  1.00  0.00    -0.293 OA 
HETATM   17  O   UNL     1     -10.772   7.342  68.887  1.00  0.00    -0.200 OA 
ENDBRANCH  11  14
ENDBRANCH   7  10
TORSDOF 2
ENDMDL
MODEL       32
REMARK 921   NORMALIZED FREE ENERGY PREDICTED BY IDOCK:   -5.06 KCAL/MOL
REMARK 922        TOTAL FREE ENERGY PREDICTED BY IDOCK:   -5.86 KCAL/MOL
REMARK 923 INTER-LIGAND FREE ENERGY PREDICTED BY IDOCK:   -5.68 KCAL/MOL
REMARK 924 INTRA-LIGAND FREE ENERGY PREDICTED BY IDOCK:   -0.18 KCAL/MOL
REMARK 927      BINDING AFFINITY PREDICTED BY RF-SCORE:    0.00 PKD
ROOT
HETATM    1  N   UNL     1     -12.258  10.658  68.474  1.00  0.00    -0.801 NA 
HETATM    2  H2  UNL     1     -11.580  10.117  67.937  1.00  0.00     0.000 HD 
HETATM    3  C   UNL     1     -11.815  11.981  68.539  1.00  0.00    -0.311 A  
HETATM    4  H1  UNL     1     -12.472  10.145  69.330  1.00  0.00     0.000 HD 
HETATM    5  C   UNL     1     -11.522  12.684  67.367  1.00  0.00    -0.397 A  
HETATM    6  C   UNL     1     -11.214  14.048  67.407  1.00  0.00    -0.328 A  
HETATM    7  C   UNL     1     -11.224  14.732  68.625  1.00  0.00    -0.288 A  
HETATM    8  C   UNL     1     -11.578  14.052  69.796  1.00  0.00    -0.344 A  
HETATM    9  C   UNL     1     -11.893  12.690  69.742  1.00  0.00    -0.379 A  
ENDROOT
BRANCH   7  10
HETATM   10  C   UNL     1     -10.923  16.188  68.630  1.00  0.00    -0.336 C  
HETATM   11  N   UNL     1     -10.753  16.782  67.395  1.00  0.00    -0.288 N  
HETATM   12  O   UNL     1     -10.833  16.806  69.681  1.00  0.00    -0.333 OA 
HETATM   13  H   UNL     1     -10.687  16.203  66.558  1.00  0.00     0.000 HD 
BRANCH  11  14
HETATM   14  C   UNL     1     -10.667  18.243  67.279  1.00  0.00    -0.337 C  
HETATM   15  C   UNL     1     -10.718  18.738  65.836  1.00  0.00    -0.264 C  
HETATM   16  O   UNL     1     -10.728  19.919  65.521  1.00  0.00    -0.461 OA 
HETATM   17  O   UNL     1     -10.800  17.742  64.922  1.00  0.00    -0.815 OA 
ENDBRANCH  11  14
ENDBRANCH   7  10
TORSDOF 2
ENDMDL
MODEL       33
REMARK 921   NORMALIZED FREE ENERGY PREDICTED BY IDOCK:   -5.06 KCAL/MOL
REMARK 922        TOTAL FREE ENERGY PREDICTED BY IDOCK:   -5.86 KCAL/MOL
REMARK 923 INTER-LIGAND FREE ENERGY PREDICTED BY IDOCK:   -5.69 KCAL/MOL
REMARK 924 INTRA-LIGAND FREE ENERGY PREDICTED BY IDOCK:   -0.17 KCAL/MOL
REMARK 927      BINDING AFFINITY PREDICTED BY RF-SCORE:    0.00 PKD
ROOT
HETATM    1  N   UNL     1      -9.961  10.940  62.467  1.00  0.00    -0.676 NA 
HETATM    2  H2  UNL     1     -10.040   9.949  62.238  1.00  0.00     0.000 HD 
HETATM    3  C   UNL     1     -10.459  11.134  63.759  1.00  0.00    -0.381 A  
HETATM    4  H1  UNL     1     -10.333  11.481  61.687  1.00  0.00     0.000 HD 
HETATM    5  C   UNL     1      -9.950  10.392  64.828  1.00  0.00    -0.409 A  
HETATM    6  C   UNL     1     -10.336  10.673  66.143  1.00  0.00    -0.291 A  
HETATM    7  C   UNL     1     -11.219  11.724  66.404  1.00  0.00    -0.382 A  
HETATM    8  C   UNL     1     -11.684  12.514  65.346  1.00  0.00    -0.444 A  
HETATM    9  C   UNL     1     -11.284  12.228  64.036  1.00  0.00    -0.456 A  
ENDROOT
BRANCH   7  10
HETATM   10  C   UNL     1     -11.585  12.017  67.814  1.00  0.00    -0.330 C  
HETATM   11  N   UNL     1     -11.225  13.262  68.294  1.00  0.00    -0.260 N  
HETATM   12  O   UNL     1     -12.170  11.188  68.497  1.00  0.00    -0.600 OA 
HETATM   13  H   UNL     1     -10.609  13.859  67.743  1.00  0.00     0.000 HD 
BRANCH  11  14
HETATM   14  C   UNL     1     -11.724  13.729  69.593  1.00  0.00    -0.318 C  
HETATM   15  C   UNL     1     -12.011  15.228  69.624  1.00  0.00    -0.338 C  
HETATM   16  O   UNL     1     -12.495  15.809  70.586  1.00  0.00    -0.420 OA 
HETATM   17  O   UNL     1     -11.724  15.862  68.463  1.00  0.00    -0.383 OA 
ENDBRANCH  11  14
ENDBRANCH   7  10
TORSDOF 2
ENDMDL
MODEL       34
REMARK 921   NORMALIZED FREE ENERGY PREDICTED BY IDOCK:   -5.01 KCAL/MOL
REMARK 922        TOTAL FREE ENERGY PREDICTED BY IDOCK:   -5.81 KCAL/MOL
REMARK 923 INTER-LIGAND FREE ENERGY PREDICTED BY IDOCK:   -5.61 KCAL/MOL
REMARK 924 INTRA-LIGAND FREE ENERGY PREDICTED BY IDOCK:   -0.20 KCAL/MOL
REMARK 927      BINDING AFFINITY PREDICTED BY RF-SCORE:    0.00 PKD
ROOT
HETATM    1  N   UNL     1     -12.567   6.847  72.112  1.00  0.00    -0.536 NA 
HETATM    2  H2  UNL     1     -11.666   6.519  72.459  1.00  0.00     0.000 HD 
HETATM    3  C   UNL     1     -12.509   8.238  71.982  1.00  0.00    -0.351 A  
HETATM    4  H1  UNL     1     -13.303   6.414  72.670  1.00  0.00     0.000 HD 
HETATM    5  C   UNL     1     -11.501   8.831  71.217  1.00  0.00    -0.355 A  
HETATM    6  C   UNL     1     -11.511  10.207  70.962  1.00  0.00    -0.436 A  
HETATM    7  C   UNL     1     -12.552  11.001  71.448  1.00  0.00    -0.498 A  
HETATM    8  C   UNL     1     -13.600  10.405  72.159  1.00  0.00    -0.202 A  
HETATM    9  C   UNL     1     -13.583   9.028  72.402  1.00  0.00    -0.533 A  
ENDROOT
BRANCH   7  10
HETATM   10  C   UNL     1     -12.551  12.453  71.132  1.00  0.00    -0.251 C  
HETATM   11  N   UNL     1     -13.212  13.275  72.024  1.00  0.00    -0.439 N  
HETATM   12  O   UNL     1     -11.992  12.877  70.130  1.00  0.00    -0.341 OA 
HETATM   13  H   UNL     1     -13.790  12.865  72.759  1.00  0.00     0.000 HD 
BRANCH  11  14
HETATM   14  C   UNL     1     -13.089  14.733  71.922  1.00  0.00    -0.334 C  
HETATM   15  C   UNL     1     -12.528  15.382  73.185  1.00  0.00    -0.456 C  
HETATM   16  O   UNL     1     -12.284  16.576  73.287  1.00  0.00    -0.488 OA 
HETATM   17  O   UNL     1     -12.276  14.501  74.182  1.00  0.00    -0.388 OA 
ENDBRANCH  11  14
ENDBRANCH   7  10
TORSDOF 2
ENDMDL
MODEL       35
REMARK 921   NORMALIZED FREE ENERGY PREDICTED BY IDOCK:   -5.00 KCAL/MOL
REMARK 922        TOTAL FREE ENERGY PREDICTED BY IDOCK:   -5.80 KCAL/MOL
REMARK 923 INTER-LIGAND FREE ENERGY PREDICTED BY IDOCK:   -5.60 KCAL/MOL
REMARK 924 INTRA-LIGAND FREE ENERGY PREDICTED BY IDOCK:   -0.21 KCAL/MOL
REMARK 927      BINDING AFFINITY PREDICTED BY RF-SCORE:    0.00 PKD
ROOT
HETATM    1  N   UNL     1     -11.528   7.494  73.327  1.00  0.00    -0.632 NA 
HETATM    2  H2  UNL     1     -12.347   6.889  73.277  1.00  0.00     0.000 HD 
HETATM    3  C   UNL     1     -11.550   8.357  72.228  1.00  0.00    -0.383 A  
HETATM    4  H1  UNL     1     -10.710   6.913  73.508  1.00  0.00     0.000 HD 
HETATM    5  C   UNL     1     -12.671   9.154  71.980  1.00  0.00    -0.473 A  
HETATM    6  C   UNL     1     -12.653  10.121  70.970  1.00  0.00    -0.478 A  
HETATM    7  C   UNL     1     -11.496  10.321  70.213  1.00  0.00    -0.395 A  
HETATM    8  C   UNL     1     -10.348   9.573  70.496  1.00  0.00    -0.350 A  
HETATM    9  C   UNL     1     -10.375   8.614  71.514  1.00  0.00    -0.341 A  
ENDROOT
BRANCH   7  10
HETATM   10  C   UNL     1     -11.499  11.379  69.168  1.00  0.00    -0.299 C  
HETATM   11  N   UNL     1     -10.772  12.519  69.450  1.00  0.00    -0.437 N  
HETATM   12  O   UNL     1     -12.120  11.229  68.125  1.00  0.00    -0.635 OA 
HETATM   13  H   UNL     1     -10.398  12.664  70.388  1.00  0.00     0.000 HD 
BRANCH  11  14
HETATM   14  C   UNL     1     -10.535  13.525  68.407  1.00  0.00    -0.246 C  
HETATM   15  C   UNL     1     -11.321  14.815  68.623  1.00  0.00    -0.285 C  
HETATM   16  O   UNL     1     -11.219  15.803  67.909  1.00  0.00    -0.341 OA 
HETATM   17  O   UNL     1     -12.119  14.789  69.717  1.00  0.00    -0.302 OA 
ENDBRANCH  11  14
ENDBRANCH   7  10
TORSDOF 2
ENDMDL
MODEL       36
REMARK 921   NORMALIZED FREE ENERGY PREDICTED BY IDOCK:   -4.99 KCAL/MOL
REMARK 922        TOTAL FREE ENERGY PREDICTED BY IDOCK:   -5.79 KCAL/MOL
REMARK 923 INTER-LIGAND FREE ENERGY PREDICTED BY IDOCK:   -5.61 KCAL/MOL
REMARK 924 INTRA-LIGAND FREE ENERGY PREDICTED BY IDOCK:   -0.18 KCAL/MOL
REMARK 927      BINDING AFFINITY PREDICTED BY RF-SCORE:    0.00 PKD
ROOT
HETATM    1  N   UNL     1     -10.729  17.267  69.398  1.00  0.00    -0.354 NA 
HETATM    2  H2  UNL     1      -9.930  17.598  69.940  1.00  0.00     0.000 HD 
HETATM    3  C   UNL     1     -11.195  16.084  69.978  1.00  0.00    -0.362 A  
HETATM    4  H1  UNL     1     -10.478  17.291  68.410  1.00  0.00     0.000 HD 
HETATM    5  C   UNL     1     -11.538  16.052  71.332  1.00  0.00    -0.520 A  
HETATM    6  C   UNL     1     -12.137  14.918  71.892  1.00  0.00    -0.435 A  
HETATM    7  C   UNL     1     -12.426  13.811  71.091  1.00  0.00    -0.450 A  
HETATM    8  C   UNL     1     -12.146  13.859  69.721  1.00  0.00    -0.404 A  
HETATM    9  C   UNL     1     -11.554  15.001  69.170  1.00  0.00    -0.333 A  
ENDROOT
BRANCH   7  10
HETATM   10  C   UNL     1     -13.092  12.635  71.710  1.00  0.00    -0.360 C  
HETATM   11  N   UNL     1     -12.689  11.394  71.256  1.00  0.00    -0.415 N  
HETATM   12  O   UNL     1     -13.950  12.780  72.569  1.00  0.00    -0.499 OA 
HETATM   13  H   UNL     1     -12.085  11.325  70.437  1.00  0.00     0.000 HD 
BRANCH  11  14
HETATM   14  C   UNL     1     -13.124  10.174  71.947  1.00  0.00    -0.466 C  
HETATM   15  C   UNL     1     -12.076   9.065  71.929  1.00  0.00    -0.378 C  
HETATM   16  O   UNL     1     -12.209   7.992  72.501  1.00  0.00    -0.318 OA 
HETATM   17  O   UNL     1     -10.949   9.392  71.252  1.00  0.00    -0.317 OA 
ENDBRANCH  11  14
ENDBRANCH   7  10
TORSDOF 2
ENDMDL
MODEL       37
REMARK 921   NORMALIZED FREE ENERGY PREDICTED BY IDOCK:   -4.99 KCAL/MOL
REMARK 922        TOTAL FREE ENERGY PREDICTED BY IDOCK:   -5.78 KCAL/MOL
REMARK 923 INTER-LIGAND FREE ENERGY PREDICTED BY IDOCK:   -5.57 KCAL/MOL
REMARK 924 INTRA-LIGAND FREE ENERGY PREDICTED BY IDOCK:   -0.21 KCAL/MOL
REMARK 927      BINDING AFFINITY PREDICTED BY RF-SCORE:    0.00 PKD
ROOT
HETATM    1  N   UNL     1     -13.630   9.298  72.807  1.00  0.00    -0.774 NA 
HETATM    2  H2  UNL     1     -12.912   8.690  73.201  1.00  0.00     0.000 HD 
HETATM    3  C   UNL     1     -13.006  10.249  71.995  1.00  0.00    -0.402 A  
HETATM    4  H1  UNL     1     -14.249   9.593  73.562  1.00  0.00     0.000 HD 
HETATM    5  C   UNL     1     -12.158   9.844  70.962  1.00  0.00    -0.450 A  
HETATM    6  C   UNL     1     -11.639  10.775  70.055  1.00  0.00    -0.417 A  
HETATM    7  C   UNL     1     -11.990  12.123  70.158  1.00  0.00    -0.394 A  
HETATM    8  C   UNL     1     -12.890  12.528  71.150  1.00  0.00    -0.303 A  
HETATM    9  C   UNL     1     -13.409  11.587  72.046  1.00  0.00    -0.397 A  
ENDROOT
BRANCH   7  10
HETATM   10  C   UNL     1     -11.448  13.082  69.160  1.00  0.00    -0.299 C  
HETATM   11  N   UNL     1     -12.194  14.223  68.938  1.00  0.00    -0.548 N  
HETATM   12  O   UNL     1     -10.398  12.853  68.575  1.00  0.00    -0.243 OA 
HETATM   13  H   UNL     1     -13.132  14.300  69.332  1.00  0.00     0.000 HD 
BRANCH  11  14
HETATM   14  C   UNL     1     -11.645  15.325  68.139  1.00  0.00    -0.330 C  
HETATM   15  C   UNL     1     -11.105  16.474  68.987  1.00  0.00    -0.284 C  
HETATM   16  O   UNL     1     -10.546  17.458  68.524  1.00  0.00    -0.364 OA 
HETATM   17  O   UNL     1     -11.258  16.286  70.320  1.00  0.00    -0.367 OA 
ENDBRANCH  11  14
ENDBRANCH   7  10
TORSDOF 2
ENDMDL
MODEL       38
REMARK 921   NORMALIZED FREE ENERGY PREDICTED BY IDOCK:   -4.98 KCAL/MOL
REMARK 922        TOTAL FREE ENERGY PREDICTED BY IDOCK:   -5.78 KCAL/MOL
REMARK 923 INTER-LIGAND FREE ENERGY PREDICTED BY IDOCK:   -5.55 KCAL/MOL
REMARK 924 INTRA-LIGAND FREE ENERGY PREDICTED BY IDOCK:   -0.23 KCAL/MOL
REMARK 927      BINDING AFFINITY PREDICTED BY RF-SCORE:    0.00 PKD
ROOT
HETATM    1  N   UNL     1     -12.965   9.258  71.031  1.00  0.00    -0.525 NA 
HETATM    2  H2  UNL     1     -12.094   8.745  70.894  1.00  0.00     0.000 HD 
HETATM    3  C   UNL     1     -12.683  10.626  70.981  1.00  0.00    -0.415 A  
HETATM    4  H1  UNL     1     -13.447   8.862  71.838  1.00  0.00     0.000 HD 
HETATM    5  C   UNL     1     -12.023  11.168  69.875  1.00  0.00    -0.439 A  
HETATM    6  C   UNL     1     -11.860  12.552  69.746  1.00  0.00    -0.380 A  
HETATM    7  C   UNL     1     -12.384  13.412  70.714  1.00  0.00    -0.433 A  
HETATM    8  C   UNL     1     -13.103  12.882  71.792  1.00  0.00    -0.458 A  
HETATM    9  C   UNL     1     -13.267  11.497  71.906  1.00  0.00    -0.479 A  
ENDROOT
BRANCH   7  10
HETATM   10  C   UNL     1     -12.222  14.878  70.531  1.00  0.00    -0.329 C  
HETATM   11  N   UNL     1     -11.020  15.299  69.997  1.00  0.00    -0.270 N  
HETATM   12  O   UNL     1     -13.115  15.652  70.845  1.00  0.00    -0.493 OA 
HETATM   13  H   UNL     1     -10.251  14.637  69.893  1.00  0.00     0.000 HD 
BRANCH  11  14
HETATM   14  C   UNL     1     -10.841  16.695  69.579  1.00  0.00    -0.285 C  
HETATM   15  C   UNL     1     -10.831  16.874  68.063  1.00  0.00    -0.338 C  
HETATM   16  O   UNL     1     -10.761  17.960  67.506  1.00  0.00    -0.389 OA 
HETATM   17  O   UNL     1     -10.954  15.713  67.378  1.00  0.00    -0.314 OA 
ENDBRANCH  11  14
ENDBRANCH   7  10
TORSDOF 2
ENDMDL
MODEL       39
REMARK 921   NORMALIZED FREE ENERGY PREDICTED BY IDOCK:   -4.96 KCAL/MOL
REMARK 922        TOTAL FREE ENERGY PREDICTED BY IDOCK:   -5.75 KCAL/MOL
REMARK 923 INTER-LIGAND FREE ENERGY PREDICTED BY IDOCK:   -5.56 KCAL/MOL
REMARK 924 INTRA-LIGAND FREE ENERGY PREDICTED BY IDOCK:   -0.20 KCAL/MOL
REMARK 927      BINDING AFFINITY PREDICTED BY RF-SCORE:    0.00 PKD
ROOT
HETATM    1  N   UNL     1     -11.656  16.330  63.856  1.00  0.00    -1.573 NA 
HETATM    2  H2  UNL     1     -12.614  16.485  63.541  1.00  0.00     0.000 HD 
HETATM    3  C   UNL     1     -11.668  15.326  64.828  1.00  0.00    -0.276 A  
HETATM    4  H1  UNL     1     -11.234  17.236  64.059  1.00  0.00     0.000 HD 
HETATM    5  C   UNL     1     -12.246  14.084  64.550  1.00  0.00    -0.463 A  
HETATM    6  C   UNL     1     -12.141  13.026  65.460  1.00  0.00    -0.501 A  
HETATM    7  C   UNL     1     -11.430  13.194  66.650  1.00  0.00    -0.389 A  
HETATM    8  C   UNL     1     -10.793  14.413  66.908  1.00  0.00    -0.301 A  
HETATM    9  C   UNL     1     -10.898  15.462  65.987  1.00  0.00    -0.315 A  
ENDROOT
BRANCH   7  10
HETATM   10  C   UNL     1     -11.310  12.040  67.580  1.00  0.00    -0.319 C  
HETATM   11  N   UNL     1     -10.124  11.333  67.530  1.00  0.00    -0.181 N  
HETATM   12  O   UNL     1     -12.224  11.748  68.338  1.00  0.00    -0.467 OA 
HETATM   13  H   UNL     1      -9.455  11.517  66.782  1.00  0.00     0.000 HD 
BRANCH  11  14
HETATM   14  C   UNL     1      -9.821  10.319  68.547  1.00  0.00    -0.164 C  
HETATM   15  C   UNL     1     -10.002   8.889  68.045  1.00  0.00    -0.178 C  
HETATM   16  O   UNL     1      -9.740   7.896  68.708  1.00  0.00    -0.154 OA 
HETATM   17  O   UNL     1     -10.441   8.813  66.766  1.00  0.00    -0.275 OA 
ENDBRANCH  11  14
ENDBRANCH   7  10
TORSDOF 2
ENDMDL
MODEL       40
REMARK 921   NORMALIZED FREE ENERGY PREDICTED BY IDOCK:   -4.91 KCAL/MOL
REMARK 922        TOTAL FREE ENERGY PREDICTED BY IDOCK:   -5.70 KCAL/MOL
REMARK 923 INTER-LIGAND FREE ENERGY PREDICTED BY IDOCK:   -5.50 KCAL/MOL
REMARK 924 INTRA-LIGAND FREE ENERGY PREDICTED BY IDOCK:   -0.20 KCAL/MOL
REMARK 927      BINDING AFFINITY PREDICTED BY RF-SCORE:    0.00 PKD
ROOT
HETATM    1  N   UNL     1      -9.905  20.453  65.755  1.00  0.00    -0.591 NA 
HETATM    2  H2  UNL     1      -9.039  20.960  65.938  1.00  0.00     0.000 HD 
HETATM    3  C   UNL     1      -9.982  19.377  66.644  1.00  0.00    -0.390 A  
HETATM    4  H1  UNL     1      -9.978  20.295  64.750  1.00  0.00     0.000 HD 
HETATM    5  C   UNL     1      -9.881  19.592  68.021  1.00  0.00    -0.524 A  
HETATM    6  C   UNL     1     -10.096  18.548  68.926  1.00  0.00    -0.348 A  
HETATM    7  C   UNL     1     -10.444  17.278  68.461  1.00  0.00    -0.375 A  
HETATM    8  C   UNL     1     -10.610  17.068  67.087  1.00  0.00    -0.245 A  
HETATM    9  C   UNL     1     -10.401  18.121  66.191  1.00  0.00    -0.394 A  
ENDROOT
BRANCH   7  10
HETATM   10  C   UNL     1     -10.697  16.198  69.451  1.00  0.00    -0.307 C  
HETATM   11  N   UNL     1     -11.966  16.150  69.994  1.00  0.00    -0.341 N  
HETATM   12  O   UNL     1      -9.816  15.407  69.755  1.00  0.00    -0.268 OA 
HETATM   13  H   UNL     1     -12.619  16.916  69.826  1.00  0.00     0.000 HD 
BRANCH  11  14
HETATM   14  C   UNL     1     -12.382  15.004  70.811  1.00  0.00    -0.343 C  
HETATM   15  C   UNL     1     -12.411  15.308  72.306  1.00  0.00    -0.361 C  
HETATM   16  O   UNL     1     -12.791  14.514  73.156  1.00  0.00    -0.483 OA 
HETATM   17  O   UNL     1     -12.018  16.567  72.613  1.00  0.00    -0.533 OA 
ENDBRANCH  11  14
ENDBRANCH   7  10
TORSDOF 2
ENDMDL
MODEL       41
REMARK 921   NORMALIZED FREE ENERGY PREDICTED BY IDOCK:   -4.87 KCAL/MOL
REMARK 922        TOTAL FREE ENERGY PREDICTED BY IDOCK:   -5.66 KCAL/MOL
REMARK 923 INTER-LIGAND FREE ENERGY PREDICTED BY IDOCK:   -5.44 KCAL/MOL
REMARK 924 INTRA-LIGAND FREE ENERGY PREDICTED BY IDOCK:   -0.22 KCAL/MOL
REMARK 927      BINDING AFFINITY PREDICTED BY RF-SCORE:    0.00 PKD
ROOT
HETATM    1  N   UNL     1      -8.129  19.789  68.425  1.00  0.00    -0.306 NA 
HETATM    2  H2  UNL     1      -7.120  19.673  68.329  1.00  0.00     0.000 HD 
HETATM    3  C   UNL     1      -8.758  18.953  67.498  1.00  0.00    -0.275 A  
HETATM    4  H1  UNL     1      -8.337  20.787  68.441  1.00  0.00     0.000 HD 
HETATM    5  C   UNL     1      -8.472  17.585  67.476  1.00  0.00    -0.216 A  
HETATM    6  C   UNL     1      -9.196  16.716  66.652  1.00  0.00    -0.277 A  
HETATM    7  C   UNL     1     -10.236  17.206  65.860  1.00  0.00    -0.290 A  
HETATM    8  C   UNL     1     -10.573  18.563  65.924  1.00  0.00    -0.336 A  
HETATM    9  C   UNL     1      -9.848  19.422  66.758  1.00  0.00    -0.453 A  
ENDROOT
BRANCH   7  10
HETATM   10  C   UNL     1     -11.006  16.251  65.020  1.00  0.00    -0.298 C  
HETATM   11  N   UNL     1     -11.038  14.941  65.454  1.00  0.00    -0.348 N  
HETATM   12  O   UNL     1     -11.572  16.626  64.002  1.00  0.00    -1.197 OA 
HETATM   13  H   UNL     1     -10.431  14.645  66.219  1.00  0.00     0.000 HD 
BRANCH  11  14
HETATM   14  C   UNL     1     -11.939  13.970  64.822  1.00  0.00    -0.417 C  
HETATM   15  C   UNL     1     -11.212  12.959  63.939  1.00  0.00    -0.423 C  
HETATM   16  O   UNL     1     -11.766  12.027  63.373  1.00  0.00    -0.444 OA 
HETATM   17  O   UNL     1      -9.875  13.158  63.870  1.00  0.00    -0.157 OA 
ENDBRANCH  11  14
ENDBRANCH   7  10
TORSDOF 2
ENDMDL
MODEL       42
REMARK 921   NORMALIZED FREE ENERGY PREDICTED BY IDOCK:   -4.87 KCAL/MOL
REMARK 922        TOTAL FREE ENERGY PREDICTED BY IDOCK:   -5.66 KCAL/MOL
REMARK 923 INTER-LIGAND FREE ENERGY PREDICTED BY IDOCK:   -5.48 KCAL/MOL
REMARK 924 INTRA-LIGAND FREE ENERGY PREDICTED BY IDOCK:   -0.18 KCAL/MOL
REMARK 927      BINDING AFFINITY PREDICTED BY RF-SCORE:    0.00 PKD
ROOT
HETATM    1  N   UNL     1     -11.405  11.078  67.134  1.00  0.00    -0.427 NA 
HETATM    2  H2  UNL     1     -11.166  10.940  68.116  1.00  0.00     0.000 HD 
HETATM    3  C   UNL     1     -11.324  12.444  66.849  1.00  0.00    -0.333 A  
HETATM    4  H1  UNL     1     -12.263  10.562  66.938  1.00  0.00     0.000 HD 
HETATM    5  C   UNL     1     -10.148  13.150  67.118  1.00  0.00    -0.242 A  
HETATM    6  C   UNL     1     -10.003  14.480  66.710  1.00  0.00    -0.267 A  
HETATM    7  C   UNL     1     -11.026  15.110  65.999  1.00  0.00    -0.332 A  
HETATM    8  C   UNL     1     -12.181  14.391  65.668  1.00  0.00    -0.352 A  
HETATM    9  C   UNL     1     -12.312  13.059  66.075  1.00  0.00    -0.387 A  
ENDROOT
BRANCH   7  10
HETATM   10  C   UNL     1     -10.828  16.514  65.552  1.00  0.00    -0.188 C  
HETATM   11  N   UNL     1     -10.372  17.402  66.506  1.00  0.00    -0.328 N  
HETATM   12  O   UNL     1     -11.063  16.844  64.398  1.00  0.00    -1.128 OA 
HETATM   13  H   UNL     1     -10.335  17.119  67.486  1.00  0.00     0.000 HD 
BRANCH  11  14
HETATM   14  C   UNL     1      -9.941  18.751  66.120  1.00  0.00    -0.345 C  
HETATM   15  C   UNL     1     -10.090  19.776  67.241  1.00  0.00    -0.418 C  
HETATM   16  O   UNL     1      -9.729  20.941  67.151  1.00  0.00    -0.431 OA 
HETATM   17  O   UNL     1     -10.623  19.266  68.377  1.00  0.00    -0.303 OA 
ENDBRANCH  11  14
ENDBRANCH   7  10
TORSDOF 2
ENDMDL
MODEL       43
REMARK 921   NORMALIZED FREE ENERGY PREDICTED BY IDOCK:   -4.87 KCAL/MOL
REMARK 922        TOTAL FREE ENERGY PREDICTED BY IDOCK:   -5.66 KCAL/MOL
REMARK 923 INTER-LIGAND FREE ENERGY PREDICTED BY IDOCK:   -5.49 KCAL/MOL
REMARK 924 INTRA-LIGAND FREE ENERGY PREDICTED BY IDOCK:   -0.16 KCAL/MOL
REMARK 927      BINDING AFFINITY PREDICTED BY RF-SCORE:    0.00 PKD
ROOT
HETATM    1  N   UNL     1      -7.902  21.128  67.440  1.00  0.00    -0.559 NA 
HETATM    2  H2  UNL     1      -6.987  20.915  67.043  1.00  0.00     0.000 HD 
HETATM    3  C   UNL     1      -8.634  19.940  67.524  1.00  0.00    -0.337 A  
HETATM    4  H1  UNL     1      -8.286  21.934  66.947  1.00  0.00     0.000 HD 
HETATM    5  C   UNL     1      -8.109  18.836  68.198  1.00  0.00    -0.327 A  
HETATM    6  C   UNL     1      -8.885  17.691  68.411  1.00  0.00    -0.281 A  
HETATM    7  C   UNL     1     -10.210  17.652  67.973  1.00  0.00    -0.362 A  
HETATM    8  C   UNL     1     -10.766  18.778  67.354  1.00  0.00    -0.487 A  
HETATM    9  C   UNL     1      -9.983  19.920  67.153  1.00  0.00    -0.557 A  
ENDROOT
BRANCH   7  10
HETATM   10  C   UNL     1     -11.018  16.434  68.243  1.00  0.00    -0.355 C  
HETATM   11  N   UNL     1     -11.408  15.701  67.140  1.00  0.00    -0.163 N  
HETATM   12  O   UNL     1     -11.312  16.117  69.387  1.00  0.00    -0.328 OA 
HETATM   13  H   UNL     1     -11.271  16.082  66.203  1.00  0.00     0.000 HD 
BRANCH  11  14
HETATM   14  C   UNL     1     -12.019  14.377  67.306  1.00  0.00    -0.377 C  
HETATM   15  C   UNL     1     -11.820  13.465  66.098  1.00  0.00    -0.385 C  
HETATM   16  O   UNL     1     -12.191  12.300  66.055  1.00  0.00    -0.646 OA 
HETATM   17  O   UNL     1     -11.147  14.050  65.079  1.00  0.00    -0.330 OA 
ENDBRANCH  11  14
ENDBRANCH   7  10
TORSDOF 2
ENDMDL
MODEL       44
REMARK 921   NORMALIZED FREE ENERGY PREDICTED BY IDOCK:   -4.87 KCAL/MOL
REMARK 922        TOTAL FREE ENERGY PREDICTED BY IDOCK:   -5.65 KCAL/MOL
REMARK 923 INTER-LIGAND FREE ENERGY PREDICTED BY IDOCK:   -5.43 KCAL/MOL
REMARK 924 INTRA-LIGAND FREE ENERGY PREDICTED BY IDOCK:   -0.22 KCAL/MOL
REMARK 927      BINDING AFFINITY PREDICTED BY RF-SCORE:    0.00 PKD
ROOT
HETATM    1  N   UNL     1     -10.798   7.659  67.465  1.00  0.00    -0.513 NA 
HETATM    2  H2  UNL     1      -9.987   7.119  67.162  1.00  0.00     0.000 HD 
HETATM    3  C   UNL     1     -10.505   9.017  67.313  1.00  0.00    -0.273 A  
HETATM    4  H1  UNL     1     -11.104   7.298  68.368  1.00  0.00     0.000 HD 
HETATM    5  C   UNL     1     -10.085   9.512  66.075  1.00  0.00    -0.319 A  
HETATM    6  C   UNL     1      -9.925  10.887  65.871  1.00  0.00    -0.294 A  
HETATM    7  C   UNL     1     -10.212  11.786  66.901  1.00  0.00    -0.236 A  
HETATM    8  C   UNL     1     -10.696  11.304  68.123  1.00  0.00    -0.244 A  
HETATM    9  C   UNL     1     -10.860   9.928  68.313  1.00  0.00    -0.275 A  
ENDROOT
BRANCH   7  10
HETATM   10  C   UNL     1     -10.063  13.242  66.641  1.00  0.00    -0.266 C  
HETATM   11  N   UNL     1     -10.143  13.640  65.321  1.00  0.00    -0.490 N  
HETATM   12  O   UNL     1      -9.877  14.027  67.560  1.00  0.00    -0.229 OA 
HETATM   13  H   UNL     1     -10.147  12.940  64.579  1.00  0.00     0.000 HD 
BRANCH  11  14
HETATM   14  C   UNL     1     -10.223  15.065  64.980  1.00  0.00    -0.314 C  
HETATM   15  C   UNL     1     -11.558  15.462  64.355  1.00  0.00    -0.264 C  
HETATM   16  O   UNL     1     -11.857  16.610  64.058  1.00  0.00    -1.034 OA 
HETATM   17  O   UNL     1     -12.415  14.425  64.197  1.00  0.00    -0.676 OA 
ENDBRANCH  11  14
ENDBRANCH   7  10
TORSDOF 2
ENDMDL
MODEL       45
REMARK 921   NORMALIZED FREE ENERGY PREDICTED BY IDOCK:   -4.86 KCAL/MOL
REMARK 922        TOTAL FREE ENERGY PREDICTED BY IDOCK:   -5.65 KCAL/MOL
REMARK 923 INTER-LIGAND FREE ENERGY PREDICTED BY IDOCK:   -5.48 KCAL/MOL
REMARK 924 INTRA-LIGAND FREE ENERGY PREDICTED BY IDOCK:   -0.17 KCAL/MOL
REMARK 927      BINDING AFFINITY PREDICTED BY RF-SCORE:    0.00 PKD
ROOT
HETATM    1  N   UNL     1     -10.311  10.508  62.660  1.00  0.00    -0.657 NA 
HETATM    2  H2  UNL     1     -10.525   9.556  62.955  1.00  0.00     0.000 HD 
HETATM    3  C   UNL     1     -10.665  11.380  63.693  1.00  0.00    -0.401 A  
HETATM    4  H1  UNL     1     -10.687  10.645  61.721  1.00  0.00     0.000 HD 
HETATM    5  C   UNL     1     -10.150  11.193  64.979  1.00  0.00    -0.338 A  
HETATM    6  C   UNL     1     -10.382  12.135  65.987  1.00  0.00    -0.268 A  
HETATM    7  C   UNL     1     -11.111  13.293  65.708  1.00  0.00    -0.296 A  
HETATM    8  C   UNL     1     -11.575  13.521  64.408  1.00  0.00    -0.429 A  
HETATM    9  C   UNL     1     -11.331  12.576  63.406  1.00  0.00    -0.489 A  
ENDROOT
BRANCH   7  10
HETATM   10  C   UNL     1     -11.312  14.290  66.793  1.00  0.00    -0.348 C  
HETATM   11  N   UNL     1     -10.559  15.445  66.710  1.00  0.00    -0.305 N  
HETATM   12  O   UNL     1     -12.103  14.078  67.701  1.00  0.00    -0.382 OA 
HETATM   13  H   UNL     1      -9.807  15.513  66.024  1.00  0.00     0.000 HD 
BRANCH  11  14
HETATM   14  C   UNL     1     -10.836  16.577  67.603  1.00  0.00    -0.269 C  
HETATM   15  C   UNL     1     -10.588  17.935  66.950  1.00  0.00    -0.265 C  
HETATM   16  O   UNL     1     -10.819  19.005  67.496  1.00  0.00    -0.463 OA 
HETATM   17  O   UNL     1     -10.128  17.852  65.680  1.00  0.00    -0.567 OA 
ENDBRANCH  11  14
ENDBRANCH   7  10
TORSDOF 2
ENDMDL
MODEL       46
REMARK 921   NORMALIZED FREE ENERGY PREDICTED BY IDOCK:   -4.86 KCAL/MOL
REMARK 922        TOTAL FREE ENERGY PREDICTED BY IDOCK:   -5.64 KCAL/MOL
REMARK 923 INTER-LIGAND FREE ENERGY PREDICTED BY IDOCK:   -5.43 KCAL/MOL
REMARK 924 INTRA-LIGAND FREE ENERGY PREDICTED BY IDOCK:   -0.21 KCAL/MOL
REMARK 927      BINDING AFFINITY PREDICTED BY RF-SCORE:    0.00 PKD
ROOT
HETATM    1  N   UNL     1     -13.803   8.868  73.117  1.00  0.00    -1.176 NA 
HETATM    2  H2  UNL     1     -13.197   8.339  73.745  1.00  0.00     0.000 HD 
HETATM    3  C   UNL     1     -13.002   9.496  72.160  1.00  0.00    -0.412 A  
HETATM    4  H1  UNL     1     -14.452   9.414  73.683  1.00  0.00     0.000 HD 
HETATM    5  C   UNL     1     -12.112   8.748  71.385  1.00  0.00    -0.361 A  
HETATM    6  C   UNL     1     -11.409   9.339  70.330  1.00  0.00    -0.283 A  
HETATM    7  C   UNL     1     -11.613  10.685  70.020  1.00  0.00    -0.406 A  
HETATM    8  C   UNL     1     -12.550  11.427  70.748  1.00  0.00    -0.409 A  
HETATM    9  C   UNL     1     -13.254  10.823  71.796  1.00  0.00    -0.523 A  
ENDROOT
BRANCH   7  10
HETATM   10  C   UNL     1     -10.875  11.275  68.872  1.00  0.00    -0.208 C  
HETATM   11  N   UNL     1     -10.302  12.514  69.084  1.00  0.00    -0.422 N  
HETATM   12  O   UNL     1     -10.793  10.680  67.807  1.00  0.00    -0.240 OA 
HETATM   13  H   UNL     1     -10.522  13.036  69.933  1.00  0.00     0.000 HD 
BRANCH  11  14
HETATM   14  C   UNL     1      -9.377  13.083  68.097  1.00  0.00    -0.217 C  
HETATM   15  C   UNL     1      -9.935  14.315  67.388  1.00  0.00    -0.242 C  
HETATM   16  O   UNL     1      -9.304  14.979  66.579  1.00  0.00    -0.246 OA 
HETATM   17  O   UNL     1     -11.192  14.640  67.773  1.00  0.00    -0.283 OA 
ENDBRANCH  11  14
ENDBRANCH   7  10
TORSDOF 2
ENDMDL
MODEL       47
REMARK 921   NORMALIZED FREE ENERGY PREDICTED BY IDOCK:   -4.86 KCAL/MOL
REMARK 922        TOTAL FREE ENERGY PREDICTED BY IDOCK:   -5.64 KCAL/MOL
REMARK 923 INTER-LIGAND FREE ENERGY PREDICTED BY IDOCK:   -5.46 KCAL/MOL
REMARK 924 INTRA-LIGAND FREE ENERGY PREDICTED BY IDOCK:   -0.18 KCAL/MOL
REMARK 927      BINDING AFFINITY PREDICTED BY RF-SCORE:    0.00 PKD
ROOT
HETATM    1  N   UNL     1     -14.041   8.870  73.265  1.00  0.00    -1.248 NA 
HETATM    2  H2  UNL     1     -13.548   8.487  74.072  1.00  0.00     0.000 HD 
HETATM    3  C   UNL     1     -13.095   9.235  72.303  1.00  0.00    -0.441 A  
HETATM    4  H1  UNL     1     -14.723   9.551  73.600  1.00  0.00     0.000 HD 
HETATM    5  C   UNL     1     -12.161   8.303  71.845  1.00  0.00    -0.383 A  
HETATM    6  C   UNL     1     -11.302   8.611  70.785  1.00  0.00    -0.299 A  
HETATM    7  C   UNL     1     -11.391   9.852  70.151  1.00  0.00    -0.335 A  
HETATM    8  C   UNL     1     -12.366  10.768  70.560  1.00  0.00    -0.458 A  
HETATM    9  C   UNL     1     -13.225  10.446  71.616  1.00  0.00    -0.502 A  
ENDROOT
BRANCH   7  10
HETATM   10  C   UNL     1     -10.485  10.136  69.006  1.00  0.00    -0.219 C  
HETATM   11  N   UNL     1     -11.053  10.083  67.748  1.00  0.00    -0.452 N  
HETATM   12  O   UNL     1      -9.305  10.399  69.190  1.00  0.00    -0.186 OA 
HETATM   13  H   UNL     1     -11.998   9.714  67.633  1.00  0.00     0.000 HD 
BRANCH  11  14
HETATM   14  C   UNL     1     -10.307  10.554  66.576  1.00  0.00    -0.233 C  
HETATM   15  C   UNL     1      -9.653   9.425  65.784  1.00  0.00    -0.271 C  
HETATM   16  O   UNL     1      -9.041   9.591  64.738  1.00  0.00    -0.220 OA 
HETATM   17  O   UNL     1      -9.851   8.198  66.321  1.00  0.00    -0.213 OA 
ENDBRANCH  11  14
ENDBRANCH   7  10
TORSDOF 2
ENDMDL
MODEL       48
REMARK 921   NORMALIZED FREE ENERGY PREDICTED BY IDOCK:   -4.85 KCAL/MOL
REMARK 922        TOTAL FREE ENERGY PREDICTED BY IDOCK:   -5.63 KCAL/MOL
REMARK 923 INTER-LIGAND FREE ENERGY PREDICTED BY IDOCK:   -5.45 KCAL/MOL
REMARK 924 INTRA-LIGAND FREE ENERGY PREDICTED BY IDOCK:   -0.18 KCAL/MOL
REMARK 927      BINDING AFFINITY PREDICTED BY RF-SCORE:    0.00 PKD
ROOT
HETATM    1  N   UNL     1     -12.380  11.706  63.092  1.00  0.00    -0.966 NA 
HETATM    2  H2  UNL     1     -12.524  10.854  63.635  1.00  0.00     0.000 HD 
HETATM    3  C   UNL     1     -11.839  12.680  63.935  1.00  0.00    -0.467 A  
HETATM    4  H1  UNL     1     -13.231  11.898  62.564  1.00  0.00     0.000 HD 
HETATM    5  C   UNL     1     -10.672  12.416  64.658  1.00  0.00    -0.339 A  
HETATM    6  C   UNL     1     -10.043  13.426  65.394  1.00  0.00    -0.270 A  
HETATM    7  C   UNL     1     -10.562  14.722  65.391  1.00  0.00    -0.395 A  
HETATM    8  C   UNL     1     -11.693  15.011  64.619  1.00  0.00    -0.383 A  
HETATM    9  C   UNL     1     -12.310  13.995  63.880  1.00  0.00    -0.280 A  
ENDROOT
BRANCH   7  10
HETATM   10  C   UNL     1      -9.852  15.779  66.158  1.00  0.00    -0.315 C  
HETATM   11  N   UNL     1     -10.358  16.073  67.409  1.00  0.00    -0.288 N  
HETATM   12  O   UNL     1      -8.876  16.347  65.688  1.00  0.00    -0.406 OA 
HETATM   13  H   UNL     1     -11.257  15.686  67.697  1.00  0.00     0.000 HD 
BRANCH  11  14
HETATM   14  C   UNL     1      -9.611  16.940  68.328  1.00  0.00    -0.258 C  
HETATM   15  C   UNL     1     -10.127  18.376  68.356  1.00  0.00    -0.390 C  
HETATM   16  O   UNL     1      -9.689  19.243  69.099  1.00  0.00    -0.391 OA 
HETATM   17  O   UNL     1     -11.157  18.601  67.506  1.00  0.00    -0.303 OA 
ENDBRANCH  11  14
ENDBRANCH   7  10
TORSDOF 2
ENDMDL
MODEL       49
REMARK 921   NORMALIZED FREE ENERGY PREDICTED BY IDOCK:   -4.84 KCAL/MOL
REMARK 922        TOTAL FREE ENERGY PREDICTED BY IDOCK:   -5.62 KCAL/MOL
REMARK 923 INTER-LIGAND FREE ENERGY PREDICTED BY IDOCK:   -5.40 KCAL/MOL
REMARK 924 INTRA-LIGAND FREE ENERGY PREDICTED BY IDOCK:   -0.22 KCAL/MOL
REMARK 927      BINDING AFFINITY PREDICTED BY RF-SCORE:    0.00 PKD
ROOT
HETATM    1  N   UNL     1     -13.802  13.426  72.517  1.00  0.00    -0.738 NA 
HETATM    2  H2  UNL     1     -14.634  13.966  72.755  1.00  0.00     0.000 HD 
HETATM    3  C   UNL     1     -13.007  14.195  71.663  1.00  0.00    -0.347 A  
HETATM    4  H1  UNL     1     -14.096  12.489  72.240  1.00  0.00     0.000 HD 
HETATM    5  C   UNL     1     -12.604  15.478  72.042  1.00  0.00    -0.481 A  
HETATM    6  C   UNL     1     -11.695  16.203  71.263  1.00  0.00    -0.480 A  
HETATM    7  C   UNL     1     -11.156  15.636  70.107  1.00  0.00    -0.347 A  
HETATM    8  C   UNL     1     -11.504  14.327  69.753  1.00  0.00    -0.317 A  
HETATM    9  C   UNL     1     -12.407  13.608  70.544  1.00  0.00    -0.425 A  
ENDROOT
BRANCH   7  10
HETATM   10  C   UNL     1     -10.169  16.419  69.319  1.00  0.00    -0.278 C  
HETATM   11  N   UNL     1     -10.292  17.794  69.377  1.00  0.00    -0.327 N  
HETATM   12  O   UNL     1      -9.304  15.858  68.660  1.00  0.00    -0.195 OA 
HETATM   13  H   UNL     1     -11.114  18.212  69.813  1.00  0.00     0.000 HD 
BRANCH  11  14
HETATM   14  C   UNL     1      -9.246  18.657  68.814  1.00  0.00    -0.285 C  
HETATM   15  C   UNL     1      -9.731  19.508  67.643  1.00  0.00    -0.344 C  
HETATM   16  O   UNL     1      -9.041  20.341  67.074  1.00  0.00    -0.353 OA 
HETATM   17  O   UNL     1     -11.027  19.290  67.312  1.00  0.00    -0.483 OA 
ENDBRANCH  11  14
ENDBRANCH   7  10
TORSDOF 2
ENDMDL
MODEL       50
REMARK 921   NORMALIZED FREE ENERGY PREDICTED BY IDOCK:   -4.84 KCAL/MOL
REMARK 922        TOTAL FREE ENERGY PREDICTED BY IDOCK:   -5.62 KCAL/MOL
REMARK 923 INTER-LIGAND FREE ENERGY PREDICTED BY IDOCK:   -5.47 KCAL/MOL
REMARK 924 INTRA-LIGAND FREE ENERGY PREDICTED BY IDOCK:   -0.16 KCAL/MOL
REMARK 927      BINDING AFFINITY PREDICTED BY RF-SCORE:    0.00 PKD
ROOT
HETATM    1  N   UNL     1     -10.291   8.410  69.563  1.00  0.00    -0.216 NA 
HETATM    2  H2  UNL     1      -9.315   8.176  69.382  1.00  0.00     0.000 HD 
HETATM    3  C   UNL     1     -10.557   9.660  68.998  1.00  0.00    -0.218 A  
HETATM    4  H1  UNL     1     -10.484   8.240  70.550  1.00  0.00     0.000 HD 
HETATM    5  C   UNL     1     -10.292   9.893  67.646  1.00  0.00    -0.275 A  
HETATM    6  C   UNL     1     -10.682  11.089  67.035  1.00  0.00    -0.319 A  
HETATM    7  C   UNL     1     -11.370  12.058  67.769  1.00  0.00    -0.370 A  
HETATM    8  C   UNL     1     -11.697  11.807  69.107  1.00  0.00    -0.388 A  
HETATM    9  C   UNL     1     -11.309  10.604  69.705  1.00  0.00    -0.360 A  
ENDROOT
BRANCH   7  10
HETATM   10  C   UNL     1     -11.799  13.305  67.082  1.00  0.00    -0.374 C  
HETATM   11  N   UNL     1     -11.727  13.300  65.703  1.00  0.00    -0.340 N  
HETATM   12  O   UNL     1     -12.188  14.272  67.722  1.00  0.00    -0.325 OA 
HETATM   13  H   UNL     1     -11.257  12.533  65.222  1.00  0.00     0.000 HD 
BRANCH  11  14
HETATM   14  C   UNL     1     -12.324  14.392  64.925  1.00  0.00    -0.405 C  
HETATM   15  C   UNL     1     -11.333  15.502  64.585  1.00  0.00    -0.357 C  
HETATM   16  O   UNL     1     -11.606  16.470  63.889  1.00  0.00    -1.175 OA 
HETATM   17  O   UNL     1     -10.093  15.297  65.089  1.00  0.00    -0.345 OA 
ENDBRANCH  11  14
ENDBRANCH   7  10
TORSDOF 2
ENDMDL
MODEL       51
REMARK 921   NORMALIZED FREE ENERGY PREDICTED BY IDOCK:   -4.81 KCAL/MOL
REMARK 922        TOTAL FREE ENERGY PREDICTED BY IDOCK:   -5.59 KCAL/MOL
REMARK 923 INTER-LIGAND FREE ENERGY PREDICTED BY IDOCK:   -5.42 KCAL/MOL
REMARK 924 INTRA-LIGAND FREE ENERGY PREDICTED BY IDOCK:   -0.17 KCAL/MOL
REMARK 927      BINDING AFFINITY PREDICTED BY RF-SCORE:    0.00 PKD
ROOT
HETATM    1  N   UNL     1     -10.485  10.800  62.699  1.00  0.00    -0.724 NA 
HETATM    2  H2  UNL     1     -10.416  11.541  62.001  1.00  0.00     0.000 HD 
HETATM    3  C   UNL     1     -10.746  11.387  63.940  1.00  0.00    -0.397 A  
HETATM    4  H1  UNL     1      -9.687  10.175  62.584  1.00  0.00     0.000 HD 
HETATM    5  C   UNL     1     -11.838  12.244  64.098  1.00  0.00    -0.502 A  
HETATM    6  C   UNL     1     -12.193  12.726  65.363  1.00  0.00    -0.532 A  
HETATM    7  C   UNL     1     -11.471  12.330  66.491  1.00  0.00    -0.438 A  
HETATM    8  C   UNL     1     -10.415  11.422  66.351  1.00  0.00    -0.299 A  
HETATM    9  C   UNL     1     -10.074  10.940  65.083  1.00  0.00    -0.352 A  
ENDROOT
BRANCH   7  10
HETATM   10  C   UNL     1     -11.894  12.835  67.824  1.00  0.00    -0.332 C  
HETATM   11  N   UNL     1     -12.008  11.892  68.827  1.00  0.00    -0.297 N  
HETATM   12  O   UNL     1     -12.124  14.023  68.001  1.00  0.00    -0.362 OA 
HETATM   13  H   UNL     1     -11.954  10.899  68.599  1.00  0.00     0.000 HD 
BRANCH  11  14
HETATM   14  C   UNL     1     -12.208  12.311  70.220  1.00  0.00    -0.262 C  
HETATM   15  C   UNL     1     -12.878  11.243  71.080  1.00  0.00    -0.352 C  
HETATM   16  O   UNL     1     -13.077  11.361  72.281  1.00  0.00    -0.365 OA 
HETATM   17  O   UNL     1     -13.198  10.117  70.399  1.00  0.00    -0.199 OA 
ENDBRANCH  11  14
ENDBRANCH   7  10
TORSDOF 2
ENDMDL
MODEL       52
REMARK 921   NORMALIZED FREE ENERGY PREDICTED BY IDOCK:   -4.81 KCAL/MOL
REMARK 922        TOTAL FREE ENERGY PREDICTED BY IDOCK:   -5.58 KCAL/MOL
REMARK 923 INTER-LIGAND FREE ENERGY PREDICTED BY IDOCK:   -5.42 KCAL/MOL
REMARK 924 INTRA-LIGAND FREE ENERGY PREDICTED BY IDOCK:   -0.17 KCAL/MOL
REMARK 927      BINDING AFFINITY PREDICTED BY RF-SCORE:    0.00 PKD
ROOT
HETATM    1  N   UNL     1      -8.517   8.153  64.721  1.00  0.00    -0.346 NA 
HETATM    2  H2  UNL     1      -7.653   8.146  64.180  1.00  0.00     0.000 HD 
HETATM    3  C   UNL     1      -9.119   9.405  64.575  1.00  0.00    -0.150 A  
HETATM    4  H1  UNL     1      -8.316   7.784  65.651  1.00  0.00     0.000 HD 
HETATM    5  C   UNL     1      -9.395   9.910  63.302  1.00  0.00    -0.221 A  
HETATM    6  C   UNL     1     -10.122  11.094  63.142  1.00  0.00    -0.373 A  
HETATM    7  C   UNL     1     -10.607  11.774  64.262  1.00  0.00    -0.386 A  
HETATM    8  C   UNL     1     -10.392  11.242  65.539  1.00  0.00    -0.321 A  
HETATM    9  C   UNL     1      -9.671  10.053  65.686  1.00  0.00    -0.336 A  
ENDROOT
BRANCH   7  10
HETATM   10  C   UNL     1     -11.404  13.012  64.057  1.00  0.00    -0.410 C  
HETATM   11  N   UNL     1     -11.034  14.110  64.810  1.00  0.00    -0.397 N  
HETATM   12  O   UNL     1     -12.334  13.036  63.263  1.00  0.00    -0.682 OA 
HETATM   13  H   UNL     1     -10.355  14.002  65.564  1.00  0.00     0.000 HD 
BRANCH  11  14
HETATM   14  C   UNL     1     -11.610  15.430  64.531  1.00  0.00    -0.296 C  
HETATM   15  C   UNL     1     -10.747  16.584  65.034  1.00  0.00    -0.209 C  
HETATM   16  O   UNL     1     -11.010  17.764  64.847  1.00  0.00    -0.866 OA 
HETATM   17  O   UNL     1      -9.624  16.183  65.676  1.00  0.00    -0.424 OA 
ENDBRANCH  11  14
ENDBRANCH   7  10
TORSDOF 2
ENDMDL
MODEL       53
REMARK 921   NORMALIZED FREE ENERGY PREDICTED BY IDOCK:   -4.78 KCAL/MOL
REMARK 922        TOTAL FREE ENERGY PREDICTED BY IDOCK:   -5.55 KCAL/MOL
REMARK 923 INTER-LIGAND FREE ENERGY PREDICTED BY IDOCK:   -5.35 KCAL/MOL
REMARK 924 INTRA-LIGAND FREE ENERGY PREDICTED BY IDOCK:   -0.20 KCAL/MOL
REMARK 927      BINDING AFFINITY PREDICTED BY RF-SCORE:    0.00 PKD
ROOT
HETATM    1  N   UNL     1     -10.005   9.124  67.521  1.00  0.00    -0.191 NA 
HETATM    2  H2  UNL     1      -9.369   9.712  66.982  1.00  0.00     0.000 HD 
HETATM    3  C   UNL     1     -10.597   9.910  68.514  1.00  0.00    -0.217 A  
HETATM    4  H1  UNL     1      -9.515   8.265  67.770  1.00  0.00     0.000 HD 
HETATM    5  C   UNL     1     -11.268  11.087  68.173  1.00  0.00    -0.364 A  
HETATM    6  C   UNL     1     -11.983  11.807  69.136  1.00  0.00    -0.356 A  
HETATM    7  C   UNL     1     -12.058  11.338  70.449  1.00  0.00    -0.474 A  
HETATM    8  C   UNL     1     -11.443  10.127  70.785  1.00  0.00    -0.442 A  
HETATM    9  C   UNL     1     -10.737   9.411  69.813  1.00  0.00    -0.250 A  
ENDROOT
BRANCH   7  10
HETATM   10  C   UNL     1     -12.852  12.110  71.440  1.00  0.00    -0.276 C  
HETATM   11  N   UNL     1     -12.796  13.486  71.333  1.00  0.00    -0.363 N  
HETATM   12  O   UNL     1     -13.512  11.539  72.297  1.00  0.00    -0.368 OA 
HETATM   13  H   UNL     1     -12.118  13.918  70.704  1.00  0.00     0.000 HD 
BRANCH  11  14
HETATM   14  C   UNL     1     -13.704  14.330  72.118  1.00  0.00    -0.474 C  
HETATM   15  C   UNL     1     -12.984  15.424  72.903  1.00  0.00    -0.470 C  
HETATM   16  O   UNL     1     -13.557  16.275  73.568  1.00  0.00    -0.642 OA 
HETATM   17  O   UNL     1     -11.637  15.398  72.761  1.00  0.00    -0.460 OA 
ENDBRANCH  11  14
ENDBRANCH   7  10
TORSDOF 2
ENDMDL
MODEL       54
REMARK 921   NORMALIZED FREE ENERGY PREDICTED BY IDOCK:   -4.77 KCAL/MOL
REMARK 922        TOTAL FREE ENERGY PREDICTED BY IDOCK:   -5.55 KCAL/MOL
REMARK 923 INTER-LIGAND FREE ENERGY PREDICTED BY IDOCK:   -5.37 KCAL/MOL
REMARK 924 INTRA-LIGAND FREE ENERGY PREDICTED BY IDOCK:   -0.18 KCAL/MOL
REMARK 927      BINDING AFFINITY PREDICTED BY RF-SCORE:    0.00 PKD
ROOT
HETATM    1  N   UNL     1     -10.788   7.777  70.964  1.00  0.00    -0.236 NA 
HETATM    2  H2  UNL     1     -11.624   7.415  71.424  1.00  0.00     0.000 HD 
HETATM    3  C   UNL     1     -11.145   8.912  70.231  1.00  0.00    -0.228 A  
HETATM    4  H1  UNL     1     -10.310   7.000  70.509  1.00  0.00     0.000 HD 
HETATM    5  C   UNL     1     -11.800   9.977  70.855  1.00  0.00    -0.459 A  
HETATM    6  C   UNL     1     -12.037  11.173  70.169  1.00  0.00    -0.443 A  
HETATM    7  C   UNL     1     -11.594  11.325  68.854  1.00  0.00    -0.386 A  
HETATM    8  C   UNL     1     -10.880  10.289  68.241  1.00  0.00    -0.300 A  
HETATM    9  C   UNL     1     -10.642   9.100  68.940  1.00  0.00    -0.214 A  
ENDROOT
BRANCH   7  10
HETATM   10  C   UNL     1     -11.833  12.620  68.164  1.00  0.00    -0.315 C  
HETATM   11  N   UNL     1     -11.675  12.621  66.792  1.00  0.00    -0.382 N  
HETATM   12  O   UNL     1     -12.150  13.619  68.795  1.00  0.00    -0.355 OA 
HETATM   13  H   UNL     1     -11.265  11.810  66.327  1.00  0.00     0.000 HD 
BRANCH  11  14
HETATM   14  C   UNL     1     -12.093  13.782  65.997  1.00  0.00    -0.436 C  
HETATM   15  C   UNL     1     -12.237  13.474  64.509  1.00  0.00    -0.398 C  
HETATM   16  O   UNL     1     -12.638  14.281  63.682  1.00  0.00    -0.831 OA 
HETATM   17  O   UNL     1     -11.923  12.198  64.185  1.00  0.00    -0.388 OA 
ENDBRANCH  11  14
ENDBRANCH   7  10
TORSDOF 2
ENDMDL
MODEL       55
REMARK 921   NORMALIZED FREE ENERGY PREDICTED BY IDOCK:   -4.77 KCAL/MOL
REMARK 922        TOTAL FREE ENERGY PREDICTED BY IDOCK:   -5.54 KCAL/MOL
REMARK 923 INTER-LIGAND FREE ENERGY PREDICTED BY IDOCK:   -5.34 KCAL/MOL
REMARK 924 INTRA-LIGAND FREE ENERGY PREDICTED BY IDOCK:   -0.21 KCAL/MOL
REMARK 927      BINDING AFFINITY PREDICTED BY RF-SCORE:    0.00 PKD
ROOT
HETATM    1  N   UNL     1     -10.080   8.168  69.435  1.00  0.00    -0.190 NA 
HETATM    2  H2  UNL     1     -10.754   7.813  70.113  1.00  0.00     0.000 HD 
HETATM    3  C   UNL     1     -10.605   9.329  68.860  1.00  0.00    -0.199 A  
HETATM    4  H1  UNL     1      -9.779   7.393  68.845  1.00  0.00     0.000 HD 
HETATM    5  C   UNL     1     -11.017  10.391  69.668  1.00  0.00    -0.325 A  
HETATM    6  C   UNL     1     -11.411  11.609  69.104  1.00  0.00    -0.364 A  
HETATM    7  C   UNL     1     -11.369  11.786  67.720  1.00  0.00    -0.358 A  
HETATM    8  C   UNL     1     -10.896  10.750  66.906  1.00  0.00    -0.288 A  
HETATM    9  C   UNL     1     -10.497   9.539  67.481  1.00  0.00    -0.336 A  
ENDROOT
BRANCH   7  10
HETATM   10  C   UNL     1     -11.763  13.103  67.154  1.00  0.00    -0.377 C  
HETATM   11  N   UNL     1     -11.514  13.291  65.809  1.00  0.00    -0.315 N  
HETATM   12  O   UNL     1     -12.276  13.961  67.859  1.00  0.00    -0.325 OA 
HETATM   13  H   UNL     1     -10.951  12.612  65.297  1.00  0.00     0.000 HD 
BRANCH  11  14
HETATM   14  C   UNL     1     -12.056  14.463  65.110  1.00  0.00    -0.395 C  
HETATM   15  C   UNL     1     -11.030  15.576  64.915  1.00  0.00    -0.436 C  
HETATM   16  O   UNL     1     -11.255  16.610  64.300  1.00  0.00    -1.098 OA 
HETATM   17  O   UNL     1      -9.817  15.298  65.449  1.00  0.00    -0.332 OA 
ENDBRANCH  11  14
ENDBRANCH   7  10
TORSDOF 2
ENDMDL
MODEL       56
REMARK 921   NORMALIZED FREE ENERGY PREDICTED BY IDOCK:   -4.75 KCAL/MOL
REMARK 922        TOTAL FREE ENERGY PREDICTED BY IDOCK:   -5.52 KCAL/MOL
REMARK 923 INTER-LIGAND FREE ENERGY PREDICTED BY IDOCK:   -5.29 KCAL/MOL
REMARK 924 INTRA-LIGAND FREE ENERGY PREDICTED BY IDOCK:   -0.23 KCAL/MOL
REMARK 927      BINDING AFFINITY PREDICTED BY RF-SCORE:    0.00 PKD
ROOT
HETATM    1  N   UNL     1      -8.587   8.235  67.485  1.00  0.00    -0.129 NA 
HETATM    2  H2  UNL     1      -9.240   7.748  68.099  1.00  0.00     0.000 HD 
HETATM    3  C   UNL     1      -9.305   9.164  66.728  1.00  0.00    -0.165 A  
HETATM    4  H1  UNL     1      -8.001   7.539  67.024  1.00  0.00     0.000 HD 
HETATM    5  C   UNL     1     -10.109  10.117  67.359  1.00  0.00    -0.251 A  
HETATM    6  C   UNL     1     -10.720  11.139  66.625  1.00  0.00    -0.322 A  
HETATM    7  C   UNL     1     -10.508  11.234  65.247  1.00  0.00    -0.341 A  
HETATM    8  C   UNL     1      -9.653  10.323  64.616  1.00  0.00    -0.374 A  
HETATM    9  C   UNL     1      -9.041   9.310  65.362  1.00  0.00    -0.277 A  
ENDROOT
BRANCH   7  10
HETATM   10  C   UNL     1     -11.146  12.350  64.501  1.00  0.00    -0.316 C  
HETATM   11  N   UNL     1     -11.597  13.414  65.258  1.00  0.00    -0.301 N  
HETATM   12  O   UNL     1     -11.258  12.308  63.284  1.00  0.00    -0.419 OA 
HETATM   13  H   UNL     1     -11.620  13.339  66.275  1.00  0.00     0.000 HD 
BRANCH  11  14
HETATM   14  C   UNL     1     -12.043  14.651  64.607  1.00  0.00    -0.454 C  
HETATM   15  C   UNL     1     -11.061  15.808  64.773  1.00  0.00    -0.400 C  
HETATM   16  O   UNL     1     -11.208  16.906  64.255  1.00  0.00    -1.204 OA 
HETATM   17  O   UNL     1      -9.973  15.496  65.517  1.00  0.00    -0.340 OA 
ENDBRANCH  11  14
ENDBRANCH   7  10
TORSDOF 2
ENDMDL
MODEL       57
REMARK 921   NORMALIZED FREE ENERGY PREDICTED BY IDOCK:   -4.74 KCAL/MOL
REMARK 922        TOTAL FREE ENERGY PREDICTED BY IDOCK:   -5.50 KCAL/MOL
REMARK 923 INTER-LIGAND FREE ENERGY PREDICTED BY IDOCK:   -5.34 KCAL/MOL
REMARK 924 INTRA-LIGAND FREE ENERGY PREDICTED BY IDOCK:   -0.16 KCAL/MOL
REMARK 927      BINDING AFFINITY PREDICTED BY RF-SCORE:    0.00 PKD
ROOT
HETATM    1  N   UNL     1     -12.040  14.630  68.003  1.00  0.00    -0.582 NA 
HETATM    2  H2  UNL     1     -11.533  15.408  68.426  1.00  0.00     0.000 HD 
HETATM    3  C   UNL     1     -11.982  13.540  68.876  1.00  0.00    -0.341 A  
HETATM    4  H1  UNL     1     -11.728  14.532  67.037  1.00  0.00     0.000 HD 
HETATM    5  C   UNL     1     -12.409  13.675  70.200  1.00  0.00    -0.372 A  
HETATM    6  C   UNL     1     -12.489  12.562  71.043  1.00  0.00    -0.353 A  
HETATM    7  C   UNL     1     -12.169  11.292  70.559  1.00  0.00    -0.474 A  
HETATM    8  C   UNL     1     -11.803  11.137  69.216  1.00  0.00    -0.422 A  
HETATM    9  C   UNL     1     -11.734  12.257  68.380  1.00  0.00    -0.390 A  
ENDROOT
BRANCH   7  10
HETATM   10  C   UNL     1     -12.296  10.125  71.471  1.00  0.00    -0.408 C  
HETATM   11  N   UNL     1     -11.166   9.348  71.632  1.00  0.00    -0.382 N  
HETATM   12  O   UNL     1     -13.353   9.883  72.037  1.00  0.00    -0.423 OA 
HETATM   13  H   UNL     1     -10.357   9.497  71.028  1.00  0.00     0.000 HD 
BRANCH  11  14
HETATM   14  C   UNL     1     -11.121   8.308  72.667  1.00  0.00    -0.330 C  
HETATM   15  C   UNL     1      -9.706   7.993  73.145  1.00  0.00    -0.270 C  
HETATM   16  O   UNL     1      -9.450   7.208  74.046  1.00  0.00    -0.231 OA 
HETATM   17  O   UNL     1      -8.746   8.704  72.507  1.00  0.00    -0.360 OA 
ENDBRANCH  11  14
ENDBRANCH   7  10
TORSDOF 2
ENDMDL
MODEL       58
REMARK 921   NORMALIZED FREE ENERGY PREDICTED BY IDOCK:   -4.72 KCAL/MOL
REMARK 922        TOTAL FREE ENERGY PREDICTED BY IDOCK:   -5.49 KCAL/MOL
REMARK 923 INTER-LIGAND FREE ENERGY PREDICTED BY IDOCK:   -5.29 KCAL/MOL
REMARK 924 INTRA-LIGAND FREE ENERGY PREDICTED BY IDOCK:   -0.20 KCAL/MOL
REMARK 927      BINDING AFFINITY PREDICTED BY RF-SCORE:    0.00 PKD
ROOT
HETATM    1  N   UNL     1     -11.547   7.545  73.256  1.00  0.00    -0.617 NA 
HETATM    2  H2  UNL     1     -12.335   6.901  73.184  1.00  0.00     0.000 HD 
HETATM    3  C   UNL     1     -11.610   8.439  72.183  1.00  0.00    -0.374 A  
HETATM    4  H1  UNL     1     -10.701   7.000  73.421  1.00  0.00     0.000 HD 
HETATM    5  C   UNL     1     -12.769   9.186  71.957  1.00  0.00    -0.473 A  
HETATM    6  C   UNL     1     -12.798  10.184  70.977  1.00  0.00    -0.474 A  
HETATM    7  C   UNL     1     -11.652  10.465  70.230  1.00  0.00    -0.410 A  
HETATM    8  C   UNL     1     -10.468   9.767  70.494  1.00  0.00    -0.366 A  
HETATM    9  C   UNL     1     -10.448   8.776  71.482  1.00  0.00    -0.373 A  
ENDROOT
BRANCH   7  10
HETATM   10  C   UNL     1     -11.706  11.553  69.218  1.00  0.00    -0.330 C  
HETATM   11  N   UNL     1     -11.082  12.737  69.559  1.00  0.00    -0.456 N  
HETATM   12  O   UNL     1     -12.279  11.389  68.150  1.00  0.00    -0.602 OA 
HETATM   13  H   UNL     1     -10.751  12.880  70.513  1.00  0.00     0.000 HD 
BRANCH  11  14
HETATM   14  C   UNL     1     -10.893  13.792  68.556  1.00  0.00    -0.263 C  
HETATM   15  C   UNL     1      -9.479  13.830  67.981  1.00  0.00    -0.207 C  
HETATM   16  O   UNL     1      -9.128  14.587  67.086  1.00  0.00    -0.204 OA 
HETATM   17  O   UNL     1      -8.647  12.909  68.521  1.00  0.00    -0.139 OA 
ENDBRANCH  11  14
ENDBRANCH   7  10
TORSDOF 2
ENDMDL
MODEL       59
REMARK 921   NORMALIZED FREE ENERGY PREDICTED BY IDOCK:   -4.66 KCAL/MOL
REMARK 922        TOTAL FREE ENERGY PREDICTED BY IDOCK:   -5.42 KCAL/MOL
REMARK 923 INTER-LIGAND FREE ENERGY PREDICTED BY IDOCK:   -5.25 KCAL/MOL
REMARK 924 INTRA-LIGAND FREE ENERGY PREDICTED BY IDOCK:   -0.17 KCAL/MOL
REMARK 927      BINDING AFFINITY PREDICTED BY RF-SCORE:    0.00 PKD
ROOT
HETATM    1  N   UNL     1     -10.871   8.915  68.757  1.00  0.00    -0.423 NA 
HETATM    2  H2  UNL     1      -9.938   8.552  68.562  1.00  0.00     0.000 HD 
HETATM    3  C   UNL     1     -10.986  10.174  68.162  1.00  0.00    -0.259 A  
HETATM    4  H1  UNL     1     -11.061   8.797  69.752  1.00  0.00     0.000 HD 
HETATM    5  C   UNL     1     -10.726  10.336  66.798  1.00  0.00    -0.216 A  
HETATM    6  C   UNL     1     -10.972  11.557  66.162  1.00  0.00    -0.320 A  
HETATM    7  C   UNL     1     -11.510  12.626  66.882  1.00  0.00    -0.402 A  
HETATM    8  C   UNL     1     -11.835  12.454  68.233  1.00  0.00    -0.364 A  
HETATM    9  C   UNL     1     -11.592  11.226  68.857  1.00  0.00    -0.386 A  
ENDROOT
BRANCH   7  10
HETATM   10  C   UNL     1     -11.790  13.900  66.169  1.00  0.00    -0.400 C  
HETATM   11  N   UNL     1     -10.817  14.876  66.255  1.00  0.00    -0.325 N  
HETATM   12  O   UNL     1     -12.832  14.056  65.549  1.00  0.00    -0.615 OA 
HETATM   13  H   UNL     1     -10.038  14.760  66.904  1.00  0.00     0.000 HD 
BRANCH  11  14
HETATM   14  C   UNL     1     -10.896  16.079  65.419  1.00  0.00    -0.328 C  
HETATM   15  C   UNL     1     -10.499  17.355  66.157  1.00  0.00    -0.284 C  
HETATM   16  O   UNL     1     -10.432  18.455  65.628  1.00  0.00    -0.624 OA 
HETATM   17  O   UNL     1     -10.177  17.153  67.457  1.00  0.00    -0.302 OA 
ENDBRANCH  11  14
ENDBRANCH   7  10
TORSDOF 2
ENDMDL
MODEL       60
REMARK 921   NORMALIZED FREE ENERGY PREDICTED BY IDOCK:   -4.65 KCAL/MOL
REMARK 922        TOTAL FREE ENERGY PREDICTED BY IDOCK:   -5.41 KCAL/MOL
REMARK 923 INTER-LIGAND FREE ENERGY PREDICTED BY IDOCK:   -5.19 KCAL/MOL
REMARK 924 INTRA-LIGAND FREE ENERGY PREDICTED BY IDOCK:   -0.22 KCAL/MOL
REMARK 927      BINDING AFFINITY PREDICTED BY RF-SCORE:    0.00 PKD
ROOT
HETATM    1  N   UNL     1     -11.195  14.228  64.196  1.00  0.00    -0.585 NA 
HETATM    2  H2  UNL     1     -10.610  15.063  64.220  1.00  0.00     0.000 HD 
HETATM    3  C   UNL     1     -11.272  13.705  65.490  1.00  0.00    -0.293 A  
HETATM    4  H1  UNL     1     -10.885  13.640  63.422  1.00  0.00     0.000 HD 
HETATM    5  C   UNL     1     -11.698  14.510  66.550  1.00  0.00    -0.380 A  
HETATM    6  C   UNL     1     -11.914  13.965  67.820  1.00  0.00    -0.390 A  
HETATM    7  C   UNL     1     -11.732  12.597  68.036  1.00  0.00    -0.402 A  
HETATM    8  C   UNL     1     -11.368  11.772  66.965  1.00  0.00    -0.387 A  
HETATM    9  C   UNL     1     -11.163  12.326  65.697  1.00  0.00    -0.375 A  
ENDROOT
BRANCH   7  10
HETATM   10  C   UNL     1     -12.001  12.044  69.389  1.00  0.00    -0.275 C  
HETATM   11  N   UNL     1     -12.114  10.670  69.478  1.00  0.00    -0.501 N  
HETATM   12  O   UNL     1     -12.115  12.783  70.357  1.00  0.00    -0.363 OA 
HETATM   13  H   UNL     1     -12.163  10.109  68.628  1.00  0.00     0.000 HD 
BRANCH  11  14
HETATM   14  C   UNL     1     -12.164  10.013  70.789  1.00  0.00    -0.315 C  
HETATM   15  C   UNL     1     -10.844   9.357  71.186  1.00  0.00    -0.357 C  
HETATM   16  O   UNL     1     -10.650   8.814  72.264  1.00  0.00    -0.337 OA 
HETATM   17  O   UNL     1      -9.876   9.470  70.245  1.00  0.00    -0.228 OA 
ENDBRANCH  11  14
ENDBRANCH   7  10
TORSDOF 2
ENDMDL
MODEL       61
REMARK 921   NORMALIZED FREE ENERGY PREDICTED BY IDOCK:   -4.63 KCAL/MOL
REMARK 922        TOTAL FREE ENERGY PREDICTED BY IDOCK:   -5.39 KCAL/MOL
REMARK 923 INTER-LIGAND FREE ENERGY PREDICTED BY IDOCK:   -5.21 KCAL/MOL
REMARK 924 INTRA-LIGAND FREE ENERGY PREDICTED BY IDOCK:   -0.18 KCAL/MOL
REMARK 927      BINDING AFFINITY PREDICTED BY RF-SCORE:    0.00 PKD
ROOT
HETATM    1  N   UNL     1     -10.351   9.882  64.540  1.00  0.00    -0.197 NA 
HETATM    2  H2  UNL     1     -10.192   9.549  63.589  1.00  0.00     0.000 HD 
HETATM    3  C   UNL     1     -10.487  11.272  64.503  1.00  0.00    -0.334 A  
HETATM    4  H1  UNL     1      -9.658   9.450  65.151  1.00  0.00     0.000 HD 
HETATM    5  C   UNL     1     -11.436  11.864  63.666  1.00  0.00    -0.551 A  
HETATM    6  C   UNL     1     -11.680  13.241  63.721  1.00  0.00    -0.475 A  
HETATM    7  C   UNL     1     -10.994  14.037  64.640  1.00  0.00    -0.401 A  
HETATM    8  C   UNL     1     -10.088  13.444  65.527  1.00  0.00    -0.279 A  
HETATM    9  C   UNL     1      -9.858  12.065  65.468  1.00  0.00    -0.251 A  
ENDROOT
BRANCH   7  10
HETATM   10  C   UNL     1     -11.300  15.491  64.695  1.00  0.00    -0.357 C  
HETATM   11  N   UNL     1     -10.641  16.219  65.667  1.00  0.00    -0.364 N  
HETATM   12  O   UNL     1     -12.096  15.995  63.915  1.00  0.00    -0.880 OA 
HETATM   13  H   UNL     1     -10.106  15.734  66.388  1.00  0.00     0.000 HD 
BRANCH  11  14
HETATM   14  C   UNL     1     -10.707  17.685  65.670  1.00  0.00    -0.084 C  
HETATM   15  C   UNL     1     -10.291  18.305  67.001  1.00  0.00    -0.389 C  
HETATM   16  O   UNL     1     -10.211  19.510  67.195  1.00  0.00    -0.368 OA 
HETATM   17  O   UNL     1      -9.968  17.394  67.949  1.00  0.00    -0.277 OA 
ENDBRANCH  11  14
ENDBRANCH   7  10
TORSDOF 2
ENDMDL
MODEL       62
REMARK 921   NORMALIZED FREE ENERGY PREDICTED BY IDOCK:   -4.62 KCAL/MOL
REMARK 922        TOTAL FREE ENERGY PREDICTED BY IDOCK:   -5.37 KCAL/MOL
REMARK 923 INTER-LIGAND FREE ENERGY PREDICTED BY IDOCK:   -5.19 KCAL/MOL
REMARK 924 INTRA-LIGAND FREE ENERGY PREDICTED BY IDOCK:   -0.18 KCAL/MOL
REMARK 927      BINDING AFFINITY PREDICTED BY RF-SCORE:    0.00 PKD
ROOT
HETATM    1  N   UNL     1     -11.092   6.133  71.878  1.00  0.00    -0.261 NA 
HETATM    2  H2  UNL     1     -11.973   5.677  72.114  1.00  0.00     0.000 HD 
HETATM    3  C   UNL     1     -11.373   7.416  71.403  1.00  0.00    -0.256 A  
HETATM    4  H1  UNL     1     -10.537   5.487  71.316  1.00  0.00     0.000 HD 
HETATM    5  C   UNL     1     -12.134   8.301  72.172  1.00  0.00    -0.425 A  
HETATM    6  C   UNL     1     -12.305   9.631  71.774  1.00  0.00    -0.474 A  
HETATM    7  C   UNL     1     -11.689  10.099  70.612  1.00  0.00    -0.425 A  
HETATM    8  C   UNL     1     -10.873   9.238  69.869  1.00  0.00    -0.252 A  
HETATM    9  C   UNL     1     -10.703   7.912  70.280  1.00  0.00    -0.236 A  
ENDROOT
BRANCH   7  10
HETATM   10  C   UNL     1     -11.864  11.526  70.234  1.00  0.00    -0.342 C  
HETATM   11  N   UNL     1     -12.647  12.291  71.077  1.00  0.00    -0.326 N  
HETATM   12  O   UNL     1     -11.338  11.977  69.226  1.00  0.00    -0.251 OA 
HETATM   13  H   UNL     1     -13.186  11.841  71.816  1.00  0.00     0.000 HD 
BRANCH  11  14
HETATM   14  C   UNL     1     -12.707  13.748  70.914  1.00  0.00    -0.323 C  
HETATM   15  C   UNL     1     -13.715  14.418  71.845  1.00  0.00    -0.431 C  
HETATM   16  O   UNL     1     -13.876  15.628  71.919  1.00  0.00    -0.471 OA 
HETATM   17  O   UNL     1     -14.395  13.546  72.628  1.00  0.00    -0.716 OA 
ENDBRANCH  11  14
ENDBRANCH   7  10
TORSDOF 2
ENDMDL
MODEL       63
REMARK 921   NORMALIZED FREE ENERGY PREDICTED BY IDOCK:   -4.60 KCAL/MOL
REMARK 922        TOTAL FREE ENERGY PREDICTED BY IDOCK:   -5.35 KCAL/MOL
REMARK 923 INTER-LIGAND FREE ENERGY PREDICTED BY IDOCK:   -5.17 KCAL/MOL
REMARK 924 INTRA-LIGAND FREE ENERGY PREDICTED BY IDOCK:   -0.18 KCAL/MOL
REMARK 927      BINDING AFFINITY PREDICTED BY RF-SCORE:    0.00 PKD
ROOT
HETATM    1  N   UNL     1      -6.973  18.170  68.715  1.00  0.00    -0.263 NA 
HETATM    2  H2  UNL     1      -6.238  17.808  69.322  1.00  0.00     0.000 HD 
HETATM    3  C   UNL     1      -7.611  17.088  68.102  1.00  0.00    -0.194 A  
HETATM    4  H1  UNL     1      -6.581  18.922  68.149  1.00  0.00     0.000 HD 
HETATM    5  C   UNL     1      -8.148  16.056  68.877  1.00  0.00    -0.218 A  
HETATM    6  C   UNL     1      -8.910  15.041  68.289  1.00  0.00    -0.172 A  
HETATM    7  C   UNL     1      -9.167  15.064  66.916  1.00  0.00    -0.265 A  
HETATM    8  C   UNL     1      -8.687  16.127  66.142  1.00  0.00    -0.358 A  
HETATM    9  C   UNL     1      -7.934  17.141  66.742  1.00  0.00    -0.271 A  
ENDROOT
BRANCH   7  10
HETATM   10  C   UNL     1     -10.006  13.988  66.327  1.00  0.00    -0.307 C  
HETATM   11  N   UNL     1     -10.047  13.929  64.948  1.00  0.00    -0.606 N  
HETATM   12  O   UNL     1     -10.622  13.210  67.043  1.00  0.00    -0.256 OA 
HETATM   13  H   UNL     1      -9.644  14.685  64.395  1.00  0.00     0.000 HD 
BRANCH  11  14
HETATM   14  C   UNL     1     -10.667  12.783  64.272  1.00  0.00    -0.394 C  
HETATM   15  C   UNL     1     -12.112  13.040  63.852  1.00  0.00    -0.471 C  
HETATM   16  O   UNL     1     -12.790  12.243  63.219  1.00  0.00    -0.719 OA 
HETATM   17  O   UNL     1     -12.572  14.264  64.207  1.00  0.00    -0.678 OA 
ENDBRANCH  11  14
ENDBRANCH   7  10
TORSDOF 2
ENDMDL
MODEL       64
REMARK 921   NORMALIZED FREE ENERGY PREDICTED BY IDOCK:   -4.57 KCAL/MOL
REMARK 922        TOTAL FREE ENERGY PREDICTED BY IDOCK:   -5.32 KCAL/MOL
REMARK 923 INTER-LIGAND FREE ENERGY PREDICTED BY IDOCK:   -5.12 KCAL/MOL
REMARK 924 INTRA-LIGAND FREE ENERGY PREDICTED BY IDOCK:   -0.21 KCAL/MOL
REMARK 927      BINDING AFFINITY PREDICTED BY RF-SCORE:    0.00 PKD
ROOT
HETATM    1  N   UNL     1     -10.845   8.833  70.971  1.00  0.00    -0.244 NA 
HETATM    2  H2  UNL     1      -9.990   8.723  71.516  1.00  0.00     0.000 HD 
HETATM    3  C   UNL     1     -10.753  10.021  70.241  1.00  0.00    -0.309 A  
HETATM    4  H1  UNL     1     -11.641   8.669  71.587  1.00  0.00     0.000 HD 
HETATM    5  C   UNL     1      -9.662  10.246  69.397  1.00  0.00    -0.242 A  
HETATM    6  C   UNL     1      -9.626  11.363  68.556  1.00  0.00    -0.190 A  
HETATM    7  C   UNL     1     -10.700  12.256  68.530  1.00  0.00    -0.261 A  
HETATM    8  C   UNL     1     -11.825  12.005  69.324  1.00  0.00    -0.377 A  
HETATM    9  C   UNL     1     -11.854  10.880  70.156  1.00  0.00    -0.438 A  
ENDROOT
BRANCH   7  10
HETATM   10  C   UNL     1     -10.644  13.416  67.602  1.00  0.00    -0.243 C  
HETATM   11  N   UNL     1     -10.692  13.123  66.253  1.00  0.00    -0.282 N  
HETATM   12  O   UNL     1     -10.558  14.558  68.030  1.00  0.00    -0.233 OA 
HETATM   13  H   UNL     1     -10.611  12.155  65.940  1.00  0.00     0.000 HD 
BRANCH  11  14
HETATM   14  C   UNL     1     -10.860  14.196  65.266  1.00  0.00    -0.349 C  
HETATM   15  C   UNL     1     -12.234  14.195  64.601  1.00  0.00    -0.445 C  
HETATM   16  O   UNL     1     -12.603  15.042  63.800  1.00  0.00    -0.776 OA 
HETATM   17  O   UNL     1     -13.038  13.187  65.015  1.00  0.00    -0.728 OA 
ENDBRANCH  11  14
ENDBRANCH   7  10
TORSDOF 2
ENDMDL
MODEL       65
REMARK 921   NORMALIZED FREE ENERGY PREDICTED BY IDOCK:   -4.57 KCAL/MOL
REMARK 922        TOTAL FREE ENERGY PREDICTED BY IDOCK:   -5.32 KCAL/MOL
REMARK 923 INTER-LIGAND FREE ENERGY PREDICTED BY IDOCK:   -5.12 KCAL/MOL
REMARK 924 INTRA-LIGAND FREE ENERGY PREDICTED BY IDOCK:   -0.20 KCAL/MOL
REMARK 927      BINDING AFFINITY PREDICTED BY RF-SCORE:    0.00 PKD
ROOT
HETATM    1  N   UNL     1     -14.316   8.876  73.230  1.00  0.00    -1.177 NA 
HETATM    2  H2  UNL     1     -13.950   8.334  74.012  1.00  0.00     0.000 HD 
HETATM    3  C   UNL     1     -13.264   9.149  72.351  1.00  0.00    -0.444 A  
HETATM    4  H1  UNL     1     -14.883   9.637  73.604  1.00  0.00     0.000 HD 
HETATM    5  C   UNL     1     -12.487   8.107  71.838  1.00  0.00    -0.368 A  
HETATM    6  C   UNL     1     -11.524   8.349  70.853  1.00  0.00    -0.295 A  
HETATM    7  C   UNL     1     -11.349   9.639  70.348  1.00  0.00    -0.337 A  
HETATM    8  C   UNL     1     -12.166  10.678  70.809  1.00  0.00    -0.474 A  
HETATM    9  C   UNL     1     -13.131  10.422  71.789  1.00  0.00    -0.567 A  
ENDROOT
BRANCH   7  10
HETATM   10  C   UNL     1     -10.340   9.858  69.278  1.00  0.00    -0.219 C  
HETATM   11  N   UNL     1      -9.252  10.640  69.613  1.00  0.00    -0.404 N  
HETATM   12  O   UNL     1     -10.485   9.366  68.168  1.00  0.00    -0.204 OA 
HETATM   13  H   UNL     1      -9.247  11.152  70.496  1.00  0.00     0.000 HD 
BRANCH  11  14
HETATM   14  C   UNL     1      -8.102  10.740  68.707  1.00  0.00    -0.143 C  
HETATM   15  C   UNL     1      -8.050  12.060  67.942  1.00  0.00    -0.150 C  
HETATM   16  O   UNL     1      -7.141  12.374  67.186  1.00  0.00    -0.142 OA 
HETATM   17  O   UNL     1      -9.089  12.886  68.211  1.00  0.00    -0.199 OA 
ENDBRANCH  11  14
ENDBRANCH   7  10
TORSDOF 2
ENDMDL
MODEL       66
REMARK 921   NORMALIZED FREE ENERGY PREDICTED BY IDOCK:   -4.55 KCAL/MOL
REMARK 922        TOTAL FREE ENERGY PREDICTED BY IDOCK:   -5.30 KCAL/MOL
REMARK 923 INTER-LIGAND FREE ENERGY PREDICTED BY IDOCK:   -5.07 KCAL/MOL
REMARK 924 INTRA-LIGAND FREE ENERGY PREDICTED BY IDOCK:   -0.23 KCAL/MOL
REMARK 927      BINDING AFFINITY PREDICTED BY RF-SCORE:    0.00 PKD
ROOT
HETATM    1  N   UNL     1     -12.249  11.113  68.351  1.00  0.00    -0.726 NA 
HETATM    2  H2  UNL     1     -11.789  10.399  67.787  1.00  0.00     0.000 HD 
HETATM    3  C   UNL     1     -11.738  12.362  67.985  1.00  0.00    -0.356 A  
HETATM    4  H1  UNL     1     -12.228  10.815  69.326  1.00  0.00     0.000 HD 
HETATM    5  C   UNL     1     -11.767  12.770  66.650  1.00  0.00    -0.459 A  
HETATM    6  C   UNL     1     -11.389  14.068  66.289  1.00  0.00    -0.336 A  
HETATM    7  C   UNL     1     -11.004  14.983  67.272  1.00  0.00    -0.326 A  
HETATM    8  C   UNL     1     -11.033  14.603  68.618  1.00  0.00    -0.266 A  
HETATM    9  C   UNL     1     -11.420  13.305  68.968  1.00  0.00    -0.350 A  
ENDROOT
BRANCH   7  10
HETATM   10  C   UNL     1     -10.639  16.364  66.859  1.00  0.00    -0.252 C  
HETATM   11  N   UNL     1     -10.464  17.281  67.877  1.00  0.00    -0.367 N  
HETATM   12  O   UNL     1     -10.509  16.653  65.678  1.00  0.00    -0.438 OA 
HETATM   13  H   UNL     1     -10.729  17.036  68.832  1.00  0.00     0.000 HD 
BRANCH  11  14
HETATM   14  C   UNL     1      -9.898  18.605  67.594  1.00  0.00    -0.320 C  
HETATM   15  C   UNL     1      -8.472  18.775  68.113  1.00  0.00    -0.306 C  
HETATM   16  O   UNL     1      -7.794  19.775  67.926  1.00  0.00    -0.283 OA 
HETATM   17  O   UNL     1      -7.998  17.689  68.769  1.00  0.00    -0.285 OA 
ENDBRANCH  11  14
ENDBRANCH   7  10
TORSDOF 2
ENDMDL
MODEL       67
REMARK 921   NORMALIZED FREE ENERGY PREDICTED BY IDOCK:   -4.55 KCAL/MOL
REMARK 922        TOTAL FREE ENERGY PREDICTED BY IDOCK:   -5.29 KCAL/MOL
REMARK 923 INTER-LIGAND FREE ENERGY PREDICTED BY IDOCK:   -5.09 KCAL/MOL
REMARK 924 INTRA-LIGAND FREE ENERGY PREDICTED BY IDOCK:   -0.20 KCAL/MOL
REMARK 927      BINDING AFFINITY PREDICTED BY RF-SCORE:    0.00 PKD
ROOT
HETATM    1  N   UNL     1      -9.165   9.551  63.221  1.00  0.00    -0.452 NA 
HETATM    2  H2  UNL     1      -9.411   8.623  63.566  1.00  0.00     0.000 HD 
HETATM    3  C   UNL     1      -9.942  10.494  63.900  1.00  0.00    -0.282 A  
HETATM    4  H1  UNL     1      -9.163   9.525  62.202  1.00  0.00     0.000 HD 
HETATM    5  C   UNL     1      -9.945  10.530  65.296  1.00  0.00    -0.364 A  
HETATM    6  C   UNL     1     -10.606  11.554  65.985  1.00  0.00    -0.310 A  
HETATM    7  C   UNL     1     -11.248  12.572  65.277  1.00  0.00    -0.341 A  
HETATM    8  C   UNL     1     -11.195  12.580  63.878  1.00  0.00    -0.496 A  
HETATM    9  C   UNL     1     -10.526  11.556  63.201  1.00  0.00    -0.350 A  
ENDROOT
BRANCH   7  10
HETATM   10  C   UNL     1     -11.912  13.663  66.038  1.00  0.00    -0.413 C  
HETATM   11  N   UNL     1     -11.327  14.017  67.238  1.00  0.00    -0.315 N  
HETATM   12  O   UNL     1     -12.923  14.202  65.609  1.00  0.00    -0.586 OA 
HETATM   13  H   UNL     1     -10.579  13.442  67.627  1.00  0.00     0.000 HD 
BRANCH  11  14
HETATM   14  C   UNL     1     -11.775  15.215  67.957  1.00  0.00    -0.285 C  
HETATM   15  C   UNL     1     -12.162  14.939  69.408  1.00  0.00    -0.205 C  
HETATM   16  O   UNL     1     -12.498  15.808  70.200  1.00  0.00    -0.370 OA 
HETATM   17  O   UNL     1     -12.054  13.636  69.761  1.00  0.00    -0.320 OA 
ENDBRANCH  11  14
ENDBRANCH   7  10
TORSDOF 2
ENDMDL
MODEL       68
REMARK 921   NORMALIZED FREE ENERGY PREDICTED BY IDOCK:   -4.51 KCAL/MOL
REMARK 922        TOTAL FREE ENERGY PREDICTED BY IDOCK:   -5.25 KCAL/MOL
REMARK 923 INTER-LIGAND FREE ENERGY PREDICTED BY IDOCK:   -5.08 KCAL/MOL
REMARK 924 INTRA-LIGAND FREE ENERGY PREDICTED BY IDOCK:   -0.16 KCAL/MOL
REMARK 927      BINDING AFFINITY PREDICTED BY RF-SCORE:    0.00 PKD
ROOT
HETATM    1  N   UNL     1     -13.997  13.851  72.665  1.00  0.00    -0.713 NA 
HETATM    2  H2  UNL     1     -14.581  14.522  72.167  1.00  0.00     0.000 HD 
HETATM    3  C   UNL     1     -13.306  13.085  71.722  1.00  0.00    -0.378 A  
HETATM    4  H1  UNL     1     -14.567  13.396  73.378  1.00  0.00     0.000 HD 
HETATM    5  C   UNL     1     -12.525  13.707  70.745  1.00  0.00    -0.432 A  
HETATM    6  C   UNL     1     -11.718  12.954  69.886  1.00  0.00    -0.324 A  
HETATM    7  C   UNL     1     -11.662  11.564  70.016  1.00  0.00    -0.414 A  
HETATM    8  C   UNL     1     -12.391  10.937  71.033  1.00  0.00    -0.498 A  
HETATM    9  C   UNL     1     -13.188  11.701  71.892  1.00  0.00    -0.475 A  
ENDROOT
BRANCH   7  10
HETATM   10  C   UNL     1     -10.771  10.796  69.109  1.00  0.00    -0.227 C  
HETATM   11  N   UNL     1     -11.389  10.091  68.094  1.00  0.00    -0.530 N  
HETATM   12  O   UNL     1      -9.558  10.798  69.270  1.00  0.00    -0.187 OA 
HETATM   13  H   UNL     1     -12.405   9.996  68.089  1.00  0.00     0.000 HD 
BRANCH  11  14
HETATM   14  C   UNL     1     -10.594   9.479  67.024  1.00  0.00    -0.201 C  
HETATM   15  C   UNL     1     -10.460  10.367  65.788  1.00  0.00    -0.117 C  
HETATM   16  O   UNL     1      -9.786  10.076  64.810  1.00  0.00    -0.305 OA 
HETATM   17  O   UNL     1     -11.125  11.542  65.889  1.00  0.00    -0.283 OA 
ENDBRANCH  11  14
ENDBRANCH   7  10
TORSDOF 2
ENDMDL
MODEL       69
REMARK 921   NORMALIZED FREE ENERGY PREDICTED BY IDOCK:   -4.49 KCAL/MOL
REMARK 922        TOTAL FREE ENERGY PREDICTED BY IDOCK:   -5.23 KCAL/MOL
REMARK 923 INTER-LIGAND FREE ENERGY PREDICTED BY IDOCK:   -5.05 KCAL/MOL
REMARK 924 INTRA-LIGAND FREE ENERGY PREDICTED BY IDOCK:   -0.18 KCAL/MOL
REMARK 927      BINDING AFFINITY PREDICTED BY RF-SCORE:    0.00 PKD
ROOT
HETATM    1  N   UNL     1      -9.319   8.063  65.892  1.00  0.00    -0.404 NA 
HETATM    2  H2  UNL     1      -9.916   7.271  66.132  1.00  0.00     0.000 HD 
HETATM    3  C   UNL     1     -10.019   9.241  66.164  1.00  0.00    -0.277 A  
HETATM    4  H1  UNL     1      -8.928   7.900  64.964  1.00  0.00     0.000 HD 
HETATM    5  C   UNL     1     -10.555   9.464  67.435  1.00  0.00    -0.326 A  
HETATM    6  C   UNL     1     -11.134  10.695  67.762  1.00  0.00    -0.385 A  
HETATM    7  C   UNL     1     -11.157  11.729  66.824  1.00  0.00    -0.360 A  
HETATM    8  C   UNL     1     -10.565  11.537  65.570  1.00  0.00    -0.334 A  
HETATM    9  C   UNL     1      -9.982  10.305  65.257  1.00  0.00    -0.387 A  
ENDROOT
BRANCH   7  10
HETATM   10  C   UNL     1     -11.751  13.036  67.213  1.00  0.00    -0.375 C  
HETATM   11  N   UNL     1     -11.616  13.398  68.539  1.00  0.00    -0.309 N  
HETATM   12  O   UNL     1     -12.325  13.734  66.390  1.00  0.00    -0.439 OA 
HETATM   13  H   UNL     1     -11.266  12.721  69.218  1.00  0.00     0.000 HD 
BRANCH  11  14
HETATM   14  C   UNL     1     -11.973  14.752  68.978  1.00  0.00    -0.273 C  
HETATM   15  C   UNL     1     -12.518  14.800  70.404  1.00  0.00    -0.349 C  
HETATM   16  O   UNL     1     -12.813  15.834  70.986  1.00  0.00    -0.475 OA 
HETATM   17  O   UNL     1     -12.605  13.584  70.994  1.00  0.00    -0.353 OA 
ENDBRANCH  11  14
ENDBRANCH   7  10
TORSDOF 2
ENDMDL
MODEL       70
REMARK 921   NORMALIZED FREE ENERGY PREDICTED BY IDOCK:   -4.49 KCAL/MOL
REMARK 922        TOTAL FREE ENERGY PREDICTED BY IDOCK:   -5.23 KCAL/MOL
REMARK 923 INTER-LIGAND FREE ENERGY PREDICTED BY IDOCK:   -5.02 KCAL/MOL
REMARK 924 INTRA-LIGAND FREE ENERGY PREDICTED BY IDOCK:   -0.21 KCAL/MOL
REMARK 927      BINDING AFFINITY PREDICTED BY RF-SCORE:    0.00 PKD
ROOT
HETATM    1  N   UNL     1     -13.921  13.903  72.662  1.00  0.00    -0.713 NA 
HETATM    2  H2  UNL     1     -14.505  14.574  72.162  1.00  0.00     0.000 HD 
HETATM    3  C   UNL     1     -13.244  13.123  71.720  1.00  0.00    -0.403 A  
HETATM    4  H1  UNL     1     -14.488  13.460  73.384  1.00  0.00     0.000 HD 
HETATM    5  C   UNL     1     -12.468  13.730  70.730  1.00  0.00    -0.441 A  
HETATM    6  C   UNL     1     -11.674  12.962  69.871  1.00  0.00    -0.324 A  
HETATM    7  C   UNL     1     -11.628  11.574  70.015  1.00  0.00    -0.364 A  
HETATM    8  C   UNL     1     -12.351  10.962  71.045  1.00  0.00    -0.498 A  
HETATM    9  C   UNL     1     -13.135  11.741  71.903  1.00  0.00    -0.482 A  
ENDROOT
BRANCH   7  10
HETATM   10  C   UNL     1     -10.750  10.790  69.107  1.00  0.00    -0.227 C  
HETATM   11  N   UNL     1     -11.381   9.890  68.271  1.00  0.00    -0.530 N  
HETATM   12  O   UNL     1      -9.537  10.946  69.117  1.00  0.00    -0.186 OA 
HETATM   13  H   UNL     1     -12.372   9.685  68.402  1.00  0.00     0.000 HD 
BRANCH  11  14
HETATM   14  C   UNL     1     -10.635   9.227  67.195  1.00  0.00    -0.216 C  
HETATM   15  C   UNL     1     -10.403   7.740  67.449  1.00  0.00    -0.284 C  
HETATM   16  O   UNL     1      -9.862   6.988  66.650  1.00  0.00    -0.185 OA 
HETATM   17  O   UNL     1     -10.897   7.307  68.633  1.00  0.00    -0.170 OA 
ENDBRANCH  11  14
ENDBRANCH   7  10
TORSDOF 2
ENDMDL
MODEL       71
REMARK 921   NORMALIZED FREE ENERGY PREDICTED BY IDOCK:   -4.46 KCAL/MOL
REMARK 922        TOTAL FREE ENERGY PREDICTED BY IDOCK:   -5.20 KCAL/MOL
REMARK 923 INTER-LIGAND FREE ENERGY PREDICTED BY IDOCK:   -4.99 KCAL/MOL
REMARK 924 INTRA-LIGAND FREE ENERGY PREDICTED BY IDOCK:   -0.21 KCAL/MOL
REMARK 927      BINDING AFFINITY PREDICTED BY RF-SCORE:    0.00 PKD
ROOT
HETATM    1  N   UNL     1      -9.646  10.004  67.275  1.00  0.00    -0.153 NA 
HETATM    2  H2  UNL     1      -8.640  10.115  67.150  1.00  0.00     0.000 HD 
HETATM    3  C   UNL     1     -10.139  11.144  67.915  1.00  0.00    -0.176 A  
HETATM    4  H1  UNL     1      -9.820   9.079  67.666  1.00  0.00     0.000 HD 
HETATM    5  C   UNL     1      -9.900  12.412  67.379  1.00  0.00    -0.199 A  
HETATM    6  C   UNL     1     -10.504  13.548  67.929  1.00  0.00    -0.253 A  
HETATM    7  C   UNL     1     -11.380  13.421  69.009  1.00  0.00    -0.335 A  
HETATM    8  C   UNL     1     -11.677  12.148  69.512  1.00  0.00    -0.402 A  
HETATM    9  C   UNL     1     -11.073  11.019  68.949  1.00  0.00    -0.295 A  
ENDROOT
BRANCH   7  10
HETATM   10  C   UNL     1     -12.031  14.643  69.550  1.00  0.00    -0.319 C  
HETATM   11  N   UNL     1     -12.975  14.448  70.540  1.00  0.00    -0.451 N  
HETATM   12  O   UNL     1     -11.734  15.752  69.127  1.00  0.00    -0.368 OA 
HETATM   13  H   UNL     1     -13.298  13.504  70.753  1.00  0.00     0.000 HD 
BRANCH  11  14
HETATM   14  C   UNL     1     -13.515  15.590  71.286  1.00  0.00    -0.480 C  
HETATM   15  C   UNL     1     -13.447  15.409  72.800  1.00  0.00    -0.538 C  
HETATM   16  O   UNL     1     -13.782  16.266  73.605  1.00  0.00    -0.552 OA 
HETATM   17  O   UNL     1     -12.932  14.216  73.182  1.00  0.00    -0.470 OA 
ENDBRANCH  11  14
ENDBRANCH   7  10
TORSDOF 2
ENDMDL
MODEL       72
REMARK 921   NORMALIZED FREE ENERGY PREDICTED BY IDOCK:   -4.45 KCAL/MOL
REMARK 922        TOTAL FREE ENERGY PREDICTED BY IDOCK:   -5.18 KCAL/MOL
REMARK 923 INTER-LIGAND FREE ENERGY PREDICTED BY IDOCK:   -4.97 KCAL/MOL
REMARK 924 INTRA-LIGAND FREE ENERGY PREDICTED BY IDOCK:   -0.21 KCAL/MOL
REMARK 927      BINDING AFFINITY PREDICTED BY RF-SCORE:    0.00 PKD
ROOT
HETATM    1  N   UNL     1     -10.441   6.929  69.422  1.00  0.00    -0.208 NA 
HETATM    2  H2  UNL     1     -11.256   6.909  70.035  1.00  0.00     0.000 HD 
HETATM    3  C   UNL     1     -10.510   8.081  68.635  1.00  0.00    -0.167 A  
HETATM    4  H1  UNL     1     -10.347   6.013  68.985  1.00  0.00     0.000 HD 
HETATM    5  C   UNL     1     -10.640   9.337  69.234  1.00  0.00    -0.234 A  
HETATM    6  C   UNL     1     -10.568  10.506  68.469  1.00  0.00    -0.234 A  
HETATM    7  C   UNL     1     -10.337  10.430  67.094  1.00  0.00    -0.290 A  
HETATM    8  C   UNL     1     -10.141   9.181  66.495  1.00  0.00    -0.357 A  
HETATM    9  C   UNL     1     -10.206   8.018  67.271  1.00  0.00    -0.345 A  
ENDROOT
BRANCH   7  10
HETATM   10  C   UNL     1     -10.234  11.692  66.315  1.00  0.00    -0.227 C  
HETATM   11  N   UNL     1     -10.658  11.637  65.002  1.00  0.00    -0.278 N  
HETATM   12  O   UNL     1      -9.794  12.712  66.827  1.00  0.00    -0.224 OA 
HETATM   13  H   UNL     1     -10.874  10.736  64.575  1.00  0.00     0.000 HD 
BRANCH  11  14
HETATM   14  C   UNL     1     -10.799  12.868  64.215  1.00  0.00    -0.397 C  
HETATM   15  C   UNL     1     -12.252  13.289  64.009  1.00  0.00    -0.410 C  
HETATM   16  O   UNL     1     -12.590  14.317  63.440  1.00  0.00    -0.777 OA 
HETATM   17  O   UNL     1     -13.149  12.435  64.558  1.00  0.00    -0.823 OA 
ENDBRANCH  11  14
ENDBRANCH   7  10
TORSDOF 2
ENDMDL
MODEL       73
REMARK 921   NORMALIZED FREE ENERGY PREDICTED BY IDOCK:   -4.42 KCAL/MOL
REMARK 922        TOTAL FREE ENERGY PREDICTED BY IDOCK:   -5.15 KCAL/MOL
REMARK 923 INTER-LIGAND FREE ENERGY PREDICTED BY IDOCK:   -4.96 KCAL/MOL
REMARK 924 INTRA-LIGAND FREE ENERGY PREDICTED BY IDOCK:   -0.18 KCAL/MOL
REMARK 927      BINDING AFFINITY PREDICTED BY RF-SCORE:    0.00 PKD
ROOT
HETATM    1  N   UNL     1     -10.729  18.149  67.655  1.00  0.00    -0.399 NA 
HETATM    2  H2  UNL     1     -10.094  18.643  68.282  1.00  0.00     0.000 HD 
HETATM    3  C   UNL     1     -10.684  16.787  67.964  1.00  0.00    -0.355 A  
HETATM    4  H1  UNL     1     -10.550  18.466  66.702  1.00  0.00     0.000 HD 
HETATM    5  C   UNL     1     -10.929  16.353  69.269  1.00  0.00    -0.322 A  
HETATM    6  C   UNL     1     -11.026  14.989  69.564  1.00  0.00    -0.281 A  
HETATM    7  C   UNL     1     -10.906  14.042  68.545  1.00  0.00    -0.268 A  
HETATM    8  C   UNL     1     -10.725  14.469  67.224  1.00  0.00    -0.287 A  
HETATM    9  C   UNL     1     -10.637  15.836  66.940  1.00  0.00    -0.317 A  
ENDROOT
BRANCH   7  10
HETATM   10  C   UNL     1     -11.046  12.602  68.886  1.00  0.00    -0.259 C  
HETATM   11  N   UNL     1     -11.628  12.315  70.106  1.00  0.00    -0.537 N  
HETATM   12  O   UNL     1     -10.658  11.734  68.116  1.00  0.00    -0.189 OA 
HETATM   13  H   UNL     1     -11.796  13.065  70.776  1.00  0.00     0.000 HD 
BRANCH  11  14
HETATM   14  C   UNL     1     -12.006  10.938  70.442  1.00  0.00    -0.362 C  
HETATM   15  C   UNL     1     -13.019  10.851  71.581  1.00  0.00    -0.464 C  
HETATM   16  O   UNL     1     -13.515   9.805  71.973  1.00  0.00    -0.413 OA 
HETATM   17  O   UNL     1     -13.361  12.056  72.097  1.00  0.00    -0.510 OA 
ENDBRANCH  11  14
ENDBRANCH   7  10
TORSDOF 2
ENDMDL
MODEL       74
REMARK 921   NORMALIZED FREE ENERGY PREDICTED BY IDOCK:   -4.41 KCAL/MOL
REMARK 922        TOTAL FREE ENERGY PREDICTED BY IDOCK:   -5.14 KCAL/MOL
REMARK 923 INTER-LIGAND FREE ENERGY PREDICTED BY IDOCK:   -4.91 KCAL/MOL
REMARK 924 INTRA-LIGAND FREE ENERGY PREDICTED BY IDOCK:   -0.23 KCAL/MOL
REMARK 927      BINDING AFFINITY PREDICTED BY RF-SCORE:    0.00 PKD
ROOT
HETATM    1  N   UNL     1     -13.057  12.781  64.767  1.00  0.00    -0.836 NA 
HETATM    2  H2  UNL     1     -13.638  12.421  65.524  1.00  0.00     0.000 HD 
HETATM    3  C   UNL     1     -12.194  13.746  65.294  1.00  0.00    -0.439 A  
HETATM    4  H1  UNL     1     -13.661  13.009  63.978  1.00  0.00     0.000 HD 
HETATM    5  C   UNL     1     -11.366  13.434  66.376  1.00  0.00    -0.338 A  
HETATM    6  C   UNL     1     -10.400  14.342  66.823  1.00  0.00    -0.274 A  
HETATM    7  C   UNL     1     -10.234  15.565  66.170  1.00  0.00    -0.322 A  
HETATM    8  C   UNL     1     -11.014  15.860  65.046  1.00  0.00    -0.426 A  
HETATM    9  C   UNL     1     -11.972  14.941  64.603  1.00  0.00    -0.407 A  
ENDROOT
BRANCH   7  10
HETATM   10  C   UNL     1      -9.177  16.494  66.650  1.00  0.00    -0.250 C  
HETATM   11  N   UNL     1      -9.075  16.652  68.018  1.00  0.00    -0.215 N  
HETATM   12  O   UNL     1      -8.449  17.079  65.859  1.00  0.00    -0.519 OA 
HETATM   13  H   UNL     1      -9.796  16.266  68.628  1.00  0.00     0.000 HD 
BRANCH  11  14
HETATM   14  C   UNL     1      -7.936  17.372  68.600  1.00  0.00    -0.271 C  
HETATM   15  C   UNL     1      -7.015  16.478  69.426  1.00  0.00    -0.202 C  
HETATM   16  O   UNL     1      -5.975  16.863  69.942  1.00  0.00    -0.220 OA 
HETATM   17  O   UNL     1      -7.431  15.191  69.502  1.00  0.00    -0.196 OA 
ENDBRANCH  11  14
ENDBRANCH   7  10
TORSDOF 2
ENDMDL
MODEL       75
REMARK 921   NORMALIZED FREE ENERGY PREDICTED BY IDOCK:   -4.34 KCAL/MOL
REMARK 922        TOTAL FREE ENERGY PREDICTED BY IDOCK:   -5.06 KCAL/MOL
REMARK 923 INTER-LIGAND FREE ENERGY PREDICTED BY IDOCK:   -4.89 KCAL/MOL
REMARK 924 INTRA-LIGAND FREE ENERGY PREDICTED BY IDOCK:   -0.17 KCAL/MOL
REMARK 927      BINDING AFFINITY PREDICTED BY RF-SCORE:    0.00 PKD
ROOT
HETATM    1  N   UNL     1     -13.492  11.906  72.239  1.00  0.00    -0.548 NA 
HETATM    2  H2  UNL     1     -13.612  12.527  71.439  1.00  0.00     0.000 HD 
HETATM    3  C   UNL     1     -13.068  10.659  71.770  1.00  0.00    -0.466 A  
HETATM    4  H1  UNL     1     -14.322  11.978  72.828  1.00  0.00     0.000 HD 
HETATM    5  C   UNL     1     -11.931  10.561  70.964  1.00  0.00    -0.466 A  
HETATM    6  C   UNL     1     -11.415   9.311  70.604  1.00  0.00    -0.327 A  
HETATM    7  C   UNL     1     -12.018   8.143  71.075  1.00  0.00    -0.257 A  
HETATM    8  C   UNL     1     -13.118   8.232  71.936  1.00  0.00    -0.367 A  
HETATM    9  C   UNL     1     -13.621   9.487  72.295  1.00  0.00    -0.494 A  
ENDROOT
BRANCH   7  10
HETATM   10  C   UNL     1     -11.426   6.831  70.701  1.00  0.00    -0.351 C  
HETATM   11  N   UNL     1     -11.304   6.578  69.348  1.00  0.00    -0.563 N  
HETATM   12  O   UNL     1     -11.074   6.034  71.559  1.00  0.00    -0.268 OA 
HETATM   13  H   UNL     1     -11.746   7.202  68.673  1.00  0.00     0.000 HD 
BRANCH  11  14
HETATM   14  C   UNL     1     -10.542   5.416  68.877  1.00  0.00    -0.127 C  
HETATM   15  C   UNL     1     -10.489   5.306  67.355  1.00  0.00    -0.148 C  
HETATM   16  O   UNL     1      -9.852   4.452  66.755  1.00  0.00    -0.202 OA 
HETATM   17  O   UNL     1     -11.180   6.280  66.715  1.00  0.00    -0.310 OA 
ENDBRANCH  11  14
ENDBRANCH   7  10
TORSDOF 2
ENDMDL
MODEL       76
REMARK 921   NORMALIZED FREE ENERGY PREDICTED BY IDOCK:   -4.29 KCAL/MOL
REMARK 922        TOTAL FREE ENERGY PREDICTED BY IDOCK:   -5.01 KCAL/MOL
REMARK 923 INTER-LIGAND FREE ENERGY PREDICTED BY IDOCK:   -4.86 KCAL/MOL
REMARK 924 INTRA-LIGAND FREE ENERGY PREDICTED BY IDOCK:   -0.15 KCAL/MOL
REMARK 927      BINDING AFFINITY PREDICTED BY RF-SCORE:    0.00 PKD
ROOT
HETATM    1  N   UNL     1     -12.396  14.383  68.134  1.00  0.00    -0.590 NA 
HETATM    2  H2  UNL     1     -11.944  15.108  68.690  1.00  0.00     0.000 HD 
HETATM    3  C   UNL     1     -11.935  13.139  68.573  1.00  0.00    -0.289 A  
HETATM    4  H1  UNL     1     -12.322  14.640  67.150  1.00  0.00     0.000 HD 
HETATM    5  C   UNL     1     -12.036  12.786  69.921  1.00  0.00    -0.329 A  
HETATM    6  C   UNL     1     -11.710  11.495  70.350  1.00  0.00    -0.328 A  
HETATM    7  C   UNL     1     -11.304  10.531  69.425  1.00  0.00    -0.331 A  
HETATM    8  C   UNL     1     -11.261  10.856  68.064  1.00  0.00    -0.378 A  
HETATM    9  C   UNL     1     -11.597  12.148  67.645  1.00  0.00    -0.413 A  
ENDROOT
BRANCH   7  10
HETATM   10  C   UNL     1     -10.995   9.160  69.909  1.00  0.00    -0.204 C  
HETATM   11  N   UNL     1     -12.032   8.475  70.511  1.00  0.00    -0.487 N  
HETATM   12  O   UNL     1      -9.877   8.684  69.774  1.00  0.00    -0.178 OA 
HETATM   13  H   UNL     1     -12.899   8.963  70.737  1.00  0.00     0.000 HD 
BRANCH  11  14
HETATM   14  C   UNL     1     -11.895   7.049  70.827  1.00  0.00    -0.355 C  
HETATM   15  C   UNL     1     -11.453   6.789  72.265  1.00  0.00    -0.276 C  
HETATM   16  O   UNL     1     -11.341   5.674  72.753  1.00  0.00    -0.289 OA 
HETATM   17  O   UNL     1     -11.234   7.919  72.979  1.00  0.00    -0.411 OA 
ENDBRANCH  11  14
ENDBRANCH   7  10
TORSDOF 2
ENDMDL
MODEL       77
REMARK 921   NORMALIZED FREE ENERGY PREDICTED BY IDOCK:   -4.27 KCAL/MOL
REMARK 922        TOTAL FREE ENERGY PREDICTED BY IDOCK:   -4.99 KCAL/MOL
REMARK 923 INTER-LIGAND FREE ENERGY PREDICTED BY IDOCK:   -4.77 KCAL/MOL
REMARK 924 INTRA-LIGAND FREE ENERGY PREDICTED BY IDOCK:   -0.22 KCAL/MOL
REMARK 927      BINDING AFFINITY PREDICTED BY RF-SCORE:    0.00 PKD
ROOT
HETATM    1  N   UNL     1     -10.317  13.520  64.200  1.00  0.00    -0.708 NA 
HETATM    2  H2  UNL     1     -10.700  12.877  63.506  1.00  0.00     0.000 HD 
HETATM    3  C   UNL     1     -10.788  13.140  65.460  1.00  0.00    -0.283 A  
HETATM    4  H1  UNL     1     -10.457  14.473  63.865  1.00  0.00     0.000 HD 
HETATM    5  C   UNL     1     -10.596  11.834  65.918  1.00  0.00    -0.314 A  
HETATM    6  C   UNL     1     -10.935  11.478  67.228  1.00  0.00    -0.323 A  
HETATM    7  C   UNL     1     -11.444  12.438  68.105  1.00  0.00    -0.370 A  
HETATM    8  C   UNL     1     -11.578  13.763  67.675  1.00  0.00    -0.381 A  
HETATM    9  C   UNL     1     -11.229  14.110  66.365  1.00  0.00    -0.328 A  
ENDROOT
BRANCH   7  10
HETATM   10  C   UNL     1     -11.763  12.035  69.500  1.00  0.00    -0.342 C  
HETATM   11  N   UNL     1     -11.683  10.685  69.781  1.00  0.00    -0.290 N  
HETATM   12  O   UNL     1     -12.080  12.868  70.337  1.00  0.00    -0.361 OA 
HETATM   13  H   UNL     1     -11.564  10.015  69.021  1.00  0.00     0.000 HD 
BRANCH  11  14
HETATM   14  C   UNL     1     -11.768  10.209  71.166  1.00  0.00    -0.366 C  
HETATM   15  C   UNL     1     -13.119   9.588  71.509  1.00  0.00    -0.389 C  
HETATM   16  O   UNL     1     -13.378   9.071  72.587  1.00  0.00    -0.458 OA 
HETATM   17  O   UNL     1     -14.007   9.617  70.486  1.00  0.00     0.146 OA 
ENDBRANCH  11  14
ENDBRANCH   7  10
TORSDOF 2
ENDMDL
MODEL       78
REMARK 921   NORMALIZED FREE ENERGY PREDICTED BY IDOCK:   -4.27 KCAL/MOL
REMARK 922        TOTAL FREE ENERGY PREDICTED BY IDOCK:   -4.98 KCAL/MOL
REMARK 923 INTER-LIGAND FREE ENERGY PREDICTED BY IDOCK:   -4.78 KCAL/MOL
REMARK 924 INTRA-LIGAND FREE ENERGY PREDICTED BY IDOCK:   -0.20 KCAL/MOL
REMARK 927      BINDING AFFINITY PREDICTED BY RF-SCORE:    0.00 PKD
ROOT
HETATM    1  N   UNL     1     -12.455  11.375  63.070  1.00  0.00    -0.854 NA 
HETATM    2  H2  UNL     1     -11.854  10.551  63.087  1.00  0.00     0.000 HD 
HETATM    3  C   UNL     1     -11.998  12.274  64.038  1.00  0.00    -0.462 A  
HETATM    4  H1  UNL     1     -13.426  11.065  63.075  1.00  0.00     0.000 HD 
HETATM    5  C   UNL     1     -10.667  12.699  64.031  1.00  0.00    -0.457 A  
HETATM    6  C   UNL     1     -10.231  13.702  64.904  1.00  0.00    -0.363 A  
HETATM    7  C   UNL     1     -11.135  14.312  65.777  1.00  0.00    -0.310 A  
HETATM    8  C   UNL     1     -12.484  13.938  65.746  1.00  0.00    -0.530 A  
HETATM    9  C   UNL     1     -12.910  12.940  64.863  1.00  0.00    -0.370 A  
ENDROOT
BRANCH   7  10
HETATM   10  C   UNL     1     -10.647  15.396  66.669  1.00  0.00    -0.306 C  
HETATM   11  N   UNL     1      -9.926  14.999  67.778  1.00  0.00    -0.228 N  
HETATM   12  O   UNL     1     -10.885  16.570  66.418  1.00  0.00    -0.196 OA 
HETATM   13  H   UNL     1      -9.882  14.011  68.027  1.00  0.00     0.000 HD 
BRANCH  11  14
HETATM   14  C   UNL     1      -9.222  15.991  68.599  1.00  0.00    -0.216 C  
HETATM   15  C   UNL     1      -7.710  15.777  68.640  1.00  0.00    -0.153 C  
HETATM   16  O   UNL     1      -6.931  16.526  69.211  1.00  0.00    -0.215 OA 
HETATM   17  O   UNL     1      -7.296  14.694  67.940  1.00  0.00    -0.121 OA 
ENDBRANCH  11  14
ENDBRANCH   7  10
TORSDOF 2
ENDMDL
MODEL       79
REMARK 921   NORMALIZED FREE ENERGY PREDICTED BY IDOCK:   -4.22 KCAL/MOL
REMARK 922        TOTAL FREE ENERGY PREDICTED BY IDOCK:   -4.93 KCAL/MOL
REMARK 923 INTER-LIGAND FREE ENERGY PREDICTED BY IDOCK:   -4.71 KCAL/MOL
REMARK 924 INTRA-LIGAND FREE ENERGY PREDICTED BY IDOCK:   -0.23 KCAL/MOL
REMARK 927      BINDING AFFINITY PREDICTED BY RF-SCORE:    0.00 PKD
ROOT
HETATM    1  N   UNL     1     -11.976  10.382  68.568  1.00  0.00    -0.759 NA 
HETATM    2  H2  UNL     1     -11.125   9.877  68.321  1.00  0.00     0.000 HD 
HETATM    3  C   UNL     1     -11.629  11.696  68.894  1.00  0.00    -0.314 A  
HETATM    4  H1  UNL     1     -12.509   9.813  69.225  1.00  0.00     0.000 HD 
HETATM    5  C   UNL     1     -10.900  12.476  67.993  1.00  0.00    -0.252 A  
HETATM    6  C   UNL     1     -10.667  13.833  68.245  1.00  0.00    -0.264 A  
HETATM    7  C   UNL     1     -11.190  14.431  69.394  1.00  0.00    -0.317 A  
HETATM    8  C   UNL     1     -11.977  13.674  70.270  1.00  0.00    -0.397 A  
HETATM    9  C   UNL     1     -12.209  12.320  70.003  1.00  0.00    -0.267 A  
ENDROOT
BRANCH   7  10
HETATM   10  C   UNL     1     -10.952  15.881  69.616  1.00  0.00    -0.319 C  
HETATM   11  N   UNL     1     -10.381  16.576  68.568  1.00  0.00    -0.271 N  
HETATM   12  O   UNL     1     -11.251  16.411  70.677  1.00  0.00    -0.358 OA 
HETATM   13  H   UNL     1     -10.011  16.068  67.764  1.00  0.00     0.000 HD 
BRANCH  11  14
HETATM   14  C   UNL     1     -10.303  18.041  68.603  1.00  0.00    -0.319 C  
HETATM   15  C   UNL     1      -8.871  18.568  68.664  1.00  0.00    -0.298 C  
HETATM   16  O   UNL     1      -8.580  19.755  68.634  1.00  0.00    -0.297 OA 
HETATM   17  O   UNL     1      -7.934  17.591  68.708  1.00  0.00    -0.273 OA 
ENDBRANCH  11  14
ENDBRANCH   7  10
TORSDOF 2
ENDMDL
MODEL       80
REMARK 921   NORMALIZED FREE ENERGY PREDICTED BY IDOCK:   -4.22 KCAL/MOL
REMARK 922        TOTAL FREE ENERGY PREDICTED BY IDOCK:   -4.93 KCAL/MOL
REMARK 923 INTER-LIGAND FREE ENERGY PREDICTED BY IDOCK:   -4.71 KCAL/MOL
REMARK 924 INTRA-LIGAND FREE ENERGY PREDICTED BY IDOCK:   -0.22 KCAL/MOL
REMARK 927      BINDING AFFINITY PREDICTED BY RF-SCORE:    0.00 PKD
ROOT
HETATM    1  N   UNL     1      -9.266   3.711  68.672  1.00  0.00    -0.147 NA 
HETATM    2  H2  UNL     1      -9.507   2.783  69.018  1.00  0.00     0.000 HD 
HETATM    3  C   UNL     1      -9.972   4.657  69.420  1.00  0.00    -0.179 A  
HETATM    4  H1  UNL     1      -9.337   3.703  67.655  1.00  0.00     0.000 HD 
HETATM    5  C   UNL     1      -9.875   4.669  70.814  1.00  0.00    -0.284 A  
HETATM    6  C   UNL     1     -10.462   5.693  71.564  1.00  0.00    -0.298 A  
HETATM    7  C   UNL     1     -11.131   6.737  70.921  1.00  0.00    -0.322 A  
HETATM    8  C   UNL     1     -11.178   6.769  69.523  1.00  0.00    -0.319 A  
HETATM    9  C   UNL     1     -10.580   5.743  68.782  1.00  0.00    -0.321 A  
ENDROOT
BRANCH   7  10
HETATM   10  C   UNL     1     -11.715   7.827  71.746  1.00  0.00    -0.284 C  
HETATM   11  N   UNL     1     -12.612   8.663  71.109  1.00  0.00    -0.464 N  
HETATM   12  O   UNL     1     -11.405   7.960  72.921  1.00  0.00    -0.406 OA 
HETATM   13  H   UNL     1     -12.725   8.609  70.096  1.00  0.00     0.000 HD 
BRANCH  11  14
HETATM   14  C   UNL     1     -13.402   9.629  71.880  1.00  0.00    -0.438 C  
HETATM   15  C   UNL     1     -12.965  11.076  71.664  1.00  0.00    -0.456 C  
HETATM   16  O   UNL     1     -13.531  12.040  72.159  1.00  0.00    -0.476 OA 
HETATM   17  O   UNL     1     -11.907  11.205  70.829  1.00  0.00    -0.315 OA 
ENDBRANCH  11  14
ENDBRANCH   7  10
TORSDOF 2
ENDMDL
MODEL       81
REMARK 921   NORMALIZED FREE ENERGY PREDICTED BY IDOCK:   -4.22 KCAL/MOL
REMARK 922        TOTAL FREE ENERGY PREDICTED BY IDOCK:   -4.93 KCAL/MOL
REMARK 923 INTER-LIGAND FREE ENERGY PREDICTED BY IDOCK:   -4.72 KCAL/MOL
REMARK 924 INTRA-LIGAND FREE ENERGY PREDICTED BY IDOCK:   -0.20 KCAL/MOL
REMARK 927      BINDING AFFINITY PREDICTED BY RF-SCORE:    0.00 PKD
ROOT
HETATM    1  N   UNL     1     -10.313  10.169  65.516  1.00  0.00    -0.204 NA 
HETATM    2  H2  UNL     1      -9.329  10.023  65.292  1.00  0.00     0.000 HD 
HETATM    3  C   UNL     1     -10.433  11.377  66.208  1.00  0.00    -0.255 A  
HETATM    4  H1  UNL     1     -10.682   9.307  65.918  1.00  0.00     0.000 HD 
HETATM    5  C   UNL     1      -9.928  12.557  65.657  1.00  0.00    -0.259 A  
HETATM    6  C   UNL     1     -10.164  13.792  66.271  1.00  0.00    -0.298 A  
HETATM    7  C   UNL     1     -10.936  13.860  67.433  1.00  0.00    -0.299 A  
HETATM    8  C   UNL     1     -11.500  12.691  67.956  1.00  0.00    -0.366 A  
HETATM    9  C   UNL     1     -11.264  11.463  67.330  1.00  0.00    -0.370 A  
ENDROOT
BRANCH   7  10
HETATM   10  C   UNL     1     -11.195  15.191  68.042  1.00  0.00    -0.323 C  
HETATM   11  N   UNL     1     -10.372  16.223  67.633  1.00  0.00    -0.277 N  
HETATM   12  O   UNL     1     -12.091  15.343  68.860  1.00  0.00    -0.300 OA 
HETATM   13  H   UNL     1      -9.547  16.020  67.068  1.00  0.00     0.000 HD 
BRANCH  11  14
HETATM   14  C   UNL     1     -10.677  17.609  68.008  1.00  0.00    -0.328 C  
HETATM   15  C   UNL     1     -10.511  18.595  66.855  1.00  0.00    -0.402 C  
HETATM   16  O   UNL     1     -10.776  19.786  66.934  1.00  0.00    -0.476 OA 
HETATM   17  O   UNL     1     -10.080  18.022  65.706  1.00  0.00    -0.564 OA 
ENDBRANCH  11  14
ENDBRANCH   7  10
TORSDOF 2
ENDMDL
MODEL       82
REMARK 921   NORMALIZED FREE ENERGY PREDICTED BY IDOCK:   -4.20 KCAL/MOL
REMARK 922        TOTAL FREE ENERGY PREDICTED BY IDOCK:   -4.90 KCAL/MOL
REMARK 923 INTER-LIGAND FREE ENERGY PREDICTED BY IDOCK:   -4.72 KCAL/MOL
REMARK 924 INTRA-LIGAND FREE ENERGY PREDICTED BY IDOCK:   -0.18 KCAL/MOL
REMARK 927      BINDING AFFINITY PREDICTED BY RF-SCORE:    0.00 PKD
ROOT
HETATM    1  N   UNL     1      -9.200   3.938  66.553  1.00  0.00    -0.154 NA 
HETATM    2  H2  UNL     1      -8.765   4.568  65.879  1.00  0.00     0.000 HD 
HETATM    3  C   UNL     1      -9.717   4.704  67.602  1.00  0.00    -0.161 A  
HETATM    4  H1  UNL     1      -8.550   3.176  66.745  1.00  0.00     0.000 HD 
HETATM    5  C   UNL     1     -10.606   5.749  67.339  1.00  0.00    -0.340 A  
HETATM    6  C   UNL     1     -11.239   6.431  68.384  1.00  0.00    -0.297 A  
HETATM    7  C   UNL     1     -11.008   6.052  69.708  1.00  0.00    -0.471 A  
HETATM    8  C   UNL     1     -10.168   4.966  69.979  1.00  0.00    -0.313 A  
HETATM    9  C   UNL     1      -9.547   4.286  68.925  1.00  0.00    -0.227 A  
ENDROOT
BRANCH   7  10
HETATM   10  C   UNL     1     -11.720   6.776  70.793  1.00  0.00    -0.386 C  
HETATM   11  N   UNL     1     -12.001   8.108  70.560  1.00  0.00    -0.484 N  
HETATM   12  O   UNL     1     -12.029   6.206  71.830  1.00  0.00    -0.312 OA 
HETATM   13  H   UNL     1     -11.594   8.578  69.751  1.00  0.00     0.000 HD 
BRANCH  11  14
HETATM   14  C   UNL     1     -12.883   8.851  71.468  1.00  0.00    -0.334 C  
HETATM   15  C   UNL     1     -12.616  10.354  71.472  1.00  0.00    -0.439 C  
HETATM   16  O   UNL     1     -13.279  11.162  72.106  1.00  0.00    -0.481 OA 
HETATM   17  O   UNL     1     -11.595  10.728  70.665  1.00  0.00    -0.322 OA 
ENDBRANCH  11  14
ENDBRANCH   7  10
TORSDOF 2
ENDMDL
MODEL       83
REMARK 921   NORMALIZED FREE ENERGY PREDICTED BY IDOCK:   -4.19 KCAL/MOL
REMARK 922        TOTAL FREE ENERGY PREDICTED BY IDOCK:   -4.90 KCAL/MOL
REMARK 923 INTER-LIGAND FREE ENERGY PREDICTED BY IDOCK:   -4.74 KCAL/MOL
REMARK 924 INTRA-LIGAND FREE ENERGY PREDICTED BY IDOCK:   -0.16 KCAL/MOL
REMARK 927      BINDING AFFINITY PREDICTED BY RF-SCORE:    0.00 PKD
ROOT
HETATM    1  N   UNL     1     -13.611   9.806  72.468  1.00  0.00    -0.655 NA 
HETATM    2  H2  UNL     1     -12.913   9.135  72.789  1.00  0.00     0.000 HD 
HETATM    3  C   UNL     1     -12.971  10.755  71.666  1.00  0.00    -0.476 A  
HETATM    4  H1  UNL     1     -14.165  10.102  73.271  1.00  0.00     0.000 HD 
HETATM    5  C   UNL     1     -12.211  10.350  70.566  1.00  0.00    -0.412 A  
HETATM    6  C   UNL     1     -11.684  11.291  69.675  1.00  0.00    -0.420 A  
HETATM    7  C   UNL     1     -11.937  12.652  69.862  1.00  0.00    -0.365 A  
HETATM    8  C   UNL     1     -12.751  13.063  70.924  1.00  0.00    -0.299 A  
HETATM    9  C   UNL     1     -13.280  12.112  71.804  1.00  0.00    -0.423 A  
ENDROOT
BRANCH   7  10
HETATM   10  C   UNL     1     -11.389  13.623  68.879  1.00  0.00    -0.290 C  
HETATM   11  N   UNL     1     -10.128  14.119  69.146  1.00  0.00    -0.426 N  
HETATM   12  O   UNL     1     -12.036  13.953  67.895  1.00  0.00    -0.366 OA 
HETATM   13  H   UNL     1      -9.691  13.934  70.050  1.00  0.00     0.000 HD 
BRANCH  11  14
HETATM   14  C   UNL     1      -9.413  14.912  68.139  1.00  0.00    -0.202 C  
HETATM   15  C   UNL     1      -8.010  15.321  68.578  1.00  0.00    -0.141 C  
HETATM   16  O   UNL     1      -7.222  15.927  67.865  1.00  0.00    -0.121 OA 
HETATM   17  O   UNL     1      -7.689  14.909  69.828  1.00  0.00    -0.143 OA 
ENDBRANCH  11  14
ENDBRANCH   7  10
TORSDOF 2
ENDMDL
MODEL       84
REMARK 921   NORMALIZED FREE ENERGY PREDICTED BY IDOCK:   -4.19 KCAL/MOL
REMARK 922        TOTAL FREE ENERGY PREDICTED BY IDOCK:   -4.89 KCAL/MOL
REMARK 923 INTER-LIGAND FREE ENERGY PREDICTED BY IDOCK:   -4.71 KCAL/MOL
REMARK 924 INTRA-LIGAND FREE ENERGY PREDICTED BY IDOCK:   -0.18 KCAL/MOL
REMARK 927      BINDING AFFINITY PREDICTED BY RF-SCORE:    0.00 PKD
ROOT
HETATM    1  N   UNL     1     -11.031  12.483  67.174  1.00  0.00    -0.253 NA 
HETATM    2  H2  UNL     1     -10.160  11.958  67.249  1.00  0.00     0.000 HD 
HETATM    3  C   UNL     1     -10.722  13.846  67.141  1.00  0.00    -0.282 A  
HETATM    4  H1  UNL     1     -11.685  12.121  67.869  1.00  0.00     0.000 HD 
HETATM    5  C   UNL     1      -9.827  14.342  66.190  1.00  0.00    -0.340 A  
HETATM    6  C   UNL     1      -9.617  15.719  66.054  1.00  0.00    -0.388 A  
HETATM    7  C   UNL     1     -10.326  16.617  66.854  1.00  0.00    -0.299 A  
HETATM    8  C   UNL     1     -11.272  16.133  67.765  1.00  0.00    -0.199 A  
HETATM    9  C   UNL     1     -11.480  14.755  67.887  1.00  0.00    -0.361 A  
ENDROOT
BRANCH   7  10
HETATM   10  C   UNL     1     -10.103  18.075  66.663  1.00  0.00    -0.372 C  
HETATM   11  N   UNL     1      -9.577  18.760  67.740  1.00  0.00    -0.304 N  
HETATM   12  O   UNL     1     -10.379  18.618  65.603  1.00  0.00    -0.572 OA 
HETATM   13  H   UNL     1      -9.505  18.300  68.648  1.00  0.00     0.000 HD 
BRANCH  11  14
HETATM   14  C   UNL     1      -9.122  20.147  67.587  1.00  0.00    -0.330 C  
HETATM   15  C   UNL     1      -7.614  20.268  67.382  1.00  0.00    -0.314 C  
HETATM   16  O   UNL     1      -7.038  21.325  67.168  1.00  0.00    -0.491 OA 
HETATM   17  O   UNL     1      -6.964  19.080  67.411  1.00  0.00    -0.204 OA 
ENDBRANCH  11  14
ENDBRANCH   7  10
TORSDOF 2
ENDMDL
MODEL       85
REMARK 921   NORMALIZED FREE ENERGY PREDICTED BY IDOCK:   -4.18 KCAL/MOL
REMARK 922        TOTAL FREE ENERGY PREDICTED BY IDOCK:   -4.88 KCAL/MOL
REMARK 923 INTER-LIGAND FREE ENERGY PREDICTED BY IDOCK:   -4.67 KCAL/MOL
REMARK 924 INTRA-LIGAND FREE ENERGY PREDICTED BY IDOCK:   -0.21 KCAL/MOL
REMARK 927      BINDING AFFINITY PREDICTED BY RF-SCORE:    0.00 PKD
ROOT
HETATM    1  N   UNL     1     -10.864  17.195  68.207  1.00  0.00    -0.357 NA 
HETATM    2  H2  UNL     1     -10.574  16.891  69.136  1.00  0.00     0.000 HD 
HETATM    3  C   UNL     1     -10.801  16.097  67.344  1.00  0.00    -0.265 A  
HETATM    4  H1  UNL     1     -10.366  18.056  67.981  1.00  0.00     0.000 HD 
HETATM    5  C   UNL     1     -11.484  14.918  67.654  1.00  0.00    -0.366 A  
HETATM    6  C   UNL     1     -11.545  13.864  66.736  1.00  0.00    -0.398 A  
HETATM    7  C   UNL     1     -10.944  13.993  65.482  1.00  0.00    -0.309 A  
HETATM    8  C   UNL     1     -10.313  15.194  65.138  1.00  0.00    -0.416 A  
HETATM    9  C   UNL     1     -10.265  16.244  66.061  1.00  0.00    -0.376 A  
ENDROOT
BRANCH   7  10
HETATM   10  C   UNL     1     -11.055  12.867  64.517  1.00  0.00    -0.342 C  
HETATM   11  N   UNL     1      -9.929  12.592  63.765  1.00  0.00    -0.574 N  
HETATM   12  O   UNL     1     -12.095  12.233  64.408  1.00  0.00    -0.394 OA 
HETATM   13  H   UNL     1      -9.139  13.237  63.780  1.00  0.00     0.000 HD 
BRANCH  11  14
HETATM   14  C   UNL     1      -9.863  11.376  62.946  1.00  0.00    -0.284 C  
HETATM   15  C   UNL     1      -8.968  10.293  63.544  1.00  0.00    -0.242 C  
HETATM   16  O   UNL     1      -8.826   9.180  63.057  1.00  0.00    -0.201 OA 
HETATM   17  O   UNL     1      -8.372  10.660  64.704  1.00  0.00    -0.149 OA 
ENDBRANCH  11  14
ENDBRANCH   7  10
TORSDOF 2
ENDMDL
MODEL       86
REMARK 921   NORMALIZED FREE ENERGY PREDICTED BY IDOCK:   -4.15 KCAL/MOL
REMARK 922        TOTAL FREE ENERGY PREDICTED BY IDOCK:   -4.85 KCAL/MOL
REMARK 923 INTER-LIGAND FREE ENERGY PREDICTED BY IDOCK:   -4.69 KCAL/MOL
REMARK 924 INTRA-LIGAND FREE ENERGY PREDICTED BY IDOCK:   -0.17 KCAL/MOL
REMARK 927      BINDING AFFINITY PREDICTED BY RF-SCORE:    0.00 PKD
ROOT
HETATM    1  N   UNL     1      -9.466   9.378  63.873  1.00  0.00    -0.373 NA 
HETATM    2  H2  UNL     1      -9.723   8.699  64.588  1.00  0.00     0.000 HD 
HETATM    3  C   UNL     1      -9.905  10.640  64.284  1.00  0.00    -0.330 A  
HETATM    4  H1  UNL     1      -9.744   9.008  62.964  1.00  0.00     0.000 HD 
HETATM    5  C   UNL     1      -9.523  11.146  65.529  1.00  0.00    -0.251 A  
HETATM    6  C   UNL     1      -9.838  12.460  65.894  1.00  0.00    -0.265 A  
HETATM    7  C   UNL     1     -10.516  13.292  65.001  1.00  0.00    -0.367 A  
HETATM    8  C   UNL     1     -10.845  12.814  63.727  1.00  0.00    -0.416 A  
HETATM    9  C   UNL     1     -10.519  11.501  63.370  1.00  0.00    -0.466 A  
ENDROOT
BRANCH   7  10
HETATM   10  C   UNL     1     -10.806  14.692  65.407  1.00  0.00    -0.356 C  
HETATM   11  N   UNL     1     -10.315  15.088  66.636  1.00  0.00    -0.272 N  
HETATM   12  O   UNL     1     -11.449  15.436  64.680  1.00  0.00    -0.408 OA 
HETATM   13  H   UNL     1      -9.918  14.395  67.271  1.00  0.00     0.000 HD 
BRANCH  11  14
HETATM   14  C   UNL     1     -10.360  16.500  67.033  1.00  0.00    -0.301 C  
HETATM   15  C   UNL     1      -9.104  17.276  66.645  1.00  0.00    -0.265 C  
HETATM   16  O   UNL     1      -8.963  18.478  66.823  1.00  0.00    -0.275 OA 
HETATM   17  O   UNL     1      -8.163  16.518  66.035  1.00  0.00    -0.341 OA 
ENDBRANCH  11  14
ENDBRANCH   7  10
TORSDOF 2
ENDMDL
MODEL       87
REMARK 921   NORMALIZED FREE ENERGY PREDICTED BY IDOCK:   -4.15 KCAL/MOL
REMARK 922        TOTAL FREE ENERGY PREDICTED BY IDOCK:   -4.85 KCAL/MOL
REMARK 923 INTER-LIGAND FREE ENERGY PREDICTED BY IDOCK:   -4.69 KCAL/MOL
REMARK 924 INTRA-LIGAND FREE ENERGY PREDICTED BY IDOCK:   -0.16 KCAL/MOL
REMARK 927      BINDING AFFINITY PREDICTED BY RF-SCORE:    0.00 PKD
ROOT
HETATM    1  N   UNL     1     -10.888   7.055  73.911  1.00  0.00    -0.493 NA 
HETATM    2  H2  UNL     1     -11.509   6.259  73.765  1.00  0.00     0.000 HD 
HETATM    3  C   UNL     1     -11.015   7.917  72.819  1.00  0.00    -0.393 A  
HETATM    4  H1  UNL     1      -9.971   6.701  74.183  1.00  0.00     0.000 HD 
HETATM    5  C   UNL     1     -12.271   8.402  72.446  1.00  0.00    -0.430 A  
HETATM    6  C   UNL     1     -12.396   9.373  71.447  1.00  0.00    -0.439 A  
HETATM    7  C   UNL     1     -11.257   9.892  70.828  1.00  0.00    -0.427 A  
HETATM    8  C   UNL     1      -9.990   9.460  71.240  1.00  0.00    -0.274 A  
HETATM    9  C   UNL     1      -9.877   8.494  72.245  1.00  0.00    -0.383 A  
ENDROOT
BRANCH   7  10
HETATM   10  C   UNL     1     -11.422  10.946  69.793  1.00  0.00    -0.313 C  
HETATM   11  N   UNL     1     -10.789  10.723  68.585  1.00  0.00    -0.203 N  
HETATM   12  O   UNL     1     -12.084  11.949  70.019  1.00  0.00    -0.311 OA 
HETATM   13  H   UNL     1     -10.127   9.952  68.494  1.00  0.00     0.000 HD 
BRANCH  11  14
HETATM   14  C   UNL     1     -11.062  11.590  67.433  1.00  0.00    -0.282 C  
HETATM   15  C   UNL     1     -10.494  11.049  66.123  1.00  0.00    -0.244 C  
HETATM   16  O   UNL     1     -10.664  11.581  65.036  1.00  0.00    -0.285 OA 
HETATM   17  O   UNL     1      -9.812   9.888  66.265  1.00  0.00    -0.212 OA 
ENDBRANCH  11  14
ENDBRANCH   7  10
TORSDOF 2
ENDMDL
MODEL       88
REMARK 921   NORMALIZED FREE ENERGY PREDICTED BY IDOCK:   -4.15 KCAL/MOL
REMARK 922        TOTAL FREE ENERGY PREDICTED BY IDOCK:   -4.85 KCAL/MOL
REMARK 923 INTER-LIGAND FREE ENERGY PREDICTED BY IDOCK:   -4.63 KCAL/MOL
REMARK 924 INTRA-LIGAND FREE ENERGY PREDICTED BY IDOCK:   -0.22 KCAL/MOL
REMARK 927      BINDING AFFINITY PREDICTED BY RF-SCORE:    0.00 PKD
ROOT
HETATM    1  N   UNL     1      -9.774  11.896  63.688  1.00  0.00    -0.545 NA 
HETATM    2  H2  UNL     1     -10.025  11.329  62.878  1.00  0.00     0.000 HD 
HETATM    3  C   UNL     1     -10.095  11.180  64.844  1.00  0.00    -0.289 A  
HETATM    4  H1  UNL     1     -10.142  12.837  63.547  1.00  0.00     0.000 HD 
HETATM    5  C   UNL     1      -9.590   9.891  65.037  1.00  0.00    -0.364 A  
HETATM    6  C   UNL     1      -9.787   9.219  66.248  1.00  0.00    -0.361 A  
HETATM    7  C   UNL     1     -10.468   9.845  67.294  1.00  0.00    -0.319 A  
HETATM    8  C   UNL     1     -10.921  11.160  67.133  1.00  0.00    -0.350 A  
HETATM    9  C   UNL     1     -10.712  11.825  65.920  1.00  0.00    -0.328 A  
ENDROOT
BRANCH   7  10
HETATM   10  C   UNL     1     -10.632   9.116  68.579  1.00  0.00    -0.169 C  
HETATM   11  N   UNL     1     -10.850   9.893  69.700  1.00  0.00    -0.240 N  
HETATM   12  O   UNL     1     -10.571   7.896  68.620  1.00  0.00    -0.190 OA 
HETATM   13  H   UNL     1     -10.742  10.906  69.644  1.00  0.00     0.000 HD 
BRANCH  11  14
HETATM   14  C   UNL     1     -11.235   9.270  70.972  1.00  0.00    -0.321 C  
HETATM   15  C   UNL     1     -12.579   9.763  71.502  1.00  0.00    -0.398 C  
HETATM   16  O   UNL     1     -13.116   9.326  72.510  1.00  0.00    -0.418 OA 
HETATM   17  O   UNL     1     -13.157  10.709  70.724  1.00  0.00    -0.341 OA 
ENDBRANCH  11  14
ENDBRANCH   7  10
TORSDOF 2
ENDMDL
MODEL       89
REMARK 921   NORMALIZED FREE ENERGY PREDICTED BY IDOCK:   -4.14 KCAL/MOL
REMARK 922        TOTAL FREE ENERGY PREDICTED BY IDOCK:   -4.84 KCAL/MOL
REMARK 923 INTER-LIGAND FREE ENERGY PREDICTED BY IDOCK:   -4.66 KCAL/MOL
REMARK 924 INTRA-LIGAND FREE ENERGY PREDICTED BY IDOCK:   -0.18 KCAL/MOL
REMARK 927      BINDING AFFINITY PREDICTED BY RF-SCORE:    0.00 PKD
ROOT
HETATM    1  N   UNL     1      -9.096   4.107  66.411  1.00  0.00    -0.127 NA 
HETATM    2  H2  UNL     1      -9.199   3.094  66.474  1.00  0.00     0.000 HD 
HETATM    3  C   UNL     1      -9.834   4.689  67.446  1.00  0.00    -0.165 A  
HETATM    4  H1  UNL     1      -9.259   4.386  65.444  1.00  0.00     0.000 HD 
HETATM    5  C   UNL     1      -9.611   4.307  68.771  1.00  0.00    -0.219 A  
HETATM    6  C   UNL     1     -10.239   4.978  69.826  1.00  0.00    -0.336 A  
HETATM    7  C   UNL     1     -11.077   6.064  69.564  1.00  0.00    -0.468 A  
HETATM    8  C   UNL     1     -11.256   6.496  68.244  1.00  0.00    -0.259 A  
HETATM    9  C   UNL     1     -10.617   5.821  67.198  1.00  0.00    -0.365 A  
ENDROOT
BRANCH   7  10
HETATM   10  C   UNL     1     -11.703   6.777  70.708  1.00  0.00    -0.386 C  
HETATM   11  N   UNL     1     -12.026   8.103  70.501  1.00  0.00    -0.484 N  
HETATM   12  O   UNL     1     -11.911   6.202  71.768  1.00  0.00    -0.299 OA 
HETATM   13  H   UNL     1     -11.699   8.580  69.660  1.00  0.00     0.000 HD 
BRANCH  11  14
HETATM   14  C   UNL     1     -12.837   8.833  71.483  1.00  0.00    -0.325 C  
HETATM   15  C   UNL     1     -12.640  10.345  71.424  1.00  0.00    -0.434 C  
HETATM   16  O   UNL     1     -13.267  11.141  72.109  1.00  0.00    -0.481 OA 
HETATM   17  O   UNL     1     -11.731  10.740  70.501  1.00  0.00    -0.311 OA 
ENDBRANCH  11  14
ENDBRANCH   7  10
TORSDOF 2
ENDMDL
MODEL       90
REMARK 921   NORMALIZED FREE ENERGY PREDICTED BY IDOCK:   -4.12 KCAL/MOL
REMARK 922        TOTAL FREE ENERGY PREDICTED BY IDOCK:   -4.81 KCAL/MOL
REMARK 923 INTER-LIGAND FREE ENERGY PREDICTED BY IDOCK:   -4.63 KCAL/MOL
REMARK 924 INTRA-LIGAND FREE ENERGY PREDICTED BY IDOCK:   -0.18 KCAL/MOL
REMARK 927      BINDING AFFINITY PREDICTED BY RF-SCORE:    0.00 PKD
ROOT
HETATM    1  N   UNL     1     -10.464   6.092  69.262  1.00  0.00    -0.225 NA 
HETATM    2  H2  UNL     1      -9.472   6.092  69.023  1.00  0.00     0.000 HD 
HETATM    3  C   UNL     1     -10.797   7.354  69.762  1.00  0.00    -0.234 A  
HETATM    4  H1  UNL     1     -10.663   5.254  69.809  1.00  0.00     0.000 HD 
HETATM    5  C   UNL     1     -10.525   8.502  69.013  1.00  0.00    -0.216 A  
HETATM    6  C   UNL     1     -10.977   9.757  69.435  1.00  0.00    -0.241 A  
HETATM    7  C   UNL     1     -11.736   9.871  70.602  1.00  0.00    -0.404 A  
HETATM    8  C   UNL     1     -12.068   8.719  71.325  1.00  0.00    -0.344 A  
HETATM    9  C   UNL     1     -11.617   7.469  70.889  1.00  0.00    -0.309 A  
ENDROOT
BRANCH   7  10
HETATM   10  C   UNL     1     -12.229  11.214  71.006  1.00  0.00    -0.333 C  
HETATM   11  N   UNL     1     -11.698  12.292  70.325  1.00  0.00    -0.542 N  
HETATM   12  O   UNL     1     -13.058  11.336  71.897  1.00  0.00    -0.493 OA 
HETATM   13  H   UNL     1     -10.903  12.155  69.700  1.00  0.00     0.000 HD 
BRANCH  11  14
HETATM   14  C   UNL     1     -12.270  13.632  70.496  1.00  0.00    -0.368 C  
HETATM   15  C   UNL     1     -11.669  14.669  69.550  1.00  0.00    -0.324 C  
HETATM   16  O   UNL     1     -12.049  15.830  69.481  1.00  0.00    -0.353 OA 
HETATM   17  O   UNL     1     -10.696  14.175  68.748  1.00  0.00    -0.245 OA 
ENDBRANCH  11  14
ENDBRANCH   7  10
TORSDOF 2
ENDMDL
MODEL       91
REMARK 921   NORMALIZED FREE ENERGY PREDICTED BY IDOCK:   -4.11 KCAL/MOL
REMARK 922        TOTAL FREE ENERGY PREDICTED BY IDOCK:   -4.80 KCAL/MOL
REMARK 923 INTER-LIGAND FREE ENERGY PREDICTED BY IDOCK:   -4.62 KCAL/MOL
REMARK 924 INTRA-LIGAND FREE ENERGY PREDICTED BY IDOCK:   -0.19 KCAL/MOL
REMARK 927      BINDING AFFINITY PREDICTED BY RF-SCORE:    0.00 PKD
ROOT
HETATM    1  N   UNL     1     -12.776  14.322  64.534  1.00  0.00    -0.653 NA 
HETATM    2  H2  UNL     1     -12.506  15.280  64.758  1.00  0.00     0.000 HD 
HETATM    3  C   UNL     1     -12.119  13.461  65.418  1.00  0.00    -0.421 A  
HETATM    4  H1  UNL     1     -12.686  14.190  63.527  1.00  0.00     0.000 HD 
HETATM    5  C   UNL     1     -12.242  13.642  66.798  1.00  0.00    -0.416 A  
HETATM    6  C   UNL     1     -11.708  12.709  67.693  1.00  0.00    -0.420 A  
HETATM    7  C   UNL     1     -11.067  11.565  67.212  1.00  0.00    -0.351 A  
HETATM    8  C   UNL     1     -10.995  11.343  65.832  1.00  0.00    -0.268 A  
HETATM    9  C   UNL     1     -11.540  12.279  64.947  1.00  0.00    -0.395 A  
ENDROOT
BRANCH   7  10
HETATM   10  C   UNL     1     -10.538  10.577  68.189  1.00  0.00    -0.204 C  
HETATM   11  N   UNL     1     -11.230   9.386  68.290  1.00  0.00    -0.490 N  
HETATM   12  O   UNL     1      -9.546  10.825  68.858  1.00  0.00    -0.188 OA 
HETATM   13  H   UNL     1     -12.134   9.283  67.827  1.00  0.00     0.000 HD 
BRANCH  11  14
HETATM   14  C   UNL     1     -10.674   8.267  69.060  1.00  0.00    -0.079 C  
HETATM   15  C   UNL     1     -10.603   6.965  68.267  1.00  0.00    -0.215 C  
HETATM   16  O   UNL     1     -10.113   5.930  68.697  1.00  0.00    -0.144 OA 
HETATM   17  O   UNL     1     -11.096   7.066  67.009  1.00  0.00    -0.373 OA 
ENDBRANCH  11  14
ENDBRANCH   7  10
TORSDOF 2
ENDMDL
MODEL       92
REMARK 921   NORMALIZED FREE ENERGY PREDICTED BY IDOCK:   -4.11 KCAL/MOL
REMARK 922        TOTAL FREE ENERGY PREDICTED BY IDOCK:   -4.80 KCAL/MOL
REMARK 923 INTER-LIGAND FREE ENERGY PREDICTED BY IDOCK:   -4.60 KCAL/MOL
REMARK 924 INTRA-LIGAND FREE ENERGY PREDICTED BY IDOCK:   -0.20 KCAL/MOL
REMARK 927      BINDING AFFINITY PREDICTED BY RF-SCORE:    0.00 PKD
ROOT
HETATM    1  N   UNL     1     -13.965  13.240  72.662  1.00  0.00    -0.734 NA 
HETATM    2  H2  UNL     1     -14.907  13.630  72.634  1.00  0.00     0.000 HD 
HETATM    3  C   UNL     1     -13.243  13.754  71.582  1.00  0.00    -0.371 A  
HETATM    4  H1  UNL     1     -14.040  12.231  72.798  1.00  0.00     0.000 HD 
HETATM    5  C   UNL     1     -13.142  15.135  71.396  1.00  0.00    -0.499 A  
HETATM    6  C   UNL     1     -12.309  15.665  70.405  1.00  0.00    -0.427 A  
HETATM    7  C   UNL     1     -11.544  14.814  69.605  1.00  0.00    -0.342 A  
HETATM    8  C   UNL     1     -11.589  13.432  69.826  1.00  0.00    -0.305 A  
HETATM    9  C   UNL     1     -12.420  12.914  70.825  1.00  0.00    -0.370 A  
ENDROOT
BRANCH   7  10
HETATM   10  C   UNL     1     -10.645  15.410  68.582  1.00  0.00    -0.239 C  
HETATM   11  N   UNL     1      -9.426  14.785  68.399  1.00  0.00    -0.206 N  
HETATM   12  O   UNL     1     -10.983  16.400  67.950  1.00  0.00    -0.339 OA 
HETATM   13  H   UNL     1      -9.126  14.059  69.050  1.00  0.00     0.000 HD 
BRANCH  11  14
HETATM   14  C   UNL     1      -8.561  15.160  67.274  1.00  0.00    -0.198 C  
HETATM   15  C   UNL     1      -7.136  15.506  67.698  1.00  0.00    -0.174 C  
HETATM   16  O   UNL     1      -6.239  15.780  66.913  1.00  0.00    -0.275 OA 
HETATM   17  O   UNL     1      -6.935  15.438  69.036  1.00  0.00    -0.120 OA 
ENDBRANCH  11  14
ENDBRANCH   7  10
TORSDOF 2
ENDMDL
MODEL       93
REMARK 921   NORMALIZED FREE ENERGY PREDICTED BY IDOCK:   -4.09 KCAL/MOL
REMARK 922        TOTAL FREE ENERGY PREDICTED BY IDOCK:   -4.78 KCAL/MOL
REMARK 923 INTER-LIGAND FREE ENERGY PREDICTED BY IDOCK:   -4.61 KCAL/MOL
REMARK 924 INTRA-LIGAND FREE ENERGY PREDICTED BY IDOCK:   -0.17 KCAL/MOL
REMARK 927      BINDING AFFINITY PREDICTED BY RF-SCORE:    0.00 PKD
ROOT
HETATM    1  N   UNL     1      -9.690   7.178  68.248  1.00  0.00    -0.142 NA 
HETATM    2  H2  UNL     1     -10.110   6.522  68.907  1.00  0.00     0.000 HD 
HETATM    3  C   UNL     1     -10.223   8.447  68.491  1.00  0.00    -0.201 A  
HETATM    4  H1  UNL     1      -9.737   6.771  67.315  1.00  0.00     0.000 HD 
HETATM    5  C   UNL     1     -10.158   9.005  69.770  1.00  0.00    -0.209 A  
HETATM    6  C   UNL     1     -10.560  10.326  69.996  1.00  0.00    -0.321 A  
HETATM    7  C   UNL     1     -11.005  11.115  68.933  1.00  0.00    -0.276 A  
HETATM    8  C   UNL     1     -11.012  10.585  67.637  1.00  0.00    -0.375 A  
HETATM    9  C   UNL     1     -10.601   9.265  67.422  1.00  0.00    -0.324 A  
ENDROOT
BRANCH   7  10
HETATM   10  C   UNL     1     -11.394  12.524  69.201  1.00  0.00    -0.274 C  
HETATM   11  N   UNL     1     -12.106  12.753  70.362  1.00  0.00    -0.472 N  
HETATM   12  O   UNL     1     -11.092  13.417  68.422  1.00  0.00    -0.249 OA 
HETATM   13  H   UNL     1     -12.465  11.964  70.901  1.00  0.00     0.000 HD 
BRANCH  11  14
HETATM   14  C   UNL     1     -12.350  14.124  70.826  1.00  0.00    -0.369 C  
HETATM   15  C   UNL     1     -13.228  14.192  72.073  1.00  0.00    -0.402 C  
HETATM   16  O   UNL     1     -13.498  15.230  72.660  1.00  0.00    -0.420 OA 
HETATM   17  O   UNL     1     -13.650  12.981  72.508  1.00  0.00    -0.572 OA 
ENDBRANCH  11  14
ENDBRANCH   7  10
TORSDOF 2
ENDMDL
MODEL       94
REMARK 921   NORMALIZED FREE ENERGY PREDICTED BY IDOCK:   -4.08 KCAL/MOL
REMARK 922        TOTAL FREE ENERGY PREDICTED BY IDOCK:   -4.78 KCAL/MOL
REMARK 923 INTER-LIGAND FREE ENERGY PREDICTED BY IDOCK:   -4.56 KCAL/MOL
REMARK 924 INTRA-LIGAND FREE ENERGY PREDICTED BY IDOCK:   -0.21 KCAL/MOL
REMARK 927      BINDING AFFINITY PREDICTED BY RF-SCORE:    0.00 PKD
ROOT
HETATM    1  N   UNL     1     -10.964   8.299  69.159  1.00  0.00    -0.429 NA 
HETATM    2  H2  UNL     1     -10.062   7.969  68.819  1.00  0.00     0.000 HD 
HETATM    3  C   UNL     1     -11.036   9.679  68.949  1.00  0.00    -0.059 A  
HETATM    4  H1  UNL     1     -11.117   7.913  70.091  1.00  0.00     0.000 HD 
HETATM    5  C   UNL     1     -10.827  10.208  67.673  1.00  0.00    -0.346 A  
HETATM    6  C   UNL     1     -11.034  11.568  67.419  1.00  0.00    -0.317 A  
HETATM    7  C   UNL     1     -11.483  12.410  68.439  1.00  0.00    -0.356 A  
HETATM    8  C   UNL     1     -11.757  11.877  69.704  1.00  0.00    -0.413 A  
HETATM    9  C   UNL     1     -11.554  10.514  69.944  1.00  0.00    -0.384 A  
ENDROOT
BRANCH   7  10
HETATM   10  C   UNL     1     -11.724  13.844  68.129  1.00  0.00    -0.353 C  
HETATM   11  N   UNL     1     -11.655  14.721  69.194  1.00  0.00    -0.286 N  
HETATM   12  O   UNL     1     -11.971  14.206  66.987  1.00  0.00    -0.408 OA 
HETATM   13  H   UNL     1     -11.598  14.360  70.146  1.00  0.00     0.000 HD 
BRANCH  11  14
HETATM   14  C   UNL     1     -11.664  16.171  68.963  1.00  0.00    -0.254 C  
HETATM   15  C   UNL     1     -10.289  16.815  69.121  1.00  0.00    -0.326 C  
HETATM   16  O   UNL     1     -10.063  17.998  68.909  1.00  0.00    -0.375 OA 
HETATM   17  O   UNL     1      -9.317  15.942  69.477  1.00  0.00    -0.257 OA 
ENDBRANCH  11  14
ENDBRANCH   7  10
TORSDOF 2
ENDMDL
MODEL       95
REMARK 921   NORMALIZED FREE ENERGY PREDICTED BY IDOCK:   -4.08 KCAL/MOL
REMARK 922        TOTAL FREE ENERGY PREDICTED BY IDOCK:   -4.77 KCAL/MOL
REMARK 923 INTER-LIGAND FREE ENERGY PREDICTED BY IDOCK:   -4.58 KCAL/MOL
REMARK 924 INTRA-LIGAND FREE ENERGY PREDICTED BY IDOCK:   -0.19 KCAL/MOL
REMARK 927      BINDING AFFINITY PREDICTED BY RF-SCORE:    0.00 PKD
ROOT
HETATM    1  N   UNL     1     -11.611  10.234  68.407  1.00  0.00    -0.647 NA 
HETATM    2  H2  UNL     1     -10.930   9.511  68.174  1.00  0.00     0.000 HD 
HETATM    3  C   UNL     1     -11.153  11.452  67.899  1.00  0.00    -0.261 A  
HETATM    4  H1  UNL     1     -11.847  10.145  69.395  1.00  0.00     0.000 HD 
HETATM    5  C   UNL     1     -10.830  11.573  66.545  1.00  0.00    -0.335 A  
HETATM    6  C   UNL     1     -10.507  12.818  65.994  1.00  0.00    -0.291 A  
HETATM    7  C   UNL     1     -10.531  13.964  66.792  1.00  0.00    -0.270 A  
HETATM    8  C   UNL     1     -10.916  13.863  68.134  1.00  0.00    -0.267 A  
HETATM    9  C   UNL     1     -11.246  12.614  68.672  1.00  0.00    -0.323 A  
ENDROOT
BRANCH   7  10
HETATM   10  C   UNL     1     -10.214  15.276  66.170  1.00  0.00    -0.304 C  
HETATM   11  N   UNL     1      -9.310  16.072  66.846  1.00  0.00    -0.219 N  
HETATM   12  O   UNL     1     -10.737  15.614  65.117  1.00  0.00    -0.397 OA 
HETATM   13  H   UNL     1      -9.017  15.818  67.790  1.00  0.00     0.000 HD 
BRANCH  11  14
HETATM   14  C   UNL     1      -8.769  17.282  66.215  1.00  0.00    -0.224 C  
HETATM   15  C   UNL     1      -9.448  18.564  66.689  1.00  0.00    -0.311 C  
HETATM   16  O   UNL     1      -9.106  19.685  66.339  1.00  0.00    -0.349 OA 
HETATM   17  O   UNL     1     -10.448  18.354  67.578  1.00  0.00    -0.384 OA 
ENDBRANCH  11  14
ENDBRANCH   7  10
TORSDOF 2
ENDMDL
MODEL       96
REMARK 921   NORMALIZED FREE ENERGY PREDICTED BY IDOCK:   -4.08 KCAL/MOL
REMARK 922        TOTAL FREE ENERGY PREDICTED BY IDOCK:   -4.77 KCAL/MOL
REMARK 923 INTER-LIGAND FREE ENERGY PREDICTED BY IDOCK:   -4.55 KCAL/MOL
REMARK 924 INTRA-LIGAND FREE ENERGY PREDICTED BY IDOCK:   -0.22 KCAL/MOL
REMARK 927      BINDING AFFINITY PREDICTED BY RF-SCORE:    0.00 PKD
ROOT
HETATM    1  N   UNL     1     -12.203  10.384  69.094  1.00  0.00    -0.695 NA 
HETATM    2  H2  UNL     1     -13.002  10.375  69.728  1.00  0.00     0.000 HD 
HETATM    3  C   UNL     1     -11.983  11.702  68.683  1.00  0.00    -0.248 A  
HETATM    4  H1  UNL     1     -12.332   9.645  68.404  1.00  0.00     0.000 HD 
HETATM    5  C   UNL     1     -11.806  12.714  69.629  1.00  0.00    -0.379 A  
HETATM    6  C   UNL     1     -11.446  14.008  69.235  1.00  0.00    -0.344 A  
HETATM    7  C   UNL     1     -11.231  14.294  67.885  1.00  0.00    -0.305 A  
HETATM    8  C   UNL     1     -11.342  13.271  66.936  1.00  0.00    -0.351 A  
HETATM    9  C   UNL     1     -11.695  11.979  67.343  1.00  0.00    -0.352 A  
ENDROOT
BRANCH   7  10
HETATM   10  C   UNL     1     -10.818  15.669  67.503  1.00  0.00    -0.316 C  
HETATM   11  N   UNL     1      -9.955  15.774  66.429  1.00  0.00    -0.260 N  
HETATM   12  O   UNL     1     -11.229  16.642  68.119  1.00  0.00    -0.339 OA 
HETATM   13  H   UNL     1      -9.521  14.934  66.043  1.00  0.00     0.000 HD 
BRANCH  11  14
HETATM   14  C   UNL     1      -9.658  17.084  65.839  1.00  0.00    -0.112 C  
HETATM   15  C   UNL     1      -8.249  17.581  66.151  1.00  0.00    -0.187 C  
HETATM   16  O   UNL     1      -7.777  18.616  65.703  1.00  0.00    -0.495 OA 
HETATM   17  O   UNL     1      -7.538  16.741  66.941  1.00  0.00    -0.171 OA 
ENDBRANCH  11  14
ENDBRANCH   7  10
TORSDOF 2
ENDMDL
MODEL       97
REMARK 921   NORMALIZED FREE ENERGY PREDICTED BY IDOCK:   -4.08 KCAL/MOL
REMARK 922        TOTAL FREE ENERGY PREDICTED BY IDOCK:   -4.77 KCAL/MOL
REMARK 923 INTER-LIGAND FREE ENERGY PREDICTED BY IDOCK:   -4.66 KCAL/MOL
REMARK 924 INTRA-LIGAND FREE ENERGY PREDICTED BY IDOCK:   -0.11 KCAL/MOL
REMARK 927      BINDING AFFINITY PREDICTED BY RF-SCORE:    0.00 PKD
ROOT
HETATM    1  N   UNL     1     -12.427  12.304  65.097  1.00  0.00    -0.545 NA 
HETATM    2  H2  UNL     1     -13.159  12.030  65.752  1.00  0.00     0.000 HD 
HETATM    3  C   UNL     1     -11.790  13.443  65.598  1.00  0.00    -0.370 A  
HETATM    4  H1  UNL     1     -12.824  12.310  64.157  1.00  0.00     0.000 HD 
HETATM    5  C   UNL     1     -11.247  13.436  66.886  1.00  0.00    -0.330 A  
HETATM    6  C   UNL     1     -10.486  14.515  67.348  1.00  0.00    -0.264 A  
HETATM    7  C   UNL     1     -10.236  15.604  66.511  1.00  0.00    -0.291 A  
HETATM    8  C   UNL     1     -10.721  15.592  65.198  1.00  0.00    -0.460 A  
HETATM    9  C   UNL     1     -11.474  14.504  64.744  1.00  0.00    -0.408 A  
ENDROOT
BRANCH   7  10
HETATM   10  C   UNL     1      -9.396  16.720  67.020  1.00  0.00    -0.233 C  
HETATM   11  N   UNL     1     -10.055  17.899  67.310  1.00  0.00    -0.329 N  
HETATM   12  O   UNL     1      -8.190  16.582  67.166  1.00  0.00    -0.161 OA 
HETATM   13  H   UNL     1     -11.029  18.017  67.032  1.00  0.00     0.000 HD 
BRANCH  11  14
HETATM   14  C   UNL     1      -9.361  18.983  68.016  1.00  0.00    -0.317 C  
HETATM   15  C   UNL     1      -8.702  19.989  67.076  1.00  0.00    -0.336 C  
HETATM   16  O   UNL     1      -8.130  21.002  67.455  1.00  0.00    -0.224 OA 
HETATM   17  O   UNL     1      -8.846  19.684  65.765  1.00  0.00    -0.393 OA 
ENDBRANCH  11  14
ENDBRANCH   7  10
TORSDOF 2
ENDMDL
MODEL       98
REMARK 921   NORMALIZED FREE ENERGY PREDICTED BY IDOCK:   -4.07 KCAL/MOL
REMARK 922        TOTAL FREE ENERGY PREDICTED BY IDOCK:   -4.76 KCAL/MOL
REMARK 923 INTER-LIGAND FREE ENERGY PREDICTED BY IDOCK:   -4.57 KCAL/MOL
REMARK 924 INTRA-LIGAND FREE ENERGY PREDICTED BY IDOCK:   -0.19 KCAL/MOL
REMARK 927      BINDING AFFINITY PREDICTED BY RF-SCORE:    0.00 PKD
ROOT
HETATM    1  N   UNL     1     -12.069  12.920  70.245  1.00  0.00    -0.420 NA 
HETATM    2  H2  UNL     1     -11.998  13.033  69.234  1.00  0.00     0.000 HD 
HETATM    3  C   UNL     1     -12.125  11.554  70.533  1.00  0.00    -0.378 A  
HETATM    4  H1  UNL     1     -12.798  13.547  70.586  1.00  0.00     0.000 HD 
HETATM    5  C   UNL     1     -11.127  10.695  70.065  1.00  0.00    -0.359 A  
HETATM    6  C   UNL     1     -11.092   9.354  70.462  1.00  0.00    -0.330 A  
HETATM    7  C   UNL     1     -12.045   8.864  71.359  1.00  0.00    -0.381 A  
HETATM    8  C   UNL     1     -13.009   9.732  71.884  1.00  0.00    -0.535 A  
HETATM    9  C   UNL     1     -13.029  11.074  71.486  1.00  0.00    -0.553 A  
ENDROOT
BRANCH   7  10
HETATM   10  C   UNL     1     -11.961   7.443  71.786  1.00  0.00    -0.305 C  
HETATM   11  N   UNL     1     -10.691   6.937  71.987  1.00  0.00    -0.213 N  
HETATM   12  O   UNL     1     -12.973   6.774  71.943  1.00  0.00    -0.325 OA 
HETATM   13  H   UNL     1      -9.878   7.481  71.700  1.00  0.00     0.000 HD 
BRANCH  11  14
HETATM   14  C   UNL     1     -10.506   5.622  72.612  1.00  0.00    -0.209 C  
HETATM   15  C   UNL     1     -10.265   4.503  71.601  1.00  0.00    -0.144 C  
HETATM   16  O   UNL     1     -10.022   3.346  71.912  1.00  0.00    -0.167 OA 
HETATM   17  O   UNL     1     -10.298   4.918  70.313  1.00  0.00    -0.254 OA 
ENDBRANCH  11  14
ENDBRANCH   7  10
TORSDOF 2
ENDMDL
MODEL       99
REMARK 921   NORMALIZED FREE ENERGY PREDICTED BY IDOCK:   -4.05 KCAL/MOL
REMARK 922        TOTAL FREE ENERGY PREDICTED BY IDOCK:   -4.74 KCAL/MOL
REMARK 923 INTER-LIGAND FREE ENERGY PREDICTED BY IDOCK:   -4.54 KCAL/MOL
REMARK 924 INTRA-LIGAND FREE ENERGY PREDICTED BY IDOCK:   -0.20 KCAL/MOL
REMARK 927      BINDING AFFINITY PREDICTED BY RF-SCORE:    0.00 PKD
ROOT
HETATM    1  N   UNL     1      -7.803   7.480  67.863  1.00  0.00    -0.115 NA 
HETATM    2  H2  UNL     1      -6.860   7.824  68.044  1.00  0.00     0.000 HD 
HETATM    3  C   UNL     1      -8.638   8.580  67.646  1.00  0.00    -0.133 A  
HETATM    4  H1  UNL     1      -8.036   6.791  68.577  1.00  0.00     0.000 HD 
HETATM    5  C   UNL     1      -8.319   9.525  66.668  1.00  0.00    -0.116 A  
HETATM    6  C   UNL     1      -9.214  10.550  66.344  1.00  0.00    -0.190 A  
HETATM    7  C   UNL     1     -10.455  10.623  66.979  1.00  0.00    -0.295 A  
HETATM    8  C   UNL     1     -10.811   9.643  67.913  1.00  0.00    -0.272 A  
HETATM    9  C   UNL     1      -9.911   8.618  68.224  1.00  0.00    -0.207 A  
ENDROOT
BRANCH   7  10
HETATM   10  C   UNL     1     -11.396  11.706  66.588  1.00  0.00    -0.270 C  
HETATM   11  N   UNL     1     -11.486  11.981  65.238  1.00  0.00    -0.328 N  
HETATM   12  O   UNL     1     -12.043  12.309  67.433  1.00  0.00    -0.533 OA 
HETATM   13  H   UNL     1     -10.821  11.561  64.589  1.00  0.00     0.000 HD 
BRANCH  11  14
HETATM   14  C   UNL     1     -12.534  12.875  64.731  1.00  0.00    -0.455 C  
HETATM   15  C   UNL     1     -12.032  14.286  64.434  1.00  0.00    -0.456 C  
HETATM   16  O   UNL     1     -12.724  15.167  63.944  1.00  0.00    -0.759 OA 
HETATM   17  O   UNL     1     -10.721  14.468  64.722  1.00  0.00    -0.413 OA 
ENDBRANCH  11  14
ENDBRANCH   7  10
TORSDOF 2
ENDMDL
MODEL      100
REMARK 921   NORMALIZED FREE ENERGY PREDICTED BY IDOCK:   -4.03 KCAL/MOL
REMARK 922        TOTAL FREE ENERGY PREDICTED BY IDOCK:   -4.72 KCAL/MOL
REMARK 923 INTER-LIGAND FREE ENERGY PREDICTED BY IDOCK:   -4.50 KCAL/MOL
REMARK 924 INTRA-LIGAND FREE ENERGY PREDICTED BY IDOCK:   -0.21 KCAL/MOL
REMARK 927      BINDING AFFINITY PREDICTED BY RF-SCORE:    0.00 PKD
ROOT
HETATM    1  N   UNL     1     -11.283  13.668  69.230  1.00  0.00    -0.334 NA 
HETATM    2  H2  UNL     1     -11.410  13.578  68.222  1.00  0.00     0.000 HD 
HETATM    3  C   UNL     1     -11.678  12.471  69.833  1.00  0.00    -0.255 A  
HETATM    4  H1  UNL     1     -11.695  14.553  69.527  1.00  0.00     0.000 HD 
HETATM    5  C   UNL     1     -11.113  11.259  69.426  1.00  0.00    -0.316 A  
HETATM    6  C   UNL     1     -11.393  10.073  70.113  1.00  0.00    -0.357 A  
HETATM    7  C   UNL     1     -12.221  10.093  71.237  1.00  0.00    -0.496 A  
HETATM    8  C   UNL     1     -12.739  11.312  71.691  1.00  0.00    -0.448 A  
HETATM    9  C   UNL     1     -12.447  12.493  71.000  1.00  0.00    -0.353 A  
ENDROOT
BRANCH   7  10
HETATM   10  C   UNL     1     -12.472   8.821  71.964  1.00  0.00    -0.386 C  
HETATM   11  N   UNL     1     -11.471   7.871  71.900  1.00  0.00    -0.266 N  
HETATM   12  O   UNL     1     -13.516   8.643  72.576  1.00  0.00    -0.351 OA 
HETATM   13  H   UNL     1     -10.689   8.001  71.258  1.00  0.00     0.000 HD 
BRANCH  11  14
HETATM   14  C   UNL     1     -11.525   6.677  72.752  1.00  0.00    -0.130 C  
HETATM   15  C   UNL     1     -10.339   6.563  73.706  1.00  0.00    -0.326 C  
HETATM   16  O   UNL     1     -10.222   5.681  74.546  1.00  0.00    -0.257 OA 
HETATM   17  O   UNL     1      -9.435   7.563  73.573  1.00  0.00    -0.226 OA 
ENDBRANCH  11  14
ENDBRANCH   7  10
TORSDOF 2
ENDMDL
MODEL      101
REMARK 921   NORMALIZED FREE ENERGY PREDICTED BY IDOCK:   -4.00 KCAL/MOL
REMARK 922        TOTAL FREE ENERGY PREDICTED BY IDOCK:   -4.69 KCAL/MOL
REMARK 923 INTER-LIGAND FREE ENERGY PREDICTED BY IDOCK:   -4.50 KCAL/MOL
REMARK 924 INTRA-LIGAND FREE ENERGY PREDICTED BY IDOCK:   -0.19 KCAL/MOL
REMARK 927      BINDING AFFINITY PREDICTED BY RF-SCORE:    0.00 PKD
ROOT
HETATM    1  N   UNL     1     -10.640  20.147  67.528  1.00  0.00    -0.272 NA 
HETATM    2  H2  UNL     1      -9.983  20.439  68.251  1.00  0.00     0.000 HD 
HETATM    3  C   UNL     1     -10.513  18.767  67.348  1.00  0.00    -0.431 A  
HETATM    4  H1  UNL     1     -10.544  20.780  66.733  1.00  0.00     0.000 HD 
HETATM    5  C   UNL     1     -10.645  17.901  68.437  1.00  0.00    -0.275 A  
HETATM    6  C   UNL     1     -10.661  16.514  68.251  1.00  0.00    -0.326 A  
HETATM    7  C   UNL     1     -10.574  15.980  66.964  1.00  0.00    -0.302 A  
HETATM    8  C   UNL     1     -10.507  16.840  65.862  1.00  0.00    -0.311 A  
HETATM    9  C   UNL     1     -10.500  18.225  66.059  1.00  0.00    -0.380 A  
ENDROOT
BRANCH   7  10
HETATM   10  C   UNL     1     -10.626  14.504  66.797  1.00  0.00    -0.276 C  
HETATM   11  N   UNL     1     -10.633  14.034  65.498  1.00  0.00    -0.303 N  
HETATM   12  O   UNL     1     -10.663  13.763  67.770  1.00  0.00    -0.242 OA 
HETATM   13  H   UNL     1     -10.755  14.686  64.723  1.00  0.00     0.000 HD 
BRANCH  11  14
HETATM   14  C   UNL     1     -10.468  12.601  65.226  1.00  0.00    -0.289 C  
HETATM   15  C   UNL     1     -11.188  12.140  63.961  1.00  0.00    -0.390 C  
HETATM   16  O   UNL     1     -11.125  11.002  63.518  1.00  0.00    -0.193 OA 
HETATM   17  O   UNL     1     -11.876  13.125  63.337  1.00  0.00    -0.510 OA 
ENDBRANCH  11  14
ENDBRANCH   7  10
TORSDOF 2
ENDMDL
MODEL      102
REMARK 921   NORMALIZED FREE ENERGY PREDICTED BY IDOCK:   -3.95 KCAL/MOL
REMARK 922        TOTAL FREE ENERGY PREDICTED BY IDOCK:   -4.63 KCAL/MOL
REMARK 923 INTER-LIGAND FREE ENERGY PREDICTED BY IDOCK:   -4.41 KCAL/MOL
REMARK 924 INTRA-LIGAND FREE ENERGY PREDICTED BY IDOCK:   -0.21 KCAL/MOL
REMARK 927      BINDING AFFINITY PREDICTED BY RF-SCORE:    0.00 PKD
ROOT
HETATM    1  N   UNL     1     -11.434  12.875  65.746  1.00  0.00    -0.322 NA 
HETATM    2  H2  UNL     1     -11.787  12.411  64.910  1.00  0.00     0.000 HD 
HETATM    3  C   UNL     1     -11.409  11.945  66.789  1.00  0.00    -0.330 A  
HETATM    4  H1  UNL     1     -11.932  13.758  65.857  1.00  0.00     0.000 HD 
HETATM    5  C   UNL     1     -10.728  10.735  66.638  1.00  0.00    -0.268 A  
HETATM    6  C   UNL     1     -10.575   9.859  67.717  1.00  0.00    -0.313 A  
HETATM    7  C   UNL     1     -11.082  10.200  68.973  1.00  0.00    -0.249 A  
HETATM    8  C   UNL     1     -11.710  11.438  69.151  1.00  0.00    -0.410 A  
HETATM    9  C   UNL     1     -11.850  12.310  68.065  1.00  0.00    -0.368 A  
ENDROOT
BRANCH   7  10
HETATM   10  C   UNL     1     -10.876   9.261  70.107  1.00  0.00    -0.242 C  
HETATM   11  N   UNL     1     -11.325   7.968  69.921  1.00  0.00    -0.456 N  
HETATM   12  O   UNL     1     -10.338   9.634  71.140  1.00  0.00    -0.294 OA 
HETATM   13  H   UNL     1     -11.899   7.742  69.109  1.00  0.00     0.000 HD 
BRANCH  11  14
HETATM   14  C   UNL     1     -10.980   6.917  70.886  1.00  0.00    -0.253 C  
HETATM   15  C   UNL     1     -12.160   6.482  71.752  1.00  0.00    -0.342 C  
HETATM   16  O   UNL     1     -12.106   5.576  72.571  1.00  0.00    -0.183 OA 
HETATM   17  O   UNL     1     -13.302   7.166  71.498  1.00  0.00    -0.383 OA 
ENDBRANCH  11  14
ENDBRANCH   7  10
TORSDOF 2
ENDMDL
MODEL      103
REMARK 921   NORMALIZED FREE ENERGY PREDICTED BY IDOCK:   -3.90 KCAL/MOL
REMARK 922        TOTAL FREE ENERGY PREDICTED BY IDOCK:   -4.57 KCAL/MOL
REMARK 923 INTER-LIGAND FREE ENERGY PREDICTED BY IDOCK:   -4.35 KCAL/MOL
REMARK 924 INTRA-LIGAND FREE ENERGY PREDICTED BY IDOCK:   -0.22 KCAL/MOL
REMARK 927      BINDING AFFINITY PREDICTED BY RF-SCORE:    0.00 PKD
ROOT
HETATM    1  N   UNL     1      -5.931  18.137  69.341  1.00  0.00    -0.232 NA 
HETATM    2  H2  UNL     1      -6.047  18.876  70.034  1.00  0.00     0.000 HD 
HETATM    3  C   UNL     1      -7.166  17.510  69.154  1.00  0.00    -0.161 A  
HETATM    4  H1  UNL     1      -5.109  17.589  69.591  1.00  0.00     0.000 HD 
HETATM    5  C   UNL     1      -8.293  18.262  68.811  1.00  0.00    -0.244 A  
HETATM    6  C   UNL     1      -9.500  17.635  68.484  1.00  0.00    -0.298 A  
HETATM    7  C   UNL     1      -9.583  16.241  68.469  1.00  0.00    -0.222 A  
HETATM    8  C   UNL     1      -8.442  15.478  68.748  1.00  0.00    -0.190 A  
HETATM    9  C   UNL     1      -7.239  16.116  69.066  1.00  0.00    -0.195 A  
ENDROOT
BRANCH   7  10
HETATM   10  C   UNL     1     -10.871  15.605  68.086  1.00  0.00    -0.301 C  
HETATM   11  N   UNL     1     -10.789  14.523  67.231  1.00  0.00    -0.291 N  
HETATM   12  O   UNL     1     -11.933  16.033  68.514  1.00  0.00    -0.273 OA 
HETATM   13  H   UNL     1      -9.901  14.297  66.782  1.00  0.00     0.000 HD 
BRANCH  11  14
HETATM   14  C   UNL     1     -11.972  13.697  66.964  1.00  0.00    -0.406 C  
HETATM   15  C   UNL     1     -12.478  13.814  65.528  1.00  0.00    -0.512 C  
HETATM   16  O   UNL     1     -13.410  13.161  65.079  1.00  0.00    -0.634 OA 
HETATM   17  O   UNL     1     -11.767  14.682  64.770  1.00  0.00    -0.391 OA 
ENDBRANCH  11  14
ENDBRANCH   7  10
TORSDOF 2
ENDMDL
MODEL      104
REMARK 921   NORMALIZED FREE ENERGY PREDICTED BY IDOCK:   -3.88 KCAL/MOL
REMARK 922        TOTAL FREE ENERGY PREDICTED BY IDOCK:   -4.54 KCAL/MOL
REMARK 923 INTER-LIGAND FREE ENERGY PREDICTED BY IDOCK:   -4.32 KCAL/MOL
REMARK 924 INTRA-LIGAND FREE ENERGY PREDICTED BY IDOCK:   -0.23 KCAL/MOL
REMARK 927      BINDING AFFINITY PREDICTED BY RF-SCORE:    0.00 PKD
ROOT
HETATM    1  N   UNL     1     -10.148   8.089  72.254  1.00  0.00    -0.223 NA 
HETATM    2  H2  UNL     1      -9.300   8.299  72.779  1.00  0.00     0.000 HD 
HETATM    3  C   UNL     1     -10.338   9.094  71.302  1.00  0.00    -0.334 A  
HETATM    4  H1  UNL     1     -10.889   7.863  72.918  1.00  0.00     0.000 HD 
HETATM    5  C   UNL     1      -9.323   9.403  70.393  1.00  0.00    -0.317 A  
HETATM    6  C   UNL     1      -9.548  10.306  69.348  1.00  0.00    -0.237 A  
HETATM    7  C   UNL     1     -10.807  10.889  69.185  1.00  0.00    -0.280 A  
HETATM    8  C   UNL     1     -11.848  10.537  70.052  1.00  0.00    -0.388 A  
HETATM    9  C   UNL     1     -11.613   9.627  71.088  1.00  0.00    -0.456 A  
ENDROOT
BRANCH   7  10
HETATM   10  C   UNL     1     -11.023  11.819  68.046  1.00  0.00    -0.225 C  
HETATM   11  N   UNL     1      -9.962  11.978  67.176  1.00  0.00    -0.195 N  
HETATM   12  O   UNL     1     -12.088  12.404  67.906  1.00  0.00    -0.428 OA 
HETATM   13  H   UNL     1      -9.048  11.592  67.414  1.00  0.00     0.000 HD 
BRANCH  11  14
HETATM   14  C   UNL     1     -10.141  12.700  65.911  1.00  0.00    -0.264 C  
HETATM   15  C   UNL     1     -10.160  11.783  64.690  1.00  0.00    -0.272 C  
HETATM   16  O   UNL     1     -10.364  12.172  63.549  1.00  0.00    -0.420 OA 
HETATM   17  O   UNL     1      -9.975  10.476  64.990  1.00  0.00    -0.278 OA 
ENDBRANCH  11  14
ENDBRANCH   7  10
TORSDOF 2
ENDMDL
MODEL      105
REMARK 921   NORMALIZED FREE ENERGY PREDICTED BY IDOCK:   -3.87 KCAL/MOL
REMARK 922        TOTAL FREE ENERGY PREDICTED BY IDOCK:   -4.54 KCAL/MOL
REMARK 923 INTER-LIGAND FREE ENERGY PREDICTED BY IDOCK:   -4.37 KCAL/MOL
REMARK 924 INTRA-LIGAND FREE ENERGY PREDICTED BY IDOCK:   -0.17 KCAL/MOL
REMARK 927      BINDING AFFINITY PREDICTED BY RF-SCORE:    0.00 PKD
ROOT
HETATM    1  N   UNL     1      -9.197   7.643  69.788  1.00  0.00    -0.147 NA 
HETATM    2  H2  UNL     1      -9.560   6.706  69.609  1.00  0.00     0.000 HD 
HETATM    3  C   UNL     1     -10.255   8.451  70.216  1.00  0.00    -0.196 A  
HETATM    4  H1  UNL     1      -8.626   7.923  68.991  1.00  0.00     0.000 HD 
HETATM    5  C   UNL     1     -11.037   8.066  71.308  1.00  0.00    -0.279 A  
HETATM    6  C   UNL     1     -12.005   8.929  71.834  1.00  0.00    -0.441 A  
HETATM    7  C   UNL     1     -12.180  10.202  71.287  1.00  0.00    -0.496 A  
HETATM    8  C   UNL     1     -11.357  10.620  70.235  1.00  0.00    -0.401 A  
HETATM    9  C   UNL     1     -10.387   9.752  69.722  1.00  0.00    -0.274 A  
ENDROOT
BRANCH   7  10
HETATM   10  C   UNL     1     -13.195  11.106  71.889  1.00  0.00    -0.382 C  
HETATM   11  N   UNL     1     -12.919  12.458  71.836  1.00  0.00    -0.345 N  
HETATM   12  O   UNL     1     -14.211  10.656  72.401  1.00  0.00     0.436 OA 
HETATM   13  H   UNL     1     -11.996  12.776  71.539  1.00  0.00     0.000 HD 
BRANCH  11  14
HETATM   14  C   UNL     1     -13.945  13.440  72.205  1.00  0.00    -0.507 C  
HETATM   15  C   UNL     1     -13.392  14.852  72.382  1.00  0.00    -0.404 C  
HETATM   16  O   UNL     1     -14.086  15.830  72.624  1.00  0.00    -0.578 OA 
HETATM   17  O   UNL     1     -12.053  14.939  72.200  1.00  0.00    -0.351 OA 
ENDBRANCH  11  14
ENDBRANCH   7  10
TORSDOF 2
ENDMDL
MODEL      106
REMARK 921   NORMALIZED FREE ENERGY PREDICTED BY IDOCK:   -3.86 KCAL/MOL
REMARK 922        TOTAL FREE ENERGY PREDICTED BY IDOCK:   -4.53 KCAL/MOL
REMARK 923 INTER-LIGAND FREE ENERGY PREDICTED BY IDOCK:   -4.36 KCAL/MOL
REMARK 924 INTRA-LIGAND FREE ENERGY PREDICTED BY IDOCK:   -0.17 KCAL/MOL
REMARK 927      BINDING AFFINITY PREDICTED BY RF-SCORE:    0.00 PKD
ROOT
HETATM    1  N   UNL     1     -13.612   8.992  72.971  1.00  0.00    -0.974 NA 
HETATM    2  H2  UNL     1     -13.929   8.328  73.677  1.00  0.00     0.000 HD 
HETATM    3  C   UNL     1     -12.620   8.376  72.202  1.00  0.00    -0.364 A  
HETATM    4  H1  UNL     1     -13.427   9.884  73.429  1.00  0.00     0.000 HD 
HETATM    5  C   UNL     1     -12.872   7.154  71.574  1.00  0.00    -0.434 A  
HETATM    6  C   UNL     1     -11.942   6.597  70.691  1.00  0.00    -0.404 A  
HETATM    7  C   UNL     1     -10.756   7.276  70.403  1.00  0.00    -0.253 A  
HETATM    8  C   UNL     1     -10.523   8.531  70.977  1.00  0.00    -0.264 A  
HETATM    9  C   UNL     1     -11.464   9.082  71.853  1.00  0.00    -0.440 A  
ENDROOT
BRANCH   7  10
HETATM   10  C   UNL     1      -9.803   6.673  69.435  1.00  0.00    -0.151 C  
HETATM   11  N   UNL     1     -10.093   5.392  69.007  1.00  0.00    -0.197 N  
HETATM   12  O   UNL     1      -8.819   7.292  69.054  1.00  0.00    -0.132 OA 
HETATM   13  H   UNL     1     -10.835   4.860  69.463  1.00  0.00     0.000 HD 
BRANCH  11  14
HETATM   14  C   UNL     1      -9.342   4.792  67.898  1.00  0.00    -0.133 C  
HETATM   15  C   UNL     1      -9.975   5.047  66.532  1.00  0.00    -0.224 C  
HETATM   16  O   UNL     1      -9.477   4.692  65.473  1.00  0.00    -0.159 OA 
HETATM   17  O   UNL     1     -11.131   5.750  66.591  1.00  0.00    -0.227 OA 
ENDBRANCH  11  14
ENDBRANCH   7  10
TORSDOF 2
ENDMDL
MODEL      107
REMARK 921   NORMALIZED FREE ENERGY PREDICTED BY IDOCK:   -3.81 KCAL/MOL
REMARK 922        TOTAL FREE ENERGY PREDICTED BY IDOCK:   -4.47 KCAL/MOL
REMARK 923 INTER-LIGAND FREE ENERGY PREDICTED BY IDOCK:   -4.27 KCAL/MOL
REMARK 924 INTRA-LIGAND FREE ENERGY PREDICTED BY IDOCK:   -0.20 KCAL/MOL
REMARK 927      BINDING AFFINITY PREDICTED BY RF-SCORE:    0.00 PKD
ROOT
HETATM    1  N   UNL     1      -6.380  12.172  66.616  1.00  0.00    -0.473 NA 
HETATM    2  H2  UNL     1      -5.991  13.062  66.928  1.00  0.00     0.000 HD 
HETATM    3  C   UNL     1      -7.568  11.941  67.316  1.00  0.00    -0.154 A  
HETATM    4  H1  UNL     1      -5.635  11.476  66.625  1.00  0.00     0.000 HD 
HETATM    5  C   UNL     1      -8.588  12.896  67.304  1.00  0.00    -0.205 A  
HETATM    6  C   UNL     1      -9.833  12.620  67.880  1.00  0.00    -0.218 A  
HETATM    7  C   UNL     1     -10.079  11.369  68.451  1.00  0.00    -0.207 A  
HETATM    8  C   UNL     1      -9.085  10.384  68.410  1.00  0.00    -0.147 A  
HETATM    9  C   UNL     1      -7.846  10.669  67.824  1.00  0.00    -0.108 A  
ENDROOT
BRANCH   7  10
HETATM   10  C   UNL     1     -11.422  11.096  69.026  1.00  0.00    -0.296 C  
HETATM   11  N   UNL     1     -11.482  10.947  70.398  1.00  0.00    -0.407 N  
HETATM   12  O   UNL     1     -12.407  11.011  68.306  1.00  0.00    -0.479 OA 
HETATM   13  H   UNL     1     -10.620  10.875  70.938  1.00  0.00     0.000 HD 
BRANCH  11  14
HETATM   14  C   UNL     1     -12.779  10.890  71.082  1.00  0.00    -0.429 C  
HETATM   15  C   UNL     1     -13.060   9.536  71.730  1.00  0.00    -0.418 C  
HETATM   16  O   UNL     1     -14.052   9.296  72.404  1.00  0.00    -0.436 OA 
HETATM   17  O   UNL     1     -12.080   8.623  71.529  1.00  0.00    -0.290 OA 
ENDBRANCH  11  14
ENDBRANCH   7  10
TORSDOF 2
ENDMDL
MODEL      108
REMARK 921   NORMALIZED FREE ENERGY PREDICTED BY IDOCK:   -3.79 KCAL/MOL
REMARK 922        TOTAL FREE ENERGY PREDICTED BY IDOCK:   -4.45 KCAL/MOL
REMARK 923 INTER-LIGAND FREE ENERGY PREDICTED BY IDOCK:   -4.28 KCAL/MOL
REMARK 924 INTRA-LIGAND FREE ENERGY PREDICTED BY IDOCK:   -0.17 KCAL/MOL
REMARK 927      BINDING AFFINITY PREDICTED BY RF-SCORE:    0.00 PKD
ROOT
HETATM    1  N   UNL     1     -11.511  15.634  64.256  1.00  0.00    -0.753 NA 
HETATM    2  H2  UNL     1     -11.416  16.477  64.823  1.00  0.00     0.000 HD 
HETATM    3  C   UNL     1     -11.245  14.526  65.066  1.00  0.00    -0.382 A  
HETATM    4  H1  UNL     1     -10.994  15.771  63.388  1.00  0.00     0.000 HD 
HETATM    5  C   UNL     1     -11.953  14.338  66.256  1.00  0.00    -0.428 A  
HETATM    6  C   UNL     1     -11.799  13.166  67.004  1.00  0.00    -0.435 A  
HETATM    7  C   UNL     1     -10.951  12.153  66.550  1.00  0.00    -0.325 A  
HETATM    8  C   UNL     1     -10.287  12.304  65.328  1.00  0.00    -0.311 A  
HETATM    9  C   UNL     1     -10.455  13.478  64.584  1.00  0.00    -0.439 A  
ENDROOT
BRANCH   7  10
HETATM   10  C   UNL     1     -10.834  10.906  67.352  1.00  0.00    -0.279 C  
HETATM   11  N   UNL     1     -10.102  10.996  68.520  1.00  0.00    -0.183 N  
HETATM   12  O   UNL     1     -11.361   9.868  66.978  1.00  0.00     0.023 OA 
HETATM   13  H   UNL     1      -9.557  11.836  68.714  1.00  0.00     0.000 HD 
BRANCH  11  14
HETATM   14  C   UNL     1     -10.105   9.890  69.484  1.00  0.00    -0.221 C  
HETATM   15  C   UNL     1      -8.770   9.712  70.203  1.00  0.00    -0.231 C  
HETATM   16  O   UNL     1      -8.577   8.893  71.090  1.00  0.00    -0.180 OA 
HETATM   17  O   UNL     1      -7.815  10.583  69.799  1.00  0.00    -0.139 OA 
ENDBRANCH  11  14
ENDBRANCH   7  10
TORSDOF 2
ENDMDL
MODEL      109
REMARK 921   NORMALIZED FREE ENERGY PREDICTED BY IDOCK:   -3.78 KCAL/MOL
REMARK 922        TOTAL FREE ENERGY PREDICTED BY IDOCK:   -4.43 KCAL/MOL
REMARK 923 INTER-LIGAND FREE ENERGY PREDICTED BY IDOCK:   -4.26 KCAL/MOL
REMARK 924 INTRA-LIGAND FREE ENERGY PREDICTED BY IDOCK:   -0.17 KCAL/MOL
REMARK 927      BINDING AFFINITY PREDICTED BY RF-SCORE:    0.00 PKD
ROOT
HETATM    1  N   UNL     1      -7.329   8.355  64.087  1.00  0.00    -0.096 NA 
HETATM    2  H2  UNL     1      -7.683   7.506  63.644  1.00  0.00     0.000 HD 
HETATM    3  C   UNL     1      -8.377   8.953  64.792  1.00  0.00    -0.175 A  
HETATM    4  H1  UNL     1      -6.809   8.887  63.389  1.00  0.00     0.000 HD 
HETATM    5  C   UNL     1      -9.090   8.224  65.747  1.00  0.00    -0.169 A  
HETATM    6  C   UNL     1     -10.045   8.847  66.558  1.00  0.00    -0.356 A  
HETATM    7  C   UNL     1     -10.275  10.219  66.439  1.00  0.00    -0.290 A  
HETATM    8  C   UNL     1      -9.521  10.971  65.531  1.00  0.00    -0.250 A  
HETATM    9  C   UNL     1      -8.563  10.338  64.731  1.00  0.00    -0.193 A  
ENDROOT
BRANCH   7  10
HETATM   10  C   UNL     1     -11.273  10.857  67.338  1.00  0.00    -0.273 C  
HETATM   11  N   UNL     1     -11.472  10.249  68.562  1.00  0.00    -0.509 N  
HETATM   12  O   UNL     1     -11.876  11.863  66.992  1.00  0.00    -0.585 OA 
HETATM   13  H   UNL     1     -11.062   9.333  68.746  1.00  0.00     0.000 HD 
BRANCH  11  14
HETATM   14  C   UNL     1     -12.269  10.913  69.600  1.00  0.00    -0.283 C  
HETATM   15  C   UNL     1     -12.255  10.174  70.936  1.00  0.00    -0.356 C  
HETATM   16  O   UNL     1     -12.799  10.589  71.950  1.00  0.00    -0.444 OA 
HETATM   17  O   UNL     1     -11.539   9.025  70.915  1.00  0.00    -0.279 OA 
ENDBRANCH  11  14
ENDBRANCH   7  10
TORSDOF 2
ENDMDL
MODEL      110
REMARK 921   NORMALIZED FREE ENERGY PREDICTED BY IDOCK:   -3.77 KCAL/MOL
REMARK 922        TOTAL FREE ENERGY PREDICTED BY IDOCK:   -4.43 KCAL/MOL
REMARK 923 INTER-LIGAND FREE ENERGY PREDICTED BY IDOCK:   -4.23 KCAL/MOL
REMARK 924 INTRA-LIGAND FREE ENERGY PREDICTED BY IDOCK:   -0.20 KCAL/MOL
REMARK 927      BINDING AFFINITY PREDICTED BY RF-SCORE:    0.00 PKD
ROOT
HETATM    1  N   UNL     1      -9.620   5.598  65.473  1.00  0.00    -0.366 NA 
HETATM    2  H2  UNL     1     -10.283   4.863  65.225  1.00  0.00     0.000 HD 
HETATM    3  C   UNL     1     -10.065   6.216  66.645  1.00  0.00    -0.162 A  
HETATM    4  H1  UNL     1      -9.432   6.154  64.639  1.00  0.00     0.000 HD 
HETATM    5  C   UNL     1     -10.323   5.454  67.788  1.00  0.00    -0.226 A  
HETATM    6  C   UNL     1     -10.631   6.071  69.005  1.00  0.00    -0.357 A  
HETATM    7  C   UNL     1     -10.656   7.464  69.097  1.00  0.00    -0.213 A  
HETATM    8  C   UNL     1     -10.335   8.236  67.974  1.00  0.00    -0.268 A  
HETATM    9  C   UNL     1     -10.020   7.608  66.764  1.00  0.00    -0.317 A  
ENDROOT
BRANCH   7  10
HETATM   10  C   UNL     1     -10.955   8.089  70.412  1.00  0.00    -0.248 C  
HETATM   11  N   UNL     1     -12.015   8.974  70.443  1.00  0.00    -0.474 N  
HETATM   12  O   UNL     1     -10.286   7.822  71.401  1.00  0.00    -0.196 OA 
HETATM   13  H   UNL     1     -12.445   9.281  69.570  1.00  0.00     0.000 HD 
BRANCH  11  14
HETATM   14  C   UNL     1     -12.525   9.477  71.723  1.00  0.00    -0.401 C  
HETATM   15  C   UNL     1     -13.806   8.782  72.177  1.00  0.00    -0.457 C  
HETATM   16  O   UNL     1     -14.360   9.003  73.245  1.00  0.00    -0.202 OA 
HETATM   17  O   UNL     1     -14.259   7.852  71.304  1.00  0.00    -0.345 OA 
ENDBRANCH  11  14
ENDBRANCH   7  10
TORSDOF 2
ENDMDL
MODEL      111
REMARK 921   NORMALIZED FREE ENERGY PREDICTED BY IDOCK:   -3.75 KCAL/MOL
REMARK 922        TOTAL FREE ENERGY PREDICTED BY IDOCK:   -4.41 KCAL/MOL
REMARK 923 INTER-LIGAND FREE ENERGY PREDICTED BY IDOCK:   -4.20 KCAL/MOL
REMARK 924 INTRA-LIGAND FREE ENERGY PREDICTED BY IDOCK:   -0.21 KCAL/MOL
REMARK 927      BINDING AFFINITY PREDICTED BY RF-SCORE:    0.00 PKD
ROOT
HETATM    1  N   UNL     1     -10.384  12.158  64.654  1.00  0.00    -0.286 NA 
HETATM    2  H2  UNL     1     -10.800  11.848  63.775  1.00  0.00     0.000 HD 
HETATM    3  C   UNL     1     -10.429  11.097  65.562  1.00  0.00    -0.256 A  
HETATM    4  H1  UNL     1     -10.790  13.061  64.899  1.00  0.00     0.000 HD 
HETATM    5  C   UNL     1      -9.872   9.860  65.226  1.00  0.00    -0.373 A  
HETATM    6  C   UNL     1      -9.784   8.834  66.173  1.00  0.00    -0.320 A  
HETATM    7  C   UNL     1     -10.227   9.047  67.480  1.00  0.00    -0.302 A  
HETATM    8  C   UNL     1     -10.726  10.304  67.843  1.00  0.00    -0.310 A  
HETATM    9  C   UNL     1     -10.803  11.325  66.890  1.00  0.00    -0.333 A  
ENDROOT
BRANCH   7  10
HETATM   10  C   UNL     1     -10.089   7.948  68.471  1.00  0.00    -0.197 C  
HETATM   11  N   UNL     1     -11.244   7.563  69.124  1.00  0.00    -0.424 N  
HETATM   12  O   UNL     1      -9.003   7.427  68.684  1.00  0.00    -0.133 OA 
HETATM   13  H   UNL     1     -12.092   8.123  69.027  1.00  0.00     0.000 HD 
BRANCH  11  14
HETATM   14  C   UNL     1     -11.259   6.354  69.956  1.00  0.00    -0.411 C  
HETATM   15  C   UNL     1     -11.475   6.645  71.439  1.00  0.00    -0.301 C  
HETATM   16  O   UNL     1     -11.586   5.778  72.294  1.00  0.00    -0.293 OA 
HETATM   17  O   UNL     1     -11.580   7.965  71.724  1.00  0.00    -0.258 OA 
ENDBRANCH  11  14
ENDBRANCH   7  10
TORSDOF 2
ENDMDL
MODEL      112
REMARK 921   NORMALIZED FREE ENERGY PREDICTED BY IDOCK:   -3.75 KCAL/MOL
REMARK 922        TOTAL FREE ENERGY PREDICTED BY IDOCK:   -4.40 KCAL/MOL
REMARK 923 INTER-LIGAND FREE ENERGY PREDICTED BY IDOCK:   -4.21 KCAL/MOL
REMARK 924 INTRA-LIGAND FREE ENERGY PREDICTED BY IDOCK:   -0.20 KCAL/MOL
REMARK 927      BINDING AFFINITY PREDICTED BY RF-SCORE:    0.00 PKD
ROOT
HETATM    1  N   UNL     1      -5.835  16.304  68.371  1.00  0.00    -0.104 NA 
HETATM    2  H2  UNL     1      -6.227  16.930  69.075  1.00  0.00     0.000 HD 
HETATM    3  C   UNL     1      -6.818  15.377  68.011  1.00  0.00    -0.140 A  
HETATM    4  H1  UNL     1      -4.924  15.984  68.698  1.00  0.00     0.000 HD 
HETATM    5  C   UNL     1      -8.067  15.815  67.563  1.00  0.00    -0.179 A  
HETATM    6  C   UNL     1      -9.008  14.906  67.066  1.00  0.00    -0.256 A  
HETATM    7  C   UNL     1      -8.695  13.548  66.986  1.00  0.00    -0.197 A  
HETATM    8  C   UNL     1      -7.423  13.108  67.371  1.00  0.00    -0.131 A  
HETATM    9  C   UNL     1      -6.487  14.027  67.859  1.00  0.00    -0.170 A  
ENDROOT
BRANCH   7  10
HETATM   10  C   UNL     1      -9.704  12.613  66.423  1.00  0.00    -0.258 C  
HETATM   11  N   UNL     1     -10.128  12.872  65.135  1.00  0.00    -0.425 N  
HETATM   12  O   UNL     1     -10.126  11.673  67.083  1.00  0.00    -0.201 OA 
HETATM   13  H   UNL     1      -9.866  13.747  64.681  1.00  0.00     0.000 HD 
BRANCH  11  14
HETATM   14  C   UNL     1     -10.954  11.896  64.414  1.00  0.00    -0.337 C  
HETATM   15  C   UNL     1     -12.273  12.476  63.911  1.00  0.00    -0.503 C  
HETATM   16  O   UNL     1     -13.077  11.853  63.231  1.00  0.00    -0.674 OA 
HETATM   17  O   UNL     1     -12.459  13.775  64.247  1.00  0.00    -0.629 OA 
ENDBRANCH  11  14
ENDBRANCH   7  10
TORSDOF 2
ENDMDL
MODEL      113
REMARK 921   NORMALIZED FREE ENERGY PREDICTED BY IDOCK:   -3.74 KCAL/MOL
REMARK 922        TOTAL FREE ENERGY PREDICTED BY IDOCK:   -4.39 KCAL/MOL
REMARK 923 INTER-LIGAND FREE ENERGY PREDICTED BY IDOCK:   -4.19 KCAL/MOL
REMARK 924 INTRA-LIGAND FREE ENERGY PREDICTED BY IDOCK:   -0.20 KCAL/MOL
REMARK 927      BINDING AFFINITY PREDICTED BY RF-SCORE:    0.00 PKD
ROOT
HETATM    1  N   UNL     1     -11.162  12.976  65.329  1.00  0.00    -0.285 NA 
HETATM    2  H2  UNL     1     -11.574  12.585  64.481  1.00  0.00     0.000 HD 
HETATM    3  C   UNL     1     -11.195  11.998  66.326  1.00  0.00    -0.342 A  
HETATM    4  H1  UNL     1     -11.577  13.893  65.494  1.00  0.00     0.000 HD 
HETATM    5  C   UNL     1     -10.626  10.742  66.100  1.00  0.00    -0.241 A  
HETATM    6  C   UNL     1     -10.526   9.804  67.133  1.00  0.00    -0.316 A  
HETATM    7  C   UNL     1     -10.971  10.127  68.417  1.00  0.00    -0.293 A  
HETATM    8  C   UNL     1     -11.483  11.405  68.669  1.00  0.00    -0.359 A  
HETATM    9  C   UNL     1     -11.571  12.337  67.630  1.00  0.00    -0.421 A  
ENDROOT
BRANCH   7  10
HETATM   10  C   UNL     1     -10.822   9.120  69.500  1.00  0.00    -0.180 C  
HETATM   11  N   UNL     1     -10.796   9.609  70.792  1.00  0.00    -0.307 N  
HETATM   12  O   UNL     1     -10.726   7.928  69.241  1.00  0.00    -0.211 OA 
HETATM   13  H   UNL     1     -10.727  10.614  70.952  1.00  0.00     0.000 HD 
BRANCH  11  14
HETATM   14  C   UNL     1     -10.868   8.691  71.935  1.00  0.00    -0.348 C  
HETATM   15  C   UNL     1      -9.505   8.390  72.553  1.00  0.00    -0.289 C  
HETATM   16  O   UNL     1      -9.347   7.703  73.552  1.00  0.00    -0.237 OA 
HETATM   17  O   UNL     1      -8.474   8.995  71.917  1.00  0.00    -0.363 OA 
ENDBRANCH  11  14
ENDBRANCH   7  10
TORSDOF 2
ENDMDL
MODEL      114
REMARK 921   NORMALIZED FREE ENERGY PREDICTED BY IDOCK:   -3.74 KCAL/MOL
REMARK 922        TOTAL FREE ENERGY PREDICTED BY IDOCK:   -4.39 KCAL/MOL
REMARK 923 INTER-LIGAND FREE ENERGY PREDICTED BY IDOCK:   -4.18 KCAL/MOL
REMARK 924 INTRA-LIGAND FREE ENERGY PREDICTED BY IDOCK:   -0.20 KCAL/MOL
REMARK 927      BINDING AFFINITY PREDICTED BY RF-SCORE:    0.00 PKD
ROOT
HETATM    1  N   UNL     1     -10.120   4.654  66.700  1.00  0.00    -0.235 NA 
HETATM    2  H2  UNL     1     -10.835   3.938  66.827  1.00  0.00     0.000 HD 
HETATM    3  C   UNL     1     -10.435   5.741  67.520  1.00  0.00    -0.245 A  
HETATM    4  H1  UNL     1      -9.976   4.790  65.699  1.00  0.00     0.000 HD 
HETATM    5  C   UNL     1     -10.632   5.555  68.891  1.00  0.00    -0.258 A  
HETATM    6  C   UNL     1     -10.807   6.650  69.744  1.00  0.00    -0.337 A  
HETATM    7  C   UNL     1     -10.758   7.949  69.235  1.00  0.00    -0.145 A  
HETATM    8  C   UNL     1     -10.497   8.148  67.874  1.00  0.00    -0.259 A  
HETATM    9  C   UNL     1     -10.315   7.046  67.032  1.00  0.00    -0.360 A  
ENDROOT
BRANCH   7  10
HETATM   10  C   UNL     1     -10.917   9.091  70.173  1.00  0.00    -0.233 C  
HETATM   11  N   UNL     1     -12.070   9.840  70.038  1.00  0.00    -0.466 N  
HETATM   12  O   UNL     1     -10.060   9.339  71.010  1.00  0.00    -0.270 OA 
HETATM   13  H   UNL     1     -12.680   9.691  69.234  1.00  0.00     0.000 HD 
BRANCH  11  14
HETATM   14  C   UNL     1     -12.422  10.848  71.044  1.00  0.00    -0.411 C  
HETATM   15  C   UNL     1     -12.286  12.281  70.536  1.00  0.00    -0.300 C  
HETATM   16  O   UNL     1     -12.592  13.268  71.190  1.00  0.00    -0.360 OA 
HETATM   17  O   UNL     1     -11.833  12.366  69.262  1.00  0.00    -0.303 OA 
ENDBRANCH  11  14
ENDBRANCH   7  10
TORSDOF 2
ENDMDL
MODEL      115
REMARK 921   NORMALIZED FREE ENERGY PREDICTED BY IDOCK:   -3.70 KCAL/MOL
REMARK 922        TOTAL FREE ENERGY PREDICTED BY IDOCK:   -4.35 KCAL/MOL
REMARK 923 INTER-LIGAND FREE ENERGY PREDICTED BY IDOCK:   -4.13 KCAL/MOL
REMARK 924 INTRA-LIGAND FREE ENERGY PREDICTED BY IDOCK:   -0.22 KCAL/MOL
REMARK 927      BINDING AFFINITY PREDICTED BY RF-SCORE:    0.00 PKD
ROOT
HETATM    1  N   UNL     1     -12.330  14.292  67.586  1.00  0.00    -0.582 NA 
HETATM    2  H2  UNL     1     -11.825  15.030  68.076  1.00  0.00     0.000 HD 
HETATM    3  C   UNL     1     -11.831  13.058  68.013  1.00  0.00    -0.347 A  
HETATM    4  H1  UNL     1     -12.351  14.522  66.593  1.00  0.00     0.000 HD 
HETATM    5  C   UNL     1     -11.803  12.743  69.374  1.00  0.00    -0.359 A  
HETATM    6  C   UNL     1     -11.439  11.463  69.806  1.00  0.00    -0.376 A  
HETATM    7  C   UNL     1     -11.127  10.472  68.873  1.00  0.00    -0.312 A  
HETATM    8  C   UNL     1     -11.215  10.759  67.505  1.00  0.00    -0.346 A  
HETATM    9  C   UNL     1     -11.587  12.041  67.085  1.00  0.00    -0.387 A  
ENDROOT
BRANCH   7  10
HETATM   10  C   UNL     1     -10.775   9.113  69.362  1.00  0.00    -0.198 C  
HETATM   11  N   UNL     1      -9.990   8.345  68.525  1.00  0.00    -0.182 N  
HETATM   12  O   UNL     1     -11.172   8.716  70.449  1.00  0.00    -0.254 OA 
HETATM   13  H   UNL     1      -9.810   8.656  67.570  1.00  0.00     0.000 HD 
BRANCH  11  14
HETATM   14  C   UNL     1      -9.413   7.082  69.001  1.00  0.00    -0.138 C  
HETATM   15  C   UNL     1     -10.053   5.849  68.367  1.00  0.00    -0.167 C  
HETATM   16  O   UNL     1      -9.677   4.704  68.574  1.00  0.00    -0.153 OA 
HETATM   17  O   UNL     1     -11.057   6.140  67.506  1.00  0.00    -0.330 OA 
ENDBRANCH  11  14
ENDBRANCH   7  10
TORSDOF 2
ENDMDL
MODEL      116
REMARK 921   NORMALIZED FREE ENERGY PREDICTED BY IDOCK:   -3.68 KCAL/MOL
REMARK 922        TOTAL FREE ENERGY PREDICTED BY IDOCK:   -4.33 KCAL/MOL
REMARK 923 INTER-LIGAND FREE ENERGY PREDICTED BY IDOCK:   -4.16 KCAL/MOL
REMARK 924 INTRA-LIGAND FREE ENERGY PREDICTED BY IDOCK:   -0.17 KCAL/MOL
REMARK 927      BINDING AFFINITY PREDICTED BY RF-SCORE:    0.00 PKD
ROOT
HETATM    1  N   UNL     1     -10.021   4.082  66.900  1.00  0.00    -0.308 NA 
HETATM    2  H2  UNL     1      -9.132   3.947  66.419  1.00  0.00     0.000 HD 
HETATM    3  C   UNL     1     -10.053   5.384  67.409  1.00  0.00    -0.185 A  
HETATM    4  H1  UNL     1     -10.177   3.285  67.518  1.00  0.00     0.000 HD 
HETATM    5  C   UNL     1      -9.840   6.475  66.563  1.00  0.00    -0.169 A  
HETATM    6  C   UNL     1     -10.008   7.784  67.028  1.00  0.00    -0.314 A  
HETATM    7  C   UNL     1     -10.421   8.013  68.342  1.00  0.00    -0.205 A  
HETATM    8  C   UNL     1     -10.700   6.925  69.177  1.00  0.00    -0.262 A  
HETATM    9  C   UNL     1     -10.536   5.621  68.700  1.00  0.00    -0.277 A  
ENDROOT
BRANCH   7  10
HETATM   10  C   UNL     1     -10.621   9.415  68.795  1.00  0.00    -0.208 C  
HETATM   11  N   UNL     1     -11.691   9.638  69.640  1.00  0.00    -0.445 N  
HETATM   12  O   UNL     1      -9.871  10.307  68.426  1.00  0.00    -0.149 OA 
HETATM   13  H   UNL     1     -12.375   8.899  69.798  1.00  0.00     0.000 HD 
BRANCH  11  14
HETATM   14  C   UNL     1     -11.849  10.934  70.310  1.00  0.00    -0.361 C  
HETATM   15  C   UNL     1     -12.885  10.911  71.432  1.00  0.00    -0.449 C  
HETATM   16  O   UNL     1     -13.123  11.864  72.159  1.00  0.00    -0.443 OA 
HETATM   17  O   UNL     1     -13.495   9.711  71.584  1.00  0.00    -0.382 OA 
ENDBRANCH  11  14
ENDBRANCH   7  10
TORSDOF 2
ENDMDL
MODEL      117
REMARK 921   NORMALIZED FREE ENERGY PREDICTED BY IDOCK:   -3.67 KCAL/MOL
REMARK 922        TOTAL FREE ENERGY PREDICTED BY IDOCK:   -4.31 KCAL/MOL
REMARK 923 INTER-LIGAND FREE ENERGY PREDICTED BY IDOCK:   -4.11 KCAL/MOL
REMARK 924 INTRA-LIGAND FREE ENERGY PREDICTED BY IDOCK:   -0.20 KCAL/MOL
REMARK 927      BINDING AFFINITY PREDICTED BY RF-SCORE:    0.00 PKD
ROOT
HETATM    1  N   UNL     1      -8.377  20.718  67.036  1.00  0.00    -0.569 NA 
HETATM    2  H2  UNL     1      -7.604  20.915  66.400  1.00  0.00     0.000 HD 
HETATM    3  C   UNL     1      -8.875  19.446  66.741  1.00  0.00    -0.327 A  
HETATM    4  H1  UNL     1      -9.000  21.525  67.043  1.00  0.00     0.000 HD 
HETATM    5  C   UNL     1      -8.021  18.340  66.731  1.00  0.00    -0.263 A  
HETATM    6  C   UNL     1      -8.528  17.045  66.578  1.00  0.00    -0.306 A  
HETATM    7  C   UNL     1      -9.905  16.842  66.462  1.00  0.00    -0.303 A  
HETATM    8  C   UNL     1     -10.774  17.937  66.537  1.00  0.00    -0.122 A  
HETATM    9  C   UNL     1     -10.256  19.226  66.698  1.00  0.00    -0.512 A  
ENDROOT
BRANCH   7  10
HETATM   10  C   UNL     1     -10.414  15.451  66.333  1.00  0.00    -0.303 C  
HETATM   11  N   UNL     1     -10.477  14.711  67.498  1.00  0.00    -0.246 N  
HETATM   12  O   UNL     1     -10.751  15.004  65.246  1.00  0.00    -0.332 OA 
HETATM   13  H   UNL     1     -10.047  15.070  68.351  1.00  0.00     0.000 HD 
BRANCH  11  14
HETATM   14  C   UNL     1     -11.160  13.413  67.517  1.00  0.00    -0.274 C  
HETATM   15  C   UNL     1     -10.203  12.229  67.625  1.00  0.00    -0.203 C  
HETATM   16  O   UNL     1     -10.566  11.065  67.723  1.00  0.00    -0.188 OA 
HETATM   17  O   UNL     1      -8.897  12.586  67.651  1.00  0.00    -0.161 OA 
ENDBRANCH  11  14
ENDBRANCH   7  10
TORSDOF 2
ENDMDL
MODEL      118
REMARK 921   NORMALIZED FREE ENERGY PREDICTED BY IDOCK:   -3.64 KCAL/MOL
REMARK 922        TOTAL FREE ENERGY PREDICTED BY IDOCK:   -4.28 KCAL/MOL
REMARK 923 INTER-LIGAND FREE ENERGY PREDICTED BY IDOCK:   -4.08 KCAL/MOL
REMARK 924 INTRA-LIGAND FREE ENERGY PREDICTED BY IDOCK:   -0.20 KCAL/MOL
REMARK 927      BINDING AFFINITY PREDICTED BY RF-SCORE:    0.00 PKD
ROOT
HETATM    1  N   UNL     1      -8.347  19.574  67.072  1.00  0.00    -0.277 NA 
HETATM    2  H2  UNL     1      -8.987  20.062  67.698  1.00  0.00     0.000 HD 
HETATM    3  C   UNL     1      -8.861  18.298  66.822  1.00  0.00    -0.276 A  
HETATM    4  H1  UNL     1      -7.399  19.684  67.432  1.00  0.00     0.000 HD 
HETATM    5  C   UNL     1     -10.160  18.147  66.328  1.00  0.00    -0.373 A  
HETATM    6  C   UNL     1     -10.637  16.890  65.942  1.00  0.00    -0.239 A  
HETATM    7  C   UNL     1      -9.805  15.772  66.019  1.00  0.00    -0.366 A  
HETATM    8  C   UNL     1      -8.482  15.923  66.450  1.00  0.00    -0.348 A  
HETATM    9  C   UNL     1      -8.013  17.186  66.827  1.00  0.00    -0.271 A  
ENDROOT
BRANCH   7  10
HETATM   10  C   UNL     1     -10.332  14.456  65.570  1.00  0.00    -0.362 C  
HETATM   11  N   UNL     1     -10.229  13.415  66.471  1.00  0.00    -0.276 N  
HETATM   12  O   UNL     1     -10.824  14.323  64.458  1.00  0.00    -0.381 OA 
HETATM   13  H   UNL     1      -9.678  13.533  67.322  1.00  0.00     0.000 HD 
BRANCH  11  14
HETATM   14  C   UNL     1     -10.906  12.139  66.213  1.00  0.00    -0.282 C  
HETATM   15  C   UNL     1      -9.943  10.963  66.068  1.00  0.00    -0.240 C  
HETATM   16  O   UNL     1     -10.301   9.804  65.916  1.00  0.00    -0.214 OA 
HETATM   17  O   UNL     1      -8.639  11.313  66.170  1.00  0.00    -0.176 OA 
ENDBRANCH  11  14
ENDBRANCH   7  10
TORSDOF 2
ENDMDL
MODEL      119
REMARK 921   NORMALIZED FREE ENERGY PREDICTED BY IDOCK:   -3.61 KCAL/MOL
REMARK 922        TOTAL FREE ENERGY PREDICTED BY IDOCK:   -4.24 KCAL/MOL
REMARK 923 INTER-LIGAND FREE ENERGY PREDICTED BY IDOCK:   -4.11 KCAL/MOL
REMARK 924 INTRA-LIGAND FREE ENERGY PREDICTED BY IDOCK:   -0.13 KCAL/MOL
REMARK 927      BINDING AFFINITY PREDICTED BY RF-SCORE:    0.00 PKD
ROOT
HETATM    1  N   UNL     1     -11.795  11.875  67.114  1.00  0.00    -0.620 NA 
HETATM    2  H2  UNL     1     -12.155  11.364  66.308  1.00  0.00     0.000 HD 
HETATM    3  C   UNL     1     -11.660  10.980  68.179  1.00  0.00    -0.272 A  
HETATM    4  H1  UNL     1     -12.343  12.727  67.225  1.00  0.00     0.000 HD 
HETATM    5  C   UNL     1     -10.909   9.812  68.027  1.00  0.00    -0.276 A  
HETATM    6  C   UNL     1     -10.650   8.980  69.121  1.00  0.00    -0.219 A  
HETATM    7  C   UNL     1     -11.118   9.325  70.390  1.00  0.00    -0.300 A  
HETATM    8  C   UNL     1     -11.816  10.526  70.565  1.00  0.00    -0.442 A  
HETATM    9  C   UNL     1     -12.063  11.354  69.465  1.00  0.00    -0.370 A  
ENDROOT
BRANCH   7  10
HETATM   10  C   UNL     1     -10.798   8.436  71.538  1.00  0.00    -0.258 C  
HETATM   11  N   UNL     1     -11.710   7.435  71.810  1.00  0.00    -0.275 N  
HETATM   12  O   UNL     1      -9.779   8.601  72.194  1.00  0.00    -0.292 OA 
HETATM   13  H   UNL     1     -12.613   7.429  71.336  1.00  0.00     0.000 HD 
BRANCH  11  14
HETATM   14  C   UNL     1     -11.387   6.379  72.776  1.00  0.00    -0.191 C  
HETATM   15  C   UNL     1     -10.683   5.179  72.147  1.00  0.00    -0.187 C  
HETATM   16  O   UNL     1     -10.269   4.221  72.783  1.00  0.00    -0.155 OA 
HETATM   17  O   UNL     1     -10.514   5.290  70.807  1.00  0.00    -0.253 OA 
ENDBRANCH  11  14
ENDBRANCH   7  10
TORSDOF 2
ENDMDL
MODEL      120
REMARK 921   NORMALIZED FREE ENERGY PREDICTED BY IDOCK:   -3.60 KCAL/MOL
REMARK 922        TOTAL FREE ENERGY PREDICTED BY IDOCK:   -4.23 KCAL/MOL
REMARK 923 INTER-LIGAND FREE ENERGY PREDICTED BY IDOCK:   -4.04 KCAL/MOL
REMARK 924 INTRA-LIGAND FREE ENERGY PREDICTED BY IDOCK:   -0.19 KCAL/MOL
REMARK 927      BINDING AFFINITY PREDICTED BY RF-SCORE:    0.00 PKD
ROOT
HETATM    1  N   UNL     1     -10.290   7.020  67.841  1.00  0.00    -0.186 NA 
HETATM    2  H2  UNL     1      -9.383   6.634  67.575  1.00  0.00     0.000 HD 
HETATM    3  C   UNL     1     -10.303   8.379  67.516  1.00  0.00    -0.265 A  
HETATM    4  H1  UNL     1     -10.501   6.716  68.791  1.00  0.00     0.000 HD 
HETATM    5  C   UNL     1     -10.013   8.794  66.214  1.00  0.00    -0.315 A  
HETATM    6  C   UNL     1     -10.160  10.135  65.841  1.00  0.00    -0.325 A  
HETATM    7  C   UNL     1     -10.627  11.072  66.765  1.00  0.00    -0.317 A  
HETATM    8  C   UNL     1     -10.982  10.654  68.053  1.00  0.00    -0.336 A  
HETATM    9  C   UNL     1     -10.838   9.309  68.412  1.00  0.00    -0.125 A  
ENDROOT
BRANCH   7  10
HETATM   10  C   UNL     1     -10.802  12.482  66.327  1.00  0.00    -0.268 C  
HETATM   11  N   UNL     1     -11.395  13.336  67.237  1.00  0.00    -0.299 N  
HETATM   12  O   UNL     1     -10.437  12.845  65.218  1.00  0.00    -0.285 OA 
HETATM   13  H   UNL     1     -11.819  12.959  68.085  1.00  0.00     0.000 HD 
BRANCH  11  14
HETATM   14  C   UNL     1     -11.419  14.782  66.990  1.00  0.00    -0.353 C  
HETATM   15  C   UNL     1     -11.179  15.613  68.249  1.00  0.00    -0.353 C  
HETATM   16  O   UNL     1     -11.094  16.832  68.254  1.00  0.00    -0.361 OA 
HETATM   17  O   UNL     1     -11.021  14.869  69.369  1.00  0.00    -0.252 OA 
ENDBRANCH  11  14
ENDBRANCH   7  10
TORSDOF 2
ENDMDL
MODEL      121
REMARK 921   NORMALIZED FREE ENERGY PREDICTED BY IDOCK:   -3.59 KCAL/MOL
REMARK 922        TOTAL FREE ENERGY PREDICTED BY IDOCK:   -4.22 KCAL/MOL
REMARK 923 INTER-LIGAND FREE ENERGY PREDICTED BY IDOCK:   -4.00 KCAL/MOL
REMARK 924 INTRA-LIGAND FREE ENERGY PREDICTED BY IDOCK:   -0.22 KCAL/MOL
REMARK 927      BINDING AFFINITY PREDICTED BY RF-SCORE:    0.00 PKD
ROOT
HETATM    1  N   UNL     1     -12.169  14.988  68.230  1.00  0.00    -0.556 NA 
HETATM    2  H2  UNL     1     -13.187  14.945  68.281  1.00  0.00     0.000 HD 
HETATM    3  C   UNL     1     -11.704  13.780  67.701  1.00  0.00    -0.367 A  
HETATM    4  H1  UNL     1     -11.816  15.326  69.125  1.00  0.00     0.000 HD 
HETATM    5  C   UNL     1     -12.188  13.317  66.475  1.00  0.00    -0.389 A  
HETATM    6  C   UNL     1     -11.631  12.186  65.867  1.00  0.00    -0.425 A  
HETATM    7  C   UNL     1     -10.561  11.522  66.471  1.00  0.00    -0.301 A  
HETATM    8  C   UNL     1     -10.028  12.017  67.667  1.00  0.00    -0.196 A  
HETATM    9  C   UNL     1     -10.587  13.153  68.261  1.00  0.00    -0.260 A  
ENDROOT
BRANCH   7  10
HETATM   10  C   UNL     1      -9.971  10.343  65.784  1.00  0.00    -0.270 C  
HETATM   11  N   UNL     1      -9.374   9.397  66.594  1.00  0.00    -0.154 N  
HETATM   12  O   UNL     1     -10.021  10.237  64.566  1.00  0.00    -0.339 OA 
HETATM   13  H   UNL     1      -9.223   9.599  67.583  1.00  0.00     0.000 HD 
BRANCH  11  14
HETATM   14  C   UNL     1      -8.956   8.104  66.042  1.00  0.00    -0.171 C  
HETATM   15  C   UNL     1      -9.763   6.927  66.583  1.00  0.00    -0.163 C  
HETATM   16  O   UNL     1      -9.622   5.772  66.206  1.00  0.00    -0.157 OA 
HETATM   17  O   UNL     1     -10.695   7.282  67.499  1.00  0.00    -0.254 OA 
ENDBRANCH  11  14
ENDBRANCH   7  10
TORSDOF 2
ENDMDL
MODEL      122
REMARK 921   NORMALIZED FREE ENERGY PREDICTED BY IDOCK:   -3.56 KCAL/MOL
REMARK 922        TOTAL FREE ENERGY PREDICTED BY IDOCK:   -4.19 KCAL/MOL
REMARK 923 INTER-LIGAND FREE ENERGY PREDICTED BY IDOCK:   -4.00 KCAL/MOL
REMARK 924 INTRA-LIGAND FREE ENERGY PREDICTED BY IDOCK:   -0.19 KCAL/MOL
REMARK 927      BINDING AFFINITY PREDICTED BY RF-SCORE:    0.00 PKD
ROOT
HETATM    1  N   UNL     1     -11.520   5.725  73.424  1.00  0.00    -0.430 NA 
HETATM    2  H2  UNL     1     -12.260   6.130  73.997  1.00  0.00     0.000 HD 
HETATM    3  C   UNL     1     -11.217   6.623  72.397  1.00  0.00    -0.267 A  
HETATM    4  H1  UNL     1     -11.773   4.762  73.206  1.00  0.00     0.000 HD 
HETATM    5  C   UNL     1     -10.870   7.944  72.695  1.00  0.00    -0.428 A  
HETATM    6  C   UNL     1     -10.429   8.813  71.691  1.00  0.00    -0.387 A  
HETATM    7  C   UNL     1     -10.303   8.357  70.377  1.00  0.00    -0.219 A  
HETATM    8  C   UNL     1     -10.586   7.019  70.080  1.00  0.00    -0.251 A  
HETATM    9  C   UNL     1     -11.019   6.157  71.093  1.00  0.00    -0.343 A  
ENDROOT
BRANCH   7  10
HETATM   10  C   UNL     1      -9.801   9.297  69.340  1.00  0.00    -0.174 C  
HETATM   11  N   UNL     1     -10.709   9.686  68.375  1.00  0.00    -0.317 N  
HETATM   12  O   UNL     1      -8.643   9.689  69.357  1.00  0.00    -0.134 OA 
HETATM   13  H   UNL     1     -11.614   9.219  68.312  1.00  0.00     0.000 HD 
BRANCH  11  14
HETATM   14  C   UNL     1     -10.380  10.767  67.439  1.00  0.00    -0.211 C  
HETATM   15  C   UNL     1     -11.393  11.910  67.457  1.00  0.00    -0.314 C  
HETATM   16  O   UNL     1     -11.273  12.937  66.804  1.00  0.00    -0.276 OA 
HETATM   17  O   UNL     1     -12.427  11.706  68.307  1.00  0.00    -0.251 OA 
ENDBRANCH  11  14
ENDBRANCH   7  10
TORSDOF 2
ENDMDL
MODEL      123
REMARK 921   NORMALIZED FREE ENERGY PREDICTED BY IDOCK:   -3.53 KCAL/MOL
REMARK 922        TOTAL FREE ENERGY PREDICTED BY IDOCK:   -4.16 KCAL/MOL
REMARK 923 INTER-LIGAND FREE ENERGY PREDICTED BY IDOCK:   -3.99 KCAL/MOL
REMARK 924 INTRA-LIGAND FREE ENERGY PREDICTED BY IDOCK:   -0.17 KCAL/MOL
REMARK 927      BINDING AFFINITY PREDICTED BY RF-SCORE:    0.00 PKD
ROOT
HETATM    1  N   UNL     1     -12.113  13.222  70.005  1.00  0.00    -0.328 NA 
HETATM    2  H2  UNL     1     -12.387  13.401  69.038  1.00  0.00     0.000 HD 
HETATM    3  C   UNL     1     -11.924  11.846  70.162  1.00  0.00    -0.332 A  
HETATM    4  H1  UNL     1     -12.753  13.726  70.618  1.00  0.00     0.000 HD 
HETATM    5  C   UNL     1     -11.047  11.156  69.321  1.00  0.00    -0.318 A  
HETATM    6  C   UNL     1     -10.741   9.811  69.555  1.00  0.00    -0.255 A  
HETATM    7  C   UNL     1     -11.291   9.149  70.655  1.00  0.00    -0.323 A  
HETATM    8  C   UNL     1     -12.119   9.849  71.539  1.00  0.00    -0.496 A  
HETATM    9  C   UNL     1     -12.412  11.196  71.300  1.00  0.00    -0.466 A  
ENDROOT
BRANCH   7  10
HETATM   10  C   UNL     1     -10.921   7.729  70.893  1.00  0.00    -0.250 C  
HETATM   11  N   UNL     1     -11.021   6.879  69.809  1.00  0.00    -0.260 N  
HETATM   12  O   UNL     1     -10.552   7.354  71.997  1.00  0.00    -0.203 OA 
HETATM   13  H   UNL     1     -11.475   7.200  68.954  1.00  0.00     0.000 HD 
BRANCH  11  14
HETATM   14  C   UNL     1     -10.480   5.517  69.881  1.00  0.00    -0.316 C  
HETATM   15  C   UNL     1     -10.148   4.927  68.512  1.00  0.00    -0.078 C  
HETATM   16  O   UNL     1      -9.626   3.833  68.351  1.00  0.00    -0.162 OA 
HETATM   17  O   UNL     1     -10.443   5.751  67.479  1.00  0.00    -0.203 OA 
ENDBRANCH  11  14
ENDBRANCH   7  10
TORSDOF 2
ENDMDL
MODEL      124
REMARK 921   NORMALIZED FREE ENERGY PREDICTED BY IDOCK:   -3.51 KCAL/MOL
REMARK 922        TOTAL FREE ENERGY PREDICTED BY IDOCK:   -4.14 KCAL/MOL
REMARK 923 INTER-LIGAND FREE ENERGY PREDICTED BY IDOCK:   -3.95 KCAL/MOL
REMARK 924 INTRA-LIGAND FREE ENERGY PREDICTED BY IDOCK:   -0.19 KCAL/MOL
REMARK 927      BINDING AFFINITY PREDICTED BY RF-SCORE:    0.00 PKD
ROOT
HETATM    1  N   UNL     1      -8.488  10.941  64.332  1.00  0.00    -0.372 NA 
HETATM    2  H2  UNL     1      -7.524  11.252  64.443  1.00  0.00     0.000 HD 
HETATM    3  C   UNL     1      -9.039  10.749  65.602  1.00  0.00    -0.194 A  
HETATM    4  H1  UNL     1      -8.505  10.186  63.646  1.00  0.00     0.000 HD 
HETATM    5  C   UNL     1      -9.016  11.783  66.542  1.00  0.00    -0.196 A  
HETATM    6  C   UNL     1      -9.686  11.655  67.764  1.00  0.00    -0.177 A  
HETATM    7  C   UNL     1     -10.412  10.496  68.046  1.00  0.00    -0.232 A  
HETATM    8  C   UNL     1     -10.494   9.481  67.085  1.00  0.00    -0.322 A  
HETATM    9  C   UNL     1      -9.827   9.624  65.863  1.00  0.00    -0.358 A  
ENDROOT
BRANCH   7  10
HETATM   10  C   UNL     1     -11.138  10.404  69.340  1.00  0.00    -0.254 C  
HETATM   11  N   UNL     1     -11.366   9.131  69.825  1.00  0.00    -0.435 N  
HETATM   12  O   UNL     1     -11.507  11.412  69.925  1.00  0.00    -0.283 OA 
HETATM   13  H   UNL     1     -11.177   8.321  69.234  1.00  0.00     0.000 HD 
BRANCH  11  14
HETATM   14  C   UNL     1     -11.880   8.936  71.186  1.00  0.00    -0.298 C  
HETATM   15  C   UNL     1     -11.120   7.869  71.970  1.00  0.00    -0.278 C  
HETATM   16  O   UNL     1     -11.342   7.598  73.142  1.00  0.00    -0.360 OA 
HETATM   17  O   UNL     1     -10.133   7.272  71.261  1.00  0.00    -0.190 OA 
ENDBRANCH  11  14
ENDBRANCH   7  10
TORSDOF 2
ENDMDL
MODEL      125
REMARK 921   NORMALIZED FREE ENERGY PREDICTED BY IDOCK:   -3.48 KCAL/MOL
REMARK 922        TOTAL FREE ENERGY PREDICTED BY IDOCK:   -4.10 KCAL/MOL
REMARK 923 INTER-LIGAND FREE ENERGY PREDICTED BY IDOCK:   -3.92 KCAL/MOL
REMARK 924 INTRA-LIGAND FREE ENERGY PREDICTED BY IDOCK:   -0.18 KCAL/MOL
REMARK 927      BINDING AFFINITY PREDICTED BY RF-SCORE:    0.00 PKD
ROOT
HETATM    1  N   UNL     1      -9.119   6.442  74.363  1.00  0.00    -0.161 NA 
HETATM    2  H2  UNL     1      -9.742   5.636  74.304  1.00  0.00     0.000 HD 
HETATM    3  C   UNL     1      -9.293   7.218  73.214  1.00  0.00    -0.182 A  
HETATM    4  H1  UNL     1      -8.191   6.111  74.625  1.00  0.00     0.000 HD 
HETATM    5  C   UNL     1     -10.565   7.671  72.856  1.00  0.00    -0.411 A  
HETATM    6  C   UNL     1     -10.734   8.563  71.791  1.00  0.00    -0.373 A  
HETATM    7  C   UNL     1      -9.623   9.034  71.089  1.00  0.00    -0.356 A  
HETATM    8  C   UNL     1      -8.339   8.637  71.482  1.00  0.00    -0.220 A  
HETATM    9  C   UNL     1      -8.181   7.751  72.553  1.00  0.00    -0.165 A  
ENDROOT
BRANCH   7  10
HETATM   10  C   UNL     1      -9.834  10.005  69.984  1.00  0.00    -0.197 C  
HETATM   11  N   UNL     1     -10.917  10.853  70.112  1.00  0.00    -0.468 N  
HETATM   12  O   UNL     1      -9.079  10.034  69.021  1.00  0.00    -0.151 OA 
HETATM   13  H   UNL     1     -11.601  10.693  70.851  1.00  0.00     0.000 HD 
BRANCH  11  14
HETATM   14  C   UNL     1     -11.088  11.983  69.191  1.00  0.00    -0.215 C  
HETATM   15  C   UNL     1     -11.955  13.101  69.763  1.00  0.00    -0.314 C  
HETATM   16  O   UNL     1     -12.170  14.159  69.188  1.00  0.00    -0.335 OA 
HETATM   17  O   UNL     1     -12.437  12.837  71.001  1.00  0.00    -0.376 OA 
ENDBRANCH  11  14
ENDBRANCH   7  10
TORSDOF 2
ENDMDL
MODEL      126
REMARK 921   NORMALIZED FREE ENERGY PREDICTED BY IDOCK:   -3.48 KCAL/MOL
REMARK 922        TOTAL FREE ENERGY PREDICTED BY IDOCK:   -4.10 KCAL/MOL
REMARK 923 INTER-LIGAND FREE ENERGY PREDICTED BY IDOCK:   -3.94 KCAL/MOL
REMARK 924 INTRA-LIGAND FREE ENERGY PREDICTED BY IDOCK:   -0.15 KCAL/MOL
REMARK 927      BINDING AFFINITY PREDICTED BY RF-SCORE:    0.00 PKD
ROOT
HETATM    1  N   UNL     1     -10.700  17.940  67.749  1.00  0.00    -0.382 NA 
HETATM    2  H2  UNL     1     -10.123  18.405  68.450  1.00  0.00     0.000 HD 
HETATM    3  C   UNL     1     -10.710  16.570  68.027  1.00  0.00    -0.343 A  
HETATM    4  H1  UNL     1     -10.418  18.275  66.828  1.00  0.00     0.000 HD 
HETATM    5  C   UNL     1     -11.095  16.110  69.288  1.00  0.00    -0.327 A  
HETATM    6  C   UNL     1     -11.246  14.741  69.536  1.00  0.00    -0.305 A  
HETATM    7  C   UNL     1     -11.039  13.817  68.510  1.00  0.00    -0.292 A  
HETATM    8  C   UNL     1     -10.716  14.272  67.226  1.00  0.00    -0.277 A  
HETATM    9  C   UNL     1     -10.576  15.643  66.988  1.00  0.00    -0.311 A  
ENDROOT
BRANCH   7  10
HETATM   10  C   UNL     1     -11.239  12.372  68.798  1.00  0.00    -0.273 C  
HETATM   11  N   UNL     1     -10.133  11.680  69.252  1.00  0.00    -0.409 N  
HETATM   12  O   UNL     1     -12.329  11.844  68.633  1.00  0.00    -0.275 OA 
HETATM   13  H   UNL     1      -9.214  12.122  69.230  1.00  0.00     0.000 HD 
BRANCH  11  14
HETATM   14  C   UNL     1     -10.273  10.312  69.766  1.00  0.00    -0.220 C  
HETATM   15  C   UNL     1      -8.936   9.650  70.089  1.00  0.00    -0.236 C  
HETATM   16  O   UNL     1      -8.830   8.539  70.589  1.00  0.00    -0.137 OA 
HETATM   17  O   UNL     1      -7.863  10.428  69.814  1.00  0.00    -0.157 OA 
ENDBRANCH  11  14
ENDBRANCH   7  10
TORSDOF 2
ENDMDL
MODEL      127
REMARK 921   NORMALIZED FREE ENERGY PREDICTED BY IDOCK:   -3.47 KCAL/MOL
REMARK 922        TOTAL FREE ENERGY PREDICTED BY IDOCK:   -4.09 KCAL/MOL
REMARK 923 INTER-LIGAND FREE ENERGY PREDICTED BY IDOCK:   -3.89 KCAL/MOL
REMARK 924 INTRA-LIGAND FREE ENERGY PREDICTED BY IDOCK:   -0.20 KCAL/MOL
REMARK 927      BINDING AFFINITY PREDICTED BY RF-SCORE:    0.00 PKD
ROOT
HETATM    1  N   UNL     1      -9.893   4.044  70.541  1.00  0.00    -0.187 NA 
HETATM    2  H2  UNL     1     -10.747   3.510  70.376  1.00  0.00     0.000 HD 
HETATM    3  C   UNL     1     -10.139   5.381  70.217  1.00  0.00    -0.248 A  
HETATM    4  H1  UNL     1      -9.115   3.545  70.109  1.00  0.00     0.000 HD 
HETATM    5  C   UNL     1     -11.205   6.063  70.809  1.00  0.00    -0.340 A  
HETATM    6  C   UNL     1     -11.378   7.436  70.603  1.00  0.00    -0.304 A  
HETATM    7  C   UNL     1     -10.465   8.148  69.822  1.00  0.00    -0.227 A  
HETATM    8  C   UNL     1      -9.358   7.486  69.278  1.00  0.00    -0.151 A  
HETATM    9  C   UNL     1      -9.191   6.114  69.497  1.00  0.00    -0.143 A  
ENDROOT
BRANCH   7  10
HETATM   10  C   UNL     1     -10.660   9.612  69.649  1.00  0.00    -0.233 C  
HETATM   11  N   UNL     1     -11.874  10.121  70.064  1.00  0.00    -0.413 N  
HETATM   12  O   UNL     1      -9.781  10.308  69.161  1.00  0.00    -0.195 OA 
HETATM   13  H   UNL     1     -12.630   9.486  70.323  1.00  0.00     0.000 HD 
BRANCH  11  14
HETATM   14  C   UNL     1     -12.085  11.572  70.137  1.00  0.00    -0.351 C  
HETATM   15  C   UNL     1     -12.913  12.002  71.346  1.00  0.00    -0.262 C  
HETATM   16  O   UNL     1     -13.149  13.168  71.630  1.00  0.00    -0.383 OA 
HETATM   17  O   UNL     1     -13.331  10.968  72.114  1.00  0.00    -0.451 OA 
ENDBRANCH  11  14
ENDBRANCH   7  10
TORSDOF 2
ENDMDL
MODEL      128
REMARK 921   NORMALIZED FREE ENERGY PREDICTED BY IDOCK:   -3.46 KCAL/MOL
REMARK 922        TOTAL FREE ENERGY PREDICTED BY IDOCK:   -4.08 KCAL/MOL
REMARK 923 INTER-LIGAND FREE ENERGY PREDICTED BY IDOCK:   -3.90 KCAL/MOL
REMARK 924 INTRA-LIGAND FREE ENERGY PREDICTED BY IDOCK:   -0.18 KCAL/MOL
REMARK 927      BINDING AFFINITY PREDICTED BY RF-SCORE:    0.00 PKD
ROOT
HETATM    1  N   UNL     1     -10.922   4.919  65.550  1.00  0.00    -0.801 NA 
HETATM    2  H2  UNL     1     -10.756   5.783  65.034  1.00  0.00     0.000 HD 
HETATM    3  C   UNL     1     -10.513   5.110  66.873  1.00  0.00    -0.223 A  
HETATM    4  H1  UNL     1     -10.548   4.143  65.004  1.00  0.00     0.000 HD 
HETATM    5  C   UNL     1     -11.026   6.173  67.621  1.00  0.00    -0.400 A  
HETATM    6  C   UNL     1     -10.735   6.294  68.984  1.00  0.00    -0.362 A  
HETATM    7  C   UNL     1      -9.949   5.332  69.621  1.00  0.00    -0.302 A  
HETATM    8  C   UNL     1      -9.485   4.229  68.895  1.00  0.00    -0.236 A  
HETATM    9  C   UNL     1      -9.788   4.114  67.534  1.00  0.00    -0.139 A  
ENDROOT
BRANCH   7  10
HETATM   10  C   UNL     1      -9.686   5.473  71.077  1.00  0.00    -0.175 C  
HETATM   11  N   UNL     1      -8.693   6.364  71.437  1.00  0.00    -0.131 N  
HETATM   12  O   UNL     1     -10.323   4.825  71.896  1.00  0.00    -0.199 OA 
HETATM   13  H   UNL     1      -8.089   6.766  70.720  1.00  0.00     0.000 HD 
BRANCH  11  14
HETATM   14  C   UNL     1      -8.503   6.734  72.844  1.00  0.00    -0.116 C  
HETATM   15  C   UNL     1      -8.475   8.244  73.072  1.00  0.00    -0.195 C  
HETATM   16  O   UNL     1      -8.393   8.765  74.175  1.00  0.00    -0.256 OA 
HETATM   17  O   UNL     1      -8.598   8.968  71.934  1.00  0.00    -0.361 OA 
ENDBRANCH  11  14
ENDBRANCH   7  10
TORSDOF 2
ENDMDL
MODEL      129
REMARK 921   NORMALIZED FREE ENERGY PREDICTED BY IDOCK:   -3.46 KCAL/MOL
REMARK 922        TOTAL FREE ENERGY PREDICTED BY IDOCK:   -4.08 KCAL/MOL
REMARK 923 INTER-LIGAND FREE ENERGY PREDICTED BY IDOCK:   -3.85 KCAL/MOL
REMARK 924 INTRA-LIGAND FREE ENERGY PREDICTED BY IDOCK:   -0.23 KCAL/MOL
REMARK 927      BINDING AFFINITY PREDICTED BY RF-SCORE:    0.00 PKD
ROOT
HETATM    1  N   UNL     1      -8.428   8.311  64.635  1.00  0.00    -0.351 NA 
HETATM    2  H2  UNL     1      -8.105   9.275  64.553  1.00  0.00     0.000 HD 
HETATM    3  C   UNL     1      -8.922   8.121  65.929  1.00  0.00    -0.151 A  
HETATM    4  H1  UNL     1      -7.702   7.697  64.266  1.00  0.00     0.000 HD 
HETATM    5  C   UNL     1      -9.916   8.962  66.434  1.00  0.00    -0.354 A  
HETATM    6  C   UNL     1     -10.518   8.698  67.669  1.00  0.00    -0.311 A  
HETATM    7  C   UNL     1     -10.148   7.567  68.401  1.00  0.00    -0.200 A  
HETATM    8  C   UNL     1      -9.199   6.684  67.873  1.00  0.00    -0.111 A  
HETATM    9  C   UNL     1      -8.610   6.954  66.634  1.00  0.00    -0.124 A  
ENDROOT
BRANCH   7  10
HETATM   10  C   UNL     1     -10.829   7.298  69.694  1.00  0.00    -0.222 C  
HETATM   11  N   UNL     1     -10.907   8.357  70.578  1.00  0.00    -0.229 N  
HETATM   12  O   UNL     1     -11.286   6.192  69.944  1.00  0.00    -0.405 OA 
HETATM   13  H   UNL     1     -10.383   9.212  70.392  1.00  0.00     0.000 HD 
BRANCH  11  14
HETATM   14  C   UNL     1     -11.740   8.259  71.782  1.00  0.00    -0.302 C  
HETATM   15  C   UNL     1     -12.963   9.172  71.745  1.00  0.00    -0.380 C  
HETATM   16  O   UNL     1     -13.821   9.197  72.616  1.00  0.00    -0.470 OA 
HETATM   17  O   UNL     1     -13.042   9.931  70.626  1.00  0.00    -0.242 OA 
ENDBRANCH  11  14
ENDBRANCH   7  10
TORSDOF 2
ENDMDL
MODEL      130
REMARK 921   NORMALIZED FREE ENERGY PREDICTED BY IDOCK:   -3.45 KCAL/MOL
REMARK 922        TOTAL FREE ENERGY PREDICTED BY IDOCK:   -4.07 KCAL/MOL
REMARK 923 INTER-LIGAND FREE ENERGY PREDICTED BY IDOCK:   -3.88 KCAL/MOL
REMARK 924 INTRA-LIGAND FREE ENERGY PREDICTED BY IDOCK:   -0.19 KCAL/MOL
REMARK 927      BINDING AFFINITY PREDICTED BY RF-SCORE:    0.00 PKD
ROOT
HETATM    1  N   UNL     1     -13.654   8.721  72.957  1.00  0.00    -0.959 NA 
HETATM    2  H2  UNL     1     -14.312   9.412  72.597  1.00  0.00     0.000 HD 
HETATM    3  C   UNL     1     -12.639   8.545  72.012  1.00  0.00    -0.364 A  
HETATM    4  H1  UNL     1     -14.184   7.919  73.297  1.00  0.00     0.000 HD 
HETATM    5  C   UNL     1     -11.912   9.643  71.547  1.00  0.00    -0.485 A  
HETATM    6  C   UNL     1     -10.804   9.466  70.711  1.00  0.00    -0.372 A  
HETATM    7  C   UNL     1     -10.394   8.180  70.354  1.00  0.00    -0.208 A  
HETATM    8  C   UNL     1     -11.077   7.071  70.868  1.00  0.00    -0.300 A  
HETATM    9  C   UNL     1     -12.178   7.259  71.709  1.00  0.00    -0.368 A  
ENDROOT
BRANCH   7  10
HETATM   10  C   UNL     1      -9.194   8.025  69.491  1.00  0.00    -0.152 C  
HETATM   11  N   UNL     1      -9.320   8.455  68.184  1.00  0.00    -0.134 N  
HETATM   12  O   UNL     1      -8.162   7.538  69.932  1.00  0.00    -0.126 OA 
HETATM   13  H   UNL     1     -10.238   8.712  67.821  1.00  0.00     0.000 HD 
BRANCH  11  14
HETATM   14  C   UNL     1      -8.140   8.545  67.316  1.00  0.00    -0.105 C  
HETATM   15  C   UNL     1      -8.023   7.381  66.336  1.00  0.00    -0.108 C  
HETATM   16  O   UNL     1      -7.152   7.295  65.481  1.00  0.00    -0.062 OA 
HETATM   17  O   UNL     1      -9.006   6.459  66.466  1.00  0.00    -0.136 OA 
ENDBRANCH  11  14
ENDBRANCH   7  10
TORSDOF 2
ENDMDL
MODEL      131
REMARK 921   NORMALIZED FREE ENERGY PREDICTED BY IDOCK:   -3.45 KCAL/MOL
REMARK 922        TOTAL FREE ENERGY PREDICTED BY IDOCK:   -4.07 KCAL/MOL
REMARK 923 INTER-LIGAND FREE ENERGY PREDICTED BY IDOCK:   -3.87 KCAL/MOL
REMARK 924 INTRA-LIGAND FREE ENERGY PREDICTED BY IDOCK:   -0.20 KCAL/MOL
REMARK 927      BINDING AFFINITY PREDICTED BY RF-SCORE:    0.00 PKD
ROOT
HETATM    1  N   UNL     1     -10.902  16.456  67.587  1.00  0.00    -0.312 NA 
HETATM    2  H2  UNL     1     -11.776  16.809  67.976  1.00  0.00     0.000 HD 
HETATM    3  C   UNL     1     -10.787  15.103  67.918  1.00  0.00    -0.291 A  
HETATM    4  H1  UNL     1     -10.157  17.109  67.828  1.00  0.00     0.000 HD 
HETATM    5  C   UNL     1     -11.809  14.208  67.588  1.00  0.00    -0.427 A  
HETATM    6  C   UNL     1     -11.647  12.833  67.786  1.00  0.00    -0.405 A  
HETATM    7  C   UNL     1     -10.445  12.335  68.292  1.00  0.00    -0.236 A  
HETATM    8  C   UNL     1      -9.393  13.216  68.565  1.00  0.00    -0.085 A  
HETATM    9  C   UNL     1      -9.563  14.589  68.356  1.00  0.00    -0.213 A  
ENDROOT
BRANCH   7  10
HETATM   10  C   UNL     1     -10.294  10.865  68.460  1.00  0.00    -0.187 C  
HETATM   11  N   UNL     1      -9.982  10.423  69.731  1.00  0.00    -0.405 N  
HETATM   12  O   UNL     1     -10.439  10.107  67.512  1.00  0.00    -0.217 OA 
HETATM   13  H   UNL     1      -9.722  11.096  70.453  1.00  0.00     0.000 HD 
BRANCH  11  14
HETATM   14  C   UNL     1     -10.022   8.991  70.050  1.00  0.00    -0.188 C  
HETATM   15  C   UNL     1     -11.046   8.641  71.127  1.00  0.00    -0.266 C  
HETATM   16  O   UNL     1     -11.286   7.500  71.493  1.00  0.00    -0.248 OA 
HETATM   17  O   UNL     1     -11.708   9.716  71.618  1.00  0.00    -0.386 OA 
ENDBRANCH  11  14
ENDBRANCH   7  10
TORSDOF 2
ENDMDL
MODEL      132
REMARK 921   NORMALIZED FREE ENERGY PREDICTED BY IDOCK:   -3.44 KCAL/MOL
REMARK 922        TOTAL FREE ENERGY PREDICTED BY IDOCK:   -4.05 KCAL/MOL
REMARK 923 INTER-LIGAND FREE ENERGY PREDICTED BY IDOCK:   -3.89 KCAL/MOL
REMARK 924 INTRA-LIGAND FREE ENERGY PREDICTED BY IDOCK:   -0.16 KCAL/MOL
REMARK 927      BINDING AFFINITY PREDICTED BY RF-SCORE:    0.00 PKD
ROOT
HETATM    1  N   UNL     1      -9.942   4.619  67.424  1.00  0.00    -0.167 NA 
HETATM    2  H2  UNL     1     -10.792   4.096  67.633  1.00  0.00     0.000 HD 
HETATM    3  C   UNL     1     -10.213   5.981  67.580  1.00  0.00    -0.181 A  
HETATM    4  H1  UNL     1      -9.557   4.269  66.546  1.00  0.00     0.000 HD 
HETATM    5  C   UNL     1     -10.740   6.461  68.782  1.00  0.00    -0.339 A  
HETATM    6  C   UNL     1     -10.884   7.835  69.003  1.00  0.00    -0.042 A  
HETATM    7  C   UNL     1     -10.474   8.747  68.029  1.00  0.00    -0.260 A  
HETATM    8  C   UNL     1      -9.886   8.279  66.848  1.00  0.00    -0.316 A  
HETATM    9  C   UNL     1      -9.739   6.903  66.642  1.00  0.00    -0.221 A  
ENDROOT
BRANCH   7  10
HETATM   10  C   UNL     1     -10.611  10.201  68.308  1.00  0.00    -0.226 C  
HETATM   11  N   UNL     1     -11.250  10.952  67.341  1.00  0.00    -0.313 N  
HETATM   12  O   UNL     1     -10.174  10.686  69.342  1.00  0.00    -0.220 OA 
HETATM   13  H   UNL     1     -11.462  10.537  66.433  1.00  0.00     0.000 HD 
BRANCH  11  14
HETATM   14  C   UNL     1     -11.625  12.345  67.611  1.00  0.00    -0.357 C  
HETATM   15  C   UNL     1     -12.097  13.095  66.367  1.00  0.00    -0.382 C  
HETATM   16  O   UNL     1     -12.518  14.243  66.382  1.00  0.00    -0.441 OA 
HETATM   17  O   UNL     1     -12.054  12.352  65.235  1.00  0.00    -0.429 OA 
ENDBRANCH  11  14
ENDBRANCH   7  10
TORSDOF 2
ENDMDL
MODEL      133
REMARK 921   NORMALIZED FREE ENERGY PREDICTED BY IDOCK:   -3.43 KCAL/MOL
REMARK 922        TOTAL FREE ENERGY PREDICTED BY IDOCK:   -4.04 KCAL/MOL
REMARK 923 INTER-LIGAND FREE ENERGY PREDICTED BY IDOCK:   -3.86 KCAL/MOL
REMARK 924 INTRA-LIGAND FREE ENERGY PREDICTED BY IDOCK:   -0.18 KCAL/MOL
REMARK 927      BINDING AFFINITY PREDICTED BY RF-SCORE:    0.00 PKD
ROOT
HETATM    1  N   UNL     1      -7.815   6.134  65.203  1.00  0.00    -0.101 NA 
HETATM    2  H2  UNL     1      -8.413   5.350  65.464  1.00  0.00     0.000 HD 
HETATM    3  C   UNL     1      -8.508   7.321  65.458  1.00  0.00    -0.111 A  
HETATM    4  H1  UNL     1      -7.433   5.952  64.276  1.00  0.00     0.000 HD 
HETATM    5  C   UNL     1      -9.032   7.571  66.729  1.00  0.00    -0.164 A  
HETATM    6  C   UNL     1      -9.603   8.811  67.037  1.00  0.00    -0.236 A  
HETATM    7  C   UNL     1      -9.630   9.827  66.079  1.00  0.00    -0.296 A  
HETATM    8  C   UNL     1      -9.050   9.607  64.824  1.00  0.00    -0.283 A  
HETATM    9  C   UNL     1      -8.474   8.367  64.530  1.00  0.00    -0.078 A  
ENDROOT
BRANCH   7  10
HETATM   10  C   UNL     1     -10.215  11.143  66.447  1.00  0.00    -0.233 C  
HETATM   11  N   UNL     1     -10.518  11.993  65.402  1.00  0.00    -0.264 N  
HETATM   12  O   UNL     1     -10.407  11.438  67.618  1.00  0.00    -0.177 OA 
HETATM   13  H   UNL     1     -10.202  11.768  64.458  1.00  0.00     0.000 HD 
BRANCH  11  14
HETATM   14  C   UNL     1     -11.290  13.217  65.640  1.00  0.00    -0.304 C  
HETATM   15  C   UNL     1     -12.022  13.721  64.399  1.00  0.00    -0.445 C  
HETATM   16  O   UNL     1     -12.773  14.686  64.395  1.00  0.00    -0.636 OA 
HETATM   17  O   UNL     1     -11.801  12.968  63.295  1.00  0.00    -0.534 OA 
ENDBRANCH  11  14
ENDBRANCH   7  10
TORSDOF 2
ENDMDL
MODEL      134
REMARK 921   NORMALIZED FREE ENERGY PREDICTED BY IDOCK:   -3.42 KCAL/MOL
REMARK 922        TOTAL FREE ENERGY PREDICTED BY IDOCK:   -4.04 KCAL/MOL
REMARK 923 INTER-LIGAND FREE ENERGY PREDICTED BY IDOCK:   -3.82 KCAL/MOL
REMARK 924 INTRA-LIGAND FREE ENERGY PREDICTED BY IDOCK:   -0.22 KCAL/MOL
REMARK 927      BINDING AFFINITY PREDICTED BY RF-SCORE:    0.00 PKD
ROOT
HETATM    1  N   UNL     1      -7.561   9.332  69.958  1.00  0.00    -0.085 NA 
HETATM    2  H2  UNL     1      -7.143   9.488  70.875  1.00  0.00     0.000 HD 
HETATM    3  C   UNL     1      -7.897  10.573  69.410  1.00  0.00    -0.147 A  
HETATM    4  H1  UNL     1      -8.267   8.602  70.048  1.00  0.00     0.000 HD 
HETATM    5  C   UNL     1      -6.929  11.573  69.287  1.00  0.00    -0.098 A  
HETATM    6  C   UNL     1      -7.214  12.766  68.613  1.00  0.00    -0.104 A  
HETATM    7  C   UNL     1      -8.468  12.958  68.029  1.00  0.00    -0.178 A  
HETATM    8  C   UNL     1      -9.422  11.936  68.091  1.00  0.00    -0.195 A  
HETATM    9  C   UNL     1      -9.123  10.744  68.760  1.00  0.00    -0.180 A  
ENDROOT
BRANCH   7  10
HETATM   10  C   UNL     1      -8.728  14.223  67.293  1.00  0.00    -0.218 C  
HETATM   11  N   UNL     1     -10.037  14.455  66.918  1.00  0.00    -0.255 N  
HETATM   12  O   UNL     1      -7.818  15.001  67.041  1.00  0.00    -0.209 OA 
HETATM   13  H   UNL     1     -10.731  13.714  67.015  1.00  0.00     0.000 HD 
BRANCH  11  14
HETATM   14  C   UNL     1     -10.435  15.762  66.382  1.00  0.00    -0.303 C  
HETATM   15  C   UNL     1     -10.898  15.702  64.929  1.00  0.00    -0.418 C  
HETATM   16  O   UNL     1     -11.334  16.664  64.312  1.00  0.00    -1.116 OA 
HETATM   17  O   UNL     1     -10.828  14.463  64.386  1.00  0.00    -0.310 OA 
ENDBRANCH  11  14
ENDBRANCH   7  10
TORSDOF 2
ENDMDL
MODEL      135
REMARK 921   NORMALIZED FREE ENERGY PREDICTED BY IDOCK:   -3.42 KCAL/MOL
REMARK 922        TOTAL FREE ENERGY PREDICTED BY IDOCK:   -4.03 KCAL/MOL
REMARK 923 INTER-LIGAND FREE ENERGY PREDICTED BY IDOCK:   -3.86 KCAL/MOL
REMARK 924 INTRA-LIGAND FREE ENERGY PREDICTED BY IDOCK:   -0.17 KCAL/MOL
REMARK 927      BINDING AFFINITY PREDICTED BY RF-SCORE:    0.00 PKD
ROOT
HETATM    1  N   UNL     1     -10.420  17.278  65.367  1.00  0.00    -0.646 NA 
HETATM    2  H2  UNL     1     -11.313  17.760  65.269  1.00  0.00     0.000 HD 
HETATM    3  C   UNL     1     -10.630  16.106  66.098  1.00  0.00    -0.283 A  
HETATM    4  H1  UNL     1      -9.721  17.956  65.673  1.00  0.00     0.000 HD 
HETATM    5  C   UNL     1     -11.586  15.177  65.680  1.00  0.00    -0.118 A  
HETATM    6  C   UNL     1     -11.709  13.938  66.319  1.00  0.00    -0.402 A  
HETATM    7  C   UNL     1     -10.852  13.604  67.369  1.00  0.00    -0.282 A  
HETATM    8  C   UNL     1      -9.849  14.501  67.753  1.00  0.00    -0.220 A  
HETATM    9  C   UNL     1      -9.730  15.734  67.102  1.00  0.00    -0.227 A  
ENDROOT
BRANCH   7  10
HETATM   10  C   UNL     1     -10.988  12.268  68.005  1.00  0.00    -0.225 C  
HETATM   11  N   UNL     1     -10.914  11.177  67.161  1.00  0.00    -0.280 N  
HETATM   12  O   UNL     1     -11.157  12.161  69.212  1.00  0.00    -0.226 OA 
HETATM   13  H   UNL     1     -10.924  11.316  66.150  1.00  0.00     0.000 HD 
BRANCH  11  14
HETATM   14  C   UNL     1     -10.821   9.819  67.709  1.00  0.00    -0.246 C  
HETATM   15  C   UNL     1     -10.070   8.851  66.798  1.00  0.00    -0.280 C  
HETATM   16  O   UNL     1      -9.822   7.690  67.093  1.00  0.00    -0.168 OA 
HETATM   17  O   UNL     1      -9.654   9.409  65.636  1.00  0.00    -0.258 OA 
ENDBRANCH  11  14
ENDBRANCH   7  10
TORSDOF 2
ENDMDL
MODEL      136
REMARK 921   NORMALIZED FREE ENERGY PREDICTED BY IDOCK:   -3.41 KCAL/MOL
REMARK 922        TOTAL FREE ENERGY PREDICTED BY IDOCK:   -4.02 KCAL/MOL
REMARK 923 INTER-LIGAND FREE ENERGY PREDICTED BY IDOCK:   -3.82 KCAL/MOL
REMARK 924 INTRA-LIGAND FREE ENERGY PREDICTED BY IDOCK:   -0.20 KCAL/MOL
REMARK 927      BINDING AFFINITY PREDICTED BY RF-SCORE:    0.00 PKD
ROOT
HETATM    1  N   UNL     1     -11.066   7.230  73.101  1.00  0.00    -0.526 NA 
HETATM    2  H2  UNL     1     -10.348   6.634  73.512  1.00  0.00     0.000 HD 
HETATM    3  C   UNL     1     -10.803   7.358  71.734  1.00  0.00    -0.223 A  
HETATM    4  H1  UNL     1     -11.167   8.060  73.684  1.00  0.00     0.000 HD 
HETATM    5  C   UNL     1     -10.665   6.220  70.935  1.00  0.00    -0.314 A  
HETATM    6  C   UNL     1     -10.543   6.332  69.546  1.00  0.00    -0.331 A  
HETATM    7  C   UNL     1     -10.586   7.588  68.938  1.00  0.00    -0.184 A  
HETATM    8  C   UNL     1     -10.789   8.729  69.724  1.00  0.00    -0.196 A  
HETATM    9  C   UNL     1     -10.918   8.604  71.111  1.00  0.00    -0.320 A  
ENDROOT
BRANCH   7  10
HETATM   10  C   UNL     1     -10.486   7.671  67.457  1.00  0.00    -0.266 C  
HETATM   11  N   UNL     1      -9.695   8.685  66.952  1.00  0.00    -0.193 N  
HETATM   12  O   UNL     1     -11.080   6.876  66.742  1.00  0.00    -0.321 OA 
HETATM   13  H   UNL     1      -9.343   9.412  67.575  1.00  0.00     0.000 HD 
BRANCH  11  14
HETATM   14  C   UNL     1      -9.358   8.723  65.524  1.00  0.00    -0.095 C  
HETATM   15  C   UNL     1      -9.784  10.018  64.838  1.00  0.00    -0.307 C  
HETATM   16  O   UNL     1      -9.541  10.282  63.669  1.00  0.00    -0.292 OA 
HETATM   17  O   UNL     1     -10.425  10.884  65.660  1.00  0.00    -0.249 OA 
ENDBRANCH  11  14
ENDBRANCH   7  10
TORSDOF 2
ENDMDL
MODEL      137
REMARK 921   NORMALIZED FREE ENERGY PREDICTED BY IDOCK:   -3.38 KCAL/MOL
REMARK 922        TOTAL FREE ENERGY PREDICTED BY IDOCK:   -3.99 KCAL/MOL
REMARK 923 INTER-LIGAND FREE ENERGY PREDICTED BY IDOCK:   -3.80 KCAL/MOL
REMARK 924 INTRA-LIGAND FREE ENERGY PREDICTED BY IDOCK:   -0.19 KCAL/MOL
REMARK 927      BINDING AFFINITY PREDICTED BY RF-SCORE:    0.00 PKD
ROOT
HETATM    1  N   UNL     1      -8.959   8.347  72.800  1.00  0.00    -0.289 NA 
HETATM    2  H2  UNL     1      -9.646   7.641  73.063  1.00  0.00     0.000 HD 
HETATM    3  C   UNL     1      -9.322   8.875  71.558  1.00  0.00    -0.265 A  
HETATM    4  H1  UNL     1      -8.028   7.956  72.940  1.00  0.00     0.000 HD 
HETATM    5  C   UNL     1     -10.598   9.412  71.367  1.00  0.00    -0.381 A  
HETATM    6  C   UNL     1     -10.927  10.069  70.177  1.00  0.00    -0.368 A  
HETATM    7  C   UNL     1      -9.968  10.222  69.173  1.00  0.00    -0.235 A  
HETATM    8  C   UNL     1      -8.669   9.745  69.381  1.00  0.00    -0.178 A  
HETATM    9  C   UNL     1      -8.349   9.096  70.579  1.00  0.00    -0.222 A  
ENDROOT
BRANCH   7  10
HETATM   10  C   UNL     1     -10.341  10.953  67.934  1.00  0.00    -0.187 C  
HETATM   11  N   UNL     1     -10.057  12.305  67.912  1.00  0.00    -0.194 N  
HETATM   12  O   UNL     1     -10.871  10.372  66.997  1.00  0.00    -0.259 OA 
HETATM   13  H   UNL     1      -9.756  12.774  68.766  1.00  0.00     0.000 HD 
BRANCH  11  14
HETATM   14  C   UNL     1     -10.186  13.070  66.666  1.00  0.00    -0.257 C  
HETATM   15  C   UNL     1     -11.106  14.282  66.795  1.00  0.00    -0.314 C  
HETATM   16  O   UNL     1     -11.299  15.089  65.897  1.00  0.00    -0.338 OA 
HETATM   17  O   UNL     1     -11.663  14.414  68.022  1.00  0.00    -0.311 OA 
ENDBRANCH  11  14
ENDBRANCH   7  10
TORSDOF 2
ENDMDL
MODEL      138
REMARK 921   NORMALIZED FREE ENERGY PREDICTED BY IDOCK:   -3.38 KCAL/MOL
REMARK 922        TOTAL FREE ENERGY PREDICTED BY IDOCK:   -3.99 KCAL/MOL
REMARK 923 INTER-LIGAND FREE ENERGY PREDICTED BY IDOCK:   -3.78 KCAL/MOL
REMARK 924 INTRA-LIGAND FREE ENERGY PREDICTED BY IDOCK:   -0.21 KCAL/MOL
REMARK 927      BINDING AFFINITY PREDICTED BY RF-SCORE:    0.00 PKD
ROOT
HETATM    1  N   UNL     1     -13.496  11.617  72.221  1.00  0.00    -0.536 NA 
HETATM    2  H2  UNL     1     -14.240  12.079  71.698  1.00  0.00     0.000 HD 
HETATM    3  C   UNL     1     -12.753  10.836  71.331  1.00  0.00    -0.439 A  
HETATM    4  H1  UNL     1     -13.904  11.197  73.056  1.00  0.00     0.000 HD 
HETATM    5  C   UNL     1     -12.194  11.411  70.187  1.00  0.00    -0.401 A  
HETATM    6  C   UNL     1     -11.333  10.677  69.364  1.00  0.00    -0.348 A  
HETATM    7  C   UNL     1     -10.999   9.362  69.697  1.00  0.00    -0.216 A  
HETATM    8  C   UNL     1     -11.502   8.799  70.875  1.00  0.00    -0.330 A  
HETATM    9  C   UNL     1     -12.356   9.545  71.694  1.00  0.00    -0.480 A  
ENDROOT
BRANCH   7  10
HETATM   10  C   UNL     1     -10.056   8.620  68.819  1.00  0.00    -0.196 C  
HETATM   11  N   UNL     1     -10.508   7.418  68.312  1.00  0.00    -0.235 N  
HETATM   12  O   UNL     1      -8.944   9.066  68.574  1.00  0.00    -0.133 OA 
HETATM   13  H   UNL     1     -11.378   7.014  68.663  1.00  0.00     0.000 HD 
BRANCH  11  14
HETATM   14  C   UNL     1      -9.746   6.716  67.273  1.00  0.00    -0.134 C  
HETATM   15  C   UNL     1      -9.157   5.390  67.748  1.00  0.00    -0.108 C  
HETATM   16  O   UNL     1      -8.544   4.619  67.023  1.00  0.00    -0.105 OA 
HETATM   17  O   UNL     1      -9.414   5.116  69.049  1.00  0.00    -0.117 OA 
ENDBRANCH  11  14
ENDBRANCH   7  10
TORSDOF 2
ENDMDL
MODEL      139
REMARK 921   NORMALIZED FREE ENERGY PREDICTED BY IDOCK:   -3.37 KCAL/MOL
REMARK 922        TOTAL FREE ENERGY PREDICTED BY IDOCK:   -3.98 KCAL/MOL
REMARK 923 INTER-LIGAND FREE ENERGY PREDICTED BY IDOCK:   -3.77 KCAL/MOL
REMARK 924 INTRA-LIGAND FREE ENERGY PREDICTED BY IDOCK:   -0.21 KCAL/MOL
REMARK 927      BINDING AFFINITY PREDICTED BY RF-SCORE:    0.00 PKD
ROOT
HETATM    1  N   UNL     1      -6.984   9.144  70.355  1.00  0.00    -0.060 NA 
HETATM    2  H2  UNL     1      -7.343   8.212  70.148  1.00  0.00     0.000 HD 
HETATM    3  C   UNL     1      -7.471  10.028  69.388  1.00  0.00    -0.113 A  
HETATM    4  H1  UNL     1      -5.981   9.070  70.525  1.00  0.00     0.000 HD 
HETATM    5  C   UNL     1      -8.845  10.128  69.155  1.00  0.00    -0.179 A  
HETATM    6  C   UNL     1      -9.356  11.106  68.294  1.00  0.00    -0.176 A  
HETATM    7  C   UNL     1      -8.494  12.015  67.678  1.00  0.00    -0.160 A  
HETATM    8  C   UNL     1      -7.123  11.964  67.956  1.00  0.00    -0.084 A  
HETATM    9  C   UNL     1      -6.624  10.987  68.824  1.00  0.00    -0.061 A  
ENDROOT
BRANCH   7  10
HETATM   10  C   UNL     1      -9.071  13.062  66.794  1.00  0.00    -0.210 C  
HETATM   11  N   UNL     1      -9.631  12.624  65.610  1.00  0.00    -0.448 N  
HETATM   12  O   UNL     1      -9.039  14.242  67.115  1.00  0.00    -0.207 OA 
HETATM   13  H   UNL     1      -9.501  11.656  65.315  1.00  0.00     0.000 HD 
BRANCH  11  14
HETATM   14  C   UNL     1     -10.413  13.542  64.774  1.00  0.00    -0.413 C  
HETATM   15  C   UNL     1     -11.921  13.371  64.937  1.00  0.00    -0.378 C  
HETATM   16  O   UNL     1     -12.751  14.078  64.383  1.00  0.00    -0.663 OA 
HETATM   17  O   UNL     1     -12.266  12.382  65.796  1.00  0.00    -0.620 OA 
ENDBRANCH  11  14
ENDBRANCH   7  10
TORSDOF 2
ENDMDL
MODEL      140
REMARK 921   NORMALIZED FREE ENERGY PREDICTED BY IDOCK:   -3.36 KCAL/MOL
REMARK 922        TOTAL FREE ENERGY PREDICTED BY IDOCK:   -3.97 KCAL/MOL
REMARK 923 INTER-LIGAND FREE ENERGY PREDICTED BY IDOCK:   -3.81 KCAL/MOL
REMARK 924 INTRA-LIGAND FREE ENERGY PREDICTED BY IDOCK:   -0.16 KCAL/MOL
REMARK 927      BINDING AFFINITY PREDICTED BY RF-SCORE:    0.00 PKD
ROOT
HETATM    1  N   UNL     1     -12.984  11.480  70.889  1.00  0.00    -0.177 NA 
HETATM    2  H2  UNL     1     -13.531  11.956  71.606  1.00  0.00     0.000 HD 
HETATM    3  C   UNL     1     -12.447  10.316  71.446  1.00  0.00    -0.424 A  
HETATM    4  H1  UNL     1     -12.374  12.165  70.444  1.00  0.00     0.000 HD 
HETATM    5  C   UNL     1     -13.282   9.377  72.057  1.00  0.00    -0.529 A  
HETATM    6  C   UNL     1     -12.779   8.146  72.491  1.00  0.00    -0.159 A  
HETATM    7  C   UNL     1     -11.433   7.830  72.291  1.00  0.00    -0.384 A  
HETATM    8  C   UNL     1     -10.603   8.737  71.623  1.00  0.00    -0.401 A  
HETATM    9  C   UNL     1     -11.119   9.961  71.185  1.00  0.00    -0.359 A  
ENDROOT
BRANCH   7  10
HETATM   10  C   UNL     1     -10.937   6.501  72.736  1.00  0.00    -0.253 C  
HETATM   11  N   UNL     1     -10.810   5.536  71.756  1.00  0.00    -0.235 N  
HETATM   12  O   UNL     1     -10.665   6.293  73.910  1.00  0.00    -0.249 OA 
HETATM   13  H   UNL     1     -11.189   5.705  70.824  1.00  0.00     0.000 HD 
BRANCH  11  14
HETATM   14  C   UNL     1     -10.131   4.267  72.047  1.00  0.00    -0.174 C  
HETATM   15  C   UNL     1      -9.602   3.566  70.798  1.00  0.00    -0.176 C  
HETATM   16  O   UNL     1      -8.950   2.532  70.822  1.00  0.00    -0.076 OA 
HETATM   17  O   UNL     1      -9.883   4.221  69.646  1.00  0.00    -0.213 OA 
ENDBRANCH  11  14
ENDBRANCH   7  10
TORSDOF 2
ENDMDL
MODEL      141
REMARK 921   NORMALIZED FREE ENERGY PREDICTED BY IDOCK:   -3.36 KCAL/MOL
REMARK 922        TOTAL FREE ENERGY PREDICTED BY IDOCK:   -3.96 KCAL/MOL
REMARK 923 INTER-LIGAND FREE ENERGY PREDICTED BY IDOCK:   -3.78 KCAL/MOL
REMARK 924 INTRA-LIGAND FREE ENERGY PREDICTED BY IDOCK:   -0.18 KCAL/MOL
REMARK 927      BINDING AFFINITY PREDICTED BY RF-SCORE:    0.00 PKD
ROOT
HETATM    1  N   UNL     1      -9.499   3.773  70.438  1.00  0.00    -0.170 NA 
HETATM    2  H2  UNL     1      -8.964   3.544  71.276  1.00  0.00     0.000 HD 
HETATM    3  C   UNL     1      -9.669   5.159  70.388  1.00  0.00    -0.202 A  
HETATM    4  H1  UNL     1     -10.308   3.154  70.394  1.00  0.00     0.000 HD 
HETATM    5  C   UNL     1      -8.560   6.007  70.448  1.00  0.00    -0.133 A  
HETATM    6  C   UNL     1      -8.702   7.386  70.258  1.00  0.00    -0.146 A  
HETATM    7  C   UNL     1      -9.958   7.928  69.977  1.00  0.00    -0.191 A  
HETATM    8  C   UNL     1     -11.064   7.079  69.851  1.00  0.00    -0.301 A  
HETATM    9  C   UNL     1     -10.909   5.701  70.035  1.00  0.00    -0.366 A  
ENDROOT
BRANCH   7  10
HETATM   10  C   UNL     1     -10.070   9.393  69.749  1.00  0.00    -0.211 C  
HETATM   11  N   UNL     1     -11.350   9.897  69.623  1.00  0.00    -0.387 N  
HETATM   12  O   UNL     1      -9.071  10.095  69.677  1.00  0.00    -0.206 OA 
HETATM   13  H   UNL     1     -12.141   9.258  69.538  1.00  0.00     0.000 HD 
BRANCH  11  14
HETATM   14  C   UNL     1     -11.579  11.346  69.611  1.00  0.00    -0.330 C  
HETATM   15  C   UNL     1     -11.694  11.927  68.204  1.00  0.00    -0.320 C  
HETATM   16  O   UNL     1     -11.950  13.100  67.969  1.00  0.00    -0.351 OA 
HETATM   17  O   UNL     1     -11.531  11.009  67.221  1.00  0.00    -0.470 OA 
ENDBRANCH  11  14
ENDBRANCH   7  10
TORSDOF 2
ENDMDL
MODEL      142
REMARK 921   NORMALIZED FREE ENERGY PREDICTED BY IDOCK:   -3.35 KCAL/MOL
REMARK 922        TOTAL FREE ENERGY PREDICTED BY IDOCK:   -3.96 KCAL/MOL
REMARK 923 INTER-LIGAND FREE ENERGY PREDICTED BY IDOCK:   -3.75 KCAL/MOL
REMARK 924 INTRA-LIGAND FREE ENERGY PREDICTED BY IDOCK:   -0.21 KCAL/MOL
REMARK 927      BINDING AFFINITY PREDICTED BY RF-SCORE:    0.00 PKD
ROOT
HETATM    1  N   UNL     1      -6.496   7.764  74.389  1.00  0.00    -0.094 NA 
HETATM    2  H2  UNL     1      -6.608   6.845  74.818  1.00  0.00     0.000 HD 
HETATM    3  C   UNL     1      -7.521   7.942  73.455  1.00  0.00    -0.139 A  
HETATM    4  H1  UNL     1      -5.521   7.871  74.110  1.00  0.00     0.000 HD 
HETATM    5  C   UNL     1      -8.856   7.795  73.839  1.00  0.00    -0.329 A  
HETATM    6  C   UNL     1      -9.894   8.107  72.953  1.00  0.00    -0.339 A  
HETATM    7  C   UNL     1      -9.602   8.599  71.679  1.00  0.00    -0.344 A  
HETATM    8  C   UNL     1      -8.269   8.811  71.309  1.00  0.00    -0.212 A  
HETATM    9  C   UNL     1      -7.240   8.502  72.205  1.00  0.00    -0.089 A  
ENDROOT
BRANCH   7  10
HETATM   10  C   UNL     1     -10.728   8.952  70.774  1.00  0.00    -0.233 C  
HETATM   11  N   UNL     1     -10.987  10.299  70.616  1.00  0.00    -0.393 N  
HETATM   12  O   UNL     1     -11.377   8.081  70.212  1.00  0.00    -0.243 OA 
HETATM   13  H   UNL     1     -10.523  10.979  71.217  1.00  0.00     0.000 HD 
BRANCH  11  14
HETATM   14  C   UNL     1     -11.928  10.758  69.587  1.00  0.00    -0.313 C  
HETATM   15  C   UNL     1     -11.249  11.487  68.430  1.00  0.00    -0.255 C  
HETATM   16  O   UNL     1     -11.840  11.891  67.439  1.00  0.00    -0.571 OA 
HETATM   17  O   UNL     1      -9.908  11.608  68.576  1.00  0.00    -0.197 OA 
ENDBRANCH  11  14
ENDBRANCH   7  10
TORSDOF 2
ENDMDL
MODEL      143
REMARK 921   NORMALIZED FREE ENERGY PREDICTED BY IDOCK:   -3.34 KCAL/MOL
REMARK 922        TOTAL FREE ENERGY PREDICTED BY IDOCK:   -3.94 KCAL/MOL
REMARK 923 INTER-LIGAND FREE ENERGY PREDICTED BY IDOCK:   -3.72 KCAL/MOL
REMARK 924 INTRA-LIGAND FREE ENERGY PREDICTED BY IDOCK:   -0.22 KCAL/MOL
REMARK 927      BINDING AFFINITY PREDICTED BY RF-SCORE:    0.00 PKD
ROOT
HETATM    1  N   UNL     1     -10.658   4.975  71.989  1.00  0.00    -0.203 NA 
HETATM    2  H2  UNL     1     -10.157   4.117  71.759  1.00  0.00     0.000 HD 
HETATM    3  C   UNL     1     -10.448   5.898  70.961  1.00  0.00    -0.237 A  
HETATM    4  H1  UNL     1     -10.442   5.223  72.955  1.00  0.00     0.000 HD 
HETATM    5  C   UNL     1     -10.743   5.558  69.638  1.00  0.00    -0.349 A  
HETATM    6  C   UNL     1     -10.672   6.515  68.620  1.00  0.00    -0.323 A  
HETATM    7  C   UNL     1     -10.330   7.834  68.922  1.00  0.00    -0.224 A  
HETATM    8  C   UNL     1     -10.095   8.199  70.253  1.00  0.00    -0.192 A  
HETATM    9  C   UNL     1     -10.177   7.236  71.264  1.00  0.00    -0.198 A  
ENDROOT
BRANCH   7  10
HETATM   10  C   UNL     1     -10.294   8.834  67.823  1.00  0.00    -0.237 C  
HETATM   11  N   UNL     1     -10.157  10.156  68.200  1.00  0.00    -0.148 N  
HETATM   12  O   UNL     1     -10.385   8.485  66.654  1.00  0.00    -0.298 OA 
HETATM   13  H   UNL     1     -10.238  10.413  69.184  1.00  0.00     0.000 HD 
BRANCH  11  14
HETATM   14  C   UNL     1      -9.897  11.192  67.194  1.00  0.00    -0.187 C  
HETATM   15  C   UNL     1     -11.112  12.070  66.905  1.00  0.00    -0.302 C  
HETATM   16  O   UNL     1     -11.093  13.032  66.150  1.00  0.00    -0.280 OA 
HETATM   17  O   UNL     1     -12.218  11.716  67.602  1.00  0.00    -0.544 OA 
ENDBRANCH  11  14
ENDBRANCH   7  10
TORSDOF 2
ENDMDL
MODEL      144
REMARK 921   NORMALIZED FREE ENERGY PREDICTED BY IDOCK:   -3.33 KCAL/MOL
REMARK 922        TOTAL FREE ENERGY PREDICTED BY IDOCK:   -3.94 KCAL/MOL
REMARK 923 INTER-LIGAND FREE ENERGY PREDICTED BY IDOCK:   -3.75 KCAL/MOL
REMARK 924 INTRA-LIGAND FREE ENERGY PREDICTED BY IDOCK:   -0.19 KCAL/MOL
REMARK 927      BINDING AFFINITY PREDICTED BY RF-SCORE:    0.00 PKD
ROOT
HETATM    1  N   UNL     1      -6.828   8.643  68.041  1.00  0.00    -0.069 NA 
HETATM    2  H2  UNL     1      -6.975   8.605  69.050  1.00  0.00     0.000 HD 
HETATM    3  C   UNL     1      -7.911   9.310  67.463  1.00  0.00    -0.099 A  
HETATM    4  H1  UNL     1      -6.567   7.711  67.720  1.00  0.00     0.000 HD 
HETATM    5  C   UNL     1      -8.269  10.586  67.904  1.00  0.00    -0.107 A  
HETATM    6  C   UNL     1      -9.259  11.321  67.242  1.00  0.00    -0.170 A  
HETATM    7  C   UNL     1      -9.883  10.793  66.110  1.00  0.00    -0.269 A  
HETATM    8  C   UNL     1      -9.486   9.543  65.622  1.00  0.00    -0.326 A  
HETATM    9  C   UNL     1      -8.490   8.820  66.288  1.00  0.00    -0.130 A  
ENDROOT
BRANCH   7  10
HETATM   10  C   UNL     1     -10.908  11.613  65.411  1.00  0.00    -0.280 C  
HETATM   11  N   UNL     1     -11.421  12.684  66.116  1.00  0.00    -0.343 N  
HETATM   12  O   UNL     1     -11.265  11.335  64.275  1.00  0.00    -0.299 OA 
HETATM   13  H   UNL     1     -11.207  12.787  67.108  1.00  0.00     0.000 HD 
BRANCH  11  14
HETATM   14  C   UNL     1     -12.271  13.675  65.446  1.00  0.00    -0.444 C  
HETATM   15  C   UNL     1     -11.497  14.885  64.930  1.00  0.00    -0.407 C  
HETATM   16  O   UNL     1     -12.002  15.793  64.286  1.00  0.00    -0.450 OA 
HETATM   17  O   UNL     1     -10.173  14.843  65.212  1.00  0.00    -0.353 OA 
ENDBRANCH  11  14
ENDBRANCH   7  10
TORSDOF 2
ENDMDL
MODEL      145
REMARK 921   NORMALIZED FREE ENERGY PREDICTED BY IDOCK:   -3.28 KCAL/MOL
REMARK 922        TOTAL FREE ENERGY PREDICTED BY IDOCK:   -3.88 KCAL/MOL
REMARK 923 INTER-LIGAND FREE ENERGY PREDICTED BY IDOCK:   -3.69 KCAL/MOL
REMARK 924 INTRA-LIGAND FREE ENERGY PREDICTED BY IDOCK:   -0.20 KCAL/MOL
REMARK 927      BINDING AFFINITY PREDICTED BY RF-SCORE:    0.00 PKD
ROOT
HETATM    1  N   UNL     1     -10.574   4.174  64.885  1.00  0.00    -0.571 NA 
HETATM    2  H2  UNL     1     -10.378   4.873  64.168  1.00  0.00     0.000 HD 
HETATM    3  C   UNL     1     -10.337   4.749  66.137  1.00  0.00    -0.300 A  
HETATM    4  H1  UNL     1     -10.109   3.306  64.622  1.00  0.00     0.000 HD 
HETATM    5  C   UNL     1     -10.974   5.939  66.497  1.00  0.00    -0.142 A  
HETATM    6  C   UNL     1     -10.857   6.450  67.794  1.00  0.00    -0.418 A  
HETATM    7  C   UNL     1     -10.120   5.756  68.756  1.00  0.00    -0.231 A  
HETATM    8  C   UNL     1      -9.531   4.531  68.423  1.00  0.00    -0.209 A  
HETATM    9  C   UNL     1      -9.662   4.025  67.125  1.00  0.00    -0.207 A  
ENDROOT
BRANCH   7  10
HETATM   10  C   UNL     1     -10.041   6.309  70.133  1.00  0.00    -0.179 C  
HETATM   11  N   UNL     1     -11.094   6.008  70.975  1.00  0.00    -0.294 N  
HETATM   12  O   UNL     1      -9.089   6.994  70.481  1.00  0.00    -0.154 OA 
HETATM   13  H   UNL     1     -11.933   5.565  70.600  1.00  0.00     0.000 HD 
BRANCH  11  14
HETATM   14  C   UNL     1     -11.012   6.321  72.407  1.00  0.00    -0.254 C  
HETATM   15  C   UNL     1     -10.735   5.098  73.277  1.00  0.00    -0.266 C  
HETATM   16  O   UNL     1     -10.564   5.148  74.487  1.00  0.00    -0.315 OA 
HETATM   17  O   UNL     1     -10.646   3.942  72.578  1.00  0.00    -0.147 OA 
ENDBRANCH  11  14
ENDBRANCH   7  10
TORSDOF 2
ENDMDL
MODEL      146
REMARK 921   NORMALIZED FREE ENERGY PREDICTED BY IDOCK:   -3.27 KCAL/MOL
REMARK 922        TOTAL FREE ENERGY PREDICTED BY IDOCK:   -3.87 KCAL/MOL
REMARK 923 INTER-LIGAND FREE ENERGY PREDICTED BY IDOCK:   -3.70 KCAL/MOL
REMARK 924 INTRA-LIGAND FREE ENERGY PREDICTED BY IDOCK:   -0.17 KCAL/MOL
REMARK 927      BINDING AFFINITY PREDICTED BY RF-SCORE:    0.00 PKD
ROOT
HETATM    1  N   UNL     1     -10.430  19.125  66.464  1.00  0.00    -0.424 NA 
HETATM    2  H2  UNL     1      -9.554  19.633  66.584  1.00  0.00     0.000 HD 
HETATM    3  C   UNL     1     -10.141  17.760  66.385  1.00  0.00    -0.357 A  
HETATM    4  H1  UNL     1     -10.967  19.580  65.726  1.00  0.00     0.000 HD 
HETATM    5  C   UNL     1      -9.405  17.136  67.396  1.00  0.00    -0.234 A  
HETATM    6  C   UNL     1      -9.229  15.748  67.401  1.00  0.00    -0.208 A  
HETATM    7  C   UNL     1      -9.815  14.964  66.405  1.00  0.00    -0.292 A  
HETATM    8  C   UNL     1     -10.607  15.573  65.424  1.00  0.00    -0.428 A  
HETATM    9  C   UNL     1     -10.783  16.961  65.433  1.00  0.00    -0.161 A  
ENDROOT
BRANCH   7  10
HETATM   10  C   UNL     1      -9.635  13.490  66.457  1.00  0.00    -0.277 C  
HETATM   11  N   UNL     1      -8.339  13.035  66.606  1.00  0.00    -0.416 N  
HETATM   12  O   UNL     1     -10.595  12.737  66.368  1.00  0.00    -0.252 OA 
HETATM   13  H   UNL     1      -7.560  13.688  66.524  1.00  0.00     0.000 HD 
BRANCH  11  14
HETATM   14  C   UNL     1      -8.077  11.618  66.882  1.00  0.00    -0.164 C  
HETATM   15  C   UNL     1      -6.591  11.296  67.022  1.00  0.00    -0.116 C  
HETATM   16  O   UNL     1      -6.159  10.190  67.317  1.00  0.00    -0.056 OA 
HETATM   17  O   UNL     1      -5.783  12.365  66.833  1.00  0.00    -0.314 OA 
ENDBRANCH  11  14
ENDBRANCH   7  10
TORSDOF 2
ENDMDL
MODEL      147
REMARK 921   NORMALIZED FREE ENERGY PREDICTED BY IDOCK:   -3.26 KCAL/MOL
REMARK 922        TOTAL FREE ENERGY PREDICTED BY IDOCK:   -3.86 KCAL/MOL
REMARK 923 INTER-LIGAND FREE ENERGY PREDICTED BY IDOCK:   -3.67 KCAL/MOL
REMARK 924 INTRA-LIGAND FREE ENERGY PREDICTED BY IDOCK:   -0.19 KCAL/MOL
REMARK 927      BINDING AFFINITY PREDICTED BY RF-SCORE:    0.00 PKD
ROOT
HETATM    1  N   UNL     1      -7.108   9.409  63.237  1.00  0.00    -0.094 NA 
HETATM    2  H2  UNL     1      -7.267   9.796  62.307  1.00  0.00     0.000 HD 
HETATM    3  C   UNL     1      -7.922  10.094  64.143  1.00  0.00    -0.154 A  
HETATM    4  H1  UNL     1      -6.102   9.351  63.393  1.00  0.00     0.000 HD 
HETATM    5  C   UNL     1      -9.301  10.174  63.930  1.00  0.00    -0.336 A  
HETATM    6  C   UNL     1     -10.144  10.732  64.897  1.00  0.00    -0.387 A  
HETATM    7  C   UNL     1      -9.615  11.192  66.105  1.00  0.00    -0.239 A  
HETATM    8  C   UNL     1      -8.245  11.057  66.355  1.00  0.00    -0.166 A  
HETATM    9  C   UNL     1      -7.412  10.490  65.384  1.00  0.00    -0.089 A  
ENDROOT
BRANCH   7  10
HETATM   10  C   UNL     1     -10.542  11.750  67.125  1.00  0.00    -0.231 C  
HETATM   11  N   UNL     1     -10.178  12.958  67.688  1.00  0.00    -0.217 N  
HETATM   12  O   UNL     1     -11.564  11.155  67.436  1.00  0.00    -0.522 OA 
HETATM   13  H   UNL     1      -9.248  13.340  67.511  1.00  0.00     0.000 HD 
BRANCH  11  14
HETATM   14  C   UNL     1     -11.119  13.694  68.539  1.00  0.00    -0.275 C  
HETATM   15  C   UNL     1     -11.239  15.170  68.169  1.00  0.00    -0.320 C  
HETATM   16  O   UNL     1     -12.015  15.947  68.707  1.00  0.00    -0.368 OA 
HETATM   17  O   UNL     1     -10.432  15.542  67.147  1.00  0.00    -0.275 OA 
ENDBRANCH  11  14
ENDBRANCH   7  10
TORSDOF 2
ENDMDL
MODEL      148
REMARK 921   NORMALIZED FREE ENERGY PREDICTED BY IDOCK:   -3.23 KCAL/MOL
REMARK 922        TOTAL FREE ENERGY PREDICTED BY IDOCK:   -3.82 KCAL/MOL
REMARK 923 INTER-LIGAND FREE ENERGY PREDICTED BY IDOCK:   -3.65 KCAL/MOL
REMARK 924 INTRA-LIGAND FREE ENERGY PREDICTED BY IDOCK:   -0.17 KCAL/MOL
REMARK 927      BINDING AFFINITY PREDICTED BY RF-SCORE:    0.00 PKD
ROOT
HETATM    1  N   UNL     1     -12.050   7.051  72.449  1.00  0.00    -0.494 NA 
HETATM    2  H2  UNL     1     -13.045   7.116  72.234  1.00  0.00     0.000 HD 
HETATM    3  C   UNL     1     -11.430   6.301  71.445  1.00  0.00    -0.293 A  
HETATM    4  H1  UNL     1     -11.949   6.783  73.427  1.00  0.00     0.000 HD 
HETATM    5  C   UNL     1     -11.568   6.669  70.104  1.00  0.00    -0.446 A  
HETATM    6  C   UNL     1     -10.842   6.013  69.104  1.00  0.00    -0.422 A  
HETATM    7  C   UNL     1      -9.945   4.998  69.441  1.00  0.00    -0.290 A  
HETATM    8  C   UNL     1      -9.752   4.666  70.787  1.00  0.00    -0.269 A  
HETATM    9  C   UNL     1     -10.478   5.333  71.780  1.00  0.00    -0.278 A  
ENDROOT
BRANCH   7  10
HETATM   10  C   UNL     1      -9.165   4.343  68.358  1.00  0.00    -0.137 C  
HETATM   11  N   UNL     1      -9.856   4.047  67.199  1.00  0.00    -0.238 N  
HETATM   12  O   UNL     1      -7.978   4.087  68.506  1.00  0.00    -0.072 OA 
HETATM   13  H   UNL     1     -10.872   4.138  67.177  1.00  0.00     0.000 HD 
BRANCH  11  14
HETATM   14  C   UNL     1      -9.137   3.600  66.000  1.00  0.00    -0.155 C  
HETATM   15  C   UNL     1      -9.970   3.704  64.724  1.00  0.00    -0.160 C  
HETATM   16  O   UNL     1      -9.541   3.447  63.608  1.00  0.00    -0.114 OA 
HETATM   17  O   UNL     1     -11.229   4.156  64.932  1.00  0.00    -0.281 OA 
ENDBRANCH  11  14
ENDBRANCH   7  10
TORSDOF 2
ENDMDL
MODEL      149
REMARK 921   NORMALIZED FREE ENERGY PREDICTED BY IDOCK:   -3.22 KCAL/MOL
REMARK 922        TOTAL FREE ENERGY PREDICTED BY IDOCK:   -3.81 KCAL/MOL
REMARK 923 INTER-LIGAND FREE ENERGY PREDICTED BY IDOCK:   -3.60 KCAL/MOL
REMARK 924 INTRA-LIGAND FREE ENERGY PREDICTED BY IDOCK:   -0.22 KCAL/MOL
REMARK 927      BINDING AFFINITY PREDICTED BY RF-SCORE:    0.00 PKD
ROOT
HETATM    1  N   UNL     1     -10.596  19.120  66.631  1.00  0.00    -0.428 NA 
HETATM    2  H2  UNL     1      -9.803  19.742  66.476  1.00  0.00     0.000 HD 
HETATM    3  C   UNL     1     -10.137  17.800  66.582  1.00  0.00    -0.350 A  
HETATM    4  H1  UNL     1     -11.361  19.420  66.028  1.00  0.00     0.000 HD 
HETATM    5  C   UNL     1      -9.088  17.389  67.409  1.00  0.00    -0.236 A  
HETATM    6  C   UNL     1      -8.713  16.043  67.473  1.00  0.00    -0.193 A  
HETATM    7  C   UNL     1      -9.407  15.086  66.728  1.00  0.00    -0.271 A  
HETATM    8  C   UNL     1     -10.500  15.479  65.947  1.00  0.00    -0.356 A  
HETATM    9  C   UNL     1     -10.871  16.827  65.897  1.00  0.00    -0.053 A  
ENDROOT
BRANCH   7  10
HETATM   10  C   UNL     1      -9.004  13.660  66.843  1.00  0.00    -0.218 C  
HETATM   11  N   UNL     1      -9.626  12.777  65.982  1.00  0.00    -0.389 N  
HETATM   12  O   UNL     1      -8.168  13.308  67.663  1.00  0.00    -0.153 OA 
HETATM   13  H   UNL     1     -10.421  13.087  65.423  1.00  0.00     0.000 HD 
BRANCH  11  14
HETATM   14  C   UNL     1      -9.150  11.393  65.866  1.00  0.00    -0.198 C  
HETATM   15  C   UNL     1     -10.217  10.357  66.208  1.00  0.00    -0.222 C  
HETATM   16  O   UNL     1     -10.050   9.149  66.112  1.00  0.00    -0.290 OA 
HETATM   17  O   UNL     1     -11.399  10.899  66.587  1.00  0.00    -0.238 OA 
ENDBRANCH  11  14
ENDBRANCH   7  10
TORSDOF 2
ENDMDL
MODEL      150
REMARK 921   NORMALIZED FREE ENERGY PREDICTED BY IDOCK:   -3.16 KCAL/MOL
REMARK 922        TOTAL FREE ENERGY PREDICTED BY IDOCK:   -3.74 KCAL/MOL
REMARK 923 INTER-LIGAND FREE ENERGY PREDICTED BY IDOCK:   -3.58 KCAL/MOL
REMARK 924 INTRA-LIGAND FREE ENERGY PREDICTED BY IDOCK:   -0.16 KCAL/MOL
REMARK 927      BINDING AFFINITY PREDICTED BY RF-SCORE:    0.00 PKD
ROOT
HETATM    1  N   UNL     1     -12.563  13.294  66.567  1.00  0.00    -0.244 NA 
HETATM    2  H2  UNL     1     -12.417  12.318  66.308  1.00  0.00     0.000 HD 
HETATM    3  C   UNL     1     -11.393  13.773  67.161  1.00  0.00    -0.324 A  
HETATM    4  H1  UNL     1     -13.455  13.366  67.057  1.00  0.00     0.000 HD 
HETATM    5  C   UNL     1     -10.171  13.675  66.490  1.00  0.00    -0.284 A  
HETATM    6  C   UNL     1      -9.019  14.275  67.009  1.00  0.00    -0.251 A  
HETATM    7  C   UNL     1      -9.084  15.006  68.196  1.00  0.00    -0.178 A  
HETATM    8  C   UNL     1     -10.316  15.165  68.843  1.00  0.00    -0.243 A  
HETATM    9  C   UNL     1     -11.463  14.567  68.310  1.00  0.00    -0.336 A  
ENDROOT
BRANCH   7  10
HETATM   10  C   UNL     1      -7.849  15.658  68.704  1.00  0.00    -0.152 C  
HETATM   11  N   UNL     1      -7.796  17.035  68.604  1.00  0.00    -0.247 N  
HETATM   12  O   UNL     1      -6.938  14.993  69.180  1.00  0.00    -0.116 OA 
HETATM   13  H   UNL     1      -8.507  17.531  68.066  1.00  0.00     0.000 HD 
BRANCH  11  14
HETATM   14  C   UNL     1      -6.724  17.787  69.265  1.00  0.00    -0.218 C  
HETATM   15  C   UNL     1      -6.952  19.297  69.254  1.00  0.00    -0.314 C  
HETATM   16  O   UNL     1      -6.214  20.101  69.807  1.00  0.00    -0.329 OA 
HETATM   17  O   UNL     1      -8.082  19.672  68.609  1.00  0.00    -0.342 OA 
ENDBRANCH  11  14
ENDBRANCH   7  10
TORSDOF 2
ENDMDL
MODEL      151
REMARK 921   NORMALIZED FREE ENERGY PREDICTED BY IDOCK:   -3.13 KCAL/MOL
REMARK 922        TOTAL FREE ENERGY PREDICTED BY IDOCK:   -3.71 KCAL/MOL
REMARK 923 INTER-LIGAND FREE ENERGY PREDICTED BY IDOCK:   -3.51 KCAL/MOL
REMARK 924 INTRA-LIGAND FREE ENERGY PREDICTED BY IDOCK:   -0.20 KCAL/MOL
REMARK 927      BINDING AFFINITY PREDICTED BY RF-SCORE:    0.00 PKD
ROOT
HETATM    1  N   UNL     1     -13.506   9.177  73.057  1.00  0.00    -0.887 NA 
HETATM    2  H2  UNL     1     -14.304   8.684  73.458  1.00  0.00     0.000 HD 
HETATM    3  C   UNL     1     -12.708   8.248  72.383  1.00  0.00    -0.242 A  
HETATM    4  H1  UNL     1     -13.102   9.773  73.779  1.00  0.00     0.000 HD 
HETATM    5  C   UNL     1     -13.262   7.431  71.394  1.00  0.00    -0.395 A  
HETATM    6  C   UNL     1     -12.450   6.599  70.616  1.00  0.00    -0.049 A  
HETATM    7  C   UNL     1     -11.066   6.598  70.802  1.00  0.00    -0.336 A  
HETATM    8  C   UNL     1     -10.496   7.460  71.745  1.00  0.00    -0.221 A  
HETATM    9  C   UNL     1     -11.316   8.294  72.513  1.00  0.00    -0.455 A  
ENDROOT
BRANCH   7  10
HETATM   10  C   UNL     1     -10.229   5.726  69.937  1.00  0.00    -0.236 C  
HETATM   11  N   UNL     1      -9.803   6.275  68.743  1.00  0.00    -0.134 N  
HETATM   12  O   UNL     1      -9.945   4.587  70.281  1.00  0.00    -0.226 OA 
HETATM   13  H   UNL     1     -10.186   7.167  68.430  1.00  0.00     0.000 HD 
BRANCH  11  14
HETATM   14  C   UNL     1      -8.803   5.582  67.922  1.00  0.00    -0.105 C  
HETATM   15  C   UNL     1      -7.441   6.272  67.921  1.00  0.00    -0.093 C  
HETATM   16  O   UNL     1      -6.452   5.826  67.356  1.00  0.00    -0.040 OA 
HETATM   17  O   UNL     1      -7.409   7.414  68.648  1.00  0.00    -0.090 OA 
ENDBRANCH  11  14
ENDBRANCH   7  10
TORSDOF 2
ENDMDL
MODEL      152
REMARK 921   NORMALIZED FREE ENERGY PREDICTED BY IDOCK:   -3.11 KCAL/MOL
REMARK 922        TOTAL FREE ENERGY PREDICTED BY IDOCK:   -3.68 KCAL/MOL
REMARK 923 INTER-LIGAND FREE ENERGY PREDICTED BY IDOCK:   -3.53 KCAL/MOL
REMARK 924 INTRA-LIGAND FREE ENERGY PREDICTED BY IDOCK:   -0.16 KCAL/MOL
REMARK 927      BINDING AFFINITY PREDICTED BY RF-SCORE:    0.00 PKD
ROOT
HETATM    1  N   UNL     1      -9.412   6.348  66.027  1.00  0.00    -0.365 NA 
HETATM    2  H2  UNL     1      -8.424   6.362  65.772  1.00  0.00     0.000 HD 
HETATM    3  C   UNL     1      -9.719   7.555  66.663  1.00  0.00    -0.203 A  
HETATM    4  H1  UNL     1      -9.613   5.460  66.486  1.00  0.00     0.000 HD 
HETATM    5  C   UNL     1      -9.443   8.772  66.034  1.00  0.00    -0.302 A  
HETATM    6  C   UNL     1      -9.871   9.980  66.594  1.00  0.00    -0.259 A  
HETATM    7  C   UNL     1     -10.609   9.980  67.780  1.00  0.00    -0.311 A  
HETATM    8  C   UNL     1     -10.946   8.762  68.383  1.00  0.00     0.101 A  
HETATM    9  C   UNL     1     -10.518   7.560  67.810  1.00  0.00    -0.288 A  
ENDROOT
BRANCH   7  10
HETATM   10  C   UNL     1     -11.077  11.278  68.332  1.00  0.00    -0.240 C  
HETATM   11  N   UNL     1     -11.217  12.313  67.427  1.00  0.00    -0.281 N  
HETATM   12  O   UNL     1     -11.316  11.404  69.524  1.00  0.00    -0.257 OA 
HETATM   13  H   UNL     1     -10.864  12.207  66.476  1.00  0.00     0.000 HD 
BRANCH  11  14
HETATM   14  C   UNL     1     -11.873  13.564  67.827  1.00  0.00    -0.362 C  
HETATM   15  C   UNL     1     -10.892  14.636  68.296  1.00  0.00    -0.245 C  
HETATM   16  O   UNL     1     -11.222  15.771  68.610  1.00  0.00    -0.308 OA 
HETATM   17  O   UNL     1      -9.600  14.230  68.292  1.00  0.00    -0.208 OA 
ENDBRANCH  11  14
ENDBRANCH   7  10
TORSDOF 2
ENDMDL
MODEL      153
REMARK 921   NORMALIZED FREE ENERGY PREDICTED BY IDOCK:   -3.08 KCAL/MOL
REMARK 922        TOTAL FREE ENERGY PREDICTED BY IDOCK:   -3.65 KCAL/MOL
REMARK 923 INTER-LIGAND FREE ENERGY PREDICTED BY IDOCK:   -3.44 KCAL/MOL
REMARK 924 INTRA-LIGAND FREE ENERGY PREDICTED BY IDOCK:   -0.21 KCAL/MOL
REMARK 927      BINDING AFFINITY PREDICTED BY RF-SCORE:    0.00 PKD
ROOT
HETATM    1  N   UNL     1      -8.034   8.660  64.904  1.00  0.00    -0.130 NA 
HETATM    2  H2  UNL     1      -7.076   8.418  65.157  1.00  0.00     0.000 HD 
HETATM    3  C   UNL     1      -8.508   9.602  65.822  1.00  0.00    -0.133 A  
HETATM    4  H1  UNL     1      -8.551   7.796  64.741  1.00  0.00     0.000 HD 
HETATM    5  C   UNL     1      -7.800  10.785  66.044  1.00  0.00    -0.149 A  
HETATM    6  C   UNL     1      -8.331  11.797  66.852  1.00  0.00    -0.170 A  
HETATM    7  C   UNL     1      -9.596  11.644  67.423  1.00  0.00    -0.173 A  
HETATM    8  C   UNL     1     -10.341  10.490  67.154  1.00  0.00    -0.285 A  
HETATM    9  C   UNL     1      -9.802   9.488  66.338  1.00  0.00    -0.320 A  
ENDROOT
BRANCH   7  10
HETATM   10  C   UNL     1     -10.146  12.751  68.250  1.00  0.00    -0.237 C  
HETATM   11  N   UNL     1     -11.440  12.589  68.707  1.00  0.00    -0.286 N  
HETATM   12  O   UNL     1      -9.475  13.742  68.497  1.00  0.00    -0.210 OA 
HETATM   13  H   UNL     1     -12.011  11.822  68.352  1.00  0.00     0.000 HD 
BRANCH  11  14
HETATM   14  C   UNL     1     -11.997  13.515  69.700  1.00  0.00    -0.337 C  
HETATM   15  C   UNL     1     -12.515  12.815  70.954  1.00  0.00    -0.283 C  
HETATM   16  O   UNL     1     -12.957  13.404  71.930  1.00  0.00    -0.348 OA 
HETATM   17  O   UNL     1     -12.397  11.466  70.911  1.00  0.00    -0.379 OA 
ENDBRANCH  11  14
ENDBRANCH   7  10
TORSDOF 2
ENDMDL
MODEL      154
REMARK 921   NORMALIZED FREE ENERGY PREDICTED BY IDOCK:   -3.07 KCAL/MOL
REMARK 922        TOTAL FREE ENERGY PREDICTED BY IDOCK:   -3.64 KCAL/MOL
REMARK 923 INTER-LIGAND FREE ENERGY PREDICTED BY IDOCK:   -3.42 KCAL/MOL
REMARK 924 INTRA-LIGAND FREE ENERGY PREDICTED BY IDOCK:   -0.22 KCAL/MOL
REMARK 927      BINDING AFFINITY PREDICTED BY RF-SCORE:    0.00 PKD
ROOT
HETATM    1  N   UNL     1      -7.881   8.747  74.100  1.00  0.00    -0.376 NA 
HETATM    2  H2  UNL     1      -7.981   8.145  74.918  1.00  0.00     0.000 HD 
HETATM    3  C   UNL     1      -8.568   8.160  73.034  1.00  0.00    -0.219 A  
HETATM    4  H1  UNL     1      -6.896   8.995  74.003  1.00  0.00     0.000 HD 
HETATM    5  C   UNL     1      -9.916   7.820  73.168  1.00  0.00    -0.374 A  
HETATM    6  C   UNL     1     -10.652   7.363  72.069  1.00  0.00    -0.241 A  
HETATM    7  C   UNL     1     -10.048   7.269  70.813  1.00  0.00    -0.193 A  
HETATM    8  C   UNL     1      -8.716   7.669  70.655  1.00  0.00    -0.140 A  
HETATM    9  C   UNL     1      -7.993   8.131  71.760  1.00  0.00    -0.149 A  
ENDROOT
BRANCH   7  10
HETATM   10  C   UNL     1     -10.866   6.811  69.659  1.00  0.00    -0.271 C  
HETATM   11  N   UNL     1     -10.319   7.005  68.405  1.00  0.00    -0.186 N  
HETATM   12  O   UNL     1     -11.961   6.295  69.831  1.00  0.00    -0.226 OA 
HETATM   13  H   UNL     1      -9.477   7.572  68.301  1.00  0.00     0.000 HD 
BRANCH  11  14
HETATM   14  C   UNL     1     -10.941   6.400  67.222  1.00  0.00    -0.392 C  
HETATM   15  C   UNL     1     -10.165   5.204  66.677  1.00  0.00    -0.261 C  
HETATM   16  O   UNL     1     -10.543   4.517  65.739  1.00  0.00    -0.285 OA 
HETATM   17  O   UNL     1      -9.027   4.937  67.360  1.00  0.00    -0.107 OA 
ENDBRANCH  11  14
ENDBRANCH   7  10
TORSDOF 2
ENDMDL
MODEL      155
REMARK 921   NORMALIZED FREE ENERGY PREDICTED BY IDOCK:   -3.06 KCAL/MOL
REMARK 922        TOTAL FREE ENERGY PREDICTED BY IDOCK:   -3.63 KCAL/MOL
REMARK 923 INTER-LIGAND FREE ENERGY PREDICTED BY IDOCK:   -3.50 KCAL/MOL
REMARK 924 INTRA-LIGAND FREE ENERGY PREDICTED BY IDOCK:   -0.13 KCAL/MOL
REMARK 927      BINDING AFFINITY PREDICTED BY RF-SCORE:    0.00 PKD
ROOT
HETATM    1  N   UNL     1     -10.876   9.231  71.446  1.00  0.00    -0.341 NA 
HETATM    2  H2  UNL     1     -11.210  10.100  71.029  1.00  0.00     0.000 HD 
HETATM    3  C   UNL     1     -10.844   8.250  70.451  1.00  0.00    -0.235 A  
HETATM    4  H1  UNL     1     -11.393   9.070  72.310  1.00  0.00     0.000 HD 
HETATM    5  C   UNL     1     -10.135   8.471  69.267  1.00  0.00    -0.203 A  
HETATM    6  C   UNL     1      -9.977   7.448  68.326  1.00  0.00    -0.182 A  
HETATM    7  C   UNL     1     -10.504   6.179  68.576  1.00  0.00    -0.284 A  
HETATM    8  C   UNL     1     -11.159   5.930  69.787  1.00  0.00    -0.422 A  
HETATM    9  C   UNL     1     -11.305   6.959  70.725  1.00  0.00    -0.355 A  
ENDROOT
BRANCH   7  10
HETATM   10  C   UNL     1     -10.291   5.105  67.570  1.00  0.00    -0.128 C  
HETATM   11  N   UNL     1     -10.792   5.343  66.305  1.00  0.00    -0.697 N  
HETATM   12  O   UNL     1      -9.703   4.075  67.868  1.00  0.00    -0.159 OA 
HETATM   13  H   UNL     1     -11.404   6.143  66.144  1.00  0.00     0.000 HD 
BRANCH  11  14
HETATM   14  C   UNL     1     -10.451   4.449  65.192  1.00  0.00    -0.158 C  
HETATM   15  C   UNL     1      -9.155   4.835  64.484  1.00  0.00    -0.099 C  
HETATM   16  O   UNL     1      -8.656   4.187  63.575  1.00  0.00    -0.095 OA 
HETATM   17  O   UNL     1      -8.571   5.949  64.987  1.00  0.00    -0.139 OA 
ENDBRANCH  11  14
ENDBRANCH   7  10
TORSDOF 2
ENDMDL
MODEL      156
REMARK 921   NORMALIZED FREE ENERGY PREDICTED BY IDOCK:   -3.04 KCAL/MOL
REMARK 922        TOTAL FREE ENERGY PREDICTED BY IDOCK:   -3.62 KCAL/MOL
REMARK 923 INTER-LIGAND FREE ENERGY PREDICTED BY IDOCK:   -3.44 KCAL/MOL
REMARK 924 INTRA-LIGAND FREE ENERGY PREDICTED BY IDOCK:   -0.17 KCAL/MOL
REMARK 927      BINDING AFFINITY PREDICTED BY RF-SCORE:    0.00 PKD
ROOT
HETATM    1  N   UNL     1      -8.719  12.059  67.035  1.00  0.00    -0.182 NA 
HETATM    2  H2  UNL     1      -9.133  12.987  66.947  1.00  0.00     0.000 HD 
HETATM    3  C   UNL     1      -9.319  11.410  68.118  1.00  0.00    -0.181 A  
HETATM    4  H1  UNL     1      -7.705  12.155  66.991  1.00  0.00     0.000 HD 
HETATM    5  C   UNL     1     -10.708  11.279  68.179  1.00  0.00    -0.244 A  
HETATM    6  C   UNL     1     -11.312  10.512  69.181  1.00  0.00    -0.319 A  
HETATM    7  C   UNL     1     -10.525   9.842  70.120  1.00  0.00    -0.338 A  
HETATM    8  C   UNL     1      -9.130   9.914  70.029  1.00  0.00    -0.217 A  
HETATM    9  C   UNL     1      -8.537  10.678  69.018  1.00  0.00    -0.150 A  
ENDROOT
BRANCH   7  10
HETATM   10  C   UNL     1     -11.196   9.009  71.153  1.00  0.00    -0.305 C  
HETATM   11  N   UNL     1     -10.955   7.650  71.095  1.00  0.00    -0.243 N  
HETATM   12  O   UNL     1     -11.919   9.519  71.997  1.00  0.00    -0.348 OA 
HETATM   13  H   UNL     1     -10.471   7.255  70.288  1.00  0.00     0.000 HD 
BRANCH  11  14
HETATM   14  C   UNL     1     -11.392   6.772  72.186  1.00  0.00    -0.271 C  
HETATM   15  C   UNL     1     -10.314   6.540  73.242  1.00  0.00    -0.241 C  
HETATM   16  O   UNL     1     -10.491   5.896  74.266  1.00  0.00    -0.275 OA 
HETATM   17  O   UNL     1      -9.141   7.158  72.966  1.00  0.00    -0.128 OA 
ENDBRANCH  11  14
ENDBRANCH   7  10
TORSDOF 2
ENDMDL
MODEL      157
REMARK 921   NORMALIZED FREE ENERGY PREDICTED BY IDOCK:   -3.01 KCAL/MOL
REMARK 922        TOTAL FREE ENERGY PREDICTED BY IDOCK:   -3.57 KCAL/MOL
REMARK 923 INTER-LIGAND FREE ENERGY PREDICTED BY IDOCK:   -3.35 KCAL/MOL
REMARK 924 INTRA-LIGAND FREE ENERGY PREDICTED BY IDOCK:   -0.22 KCAL/MOL
REMARK 927      BINDING AFFINITY PREDICTED BY RF-SCORE:    0.00 PKD
ROOT
HETATM    1  N   UNL     1      -7.189   6.944  68.628  1.00  0.00    -0.085 NA 
HETATM    2  H2  UNL     1      -7.228   6.377  67.781  1.00  0.00     0.000 HD 
HETATM    3  C   UNL     1      -8.059   8.027  68.473  1.00  0.00    -0.125 A  
HETATM    4  H1  UNL     1      -6.210   7.101  68.864  1.00  0.00     0.000 HD 
HETATM    5  C   UNL     1      -9.401   7.812  68.149  1.00  0.00    -0.148 A  
HETATM    6  C   UNL     1     -10.312   8.874  68.129  1.00  0.00    -0.261 A  
HETATM    7  C   UNL     1      -9.892  10.163  68.463  1.00  0.00    -0.165 A  
HETATM    8  C   UNL     1      -8.564  10.378  68.852  1.00  0.00    -0.149 A  
HETATM    9  C   UNL     1      -7.664   9.307  68.875  1.00  0.00    -0.079 A  
ENDROOT
BRANCH   7  10
HETATM   10  C   UNL     1     -10.892  11.263  68.464  1.00  0.00    -0.205 C  
HETATM   11  N   UNL     1     -10.528  12.421  69.125  1.00  0.00    -0.432 N  
HETATM   12  O   UNL     1     -11.972  11.130  67.907  1.00  0.00    -0.624 OA 
HETATM   13  H   UNL     1      -9.686  12.433  69.700  1.00  0.00     0.000 HD 
BRANCH  11  14
HETATM   14  C   UNL     1     -11.346  13.633  69.003  1.00  0.00    -0.287 C  
HETATM   15  C   UNL     1     -10.736  14.681  68.075  1.00  0.00    -0.246 C  
HETATM   16  O   UNL     1     -11.285  15.735  67.784  1.00  0.00    -0.336 OA 
HETATM   17  O   UNL     1      -9.538  14.320  67.559  1.00  0.00    -0.209 OA 
ENDBRANCH  11  14
ENDBRANCH   7  10
TORSDOF 2
ENDMDL
MODEL      158
REMARK 921   NORMALIZED FREE ENERGY PREDICTED BY IDOCK:   -2.96 KCAL/MOL
REMARK 922        TOTAL FREE ENERGY PREDICTED BY IDOCK:   -3.52 KCAL/MOL
REMARK 923 INTER-LIGAND FREE ENERGY PREDICTED BY IDOCK:   -3.34 KCAL/MOL
REMARK 924 INTRA-LIGAND FREE ENERGY PREDICTED BY IDOCK:   -0.18 KCAL/MOL
REMARK 927      BINDING AFFINITY PREDICTED BY RF-SCORE:    0.00 PKD
ROOT
HETATM    1  N   UNL     1     -11.325  12.376  69.786  1.00  0.00    -0.490 NA 
HETATM    2  H2  UNL     1     -12.154  12.805  69.376  1.00  0.00     0.000 HD 
HETATM    3  C   UNL     1     -11.154  11.113  69.214  1.00  0.00    -0.259 A  
HETATM    4  H1  UNL     1     -11.379  12.478  70.799  1.00  0.00     0.000 HD 
HETATM    5  C   UNL     1     -11.079  10.973  67.825  1.00  0.00    -0.356 A  
HETATM    6  C   UNL     1     -10.768   9.739  67.245  1.00  0.00    -0.296 A  
HETATM    7  C   UNL     1     -10.498   8.633  68.055  1.00  0.00    -0.254 A  
HETATM    8  C   UNL     1     -10.506   8.778  69.447  1.00  0.00    -0.228 A  
HETATM    9  C   UNL     1     -10.811  10.020  70.016  1.00  0.00    -0.352 A  
ENDROOT
BRANCH   7  10
HETATM   10  C   UNL     1     -10.139   7.344  67.408  1.00  0.00    -0.211 C  
HETATM   11  N   UNL     1      -8.789   7.072  67.292  1.00  0.00    -0.119 N  
HETATM   12  O   UNL     1     -11.006   6.581  67.006  1.00  0.00    -0.368 OA 
HETATM   13  H   UNL     1      -8.106   7.800  67.502  1.00  0.00     0.000 HD 
BRANCH  11  14
HETATM   14  C   UNL     1      -8.334   5.743  66.868  1.00  0.00    -0.108 C  
HETATM   15  C   UNL     1      -7.973   5.673  65.386  1.00  0.00    -0.112 C  
HETATM   16  O   UNL     1      -7.511   4.680  64.844  1.00  0.00    -0.070 OA 
HETATM   17  O   UNL     1      -8.170   6.837  64.723  1.00  0.00    -0.121 OA 
ENDBRANCH  11  14
ENDBRANCH   7  10
TORSDOF 2
ENDMDL
MODEL      159
REMARK 921   NORMALIZED FREE ENERGY PREDICTED BY IDOCK:   -2.92 KCAL/MOL
REMARK 922        TOTAL FREE ENERGY PREDICTED BY IDOCK:   -3.47 KCAL/MOL
REMARK 923 INTER-LIGAND FREE ENERGY PREDICTED BY IDOCK:   -3.28 KCAL/MOL
REMARK 924 INTRA-LIGAND FREE ENERGY PREDICTED BY IDOCK:   -0.19 KCAL/MOL
REMARK 927      BINDING AFFINITY PREDICTED BY RF-SCORE:    0.00 PKD
ROOT
HETATM    1  N   UNL     1     -10.688   4.473  66.249  1.00  0.00    -0.447 NA 
HETATM    2  H2  UNL     1     -11.643   4.451  65.892  1.00  0.00     0.000 HD 
HETATM    3  C   UNL     1     -10.289   5.808  66.355  1.00  0.00    -0.151 A  
HETATM    4  H1  UNL     1     -10.129   3.811  65.711  1.00  0.00     0.000 HD 
HETATM    5  C   UNL     1     -11.054   6.716  67.091  1.00  0.00    -0.427 A  
HETATM    6  C   UNL     1     -10.596   8.017  67.323  1.00  0.00    -0.360 A  
HETATM    7  C   UNL     1      -9.347   8.415  66.841  1.00  0.00    -0.221 A  
HETATM    8  C   UNL     1      -8.544   7.494  66.159  1.00  0.00    -0.159 A  
HETATM    9  C   UNL     1      -9.010   6.193  65.940  1.00  0.00    -0.133 A  
ENDROOT
BRANCH   7  10
HETATM   10  C   UNL     1      -8.875   9.795  67.132  1.00  0.00    -0.132 C  
HETATM   11  N   UNL     1      -9.841  10.705  67.514  1.00  0.00    -0.166 N  
HETATM   12  O   UNL     1      -7.691  10.087  67.031  1.00  0.00    -0.095 OA 
HETATM   13  H   UNL     1     -10.828  10.459  67.439  1.00  0.00     0.000 HD 
BRANCH  11  14
HETATM   14  C   UNL     1      -9.455  12.025  68.027  1.00  0.00    -0.199 C  
HETATM   15  C   UNL     1     -10.505  13.102  67.769  1.00  0.00    -0.228 C  
HETATM   16  O   UNL     1     -10.413  14.254  68.171  1.00  0.00    -0.237 OA 
HETATM   17  O   UNL     1     -11.586  12.656  67.085  1.00  0.00    -0.327 OA 
ENDBRANCH  11  14
ENDBRANCH   7  10
TORSDOF 2
ENDMDL
MODEL      160
REMARK 921   NORMALIZED FREE ENERGY PREDICTED BY IDOCK:   -2.91 KCAL/MOL
REMARK 922        TOTAL FREE ENERGY PREDICTED BY IDOCK:   -3.47 KCAL/MOL
REMARK 923 INTER-LIGAND FREE ENERGY PREDICTED BY IDOCK:   -3.26 KCAL/MOL
REMARK 924 INTRA-LIGAND FREE ENERGY PREDICTED BY IDOCK:   -0.21 KCAL/MOL
REMARK 927      BINDING AFFINITY PREDICTED BY RF-SCORE:    0.00 PKD
ROOT
HETATM    1  N   UNL     1      -8.418   9.231  64.454  1.00  0.00    -0.178 NA 
HETATM    2  H2  UNL     1      -8.203  10.227  64.503  1.00  0.00     0.000 HD 
HETATM    3  C   UNL     1      -8.871   8.817  65.709  1.00  0.00    -0.195 A  
HETATM    4  H1  UNL     1      -7.635   8.755  64.007  1.00  0.00     0.000 HD 
HETATM    5  C   UNL     1      -9.944   9.469  66.322  1.00  0.00    -0.344 A  
HETATM    6  C   UNL     1     -10.497   8.978  67.510  1.00  0.00    -0.338 A  
HETATM    7  C   UNL     1      -9.997   7.807  68.083  1.00  0.00    -0.207 A  
HETATM    8  C   UNL     1      -8.966   7.111  67.443  1.00  0.00    -0.122 A  
HETATM    9  C   UNL     1      -8.425   7.607  66.251  1.00  0.00    -0.140 A  
ENDROOT
BRANCH   7  10
HETATM   10  C   UNL     1     -10.628   7.294  69.328  1.00  0.00    -0.221 C  
HETATM   11  N   UNL     1     -10.656   8.162  70.402  1.00  0.00    -0.220 N  
HETATM   12  O   UNL     1     -11.088   6.162  69.377  1.00  0.00    -0.356 OA 
HETATM   13  H   UNL     1     -10.129   9.034  70.364  1.00  0.00     0.000 HD 
BRANCH  11  14
HETATM   14  C   UNL     1     -11.440   7.836  71.599  1.00  0.00    -0.261 C  
HETATM   15  C   UNL     1     -10.579   7.576  72.832  1.00  0.00    -0.337 C  
HETATM   16  O   UNL     1     -11.032   7.353  73.946  1.00  0.00    -0.196 OA 
HETATM   17  O   UNL     1      -9.248   7.660  72.594  1.00  0.00    -0.141 OA 
ENDBRANCH  11  14
ENDBRANCH   7  10
TORSDOF 2
ENDMDL
MODEL      161
REMARK 921   NORMALIZED FREE ENERGY PREDICTED BY IDOCK:   -2.87 KCAL/MOL
REMARK 922        TOTAL FREE ENERGY PREDICTED BY IDOCK:   -3.42 KCAL/MOL
REMARK 923 INTER-LIGAND FREE ENERGY PREDICTED BY IDOCK:   -3.20 KCAL/MOL
REMARK 924 INTRA-LIGAND FREE ENERGY PREDICTED BY IDOCK:   -0.21 KCAL/MOL
REMARK 927      BINDING AFFINITY PREDICTED BY RF-SCORE:    0.00 PKD
ROOT
HETATM    1  N   UNL     1     -10.555   4.579  64.455  1.00  0.00    -0.453 NA 
HETATM    2  H2  UNL     1     -10.876   3.654  64.169  1.00  0.00     0.000 HD 
HETATM    3  C   UNL     1     -10.321   4.559  65.832  1.00  0.00    -0.258 A  
HETATM    4  H1  UNL     1     -11.182   5.275  64.050  1.00  0.00     0.000 HD 
HETATM    5  C   UNL     1      -9.463   3.606  66.387  1.00  0.00    -0.184 A  
HETATM    6  C   UNL     1      -9.110   3.660  67.739  1.00  0.00    -0.193 A  
HETATM    7  C   UNL     1      -9.593   4.692  68.548  1.00  0.00    -0.220 A  
HETATM    8  C   UNL     1     -10.401   5.688  67.987  1.00  0.00    -0.258 A  
HETATM    9  C   UNL     1     -10.741   5.627  66.631  1.00  0.00    -0.339 A  
ENDROOT
BRANCH   7  10
HETATM   10  C   UNL     1      -9.173   4.740  69.973  1.00  0.00    -0.119 C  
HETATM   11  N   UNL     1      -9.295   5.961  70.606  1.00  0.00    -0.158 N  
HETATM   12  O   UNL     1      -8.744   3.742  70.535  1.00  0.00    -0.068 OA 
HETATM   13  H   UNL     1      -9.512   6.796  70.061  1.00  0.00     0.000 HD 
BRANCH  11  14
HETATM   14  C   UNL     1      -9.113   6.066  72.059  1.00  0.00    -0.143 C  
HETATM   15  C   UNL     1     -10.332   6.635  72.780  1.00  0.00    -0.203 C  
HETATM   16  O   UNL     1     -10.416   6.744  73.995  1.00  0.00    -0.364 OA 
HETATM   17  O   UNL     1     -11.347   6.972  71.949  1.00  0.00    -0.242 OA 
ENDBRANCH  11  14
ENDBRANCH   7  10
TORSDOF 2
ENDMDL
MODEL      162
REMARK 921   NORMALIZED FREE ENERGY PREDICTED BY IDOCK:   -2.84 KCAL/MOL
REMARK 922        TOTAL FREE ENERGY PREDICTED BY IDOCK:   -3.39 KCAL/MOL
REMARK 923 INTER-LIGAND FREE ENERGY PREDICTED BY IDOCK:   -3.17 KCAL/MOL
REMARK 924 INTRA-LIGAND FREE ENERGY PREDICTED BY IDOCK:   -0.22 KCAL/MOL
REMARK 927      BINDING AFFINITY PREDICTED BY RF-SCORE:    0.00 PKD
ROOT
HETATM    1  N   UNL     1     -11.170  15.257  65.254  1.00  0.00    -0.352 NA 
HETATM    2  H2  UNL     1     -11.577  15.161  64.324  1.00  0.00     0.000 HD 
HETATM    3  C   UNL     1     -11.105  13.990  65.840  1.00  0.00    -0.301 A  
HETATM    4  H1  UNL     1     -11.644  16.022  65.734  1.00  0.00     0.000 HD 
HETATM    5  C   UNL     1     -10.456  12.942  65.182  1.00  0.00    -0.326 A  
HETATM    6  C   UNL     1     -10.261  11.710  65.816  1.00  0.00    -0.281 A  
HETATM    7  C   UNL     1     -10.691  11.524  67.131  1.00  0.00    -0.294 A  
HETATM    8  C   UNL     1     -11.285  12.588  67.821  1.00  0.00    -0.318 A  
HETATM    9  C   UNL     1     -11.467  13.818  67.180  1.00  0.00    -0.365 A  
ENDROOT
BRANCH   7  10
HETATM   10  C   UNL     1     -10.441  10.214  67.787  1.00  0.00    -0.232 C  
HETATM   11  N   UNL     1      -9.396   9.465  67.281  1.00  0.00    -0.129 N  
HETATM   12  O   UNL     1     -11.134   9.836  68.721  1.00  0.00    -0.189 OA 
HETATM   13  H   UNL     1      -8.945   9.748  66.410  1.00  0.00     0.000 HD 
BRANCH  11  14
HETATM   14  C   UNL     1      -8.932   8.266  67.987  1.00  0.00    -0.138 C  
HETATM   15  C   UNL     1      -7.583   8.456  68.678  1.00  0.00    -0.102 C  
HETATM   16  O   UNL     1      -7.048   7.605  69.374  1.00  0.00    -0.071 OA 
HETATM   17  O   UNL     1      -7.044   9.684  68.488  1.00  0.00    -0.068 OA 
ENDBRANCH  11  14
ENDBRANCH   7  10
TORSDOF 2
ENDMDL
MODEL      163
REMARK 921   NORMALIZED FREE ENERGY PREDICTED BY IDOCK:   -2.83 KCAL/MOL
REMARK 922        TOTAL FREE ENERGY PREDICTED BY IDOCK:   -3.38 KCAL/MOL
REMARK 923 INTER-LIGAND FREE ENERGY PREDICTED BY IDOCK:   -3.19 KCAL/MOL
REMARK 924 INTRA-LIGAND FREE ENERGY PREDICTED BY IDOCK:   -0.19 KCAL/MOL
REMARK 927      BINDING AFFINITY PREDICTED BY RF-SCORE:    0.00 PKD
ROOT
HETATM    1  N   UNL     1      -7.958   9.199  63.388  1.00  0.00    -0.139 NA 
HETATM    2  H2  UNL     1      -7.379   9.995  63.120  1.00  0.00     0.000 HD 
HETATM    3  C   UNL     1      -8.505   9.458  64.648  1.00  0.00    -0.167 A  
HETATM    4  H1  UNL     1      -7.425   8.345  63.225  1.00  0.00     0.000 HD 
HETATM    5  C   UNL     1      -9.235  10.628  64.872  1.00  0.00    -0.252 A  
HETATM    6  C   UNL     1      -9.905  10.833  66.082  1.00  0.00    -0.269 A  
HETATM    7  C   UNL     1      -9.876   9.851  67.074  1.00  0.00    -0.241 A  
HETATM    8  C   UNL     1      -9.201   8.648  66.835  1.00  0.00    -0.198 A  
HETATM    9  C   UNL     1      -8.541   8.451  65.617  1.00  0.00    -0.197 A  
ENDROOT
BRANCH   7  10
HETATM   10  C   UNL     1     -10.625  10.086  68.336  1.00  0.00    -0.220 C  
HETATM   11  N   UNL     1     -11.241  11.316  68.463  1.00  0.00    -0.228 N  
HETATM   12  O   UNL     1     -10.679   9.226  69.204  1.00  0.00    -0.224 OA 
HETATM   13  H   UNL     1     -11.044  12.054  67.786  1.00  0.00     0.000 HD 
BRANCH  11  14
HETATM   14  C   UNL     1     -12.177  11.568  69.565  1.00  0.00    -0.221 C  
HETATM   15  C   UNL     1     -12.136  13.007  70.074  1.00  0.00    -0.297 C  
HETATM   16  O   UNL     1     -12.880  13.444  70.941  1.00  0.00    -0.284 OA 
HETATM   17  O   UNL     1     -11.223  13.782  69.442  1.00  0.00    -0.249 OA 
ENDBRANCH  11  14
ENDBRANCH   7  10
TORSDOF 2
ENDMDL
MODEL      164
REMARK 921   NORMALIZED FREE ENERGY PREDICTED BY IDOCK:   -2.83 KCAL/MOL
REMARK 922        TOTAL FREE ENERGY PREDICTED BY IDOCK:   -3.38 KCAL/MOL
REMARK 923 INTER-LIGAND FREE ENERGY PREDICTED BY IDOCK:   -3.21 KCAL/MOL
REMARK 924 INTRA-LIGAND FREE ENERGY PREDICTED BY IDOCK:   -0.16 KCAL/MOL
REMARK 927      BINDING AFFINITY PREDICTED BY RF-SCORE:    0.00 PKD
ROOT
HETATM    1  N   UNL     1      -8.045   4.366  65.500  1.00  0.00    -0.104 NA 
HETATM    2  H2  UNL     1      -8.520   4.180  64.617  1.00  0.00     0.000 HD 
HETATM    3  C   UNL     1      -8.640   5.483  66.093  1.00  0.00    -0.129 A  
HETATM    4  H1  UNL     1      -7.039   4.347  65.334  1.00  0.00     0.000 HD 
HETATM    5  C   UNL     1     -10.018   5.509  66.320  1.00  0.00    -0.174 A  
HETATM    6  C   UNL     1     -10.606   6.557  67.038  1.00  0.00    -0.402 A  
HETATM    7  C   UNL     1      -9.812   7.579  67.562  1.00  0.00    -0.209 A  
HETATM    8  C   UNL     1      -8.423   7.528  67.395  1.00  0.00    -0.115 A  
HETATM    9  C   UNL     1      -7.845   6.471  66.683  1.00  0.00    -0.104 A  
ENDROOT
BRANCH   7  10
HETATM   10  C   UNL     1     -10.463   8.660  68.347  1.00  0.00    -0.176 C  
HETATM   11  N   UNL     1     -11.233   8.259  69.421  1.00  0.00    -0.425 N  
HETATM   12  O   UNL     1     -10.314   9.835  68.040  1.00  0.00    -0.183 OA 
HETATM   13  H   UNL     1     -11.451   7.270  69.547  1.00  0.00     0.000 HD 
BRANCH  11  14
HETATM   14  C   UNL     1     -11.740   9.246  70.381  1.00  0.00    -0.114 C  
HETATM   15  C   UNL     1     -12.657   8.641  71.441  1.00  0.00    -0.291 C  
HETATM   16  O   UNL     1     -13.134   9.275  72.372  1.00  0.00    -0.419 OA 
HETATM   17  O   UNL     1     -12.865   7.312  71.285  1.00  0.00    -0.367 OA 
ENDBRANCH  11  14
ENDBRANCH   7  10
TORSDOF 2
ENDMDL
MODEL      165
REMARK 921   NORMALIZED FREE ENERGY PREDICTED BY IDOCK:   -2.81 KCAL/MOL
REMARK 922        TOTAL FREE ENERGY PREDICTED BY IDOCK:   -3.35 KCAL/MOL
REMARK 923 INTER-LIGAND FREE ENERGY PREDICTED BY IDOCK:   -3.23 KCAL/MOL
REMARK 924 INTRA-LIGAND FREE ENERGY PREDICTED BY IDOCK:   -0.12 KCAL/MOL
REMARK 927      BINDING AFFINITY PREDICTED BY RF-SCORE:    0.00 PKD
ROOT
HETATM    1  N   UNL     1      -7.680   2.305  70.176  1.00  0.00    -0.043 NA 
HETATM    2  H2  UNL     1      -7.858   1.412  70.635  1.00  0.00     0.000 HD 
HETATM    3  C   UNL     1      -8.493   3.275  70.769  1.00  0.00    -0.065 A  
HETATM    4  H1  UNL     1      -7.706   2.159  69.167  1.00  0.00     0.000 HD 
HETATM    5  C   UNL     1      -8.457   3.476  72.151  1.00  0.00    -0.090 A  
HETATM    6  C   UNL     1      -9.158   4.534  72.740  1.00  0.00    -0.134 A  
HETATM    7  C   UNL     1      -9.883   5.422  71.943  1.00  0.00    -0.218 A  
HETATM    8  C   UNL     1      -9.873   5.268  70.552  1.00  0.00    -0.274 A  
HETATM    9  C   UNL     1      -9.162   4.211  69.973  1.00  0.00    -0.213 A  
ENDROOT
BRANCH   7  10
HETATM   10  C   UNL     1     -10.591   6.555  72.596  1.00  0.00    -0.221 C  
HETATM   11  N   UNL     1     -11.072   7.542  71.758  1.00  0.00    -0.237 N  
HETATM   12  O   UNL     1     -10.726   6.593  73.811  1.00  0.00    -0.296 OA 
HETATM   13  H   UNL     1     -10.805   7.545  70.773  1.00  0.00     0.000 HD 
BRANCH  11  14
HETATM   14  C   UNL     1     -11.964   8.585  72.276  1.00  0.00    -0.385 C  
HETATM   15  C   UNL     1     -13.436   8.181  72.261  1.00  0.00    -0.143 C  
HETATM   16  O   UNL     1     -14.338   8.876  72.709  1.00  0.00    -0.600 OA 
HETATM   17  O   UNL     1     -13.657   6.949  71.744  1.00  0.00    -0.312 OA 
ENDBRANCH  11  14
ENDBRANCH   7  10
TORSDOF 2
ENDMDL
MODEL      166
REMARK 921   NORMALIZED FREE ENERGY PREDICTED BY IDOCK:   -2.78 KCAL/MOL
REMARK 922        TOTAL FREE ENERGY PREDICTED BY IDOCK:   -3.32 KCAL/MOL
REMARK 923 INTER-LIGAND FREE ENERGY PREDICTED BY IDOCK:   -3.10 KCAL/MOL
REMARK 924 INTRA-LIGAND FREE ENERGY PREDICTED BY IDOCK:   -0.22 KCAL/MOL
REMARK 927      BINDING AFFINITY PREDICTED BY RF-SCORE:    0.00 PKD
ROOT
HETATM    1  N   UNL     1      -9.452   2.695  64.333  1.00  0.00    -0.144 NA 
HETATM    2  H2  UNL     1      -8.933   3.303  63.700  1.00  0.00     0.000 HD 
HETATM    3  C   UNL     1      -9.530   3.321  65.581  1.00  0.00    -0.096 A  
HETATM    4  H1  UNL     1      -9.072   1.752  64.255  1.00  0.00     0.000 HD 
HETATM    5  C   UNL     1     -10.051   4.613  65.688  1.00  0.00    -0.238 A  
HETATM    6  C   UNL     1     -10.265   5.196  66.942  1.00  0.00    -0.279 A  
HETATM    7  C   UNL     1      -9.986   4.477  68.106  1.00  0.00    -0.098 A  
HETATM    8  C   UNL     1      -9.526   3.159  68.009  1.00  0.00    -0.218 A  
HETATM    9  C   UNL     1      -9.322   2.583  66.750  1.00  0.00    -0.016 A  
ENDROOT
BRANCH   7  10
HETATM   10  C   UNL     1     -10.256   5.114  69.422  1.00  0.00    -0.223 C  
HETATM   11  N   UNL     1     -11.165   6.154  69.424  1.00  0.00    -0.415 N  
HETATM   12  O   UNL     1      -9.691   4.725  70.434  1.00  0.00    -0.181 OA 
HETATM   13  H   UNL     1     -11.494   6.542  68.540  1.00  0.00     0.000 HD 
BRANCH  11  14
HETATM   14  C   UNL     1     -11.659   6.704  70.692  1.00  0.00    -0.382 C  
HETATM   15  C   UNL     1     -11.368   8.194  70.857  1.00  0.00    -0.268 C  
HETATM   16  O   UNL     1     -11.751   8.861  71.808  1.00  0.00    -0.314 OA 
HETATM   17  O   UNL     1     -10.678   8.731  69.823  1.00  0.00    -0.228 OA 
ENDBRANCH  11  14
ENDBRANCH   7  10
TORSDOF 2
ENDMDL
MODEL      167
REMARK 921   NORMALIZED FREE ENERGY PREDICTED BY IDOCK:   -2.77 KCAL/MOL
REMARK 922        TOTAL FREE ENERGY PREDICTED BY IDOCK:   -3.31 KCAL/MOL
REMARK 923 INTER-LIGAND FREE ENERGY PREDICTED BY IDOCK:   -3.14 KCAL/MOL
REMARK 924 INTRA-LIGAND FREE ENERGY PREDICTED BY IDOCK:   -0.17 KCAL/MOL
REMARK 927      BINDING AFFINITY PREDICTED BY RF-SCORE:    0.00 PKD
ROOT
HETATM    1  N   UNL     1      -8.452   3.468  65.135  1.00  0.00    -0.101 NA 
HETATM    2  H2  UNL     1      -7.466   3.220  65.048  1.00  0.00     0.000 HD 
HETATM    3  C   UNL     1      -8.538   4.824  65.464  1.00  0.00    -0.131 A  
HETATM    4  H1  UNL     1      -8.908   2.768  65.720  1.00  0.00     0.000 HD 
HETATM    5  C   UNL     1      -7.914   5.783  64.662  1.00  0.00    -0.122 A  
HETATM    6  C   UNL     1      -8.108   7.148  64.897  1.00  0.00    -0.107 A  
HETATM    7  C   UNL     1      -8.956   7.568  65.924  1.00  0.00    -0.128 A  
HETATM    8  C   UNL     1      -9.637   6.615  66.690  1.00  0.00    -0.207 A  
HETATM    9  C   UNL     1      -9.441   5.253  66.441  1.00  0.00    -0.161 A  
ENDROOT
BRANCH   7  10
HETATM   10  C   UNL     1      -9.166   9.026  66.127  1.00  0.00    -0.216 C  
HETATM   11  N   UNL     1      -9.838   9.694  65.121  1.00  0.00    -0.435 N  
HETATM   12  O   UNL     1      -8.757   9.585  67.135  1.00  0.00    -0.130 OA 
HETATM   13  H   UNL     1     -10.026   9.222  64.236  1.00  0.00     0.000 HD 
BRANCH  11  14
HETATM   14  C   UNL     1     -10.283  11.078  65.318  1.00  0.00    -0.284 C  
HETATM   15  C   UNL     1     -10.182  11.930  64.055  1.00  0.00    -0.361 C  
HETATM   16  O   UNL     1     -10.562  13.090  63.983  1.00  0.00    -0.412 OA 
HETATM   17  O   UNL     1      -9.670  11.266  62.991  1.00  0.00    -0.341 OA 
ENDBRANCH  11  14
ENDBRANCH   7  10
TORSDOF 2
ENDMDL
MODEL      168
REMARK 921   NORMALIZED FREE ENERGY PREDICTED BY IDOCK:   -2.76 KCAL/MOL
REMARK 922        TOTAL FREE ENERGY PREDICTED BY IDOCK:   -3.30 KCAL/MOL
REMARK 923 INTER-LIGAND FREE ENERGY PREDICTED BY IDOCK:   -3.11 KCAL/MOL
REMARK 924 INTRA-LIGAND FREE ENERGY PREDICTED BY IDOCK:   -0.19 KCAL/MOL
REMARK 927      BINDING AFFINITY PREDICTED BY RF-SCORE:    0.00 PKD
ROOT
HETATM    1  N   UNL     1     -11.259  11.794  69.530  1.00  0.00    -0.414 NA 
HETATM    2  H2  UNL     1     -11.957  12.268  68.956  1.00  0.00     0.000 HD 
HETATM    3  C   UNL     1     -11.072  10.506  69.021  1.00  0.00    -0.249 A  
HETATM    4  H1  UNL     1     -11.505  11.929  70.510  1.00  0.00     0.000 HD 
HETATM    5  C   UNL     1     -10.736  10.321  67.678  1.00  0.00    -0.339 A  
HETATM    6  C   UNL     1     -10.409   9.052  67.190  1.00  0.00    -0.342 A  
HETATM    7  C   UNL     1     -10.387   7.954  68.052  1.00  0.00    -0.264 A  
HETATM    8  C   UNL     1     -10.660   8.140  69.413  1.00  0.00    -0.206 A  
HETATM    9  C   UNL     1     -10.978   9.415  69.891  1.00  0.00    -0.251 A  
ENDROOT
BRANCH   7  10
HETATM   10  C   UNL     1     -10.004   6.624  67.509  1.00  0.00    -0.135 C  
HETATM   11  N   UNL     1      -8.994   5.958  68.175  1.00  0.00    -0.116 N  
HETATM   12  O   UNL     1     -10.564   6.164  66.524  1.00  0.00    -0.215 OA 
HETATM   13  H   UNL     1      -8.456   6.442  68.895  1.00  0.00     0.000 HD 
BRANCH  11  14
HETATM   14  C   UNL     1      -8.690   4.559  67.854  1.00  0.00    -0.104 C  
HETATM   15  C   UNL     1      -9.392   3.563  68.774  1.00  0.00    -0.166 C  
HETATM   16  O   UNL     1      -9.328   2.349  68.639  1.00  0.00    -0.169 OA 
HETATM   17  O   UNL     1     -10.141   4.148  69.739  1.00  0.00    -0.137 OA 
ENDBRANCH  11  14
ENDBRANCH   7  10
TORSDOF 2
ENDMDL
MODEL      169
REMARK 921   NORMALIZED FREE ENERGY PREDICTED BY IDOCK:   -2.73 KCAL/MOL
REMARK 922        TOTAL FREE ENERGY PREDICTED BY IDOCK:   -3.26 KCAL/MOL
REMARK 923 INTER-LIGAND FREE ENERGY PREDICTED BY IDOCK:   -3.06 KCAL/MOL
REMARK 924 INTRA-LIGAND FREE ENERGY PREDICTED BY IDOCK:   -0.20 KCAL/MOL
REMARK 927      BINDING AFFINITY PREDICTED BY RF-SCORE:    0.00 PKD
ROOT
HETATM    1  N   UNL     1      -7.657  12.112  66.780  1.00  0.00    -0.371 NA 
HETATM    2  H2  UNL     1      -6.647  12.026  66.891  1.00  0.00     0.000 HD 
HETATM    3  C   UNL     1      -8.201  10.827  66.687  1.00  0.00    -0.140 A  
HETATM    4  H1  UNL     1      -7.843  12.803  66.053  1.00  0.00     0.000 HD 
HETATM    5  C   UNL     1      -7.946   9.881  67.682  1.00  0.00    -0.109 A  
HETATM    6  C   UNL     1      -8.594   8.641  67.675  1.00  0.00    -0.136 A  
HETATM    7  C   UNL     1      -9.530   8.347  66.681  1.00  0.00    -0.267 A  
HETATM    8  C   UNL     1      -9.840   9.313  65.717  1.00  0.00    -0.302 A  
HETATM    9  C   UNL     1      -9.191  10.552  65.739  1.00  0.00    -0.215 A  
ENDROOT
BRANCH   7  10
HETATM   10  C   UNL     1     -10.225   7.033  66.720  1.00  0.00    -0.211 C  
HETATM   11  N   UNL     1      -9.632   6.005  66.014  1.00  0.00    -0.352 N  
HETATM   12  O   UNL     1     -11.266   6.892  67.347  1.00  0.00    -0.280 OA 
HETATM   13  H   UNL     1      -8.853   6.205  65.386  1.00  0.00     0.000 HD 
BRANCH  11  14
HETATM   14  C   UNL     1     -10.115   4.628  66.161  1.00  0.00    -0.266 C  
HETATM   15  C   UNL     1      -9.149   3.727  66.926  1.00  0.00    -0.161 C  
HETATM   16  O   UNL     1      -9.386   2.563  67.216  1.00  0.00    -0.155 OA 
HETATM   17  O   UNL     1      -8.007   4.351  67.301  1.00  0.00    -0.099 OA 
ENDBRANCH  11  14
ENDBRANCH   7  10
TORSDOF 2
ENDMDL
MODEL      170
REMARK 921   NORMALIZED FREE ENERGY PREDICTED BY IDOCK:   -2.71 KCAL/MOL
REMARK 922        TOTAL FREE ENERGY PREDICTED BY IDOCK:   -3.24 KCAL/MOL
REMARK 923 INTER-LIGAND FREE ENERGY PREDICTED BY IDOCK:   -3.07 KCAL/MOL
REMARK 924 INTRA-LIGAND FREE ENERGY PREDICTED BY IDOCK:   -0.17 KCAL/MOL
REMARK 927      BINDING AFFINITY PREDICTED BY RF-SCORE:    0.00 PKD
ROOT
HETATM    1  N   UNL     1     -11.409  16.329  67.623  1.00  0.00    -0.105 NA 
HETATM    2  H2  UNL     1     -12.323  16.583  67.997  1.00  0.00     0.000 HD 
HETATM    3  C   UNL     1     -11.300  14.936  67.637  1.00  0.00    -0.337 A  
HETATM    4  H1  UNL     1     -10.703  16.904  68.083  1.00  0.00     0.000 HD 
HETATM    5  C   UNL     1     -12.266  14.148  67.007  1.00  0.00    -0.374 A  
HETATM    6  C   UNL     1     -12.097  12.764  66.890  1.00  0.00    -0.267 A  
HETATM    7  C   UNL     1     -10.939  12.156  67.380  1.00  0.00    -0.308 A  
HETATM    8  C   UNL     1      -9.936  12.945  67.955  1.00  0.00    -0.233 A  
HETATM    9  C   UNL     1     -10.112  14.329  68.059  1.00  0.00    -0.227 A  
ENDROOT
BRANCH   7  10
HETATM   10  C   UNL     1     -10.775  10.689  67.212  1.00  0.00    -0.285 C  
HETATM   11  N   UNL     1      -9.919  10.279  66.208  1.00  0.00    -0.224 N  
HETATM   12  O   UNL     1     -11.376   9.903  67.932  1.00  0.00    -0.158 OA 
HETATM   13  H   UNL     1      -9.560  10.960  65.539  1.00  0.00     0.000 HD 
BRANCH  11  14
HETATM   14  C   UNL     1      -9.524   8.870  66.099  1.00  0.00    -0.251 C  
HETATM   15  C   UNL     1      -8.060   8.683  65.708  1.00  0.00    -0.114 C  
HETATM   16  O   UNL     1      -7.511   7.593  65.626  1.00  0.00    -0.074 OA 
HETATM   17  O   UNL     1      -7.400   9.846  65.500  1.00  0.00    -0.110 OA 
ENDBRANCH  11  14
ENDBRANCH   7  10
TORSDOF 2
ENDMDL
MODEL      171
REMARK 921   NORMALIZED FREE ENERGY PREDICTED BY IDOCK:   -2.70 KCAL/MOL
REMARK 922        TOTAL FREE ENERGY PREDICTED BY IDOCK:   -3.24 KCAL/MOL
REMARK 923 INTER-LIGAND FREE ENERGY PREDICTED BY IDOCK:   -3.06 KCAL/MOL
REMARK 924 INTRA-LIGAND FREE ENERGY PREDICTED BY IDOCK:   -0.17 KCAL/MOL
REMARK 927      BINDING AFFINITY PREDICTED BY RF-SCORE:    0.00 PKD
ROOT
HETATM    1  N   UNL     1      -9.078   8.181  74.015  1.00  0.00    -0.281 NA 
HETATM    2  H2  UNL     1      -9.171   7.309  74.536  1.00  0.00     0.000 HD 
HETATM    3  C   UNL     1      -9.309   7.914  72.663  1.00  0.00    -0.213 A  
HETATM    4  H1  UNL     1      -8.215   8.639  74.309  1.00  0.00     0.000 HD 
HETATM    5  C   UNL     1     -10.491   7.287  72.261  1.00  0.00    -0.246 A  
HETATM    6  C   UNL     1     -10.799   7.141  70.904  1.00  0.00    -0.266 A  
HETATM    7  C   UNL     1      -9.935   7.649  69.932  1.00  0.00    -0.190 A  
HETATM    8  C   UNL     1      -8.780   8.336  70.325  1.00  0.00    -0.139 A  
HETATM    9  C   UNL     1      -8.487   8.483  71.685  1.00  0.00    -0.235 A  
ENDROOT
BRANCH   7  10
HETATM   10  C   UNL     1     -10.306   7.506  68.500  1.00  0.00    -0.199 C  
HETATM   11  N   UNL     1     -10.457   6.215  68.033  1.00  0.00    -0.200 N  
HETATM   12  O   UNL     1     -10.463   8.490  67.791  1.00  0.00    -0.237 OA 
HETATM   13  H   UNL     1     -10.171   5.428  68.615  1.00  0.00     0.000 HD 
BRANCH  11  14
HETATM   14  C   UNL     1     -11.027   5.968  66.703  1.00  0.00    -0.152 C  
HETATM   15  C   UNL     1     -10.519   4.682  66.057  1.00  0.00    -0.264 C  
HETATM   16  O   UNL     1     -10.915   4.256  64.981  1.00  0.00    -0.245 OA 
HETATM   17  O   UNL     1      -9.610   4.018  66.811  1.00  0.00    -0.194 OA 
ENDBRANCH  11  14
ENDBRANCH   7  10
TORSDOF 2
ENDMDL
MODEL      172
REMARK 921   NORMALIZED FREE ENERGY PREDICTED BY IDOCK:   -2.68 KCAL/MOL
REMARK 922        TOTAL FREE ENERGY PREDICTED BY IDOCK:   -3.21 KCAL/MOL
REMARK 923 INTER-LIGAND FREE ENERGY PREDICTED BY IDOCK:   -2.97 KCAL/MOL
REMARK 924 INTRA-LIGAND FREE ENERGY PREDICTED BY IDOCK:   -0.23 KCAL/MOL
REMARK 927      BINDING AFFINITY PREDICTED BY RF-SCORE:    0.00 PKD
ROOT
HETATM    1  N   UNL     1     -11.859  12.059  66.484  1.00  0.00    -0.605 NA 
HETATM    2  H2  UNL     1     -12.409  11.651  65.728  1.00  0.00     0.000 HD 
HETATM    3  C   UNL     1     -11.471  11.032  67.349  1.00  0.00    -0.135 A  
HETATM    4  H1  UNL     1     -12.360  12.871  66.843  1.00  0.00     0.000 HD 
HETATM    5  C   UNL     1     -10.784   9.919  66.857  1.00  0.00    -0.195 A  
HETATM    6  C   UNL     1     -10.267   8.954  67.728  1.00  0.00    -0.283 A  
HETATM    7  C   UNL     1     -10.408   9.109  69.108  1.00  0.00    -0.223 A  
HETATM    8  C   UNL     1     -11.037  10.253  69.614  1.00  0.00    -0.323 A  
HETATM    9  C   UNL     1     -11.543  11.216  68.733  1.00  0.00    -0.389 A  
ENDROOT
BRANCH   7  10
HETATM   10  C   UNL     1      -9.819   8.083  70.008  1.00  0.00    -0.185 C  
HETATM   11  N   UNL     1      -9.678   6.814  69.480  1.00  0.00    -0.150 N  
HETATM   12  O   UNL     1      -9.486   8.366  71.150  1.00  0.00    -0.158 OA 
HETATM   13  H   UNL     1     -10.105   6.588  68.581  1.00  0.00     0.000 HD 
BRANCH  11  14
HETATM   14  C   UNL     1      -8.917   5.789  70.204  1.00  0.00    -0.140 C  
HETATM   15  C   UNL     1      -7.593   5.434  69.531  1.00  0.00    -0.070 C  
HETATM   16  O   UNL     1      -6.777   4.654  70.002  1.00  0.00    -0.035 OA 
HETATM   17  O   UNL     1      -7.374   6.102  68.374  1.00  0.00    -0.082 OA 
ENDBRANCH  11  14
ENDBRANCH   7  10
TORSDOF 2
ENDMDL
MODEL      173
REMARK 921   NORMALIZED FREE ENERGY PREDICTED BY IDOCK:   -2.67 KCAL/MOL
REMARK 922        TOTAL FREE ENERGY PREDICTED BY IDOCK:   -3.20 KCAL/MOL
REMARK 923 INTER-LIGAND FREE ENERGY PREDICTED BY IDOCK:   -2.98 KCAL/MOL
REMARK 924 INTRA-LIGAND FREE ENERGY PREDICTED BY IDOCK:   -0.22 KCAL/MOL
REMARK 927      BINDING AFFINITY PREDICTED BY RF-SCORE:    0.00 PKD
ROOT
HETATM    1  N   UNL     1     -12.399  13.357  69.034  1.00  0.00    -0.133 NA 
HETATM    2  H2  UNL     1     -12.611  13.324  68.037  1.00  0.00     0.000 HD 
HETATM    3  C   UNL     1     -11.949  12.095  69.431  1.00  0.00    -0.270 A  
HETATM    4  H1  UNL     1     -13.184  13.797  69.515  1.00  0.00     0.000 HD 
HETATM    5  C   UNL     1     -10.874  11.492  68.773  1.00  0.00    -0.258 A  
HETATM    6  C   UNL     1     -10.324  10.296  69.247  1.00  0.00    -0.250 A  
HETATM    7  C   UNL     1     -10.828   9.705  70.407  1.00  0.00    -0.353 A  
HETATM    8  C   UNL     1     -11.862  10.335  71.110  1.00  0.00    -0.455 A  
HETATM    9  C   UNL     1     -12.399  11.535  70.631  1.00  0.00    -0.457 A  
ENDROOT
BRANCH   7  10
HETATM   10  C   UNL     1     -10.200   8.452  70.903  1.00  0.00    -0.194 C  
HETATM   11  N   UNL     1      -9.060   8.036  70.243  1.00  0.00    -0.147 N  
HETATM   12  O   UNL     1     -10.684   7.837  71.843  1.00  0.00    -0.214 OA 
HETATM   13  H   UNL     1      -8.781   8.493  69.375  1.00  0.00     0.000 HD 
BRANCH  11  14
HETATM   14  C   UNL     1      -8.248   6.940  70.784  1.00  0.00    -0.122 C  
HETATM   15  C   UNL     1      -6.794   7.332  71.034  1.00  0.00    -0.055 C  
HETATM   16  O   UNL     1      -5.965   6.590  71.542  1.00  0.00    -0.035 OA 
HETATM   17  O   UNL     1      -6.507   8.608  70.682  1.00  0.00    -0.036 OA 
ENDBRANCH  11  14
ENDBRANCH   7  10
TORSDOF 2
ENDMDL
MODEL      174
REMARK 921   NORMALIZED FREE ENERGY PREDICTED BY IDOCK:   -2.66 KCAL/MOL
REMARK 922        TOTAL FREE ENERGY PREDICTED BY IDOCK:   -3.18 KCAL/MOL
REMARK 923 INTER-LIGAND FREE ENERGY PREDICTED BY IDOCK:   -2.99 KCAL/MOL
REMARK 924 INTRA-LIGAND FREE ENERGY PREDICTED BY IDOCK:   -0.19 KCAL/MOL
REMARK 927      BINDING AFFINITY PREDICTED BY RF-SCORE:    0.00 PKD
ROOT
HETATM    1  N   UNL     1      -7.776  13.593  68.300  1.00  0.00    -0.130 NA 
HETATM    2  H2  UNL     1      -6.931  13.564  67.730  1.00  0.00     0.000 HD 
HETATM    3  C   UNL     1      -8.406  12.349  68.219  1.00  0.00    -0.169 A  
HETATM    4  H1  UNL     1      -8.289  14.445  68.071  1.00  0.00     0.000 HD 
HETATM    5  C   UNL     1      -7.704  11.182  68.533  1.00  0.00    -0.129 A  
HETATM    6  C   UNL     1      -8.358   9.947  68.592  1.00  0.00    -0.110 A  
HETATM    7  C   UNL     1      -9.734   9.871  68.364  1.00  0.00    -0.161 A  
HETATM    8  C   UNL     1     -10.457  11.043  68.113  1.00  0.00    -0.216 A  
HETATM    9  C   UNL     1      -9.794  12.274  68.064  1.00  0.00    -0.204 A  
ENDROOT
BRANCH   7  10
HETATM   10  C   UNL     1     -10.404   8.548  68.467  1.00  0.00    -0.198 C  
HETATM   11  N   UNL     1     -10.676   7.906  67.274  1.00  0.00    -0.488 N  
HETATM   12  O   UNL     1     -10.692   8.073  69.556  1.00  0.00    -0.230 OA 
HETATM   13  H   UNL     1     -10.557   8.403  66.392  1.00  0.00     0.000 HD 
BRANCH  11  14
HETATM   14  C   UNL     1     -11.137   6.513  67.270  1.00  0.00    -0.350 C  
HETATM   15  C   UNL     1     -10.198   5.570  66.521  1.00  0.00    -0.228 C  
HETATM   16  O   UNL     1     -10.360   4.359  66.454  1.00  0.00    -0.222 OA 
HETATM   17  O   UNL     1      -9.130   6.192  65.968  1.00  0.00    -0.156 OA 
ENDBRANCH  11  14
ENDBRANCH   7  10
TORSDOF 2
ENDMDL
MODEL      175
REMARK 921   NORMALIZED FREE ENERGY PREDICTED BY IDOCK:   -2.65 KCAL/MOL
REMARK 922        TOTAL FREE ENERGY PREDICTED BY IDOCK:   -3.18 KCAL/MOL
REMARK 923 INTER-LIGAND FREE ENERGY PREDICTED BY IDOCK:   -3.01 KCAL/MOL
REMARK 924 INTRA-LIGAND FREE ENERGY PREDICTED BY IDOCK:   -0.17 KCAL/MOL
REMARK 927      BINDING AFFINITY PREDICTED BY RF-SCORE:    0.00 PKD
ROOT
HETATM    1  N   UNL     1     -10.819  18.339  67.147  1.00  0.00    -0.297 NA 
HETATM    2  H2  UNL     1     -10.185  18.989  66.682  1.00  0.00     0.000 HD 
HETATM    3  C   UNL     1     -10.153  17.123  67.320  1.00  0.00    -0.294 A  
HETATM    4  H1  UNL     1     -11.718  18.369  66.666  1.00  0.00     0.000 HD 
HETATM    5  C   UNL     1      -8.921  17.082  67.978  1.00  0.00    -0.230 A  
HETATM    6  C   UNL     1      -8.312  15.860  68.283  1.00  0.00    -0.165 A  
HETATM    7  C   UNL     1      -8.947  14.660  67.956  1.00  0.00    -0.174 A  
HETATM    8  C   UNL     1     -10.211  14.690  67.354  1.00  0.00    -0.240 A  
HETATM    9  C   UNL     1     -10.814  15.918  67.062  1.00  0.00    -0.252 A  
ENDROOT
BRANCH   7  10
HETATM   10  C   UNL     1      -8.289  13.379  68.322  1.00  0.00    -0.160 C  
HETATM   11  N   UNL     1      -9.127  12.334  68.659  1.00  0.00    -0.383 N  
HETATM   12  O   UNL     1      -7.070  13.277  68.321  1.00  0.00    -0.087 OA 
HETATM   13  H   UNL     1     -10.123  12.506  68.793  1.00  0.00     0.000 HD 
BRANCH  11  14
HETATM   14  C   UNL     1      -8.592  10.978  68.826  1.00  0.00    -0.144 C  
HETATM   15  C   UNL     1      -9.651   9.958  69.238  1.00  0.00    -0.205 C  
HETATM   16  O   UNL     1      -9.432   8.762  69.367  1.00  0.00    -0.159 OA 
HETATM   17  O   UNL     1     -10.884  10.493  69.408  1.00  0.00    -0.216 OA 
ENDBRANCH  11  14
ENDBRANCH   7  10
TORSDOF 2
ENDMDL
MODEL      176
REMARK 921   NORMALIZED FREE ENERGY PREDICTED BY IDOCK:   -2.63 KCAL/MOL
REMARK 922        TOTAL FREE ENERGY PREDICTED BY IDOCK:   -3.16 KCAL/MOL
REMARK 923 INTER-LIGAND FREE ENERGY PREDICTED BY IDOCK:   -2.96 KCAL/MOL
REMARK 924 INTRA-LIGAND FREE ENERGY PREDICTED BY IDOCK:   -0.20 KCAL/MOL
REMARK 927      BINDING AFFINITY PREDICTED BY RF-SCORE:    0.00 PKD
ROOT
HETATM    1  N   UNL     1     -11.749  12.030  66.434  1.00  0.00    -0.565 NA 
HETATM    2  H2  UNL     1     -12.367  11.601  65.745  1.00  0.00     0.000 HD 
HETATM    3  C   UNL     1     -11.087  11.013  67.127  1.00  0.00    -0.267 A  
HETATM    4  H1  UNL     1     -12.278  12.738  66.943  1.00  0.00     0.000 HD 
HETATM    5  C   UNL     1     -10.361  10.043  66.429  1.00  0.00    -0.249 A  
HETATM    6  C   UNL     1      -9.580   9.105  67.112  1.00  0.00    -0.215 A  
HETATM    7  C   UNL     1      -9.494   9.146  68.506  1.00  0.00    -0.151 A  
HETATM    8  C   UNL     1     -10.165  10.153  69.209  1.00  0.00    -0.238 A  
HETATM    9  C   UNL     1     -10.937  11.091  68.515  1.00  0.00    -0.276 A  
ENDROOT
BRANCH   7  10
HETATM   10  C   UNL     1      -8.630   8.155  69.199  1.00  0.00    -0.136 C  
HETATM   11  N   UNL     1      -8.144   8.527  70.437  1.00  0.00    -0.102 N  
HETATM   12  O   UNL     1      -8.374   7.076  68.683  1.00  0.00    -0.120 OA 
HETATM   13  H   UNL     1      -8.257   9.488  70.759  1.00  0.00     0.000 HD 
BRANCH  11  14
HETATM   14  C   UNL     1      -7.464   7.547  71.293  1.00  0.00    -0.079 C  
HETATM   15  C   UNL     1      -7.871   7.644  72.761  1.00  0.00    -0.103 C  
HETATM   16  O   UNL     1      -7.474   6.879  73.629  1.00  0.00    -0.081 OA 
HETATM   17  O   UNL     1      -8.758   8.635  73.016  1.00  0.00    -0.380 OA 
ENDBRANCH  11  14
ENDBRANCH   7  10
TORSDOF 2
ENDMDL
MODEL      177
REMARK 921   NORMALIZED FREE ENERGY PREDICTED BY IDOCK:   -2.62 KCAL/MOL
REMARK 922        TOTAL FREE ENERGY PREDICTED BY IDOCK:   -3.15 KCAL/MOL
REMARK 923 INTER-LIGAND FREE ENERGY PREDICTED BY IDOCK:   -2.97 KCAL/MOL
REMARK 924 INTRA-LIGAND FREE ENERGY PREDICTED BY IDOCK:   -0.17 KCAL/MOL
REMARK 927      BINDING AFFINITY PREDICTED BY RF-SCORE:    0.00 PKD
ROOT
HETATM    1  N   UNL     1      -6.056   9.800  62.835  1.00  0.00    -0.103 NA 
HETATM    2  H2  UNL     1      -6.063  10.699  62.354  1.00  0.00     0.000 HD 
HETATM    3  C   UNL     1      -7.017   9.835  63.850  1.00  0.00    -0.119 A  
HETATM    4  H1  UNL     1      -5.089   9.559  63.051  1.00  0.00     0.000 HD 
HETATM    5  C   UNL     1      -8.342  10.165  63.553  1.00  0.00    -0.169 A  
HETATM    6  C   UNL     1      -9.339  10.069  64.529  1.00  0.00    -0.345 A  
HETATM    7  C   UNL     1      -9.024   9.610  65.810  1.00  0.00    -0.207 A  
HETATM    8  C   UNL     1      -7.712   9.216  66.098  1.00  0.00    -0.095 A  
HETATM    9  C   UNL     1      -6.724   9.309  65.112  1.00  0.00    -0.077 A  
ENDROOT
BRANCH   7  10
HETATM   10  C   UNL     1     -10.112   9.488  66.815  1.00  0.00    -0.245 C  
HETATM   11  N   UNL     1     -10.314  10.581  67.635  1.00  0.00    -0.204 N  
HETATM   12  O   UNL     1     -10.780   8.467  66.896  1.00  0.00    -0.279 OA 
HETATM   13  H   UNL     1      -9.640  11.347  67.635  1.00  0.00     0.000 HD 
BRANCH  11  14
HETATM   14  C   UNL     1     -11.492  10.647  68.508  1.00  0.00    -0.265 C  
HETATM   15  C   UNL     1     -11.197  10.240  69.950  1.00  0.00    -0.299 C  
HETATM   16  O   UNL     1     -12.021  10.287  70.853  1.00  0.00    -0.315 OA 
HETATM   17  O   UNL     1      -9.914   9.861  70.157  1.00  0.00    -0.249 OA 
ENDBRANCH  11  14
ENDBRANCH   7  10
TORSDOF 2
ENDMDL
MODEL      178
REMARK 921   NORMALIZED FREE ENERGY PREDICTED BY IDOCK:   -2.62 KCAL/MOL
REMARK 922        TOTAL FREE ENERGY PREDICTED BY IDOCK:   -3.14 KCAL/MOL
REMARK 923 INTER-LIGAND FREE ENERGY PREDICTED BY IDOCK:   -2.94 KCAL/MOL
REMARK 924 INTRA-LIGAND FREE ENERGY PREDICTED BY IDOCK:   -0.20 KCAL/MOL
REMARK 927      BINDING AFFINITY PREDICTED BY RF-SCORE:    0.00 PKD
ROOT
HETATM    1  N   UNL     1      -5.724  12.321  66.677  1.00  0.00    -0.481 NA 
HETATM    2  H2  UNL     1      -4.960  12.331  67.353  1.00  0.00     0.000 HD 
HETATM    3  C   UNL     1      -6.627  11.321  67.048  1.00  0.00    -0.116 A  
HETATM    4  H1  UNL     1      -5.323  12.330  65.739  1.00  0.00     0.000 HD 
HETATM    5  C   UNL     1      -7.176  11.309  68.333  1.00  0.00    -0.085 A  
HETATM    6  C   UNL     1      -8.184  10.400  68.672  1.00  0.00    -0.121 A  
HETATM    7  C   UNL     1      -8.675   9.509  67.715  1.00  0.00    -0.115 A  
HETATM    8  C   UNL     1      -8.177   9.557  66.407  1.00  0.00    -0.115 A  
HETATM    9  C   UNL     1      -7.175  10.476  66.077  1.00  0.00    -0.137 A  
ENDROOT
BRANCH   7  10
HETATM   10  C   UNL     1      -9.769   8.578  68.098  1.00  0.00    -0.155 C  
HETATM   11  N   UNL     1      -9.839   8.233  69.434  1.00  0.00    -0.181 N  
HETATM   12  O   UNL     1     -10.552   8.151  67.261  1.00  0.00    -0.299 OA 
HETATM   13  H   UNL     1      -9.080   8.490  70.065  1.00  0.00     0.000 HD 
BRANCH  11  14
HETATM   14  C   UNL     1     -10.999   7.498  69.950  1.00  0.00    -0.211 C  
HETATM   15  C   UNL     1     -11.525   8.052  71.272  1.00  0.00    -0.269 C  
HETATM   16  O   UNL     1     -12.522   7.629  71.840  1.00  0.00    -0.304 OA 
HETATM   17  O   UNL     1     -10.808   9.098  71.747  1.00  0.00    -0.351 OA 
ENDBRANCH  11  14
ENDBRANCH   7  10
TORSDOF 2
ENDMDL
MODEL      179
REMARK 921   NORMALIZED FREE ENERGY PREDICTED BY IDOCK:   -2.58 KCAL/MOL
REMARK 922        TOTAL FREE ENERGY PREDICTED BY IDOCK:   -3.09 KCAL/MOL
REMARK 923 INTER-LIGAND FREE ENERGY PREDICTED BY IDOCK:   -2.89 KCAL/MOL
REMARK 924 INTRA-LIGAND FREE ENERGY PREDICTED BY IDOCK:   -0.20 KCAL/MOL
REMARK 927      BINDING AFFINITY PREDICTED BY RF-SCORE:    0.00 PKD
ROOT
HETATM    1  N   UNL     1     -11.938   9.435  71.852  1.00  0.00    -0.367 NA 
HETATM    2  H2  UNL     1     -12.392  10.293  71.538  1.00  0.00     0.000 HD 
HETATM    3  C   UNL     1     -11.601   8.678  70.726  1.00  0.00    -0.242 A  
HETATM    4  H1  UNL     1     -12.505   9.026  72.595  1.00  0.00     0.000 HD 
HETATM    5  C   UNL     1     -10.826   9.237  69.708  1.00  0.00    -0.239 A  
HETATM    6  C   UNL     1     -10.364   8.452  68.646  1.00  0.00    -0.222 A  
HETATM    7  C   UNL     1     -10.651   7.086  68.609  1.00  0.00    -0.238 A  
HETATM    8  C   UNL     1     -11.372   6.503  69.657  1.00  0.00    -0.443 A  
HETATM    9  C   UNL     1     -11.823   7.297  70.718  1.00  0.00    -0.324 A  
ENDROOT
BRANCH   7  10
HETATM   10  C   UNL     1     -10.118   6.273  67.484  1.00  0.00    -0.154 C  
HETATM   11  N   UNL     1      -8.748   6.287  67.314  1.00  0.00    -0.106 N  
HETATM   12  O   UNL     1     -10.870   5.636  66.759  1.00  0.00    -0.291 OA 
HETATM   13  H   UNL     1      -8.177   6.948  67.843  1.00  0.00     0.000 HD 
BRANCH  11  14
HETATM   14  C   UNL     1      -8.106   5.358  66.376  1.00  0.00    -0.105 C  
HETATM   15  C   UNL     1      -7.139   4.390  67.053  1.00  0.00    -0.068 C  
HETATM   16  O   UNL     1      -6.551   3.492  66.466  1.00  0.00    -0.039 OA 
HETATM   17  O   UNL     1      -7.022   4.583  68.388  1.00  0.00    -0.050 OA 
ENDBRANCH  11  14
ENDBRANCH   7  10
TORSDOF 2
ENDMDL
MODEL      180
REMARK 921   NORMALIZED FREE ENERGY PREDICTED BY IDOCK:   -2.56 KCAL/MOL
REMARK 922        TOTAL FREE ENERGY PREDICTED BY IDOCK:   -3.07 KCAL/MOL
REMARK 923 INTER-LIGAND FREE ENERGY PREDICTED BY IDOCK:   -2.85 KCAL/MOL
REMARK 924 INTRA-LIGAND FREE ENERGY PREDICTED BY IDOCK:   -0.22 KCAL/MOL
REMARK 927      BINDING AFFINITY PREDICTED BY RF-SCORE:    0.00 PKD
ROOT
HETATM    1  N   UNL     1      -6.664  15.707  69.490  1.00  0.00    -0.175 NA 
HETATM    2  H2  UNL     1      -5.821  15.954  68.973  1.00  0.00     0.000 HD 
HETATM    3  C   UNL     1      -7.425  14.838  68.703  1.00  0.00    -0.126 A  
HETATM    4  H1  UNL     1      -7.079  16.565  69.856  1.00  0.00     0.000 HD 
HETATM    5  C   UNL     1      -6.857  13.663  68.202  1.00  0.00    -0.121 A  
HETATM    6  C   UNL     1      -7.642  12.717  67.534  1.00  0.00    -0.162 A  
HETATM    7  C   UNL     1      -9.014  12.925  67.386  1.00  0.00    -0.199 A  
HETATM    8  C   UNL     1      -9.604  14.067  67.940  1.00  0.00    -0.221 A  
HETATM    9  C   UNL     1      -8.810  15.003  68.613  1.00  0.00    -0.185 A  
ENDROOT
BRANCH   7  10
HETATM   10  C   UNL     1      -9.825  11.886  66.699  1.00  0.00    -0.201 C  
HETATM   11  N   UNL     1      -9.166  10.720  66.359  1.00  0.00    -0.166 N  
HETATM   12  O   UNL     1     -11.009  12.072  66.456  1.00  0.00    -0.267 OA 
HETATM   13  H   UNL     1      -8.151  10.669  66.444  1.00  0.00     0.000 HD 
BRANCH  11  14
HETATM   14  C   UNL     1      -9.918   9.556  65.876  1.00  0.00    -0.272 C  
HETATM   15  C   UNL     1     -10.063   8.455  66.924  1.00  0.00    -0.294 C  
HETATM   16  O   UNL     1     -10.708   7.430  66.750  1.00  0.00    -0.319 OA 
HETATM   17  O   UNL     1      -9.446   8.735  68.096  1.00  0.00    -0.139 OA 
ENDBRANCH  11  14
ENDBRANCH   7  10
TORSDOF 2
ENDMDL
MODEL      181
REMARK 921   NORMALIZED FREE ENERGY PREDICTED BY IDOCK:   -2.54 KCAL/MOL
REMARK 922        TOTAL FREE ENERGY PREDICTED BY IDOCK:   -3.05 KCAL/MOL
REMARK 923 INTER-LIGAND FREE ENERGY PREDICTED BY IDOCK:   -2.84 KCAL/MOL
REMARK 924 INTRA-LIGAND FREE ENERGY PREDICTED BY IDOCK:   -0.21 KCAL/MOL
REMARK 927      BINDING AFFINITY PREDICTED BY RF-SCORE:    0.00 PKD
ROOT
HETATM    1  N   UNL     1      -9.521   8.238  72.552  1.00  0.00    -0.265 NA 
HETATM    2  H2  UNL     1      -8.679   8.055  73.098  1.00  0.00     0.000 HD 
HETATM    3  C   UNL     1      -9.141   8.541  71.242  1.00  0.00    -0.196 A  
HETATM    4  H1  UNL     1     -10.110   8.883  73.078  1.00  0.00     0.000 HD 
HETATM    5  C   UNL     1      -8.334   7.657  70.521  1.00  0.00    -0.126 A  
HETATM    6  C   UNL     1      -8.061   7.877  69.167  1.00  0.00    -0.124 A  
HETATM    7  C   UNL     1      -8.621   8.976  68.511  1.00  0.00    -0.129 A  
HETATM    8  C   UNL     1      -9.482   9.831  69.207  1.00  0.00    -0.201 A  
HETATM    9  C   UNL     1      -9.754   9.596  70.559  1.00  0.00    -0.280 A  
ENDROOT
BRANCH   7  10
HETATM   10  C   UNL     1      -8.338   9.164  67.063  1.00  0.00    -0.120 C  
HETATM   11  N   UNL     1      -9.406   8.996  66.204  1.00  0.00    -0.213 N  
HETATM   12  O   UNL     1      -7.214   9.450  66.676  1.00  0.00    -0.085 OA 
HETATM   13  H   UNL     1     -10.284   8.612  66.554  1.00  0.00     0.000 HD 
BRANCH  11  14
HETATM   14  C   UNL     1      -9.286   9.367  64.789  1.00  0.00    -0.156 C  
HETATM   15  C   UNL     1     -10.059  10.633  64.429  1.00  0.00    -0.349 C  
HETATM   16  O   UNL     1     -10.039  11.152  63.322  1.00  0.00    -0.342 OA 
HETATM   17  O   UNL     1     -10.742  11.167  65.469  1.00  0.00    -0.251 OA 
ENDBRANCH  11  14
ENDBRANCH   7  10
TORSDOF 2
ENDMDL
MODEL      182
REMARK 921   NORMALIZED FREE ENERGY PREDICTED BY IDOCK:   -2.54 KCAL/MOL
REMARK 922        TOTAL FREE ENERGY PREDICTED BY IDOCK:   -3.05 KCAL/MOL
REMARK 923 INTER-LIGAND FREE ENERGY PREDICTED BY IDOCK:   -2.83 KCAL/MOL
REMARK 924 INTRA-LIGAND FREE ENERGY PREDICTED BY IDOCK:   -0.21 KCAL/MOL
REMARK 927      BINDING AFFINITY PREDICTED BY RF-SCORE:    0.00 PKD
ROOT
HETATM    1  N   UNL     1      -9.940  13.258  65.658  1.00  0.00    -0.405 NA 
HETATM    2  H2  UNL     1      -9.337  14.035  65.929  1.00  0.00     0.000 HD 
HETATM    3  C   UNL     1      -9.555  12.128  66.385  1.00  0.00    -0.234 A  
HETATM    4  H1  UNL     1      -9.983  13.224  64.640  1.00  0.00     0.000 HD 
HETATM    5  C   UNL     1      -9.497  12.175  67.780  1.00  0.00    -0.192 A  
HETATM    6  C   UNL     1      -9.251  11.016  68.526  1.00  0.00    -0.177 A  
HETATM    7  C   UNL     1      -9.089   9.789  67.880  1.00  0.00    -0.126 A  
HETATM    8  C   UNL     1      -9.210   9.721  66.487  1.00  0.00    -0.194 A  
HETATM    9  C   UNL     1      -9.464  10.884  65.752  1.00  0.00    -0.246 A  
ENDROOT
BRANCH   7  10
HETATM   10  C   UNL     1      -8.861   8.572  68.702  1.00  0.00    -0.136 C  
HETATM   11  N   UNL     1      -9.704   7.504  68.463  1.00  0.00    -0.154 N  
HETATM   12  O   UNL     1      -7.972   8.539  69.542  1.00  0.00    -0.101 OA 
HETATM   13  H   UNL     1     -10.522   7.628  67.865  1.00  0.00     0.000 HD 
BRANCH  11  14
HETATM   14  C   UNL     1      -9.430   6.193  69.063  1.00  0.00    -0.127 C  
HETATM   15  C   UNL     1     -10.458   5.785  70.115  1.00  0.00    -0.278 C  
HETATM   16  O   UNL     1     -10.454   4.705  70.688  1.00  0.00    -0.121 OA 
HETATM   17  O   UNL     1     -11.417   6.717  70.329  1.00  0.00    -0.343 OA 
ENDBRANCH  11  14
ENDBRANCH   7  10
TORSDOF 2
ENDMDL
MODEL      183
REMARK 921   NORMALIZED FREE ENERGY PREDICTED BY IDOCK:   -2.53 KCAL/MOL
REMARK 922        TOTAL FREE ENERGY PREDICTED BY IDOCK:   -3.04 KCAL/MOL
REMARK 923 INTER-LIGAND FREE ENERGY PREDICTED BY IDOCK:   -2.86 KCAL/MOL
REMARK 924 INTRA-LIGAND FREE ENERGY PREDICTED BY IDOCK:   -0.18 KCAL/MOL
REMARK 927      BINDING AFFINITY PREDICTED BY RF-SCORE:    0.00 PKD
ROOT
HETATM    1  N   UNL     1     -12.124   8.890  72.133  1.00  0.00    -0.366 NA 
HETATM    2  H2  UNL     1     -13.035   8.951  71.678  1.00  0.00     0.000 HD 
HETATM    3  C   UNL     1     -11.594   7.620  71.890  1.00  0.00    -0.280 A  
HETATM    4  H1  UNL     1     -12.220   9.232  73.090  1.00  0.00     0.000 HD 
HETATM    5  C   UNL     1     -11.463   7.151  70.580  1.00  0.00    -0.334 A  
HETATM    6  C   UNL     1     -10.806   5.945  70.313  1.00  0.00    -0.391 A  
HETATM    7  C   UNL     1     -10.246   5.207  71.358  1.00  0.00    -0.282 A  
HETATM    8  C   UNL     1     -10.315   5.700  72.666  1.00  0.00    -0.235 A  
HETATM    9  C   UNL     1     -10.968   6.911  72.920  1.00  0.00    -0.315 A  
ENDROOT
BRANCH   7  10
HETATM   10  C   UNL     1      -9.527   3.946  71.038  1.00  0.00    -0.166 C  
HETATM   11  N   UNL     1      -9.147   3.775  69.721  1.00  0.00    -0.109 N  
HETATM   12  O   UNL     1      -9.297   3.117  71.907  1.00  0.00    -0.109 OA 
HETATM   13  H   UNL     1      -9.491   4.417  69.006  1.00  0.00     0.000 HD 
BRANCH  11  14
HETATM   14  C   UNL     1      -8.252   2.675  69.343  1.00  0.00    -0.047 C  
HETATM   15  C   UNL     1      -8.120   2.496  67.833  1.00  0.00    -0.063 C  
HETATM   16  O   UNL     1      -7.374   1.682  67.306  1.00  0.00    -0.052 OA 
HETATM   17  O   UNL     1      -8.877   3.359  67.115  1.00  0.00    -0.114 OA 
ENDBRANCH  11  14
ENDBRANCH   7  10
TORSDOF 2
ENDMDL
MODEL      184
REMARK 921   NORMALIZED FREE ENERGY PREDICTED BY IDOCK:   -2.49 KCAL/MOL
REMARK 922        TOTAL FREE ENERGY PREDICTED BY IDOCK:   -3.00 KCAL/MOL
REMARK 923 INTER-LIGAND FREE ENERGY PREDICTED BY IDOCK:   -2.81 KCAL/MOL
REMARK 924 INTRA-LIGAND FREE ENERGY PREDICTED BY IDOCK:   -0.19 KCAL/MOL
REMARK 927      BINDING AFFINITY PREDICTED BY RF-SCORE:    0.00 PKD
ROOT
HETATM    1  N   UNL     1     -10.069   2.420  63.868  1.00  0.00    -0.225 NA 
HETATM    2  H2  UNL     1      -9.988   2.956  63.004  1.00  0.00     0.000 HD 
HETATM    3  C   UNL     1      -9.894   3.292  64.946  1.00  0.00    -0.060 A  
HETATM    4  H1  UNL     1      -9.489   1.585  63.783  1.00  0.00     0.000 HD 
HETATM    5  C   UNL     1     -10.689   4.435  65.063  1.00  0.00    -0.128 A  
HETATM    6  C   UNL     1     -10.622   5.240  66.205  1.00  0.00    -0.308 A  
HETATM    7  C   UNL     1      -9.776   4.890  67.260  1.00  0.00    -0.194 A  
HETATM    8  C   UNL     1      -9.025   3.712  67.180  1.00  0.00    -0.162 A  
HETATM    9  C   UNL     1      -9.105   2.911  66.036  1.00  0.00    -0.133 A  
ENDROOT
BRANCH   7  10
HETATM   10  C   UNL     1      -9.753   5.748  68.473  1.00  0.00    -0.131 C  
HETATM   11  N   UNL     1     -10.352   5.227  69.604  1.00  0.00    -0.278 N  
HETATM   12  O   UNL     1      -9.230   6.854  68.450  1.00  0.00    -0.127 OA 
HETATM   13  H   UNL     1     -10.905   4.373  69.537  1.00  0.00     0.000 HD 
BRANCH  11  14
HETATM   14  C   UNL     1     -10.196   5.896  70.901  1.00  0.00    -0.213 C  
HETATM   15  C   UNL     1     -11.417   6.718  71.306  1.00  0.00    -0.302 C  
HETATM   16  O   UNL     1     -11.522   7.299  72.377  1.00  0.00    -0.275 OA 
HETATM   17  O   UNL     1     -12.408   6.710  70.383  1.00  0.00    -0.274 OA 
ENDBRANCH  11  14
ENDBRANCH   7  10
TORSDOF 2
ENDMDL
MODEL      185
REMARK 921   NORMALIZED FREE ENERGY PREDICTED BY IDOCK:   -2.46 KCAL/MOL
REMARK 922        TOTAL FREE ENERGY PREDICTED BY IDOCK:   -2.96 KCAL/MOL
REMARK 923 INTER-LIGAND FREE ENERGY PREDICTED BY IDOCK:   -2.79 KCAL/MOL
REMARK 924 INTRA-LIGAND FREE ENERGY PREDICTED BY IDOCK:   -0.17 KCAL/MOL
REMARK 927      BINDING AFFINITY PREDICTED BY RF-SCORE:    0.00 PKD
ROOT
HETATM    1  N   UNL     1     -10.384  11.037  69.210  1.00  0.00    -0.361 NA 
HETATM    2  H2  UNL     1     -10.825  11.792  68.685  1.00  0.00     0.000 HD 
HETATM    3  C   UNL     1     -10.064  10.008  68.320  1.00  0.00    -0.158 A  
HETATM    4  H1  UNL     1     -10.954  10.845  70.034  1.00  0.00     0.000 HD 
HETATM    5  C   UNL     1      -9.284  10.271  67.191  1.00  0.00    -0.163 A  
HETATM    6  C   UNL     1      -8.839   9.230  66.370  1.00  0.00    -0.169 A  
HETATM    7  C   UNL     1      -9.149   7.906  66.688  1.00  0.00    -0.199 A  
HETATM    8  C   UNL     1      -9.875   7.627  67.852  1.00  0.00    -0.190 A  
HETATM    9  C   UNL     1     -10.308   8.676  68.670  1.00  0.00    -0.219 A  
ENDROOT
BRANCH   7  10
HETATM   10  C   UNL     1      -8.634   6.821  65.813  1.00  0.00    -0.137 C  
HETATM   11  N   UNL     1      -9.435   5.703  65.687  1.00  0.00    -0.357 N  
HETATM   12  O   UNL     1      -7.556   6.930  65.246  1.00  0.00    -0.086 OA 
HETATM   13  H   UNL     1     -10.248   5.591  66.293  1.00  0.00     0.000 HD 
BRANCH  11  14
HETATM   14  C   UNL     1      -9.124   4.675  64.687  1.00  0.00    -0.141 C  
HETATM   15  C   UNL     1     -10.355   3.913  64.202  1.00  0.00    -0.227 C  
HETATM   16  O   UNL     1     -10.328   3.063  63.324  1.00  0.00    -0.150 OA 
HETATM   17  O   UNL     1     -11.505   4.298  64.804  1.00  0.00    -0.229 OA 
ENDBRANCH  11  14
ENDBRANCH   7  10
TORSDOF 2
ENDMDL
MODEL      186
REMARK 921   NORMALIZED FREE ENERGY PREDICTED BY IDOCK:   -2.39 KCAL/MOL
REMARK 922        TOTAL FREE ENERGY PREDICTED BY IDOCK:   -2.89 KCAL/MOL
REMARK 923 INTER-LIGAND FREE ENERGY PREDICTED BY IDOCK:   -2.69 KCAL/MOL
REMARK 924 INTRA-LIGAND FREE ENERGY PREDICTED BY IDOCK:   -0.19 KCAL/MOL
REMARK 927      BINDING AFFINITY PREDICTED BY RF-SCORE:    0.00 PKD
ROOT
HETATM    1  N   UNL     1      -9.519  11.036  64.789  1.00  0.00    -0.223 NA 
HETATM    2  H2  UNL     1      -9.626  10.661  63.847  1.00  0.00     0.000 HD 
HETATM    3  C   UNL     1      -9.809  10.019  65.703  1.00  0.00    -0.295 A  
HETATM    4  H1  UNL     1     -10.013  11.927  64.838  1.00  0.00     0.000 HD 
HETATM    5  C   UNL     1      -9.132   8.799  65.636  1.00  0.00    -0.247 A  
HETATM    6  C   UNL     1      -9.309   7.827  66.627  1.00  0.00    -0.238 A  
HETATM    7  C   UNL     1     -10.148   8.080  67.714  1.00  0.00    -0.250 A  
HETATM    8  C   UNL     1     -10.779   9.324  67.824  1.00  0.00    -0.270 A  
HETATM    9  C   UNL     1     -10.589  10.292  66.832  1.00  0.00    -0.282 A  
ENDROOT
BRANCH   7  10
HETATM   10  C   UNL     1     -10.289   7.039  68.766  1.00  0.00    -0.187 C  
HETATM   11  N   UNL     1      -9.122   6.433  69.189  1.00  0.00    -0.132 N  
HETATM   12  O   UNL     1     -11.388   6.748  69.217  1.00  0.00    -0.237 OA 
HETATM   13  H   UNL     1      -8.253   6.597  68.681  1.00  0.00     0.000 HD 
BRANCH  11  14
HETATM   14  C   UNL     1      -9.126   5.554  70.364  1.00  0.00    -0.139 C  
HETATM   15  C   UNL     1      -8.412   4.225  70.126  1.00  0.00    -0.065 C  
HETATM   16  O   UNL     1      -8.243   3.378  70.992  1.00  0.00    -0.063 OA 
HETATM   17  O   UNL     1      -7.934   4.083  68.867  1.00  0.00    -0.066 OA 
ENDBRANCH  11  14
ENDBRANCH   7  10
TORSDOF 2
ENDMDL
MODEL      187
REMARK 921   NORMALIZED FREE ENERGY PREDICTED BY IDOCK:   -2.38 KCAL/MOL
REMARK 922        TOTAL FREE ENERGY PREDICTED BY IDOCK:   -2.87 KCAL/MOL
REMARK 923 INTER-LIGAND FREE ENERGY PREDICTED BY IDOCK:   -2.69 KCAL/MOL
REMARK 924 INTRA-LIGAND FREE ENERGY PREDICTED BY IDOCK:   -0.18 KCAL/MOL
REMARK 927      BINDING AFFINITY PREDICTED BY RF-SCORE:    0.00 PKD
ROOT
HETATM    1  N   UNL     1      -9.881   4.083  70.805  1.00  0.00    -0.191 NA 
HETATM    2  H2  UNL     1      -9.567   3.376  70.139  1.00  0.00     0.000 HD 
HETATM    3  C   UNL     1      -9.848   5.328  70.172  1.00  0.00    -0.220 A  
HETATM    4  H1  UNL     1      -9.383   3.940  71.683  1.00  0.00     0.000 HD 
HETATM    5  C   UNL     1     -10.530   5.524  68.968  1.00  0.00    -0.296 A  
HETATM    6  C   UNL     1     -10.623   6.798  68.397  1.00  0.00    -0.270 A  
HETATM    7  C   UNL     1     -10.057   7.899  69.044  1.00  0.00    -0.204 A  
HETATM    8  C   UNL     1      -9.428   7.723  70.282  1.00  0.00    -0.160 A  
HETATM    9  C   UNL     1      -9.348   6.446  70.847  1.00  0.00    -0.168 A  
ENDROOT
BRANCH   7  10
HETATM   10  C   UNL     1     -10.201   9.243  68.427  1.00  0.00    -0.202 C  
HETATM   11  N   UNL     1      -9.412  10.247  68.954  1.00  0.00    -0.178 N  
HETATM   12  O   UNL     1     -10.984   9.431  67.506  1.00  0.00    -0.223 OA 
HETATM   13  H   UNL     1      -8.889  10.082  69.815  1.00  0.00     0.000 HD 
BRANCH  11  14
HETATM   14  C   UNL     1      -9.320  11.549  68.283  1.00  0.00    -0.190 C  
HETATM   15  C   UNL     1      -7.942  12.195  68.406  1.00  0.00    -0.152 C  
HETATM   16  O   UNL     1      -7.633  13.248  67.865  1.00  0.00    -0.121 OA 
HETATM   17  O   UNL     1      -7.064  11.469  69.137  1.00  0.00    -0.112 OA 
ENDBRANCH  11  14
ENDBRANCH   7  10
TORSDOF 2
ENDMDL
MODEL      188
REMARK 921   NORMALIZED FREE ENERGY PREDICTED BY IDOCK:   -2.37 KCAL/MOL
REMARK 922        TOTAL FREE ENERGY PREDICTED BY IDOCK:   -2.86 KCAL/MOL
REMARK 923 INTER-LIGAND FREE ENERGY PREDICTED BY IDOCK:   -2.68 KCAL/MOL
REMARK 924 INTRA-LIGAND FREE ENERGY PREDICTED BY IDOCK:   -0.18 KCAL/MOL
REMARK 927      BINDING AFFINITY PREDICTED BY RF-SCORE:    0.00 PKD
ROOT
HETATM    1  N   UNL     1      -5.771   8.948  71.405  1.00  0.00    -0.044 NA 
HETATM    2  H2  UNL     1      -5.984   7.981  71.652  1.00  0.00     0.000 HD 
HETATM    3  C   UNL     1      -6.591   9.319  70.335  1.00  0.00    -0.068 A  
HETATM    4  H1  UNL     1      -4.758   9.045  71.334  1.00  0.00     0.000 HD 
HETATM    5  C   UNL     1      -7.978   9.185  70.432  1.00  0.00    -0.155 A  
HETATM    6  C   UNL     1      -8.817   9.682  69.429  1.00  0.00    -0.183 A  
HETATM    7  C   UNL     1      -8.274  10.347  68.328  1.00  0.00    -0.114 A  
HETATM    8  C   UNL     1      -6.890  10.543  68.253  1.00  0.00    -0.068 A  
HETATM    9  C   UNL     1      -6.061  10.049  69.266  1.00  0.00    -0.040 A  
ENDROOT
BRANCH   7  10
HETATM   10  C   UNL     1      -9.194  10.891  67.295  1.00  0.00    -0.151 C  
HETATM   11  N   UNL     1      -9.574  12.211  67.448  1.00  0.00    -0.176 N  
HETATM   12  O   UNL     1      -9.584  10.192  66.371  1.00  0.00    -0.175 OA 
HETATM   13  H   UNL     1      -9.348  12.707  68.309  1.00  0.00     0.000 HD 
BRANCH  11  14
HETATM   14  C   UNL     1     -10.301  12.902  66.377  1.00  0.00    -0.268 C  
HETATM   15  C   UNL     1     -11.806  12.983  66.623  1.00  0.00    -0.393 C  
HETATM   16  O   UNL     1     -12.586  13.573  65.890  1.00  0.00    -0.446 OA 
HETATM   17  O   UNL     1     -12.202  12.374  67.766  1.00  0.00    -0.395 OA 
ENDBRANCH  11  14
ENDBRANCH   7  10
TORSDOF 2
ENDMDL
MODEL      189
REMARK 921   NORMALIZED FREE ENERGY PREDICTED BY IDOCK:   -2.35 KCAL/MOL
REMARK 922        TOTAL FREE ENERGY PREDICTED BY IDOCK:   -2.83 KCAL/MOL
REMARK 923 INTER-LIGAND FREE ENERGY PREDICTED BY IDOCK:   -2.65 KCAL/MOL
REMARK 924 INTRA-LIGAND FREE ENERGY PREDICTED BY IDOCK:   -0.18 KCAL/MOL
REMARK 927      BINDING AFFINITY PREDICTED BY RF-SCORE:    0.00 PKD
ROOT
HETATM    1  N   UNL     1      -9.106   3.575  64.386  1.00  0.00    -0.122 NA 
HETATM    2  H2  UNL     1      -8.201   3.764  63.954  1.00  0.00     0.000 HD 
HETATM    3  C   UNL     1      -9.240   4.399  65.507  1.00  0.00    -0.150 A  
HETATM    4  H1  UNL     1      -9.214   2.565  64.475  1.00  0.00     0.000 HD 
HETATM    5  C   UNL     1      -9.091   5.783  65.385  1.00  0.00     0.012 A  
HETATM    6  C   UNL     1      -9.360   6.630  66.465  1.00  0.00    -0.191 A  
HETATM    7  C   UNL     1      -9.811   6.099  67.676  1.00  0.00    -0.131 A  
HETATM    8  C   UNL     1     -10.025   4.721  67.788  1.00  0.00    -0.169 A  
HETATM    9  C   UNL     1      -9.760   3.884  66.698  1.00  0.00    -0.189 A  
ENDROOT
BRANCH   7  10
HETATM   10  C   UNL     1     -10.119   7.029  68.794  1.00  0.00    -0.170 C  
HETATM   11  N   UNL     1     -10.322   8.352  68.452  1.00  0.00    -0.229 N  
HETATM   12  O   UNL     1     -10.181   6.625  69.947  1.00  0.00    -0.180 OA 
HETATM   13  H   UNL     1     -10.112   8.670  67.506  1.00  0.00     0.000 HD 
BRANCH  11  14
HETATM   14  C   UNL     1     -10.839   9.303  69.443  1.00  0.00    -0.169 C  
HETATM   15  C   UNL     1     -11.483  10.537  68.816  1.00  0.00    -0.224 C  
HETATM   16  O   UNL     1     -12.034  11.420  69.458  1.00  0.00    -0.309 OA 
HETATM   17  O   UNL     1     -11.432  10.549  67.462  1.00  0.00    -0.431 OA 
ENDBRANCH  11  14
ENDBRANCH   7  10
TORSDOF 2
ENDMDL
MODEL      190
REMARK 921   NORMALIZED FREE ENERGY PREDICTED BY IDOCK:   -2.34 KCAL/MOL
REMARK 922        TOTAL FREE ENERGY PREDICTED BY IDOCK:   -2.83 KCAL/MOL
REMARK 923 INTER-LIGAND FREE ENERGY PREDICTED BY IDOCK:   -2.62 KCAL/MOL
REMARK 924 INTRA-LIGAND FREE ENERGY PREDICTED BY IDOCK:   -0.20 KCAL/MOL
REMARK 927      BINDING AFFINITY PREDICTED BY RF-SCORE:    0.00 PKD
ROOT
HETATM    1  N   UNL     1     -10.759  14.013  65.663  1.00  0.00    -0.293 NA 
HETATM    2  H2  UNL     1     -10.088  14.744  65.900  1.00  0.00     0.000 HD 
HETATM    3  C   UNL     1     -10.748  13.057  66.682  1.00  0.00    -0.274 A  
HETATM    4  H1  UNL     1     -10.600  13.734  64.695  1.00  0.00     0.000 HD 
HETATM    5  C   UNL     1     -10.965  13.439  68.008  1.00  0.00    -0.265 A  
HETATM    6  C   UNL     1     -11.096  12.479  69.018  1.00  0.00    -0.287 A  
HETATM    7  C   UNL     1     -11.040  11.120  68.703  1.00  0.00    -0.293 A  
HETATM    8  C   UNL     1     -10.888  10.726  67.368  1.00  0.00    -0.345 A  
HETATM    9  C   UNL     1     -10.765  11.694  66.366  1.00  0.00    -0.316 A  
ENDROOT
BRANCH   7  10
HETATM   10  C   UNL     1     -11.216  10.125  69.793  1.00  0.00    -0.272 C  
HETATM   11  N   UNL     1     -12.472   9.562  69.913  1.00  0.00    -0.034 N  
HETATM   12  O   UNL     1     -10.287   9.836  70.535  1.00  0.00    -0.278 OA 
HETATM   13  H   UNL     1     -13.251   9.942  69.374  1.00  0.00     0.000 HD 
BRANCH  11  14
HETATM   14  C   UNL     1     -12.692   8.422  70.810  1.00  0.00     0.259 C  
HETATM   15  C   UNL     1     -13.616   8.746  71.982  1.00  0.00    -0.427 C  
HETATM   16  O   UNL     1     -13.982   7.923  72.808  1.00  0.00     0.236 OA 
HETATM   17  O   UNL     1     -14.038  10.033  72.002  1.00  0.00    -0.033 OA 
ENDBRANCH  11  14
ENDBRANCH   7  10
TORSDOF 2
ENDMDL
MODEL      191
REMARK 921   NORMALIZED FREE ENERGY PREDICTED BY IDOCK:   -2.28 KCAL/MOL
REMARK 922        TOTAL FREE ENERGY PREDICTED BY IDOCK:   -2.76 KCAL/MOL
REMARK 923 INTER-LIGAND FREE ENERGY PREDICTED BY IDOCK:   -2.59 KCAL/MOL
REMARK 924 INTRA-LIGAND FREE ENERGY PREDICTED BY IDOCK:   -0.17 KCAL/MOL
REMARK 927      BINDING AFFINITY PREDICTED BY RF-SCORE:    0.00 PKD
ROOT
HETATM    1  N   UNL     1     -12.456   9.039  72.036  1.00  0.00    -0.372 NA 
HETATM    2  H2  UNL     1     -13.372   8.950  71.595  1.00  0.00     0.000 HD 
HETATM    3  C   UNL     1     -11.873   7.771  72.102  1.00  0.00    -0.324 A  
HETATM    4  H1  UNL     1     -12.560   9.602  72.880  1.00  0.00     0.000 HD 
HETATM    5  C   UNL     1     -11.732   7.000  70.946  1.00  0.00    -0.387 A  
HETATM    6  C   UNL     1     -11.026   5.792  70.972  1.00  0.00    -0.300 A  
HETATM    7  C   UNL     1     -10.428   5.357  72.157  1.00  0.00    -0.273 A  
HETATM    8  C   UNL     1     -10.509   6.154  73.305  1.00  0.00    -0.261 A  
HETATM    9  C   UNL     1     -11.211   7.363  73.264  1.00  0.00    -0.203 A  
ENDROOT
BRANCH   7  10
HETATM   10  C   UNL     1      -9.658   4.085  72.144  1.00  0.00    -0.149 C  
HETATM   11  N   UNL     1      -8.369   4.145  72.636  1.00  0.00    -0.099 N  
HETATM   12  O   UNL     1     -10.156   3.054  71.715  1.00  0.00    -0.152 OA 
HETATM   13  H   UNL     1      -7.945   5.050  72.841  1.00  0.00     0.000 HD 
BRANCH  11  14
HETATM   14  C   UNL     1      -7.604   2.914  72.866  1.00  0.00    -0.050 C  
HETATM   15  C   UNL     1      -6.093   3.121  72.799  1.00  0.00    -0.009 C  
HETATM   16  O   UNL     1      -5.274   2.241  73.026  1.00  0.00     0.000 OA 
HETATM   17  O   UNL     1      -5.730   4.393  72.508  1.00  0.00    -0.010 OA 
ENDBRANCH  11  14
ENDBRANCH   7  10
TORSDOF 2
ENDMDL
MODEL      192
REMARK 921   NORMALIZED FREE ENERGY PREDICTED BY IDOCK:   -2.18 KCAL/MOL
REMARK 922        TOTAL FREE ENERGY PREDICTED BY IDOCK:   -2.65 KCAL/MOL
REMARK 923 INTER-LIGAND FREE ENERGY PREDICTED BY IDOCK:   -2.47 KCAL/MOL
REMARK 924 INTRA-LIGAND FREE ENERGY PREDICTED BY IDOCK:   -0.19 KCAL/MOL
REMARK 927      BINDING AFFINITY PREDICTED BY RF-SCORE:    0.00 PKD
ROOT
HETATM    1  N   UNL     1      -9.880   2.970  63.538  1.00  0.00    -0.121 NA 
HETATM    2  H2  UNL     1      -9.116   2.296  63.574  1.00  0.00     0.000 HD 
HETATM    3  C   UNL     1      -9.674   3.924  64.538  1.00  0.00    -0.183 A  
HETATM    4  H1  UNL     1     -10.760   2.456  63.492  1.00  0.00     0.000 HD 
HETATM    5  C   UNL     1      -8.469   4.628  64.601  1.00  0.00    -0.135 A  
HETATM    6  C   UNL     1      -8.302   5.682  65.506  1.00  0.00    -0.139 A  
HETATM    7  C   UNL     1      -9.354   6.061  66.342  1.00  0.00    -0.171 A  
HETATM    8  C   UNL     1     -10.586   5.404  66.241  1.00  0.00    -0.268 A  
HETATM    9  C   UNL     1     -10.745   4.357  65.326  1.00  0.00    -0.150 A  
ENDROOT
BRANCH   7  10
HETATM   10  C   UNL     1      -9.155   7.205  67.270  1.00  0.00    -0.123 C  
HETATM   11  N   UNL     1     -10.122   7.381  68.240  1.00  0.00    -0.171 N  
HETATM   12  O   UNL     1      -8.183   7.939  67.161  1.00  0.00    -0.115 OA 
HETATM   13  H   UNL     1     -10.987   6.842  68.199  1.00  0.00     0.000 HD 
BRANCH  11  14
HETATM   14  C   UNL     1      -9.913   8.341  69.331  1.00  0.00    -0.188 C  
HETATM   15  C   UNL     1     -10.494   7.876  70.664  1.00  0.00    -0.213 C  
HETATM   16  O   UNL     1     -10.372   8.493  71.712  1.00  0.00    -0.232 OA 
HETATM   17  O   UNL     1     -11.126   6.680  70.594  1.00  0.00    -0.259 OA 
ENDBRANCH  11  14
ENDBRANCH   7  10
TORSDOF 2
ENDMDL
MODEL      193
REMARK 921   NORMALIZED FREE ENERGY PREDICTED BY IDOCK:   -2.17 KCAL/MOL
REMARK 922        TOTAL FREE ENERGY PREDICTED BY IDOCK:   -2.64 KCAL/MOL
REMARK 923 INTER-LIGAND FREE ENERGY PREDICTED BY IDOCK:   -2.47 KCAL/MOL
REMARK 924 INTRA-LIGAND FREE ENERGY PREDICTED BY IDOCK:   -0.17 KCAL/MOL
REMARK 927      BINDING AFFINITY PREDICTED BY RF-SCORE:    0.00 PKD
ROOT
HETATM    1  N   UNL     1      -6.055  15.252  67.970  1.00  0.00    -0.134 NA 
HETATM    2  H2  UNL     1      -6.500  16.100  68.322  1.00  0.00     0.000 HD 
HETATM    3  C   UNL     1      -6.898  14.169  68.237  1.00  0.00    -0.107 A  
HETATM    4  H1  UNL     1      -5.087  15.240  68.291  1.00  0.00     0.000 HD 
HETATM    5  C   UNL     1      -8.224  14.185  67.797  1.00  0.00    -0.172 A  
HETATM    6  C   UNL     1      -9.037  13.054  67.933  1.00  0.00    -0.207 A  
HETATM    7  C   UNL     1      -8.518  11.882  68.486  1.00  0.00    -0.113 A  
HETATM    8  C   UNL     1      -7.173  11.836  68.870  1.00  0.00    -0.107 A  
HETATM    9  C   UNL     1      -6.367  12.970  68.723  1.00  0.00    -0.084 A  
ENDROOT
BRANCH   7  10
HETATM   10  C   UNL     1      -9.398  10.688  68.587  1.00  0.00    -0.177 C  
HETATM   11  N   UNL     1      -9.768  10.305  69.861  1.00  0.00    -0.412 N  
HETATM   12  O   UNL     1      -9.762  10.090  67.583  1.00  0.00    -0.153 OA 
HETATM   13  H   UNL     1      -9.322  10.738  70.670  1.00  0.00     0.000 HD 
BRANCH  11  14
HETATM   14  C   UNL     1     -10.799   9.280  70.058  1.00  0.00    -0.238 C  
HETATM   15  C   UNL     1     -10.225   7.891  70.329  1.00  0.00    -0.200 C  
HETATM   16  O   UNL     1     -10.908   6.910  70.585  1.00  0.00    -0.229 OA 
HETATM   17  O   UNL     1      -8.872   7.848  70.305  1.00  0.00    -0.138 OA 
ENDBRANCH  11  14
ENDBRANCH   7  10
TORSDOF 2
ENDMDL
MODEL      194
REMARK 921   NORMALIZED FREE ENERGY PREDICTED BY IDOCK:   -2.11 KCAL/MOL
REMARK 922        TOTAL FREE ENERGY PREDICTED BY IDOCK:   -2.57 KCAL/MOL
REMARK 923 INTER-LIGAND FREE ENERGY PREDICTED BY IDOCK:   -2.35 KCAL/MOL
REMARK 924 INTRA-LIGAND FREE ENERGY PREDICTED BY IDOCK:   -0.21 KCAL/MOL
REMARK 927      BINDING AFFINITY PREDICTED BY RF-SCORE:    0.00 PKD
ROOT
HETATM    1  N   UNL     1      -6.539   4.361  63.178  1.00  0.00    -0.030 NA 
HETATM    2  H2  UNL     1      -7.059   3.581  62.777  1.00  0.00     0.000 HD 
HETATM    3  C   UNL     1      -7.397   5.076  64.018  1.00  0.00    -0.055 A  
HETATM    4  H1  UNL     1      -6.043   4.837  62.425  1.00  0.00     0.000 HD 
HETATM    5  C   UNL     1      -8.077   4.424  65.050  1.00  0.00    -0.099 A  
HETATM    6  C   UNL     1      -8.827   5.149  65.983  1.00  0.00    -0.137 A  
HETATM    7  C   UNL     1      -8.880   6.542  65.908  1.00  0.00    -0.131 A  
HETATM    8  C   UNL     1      -8.150   7.209  64.917  1.00  0.00    -0.107 A  
HETATM    9  C   UNL     1      -7.397   6.475  63.995  1.00  0.00    -0.077 A  
ENDROOT
BRANCH   7  10
HETATM   10  C   UNL     1      -9.659   7.284  66.934  1.00  0.00    -0.174 C  
HETATM   11  N   UNL     1      -9.412   6.950  68.251  1.00  0.00    -0.127 N  
HETATM   12  O   UNL     1     -10.471   8.139  66.609  1.00  0.00    -0.303 OA 
HETATM   13  H   UNL     1      -8.842   6.132  68.469  1.00  0.00     0.000 HD 
BRANCH  11  14
HETATM   14  C   UNL     1      -9.965   7.764  69.340  1.00  0.00    -0.188 C  
HETATM   15  C   UNL     1     -11.091   7.069  70.101  1.00  0.00    -0.285 C  
HETATM   16  O   UNL     1     -11.643   7.544  71.084  1.00  0.00    -0.270 OA 
HETATM   17  O   UNL     1     -11.400   5.843  69.616  1.00  0.00    -0.370 OA 
ENDBRANCH  11  14
ENDBRANCH   7  10
TORSDOF 2
ENDMDL
MODEL      195
REMARK 921   NORMALIZED FREE ENERGY PREDICTED BY IDOCK:   -1.93 KCAL/MOL
REMARK 922        TOTAL FREE ENERGY PREDICTED BY IDOCK:   -2.37 KCAL/MOL
REMARK 923 INTER-LIGAND FREE ENERGY PREDICTED BY IDOCK:   -2.20 KCAL/MOL
REMARK 924 INTRA-LIGAND FREE ENERGY PREDICTED BY IDOCK:   -0.17 KCAL/MOL
REMARK 927      BINDING AFFINITY PREDICTED BY RF-SCORE:    0.00 PKD
ROOT
HETATM    1  N   UNL     1      -5.977   4.737  64.072  1.00  0.00    -0.017 NA 
HETATM    2  H2  UNL     1      -6.408   4.625  63.155  1.00  0.00     0.000 HD 
HETATM    3  C   UNL     1      -6.813   5.535  64.858  1.00  0.00    -0.048 A  
HETATM    4  H1  UNL     1      -4.999   4.995  63.937  1.00  0.00     0.000 HD 
HETATM    5  C   UNL     1      -8.152   5.182  65.043  1.00  0.00    -0.117 A  
HETATM    6  C   UNL     1      -8.962   5.891  65.937  1.00  0.00    -0.149 A  
HETATM    7  C   UNL     1      -8.429   6.946  66.680  1.00  0.00    -0.121 A  
HETATM    8  C   UNL     1      -7.072   7.265  66.550  1.00  0.00    -0.078 A  
HETATM    9  C   UNL     1      -6.270   6.545  65.658  1.00  0.00    -0.034 A  
ENDROOT
BRANCH   7  10
HETATM   10  C   UNL     1      -9.308   7.657  67.645  1.00  0.00    -0.142 C  
HETATM   11  N   UNL     1      -9.015   8.987  67.874  1.00  0.00    -0.132 N  
HETATM   12  O   UNL     1     -10.233   7.078  68.196  1.00  0.00    -0.166 OA 
HETATM   13  H   UNL     1      -8.149   9.386  67.512  1.00  0.00     0.000 HD 
BRANCH  11  14
HETATM   14  C   UNL     1      -9.942   9.831  68.638  1.00  0.00    -0.167 C  
HETATM   15  C   UNL     1     -10.938  10.582  67.757  1.00  0.00    -0.313 C  
HETATM   16  O   UNL     1     -11.837  11.286  68.194  1.00  0.00    -0.553 OA 
HETATM   17  O   UNL     1     -10.766  10.363  66.432  1.00  0.00    -0.167 OA 
ENDBRANCH  11  14
ENDBRANCH   7  10
TORSDOF 2
ENDMDL
MODEL      196
REMARK 921   NORMALIZED FREE ENERGY PREDICTED BY IDOCK:   -1.85 KCAL/MOL
REMARK 922        TOTAL FREE ENERGY PREDICTED BY IDOCK:   -2.28 KCAL/MOL
REMARK 923 INTER-LIGAND FREE ENERGY PREDICTED BY IDOCK:   -2.05 KCAL/MOL
REMARK 924 INTRA-LIGAND FREE ENERGY PREDICTED BY IDOCK:   -0.23 KCAL/MOL
REMARK 927      BINDING AFFINITY PREDICTED BY RF-SCORE:    0.00 PKD
ROOT
HETATM    1  N   UNL     1      -7.620   6.820  74.378  1.00  0.00    -0.101 NA 
HETATM    2  H2  UNL     1      -8.436   6.917  74.983  1.00  0.00     0.000 HD 
HETATM    3  C   UNL     1      -8.060   6.755  73.053  1.00  0.00    -0.108 A  
HETATM    4  H1  UNL     1      -7.025   6.085  74.758  1.00  0.00     0.000 HD 
HETATM    5  C   UNL     1      -8.876   7.763  72.532  1.00  0.00    -0.202 A  
HETATM    6  C   UNL     1      -9.207   7.785  71.173  1.00  0.00    -0.158 A  
HETATM    7  C   UNL     1      -8.698   6.811  70.312  1.00  0.00    -0.144 A  
HETATM    8  C   UNL     1      -7.827   5.835  70.812  1.00  0.00    -0.101 A  
HETATM    9  C   UNL     1      -7.497   5.827  72.171  1.00  0.00    -0.096 A  
ENDROOT
BRANCH   7  10
HETATM   10  C   UNL     1      -9.042   6.881  68.868  1.00  0.00    -0.134 C  
HETATM   11  N   UNL     1      -9.794   7.970  68.470  1.00  0.00    -0.169 N  
HETATM   12  O   UNL     1      -8.672   6.012  68.091  1.00  0.00    -0.114 OA 
HETATM   13  H   UNL     1     -10.206   8.585  69.171  1.00  0.00     0.000 HD 
BRANCH  11  14
HETATM   14  C   UNL     1     -10.004   8.245  67.044  1.00  0.00    -0.255 C  
HETATM   15  C   UNL     1      -9.238   9.469  66.547  1.00  0.00    -0.160 C  
HETATM   16  O   UNL     1      -9.221   9.835  65.380  1.00  0.00    -0.191 OA 
HETATM   17  O   UNL     1      -8.531  10.099  67.516  1.00  0.00    -0.118 OA 
ENDBRANCH  11  14
ENDBRANCH   7  10
TORSDOF 2
ENDMDL
MODEL      197
REMARK 921   NORMALIZED FREE ENERGY PREDICTED BY IDOCK:   -1.83 KCAL/MOL
REMARK 922        TOTAL FREE ENERGY PREDICTED BY IDOCK:   -2.26 KCAL/MOL
REMARK 923 INTER-LIGAND FREE ENERGY PREDICTED BY IDOCK:   -2.04 KCAL/MOL
REMARK 924 INTRA-LIGAND FREE ENERGY PREDICTED BY IDOCK:   -0.22 KCAL/MOL
REMARK 927      BINDING AFFINITY PREDICTED BY RF-SCORE:    0.00 PKD
ROOT
HETATM    1  N   UNL     1      -7.466  14.009  69.076  1.00  0.00    -0.242 NA 
HETATM    2  H2  UNL     1      -8.308  14.566  69.217  1.00  0.00     0.000 HD 
HETATM    3  C   UNL     1      -7.841  12.773  68.542  1.00  0.00    -0.099 A  
HETATM    4  H1  UNL     1      -6.907  14.052  69.928  1.00  0.00     0.000 HD 
HETATM    5  C   UNL     1      -8.607  12.713  67.375  1.00  0.00    -0.189 A  
HETATM    6  C   UNL     1      -8.870  11.488  66.752  1.00  0.00    -0.183 A  
HETATM    7  C   UNL     1      -8.340  10.308  67.278  1.00  0.00    -0.121 A  
HETATM    8  C   UNL     1      -7.518  10.364  68.409  1.00  0.00    -0.091 A  
HETATM    9  C   UNL     1      -7.256  11.596  69.019  1.00  0.00    -0.094 A  
ENDROOT
BRANCH   7  10
HETATM   10  C   UNL     1      -8.611   9.027  66.574  1.00  0.00    -0.120 C  
HETATM   11  N   UNL     1      -8.378   7.871  67.295  1.00  0.00    -0.121 N  
HETATM   12  O   UNL     1      -9.015   9.018  65.420  1.00  0.00    -0.193 OA 
HETATM   13  H   UNL     1      -7.901   7.922  68.195  1.00  0.00     0.000 HD 
BRANCH  11  14
HETATM   14  C   UNL     1      -8.814   6.571  66.773  1.00  0.00    -0.129 C  
HETATM   15  C   UNL     1      -9.978   5.966  67.554  1.00  0.00    -0.143 C  
HETATM   16  O   UNL     1     -10.535   4.922  67.247  1.00  0.00    -0.148 OA 
HETATM   17  O   UNL     1     -10.377   6.721  68.605  1.00  0.00    -0.166 OA 
ENDBRANCH  11  14
ENDBRANCH   7  10
TORSDOF 2
ENDMDL
MODEL      198
REMARK 921   NORMALIZED FREE ENERGY PREDICTED BY IDOCK:   -1.74 KCAL/MOL
REMARK 922        TOTAL FREE ENERGY PREDICTED BY IDOCK:   -2.16 KCAL/MOL
REMARK 923 INTER-LIGAND FREE ENERGY PREDICTED BY IDOCK:   -1.93 KCAL/MOL
REMARK 924 INTRA-LIGAND FREE ENERGY PREDICTED BY IDOCK:   -0.22 KCAL/MOL
REMARK 927      BINDING AFFINITY PREDICTED BY RF-SCORE:    0.00 PKD
ROOT
HETATM    1  N   UNL     1      -5.796   3.673  63.322  1.00  0.00    -0.013 NA 
HETATM    2  H2  UNL     1      -6.365   3.235  62.597  1.00  0.00     0.000 HD 
HETATM    3  C   UNL     1      -6.460   4.817  63.772  1.00  0.00    -0.030 A  
HETATM    4  H1  UNL     1      -4.836   3.737  62.981  1.00  0.00     0.000 HD 
HETATM    5  C   UNL     1      -7.774   4.729  64.239  1.00  0.00    -0.079 A  
HETATM    6  C   UNL     1      -8.402   5.835  64.822  1.00  0.00    -0.116 A  
HETATM    7  C   UNL     1      -7.707   7.037  64.972  1.00  0.00    -0.115 A  
HETATM    8  C   UNL     1      -6.369   7.115  64.567  1.00  0.00    -0.037 A  
HETATM    9  C   UNL     1      -5.749   6.001  63.992  1.00  0.00    -0.022 A  
ENDROOT
BRANCH   7  10
HETATM   10  C   UNL     1      -8.391   8.183  65.625  1.00  0.00    -0.143 C  
HETATM   11  N   UNL     1      -9.666   7.944  66.102  1.00  0.00    -0.444 N  
HETATM   12  O   UNL     1      -7.840   9.271  65.723  1.00  0.00    -0.097 OA 
HETATM   13  H   UNL     1     -10.141   7.073  65.865  1.00  0.00     0.000 HD 
BRANCH  11  14
HETATM   14  C   UNL     1     -10.340   8.937  66.947  1.00  0.00    -0.262 C  
HETATM   15  C   UNL     1     -10.382   8.545  68.422  1.00  0.00    -0.202 C  
HETATM   16  O   UNL     1     -10.838   9.258  69.304  1.00  0.00    -0.221 OA 
HETATM   17  O   UNL     1      -9.821   7.340  68.680  1.00  0.00    -0.155 OA 
ENDBRANCH  11  14
ENDBRANCH   7  10
TORSDOF 2
ENDMDL
MODEL      199
REMARK 921   NORMALIZED FREE ENERGY PREDICTED BY IDOCK:   -1.74 KCAL/MOL
REMARK 922        TOTAL FREE ENERGY PREDICTED BY IDOCK:   -2.16 KCAL/MOL
REMARK 923 INTER-LIGAND FREE ENERGY PREDICTED BY IDOCK:   -1.97 KCAL/MOL
REMARK 924 INTRA-LIGAND FREE ENERGY PREDICTED BY IDOCK:   -0.18 KCAL/MOL
REMARK 927      BINDING AFFINITY PREDICTED BY RF-SCORE:    0.00 PKD
ROOT
HETATM    1  N   UNL     1     -10.221   2.901  64.762  1.00  0.00    -0.366 NA 
HETATM    2  H2  UNL     1      -9.716   2.950  63.877  1.00  0.00     0.000 HD 
HETATM    3  C   UNL     1      -9.591   3.751  65.676  1.00  0.00    -0.166 A  
HETATM    4  H1  UNL     1     -10.370   1.919  64.993  1.00  0.00     0.000 HD 
HETATM    5  C   UNL     1      -9.387   5.097  65.360  1.00  0.00    -0.090 A  
HETATM    6  C   UNL     1      -8.887   5.989  66.315  1.00  0.00    -0.144 A  
HETATM    7  C   UNL     1      -8.613   5.546  67.611  1.00  0.00    -0.108 A  
HETATM    8  C   UNL     1      -8.875   4.214  67.955  1.00  0.00    -0.134 A  
HETATM    9  C   UNL     1      -9.382   3.333  66.994  1.00  0.00    -0.198 A  
ENDROOT
BRANCH   7  10
HETATM   10  C   UNL     1      -8.113   6.525  68.611  1.00  0.00    -0.118 C  
HETATM   11  N   UNL     1      -7.965   7.827  68.173  1.00  0.00    -0.120 N  
HETATM   12  O   UNL     1      -7.851   6.177  69.754  1.00  0.00    -0.101 OA 
HETATM   13  H   UNL     1      -8.050   8.040  67.179  1.00  0.00     0.000 HD 
BRANCH  11  14
HETATM   14  C   UNL     1      -7.687   8.905  69.129  1.00  0.00    -0.092 C  
HETATM   15  C   UNL     1      -7.766  10.297  68.507  1.00  0.00    -0.091 C  
HETATM   16  O   UNL     1      -7.634  11.335  69.141  1.00  0.00    -0.125 OA 
HETATM   17  O   UNL     1      -8.045  10.287  67.182  1.00  0.00    -0.119 OA 
ENDBRANCH  11  14
ENDBRANCH   7  10
TORSDOF 2
ENDMDL
MODEL      200
REMARK 921   NORMALIZED FREE ENERGY PREDICTED BY IDOCK:   -1.69 KCAL/MOL
REMARK 922        TOTAL FREE ENERGY PREDICTED BY IDOCK:   -2.10 KCAL/MOL
REMARK 923 INTER-LIGAND FREE ENERGY PREDICTED BY IDOCK:   -1.89 KCAL/MOL
REMARK 924 INTRA-LIGAND FREE ENERGY PREDICTED BY IDOCK:   -0.21 KCAL/MOL
REMARK 927      BINDING AFFINITY PREDICTED BY RF-SCORE:    0.00 PKD
ROOT
HETATM    1  N   UNL     1      -7.823   8.047  72.815  1.00  0.00    -0.122 NA 
HETATM    2  H2  UNL     1      -7.282   7.572  73.537  1.00  0.00     0.000 HD 
HETATM    3  C   UNL     1      -7.708   7.319  71.628  1.00  0.00    -0.087 A  
HETATM    4  H1  UNL     1      -7.584   9.038  72.835  1.00  0.00     0.000 HD 
HETATM    5  C   UNL     1      -8.035   5.961  71.600  1.00  0.00    -0.113 A  
HETATM    6  C   UNL     1      -8.059   5.255  70.392  1.00  0.00    -0.096 A  
HETATM    7  C   UNL     1      -7.783   5.912  69.192  1.00  0.00    -0.091 A  
HETATM    8  C   UNL     1      -7.518   7.286  69.202  1.00  0.00    -0.093 A  
HETATM    9  C   UNL     1      -7.504   7.984  70.414  1.00  0.00    -0.075 A  
ENDROOT
BRANCH   7  10
HETATM   10  C   UNL     1      -7.849   5.141  67.922  1.00  0.00    -0.091 C  
HETATM   11  N   UNL     1      -8.952   4.326  67.758  1.00  0.00    -0.111 N  
HETATM   12  O   UNL     1      -6.964   5.234  67.084  1.00  0.00    -0.062 OA 
HETATM   13  H   UNL     1      -9.585   4.163  68.542  1.00  0.00     0.000 HD 
BRANCH  11  14
HETATM   14  C   UNL     1      -9.220   3.692  66.461  1.00  0.00    -0.171 C  
HETATM   15  C   UNL     1     -10.340   4.372  65.678  1.00  0.00    -0.225 C  
HETATM   16  O   UNL     1     -10.678   4.045  64.548  1.00  0.00    -0.269 OA 
HETATM   17  O   UNL     1     -10.907   5.414  66.331  1.00  0.00    -0.284 OA 
ENDBRANCH  11  14
ENDBRANCH   7  10
TORSDOF 2
ENDMDL
MODEL      201
REMARK 921   NORMALIZED FREE ENERGY PREDICTED BY IDOCK:   -1.24 KCAL/MOL
REMARK 922        TOTAL FREE ENERGY PREDICTED BY IDOCK:   -1.60 KCAL/MOL
REMARK 923 INTER-LIGAND FREE ENERGY PREDICTED BY IDOCK:   -1.40 KCAL/MOL
REMARK 924 INTRA-LIGAND FREE ENERGY PREDICTED BY IDOCK:   -0.20 KCAL/MOL
REMARK 927      BINDING AFFINITY PREDICTED BY RF-SCORE:    0.00 PKD
ROOT
HETATM    1  N   UNL     1      -7.459  14.247  68.409  1.00  0.00    -0.113 NA 
HETATM    2  H2  UNL     1      -8.401  14.639  68.424  1.00  0.00     0.000 HD 
HETATM    3  C   UNL     1      -7.510  12.961  68.954  1.00  0.00     0.020 A  
HETATM    4  H1  UNL     1      -6.817  14.941  68.790  1.00  0.00     0.000 HD 
HETATM    5  C   UNL     1      -8.391  12.010  68.433  1.00  0.00    -0.151 A  
HETATM    6  C   UNL     1      -8.353  10.682  68.873  1.00  0.00    -0.150 A  
HETATM    7  C   UNL     1      -7.410  10.286  69.823  1.00  0.00    -0.167 A  
HETATM    8  C   UNL     1      -6.481  11.216  70.304  1.00  0.00    -0.039 A  
HETATM    9  C   UNL     1      -6.523  12.539  69.851  1.00  0.00     0.036 A  
ENDROOT
BRANCH   7  10
HETATM   10  C   UNL     1      -7.375   8.861  70.246  1.00  0.00    -0.067 C  
HETATM   11  N   UNL     1      -7.329   8.627  71.607  1.00  0.00    -0.102 N  
HETATM   12  O   UNL     1      -7.385   7.961  69.419  1.00  0.00    -0.077 OA 
HETATM   13  H   UNL     1      -7.169   9.403  72.250  1.00  0.00     0.000 HD 
BRANCH  11  14
HETATM   14  C   UNL     1      -7.507   7.269  72.132  1.00  0.00    -0.080 C  
HETATM   15  C   UNL     1      -8.727   7.128  73.040  1.00  0.00    -0.126 C  
HETATM   16  O   UNL     1      -9.094   6.069  73.528  1.00  0.00    -0.132 OA 
HETATM   17  O   UNL     1      -9.405   8.286  73.223  1.00  0.00    -0.252 OA 
ENDBRANCH  11  14
ENDBRANCH   7  10
TORSDOF 2
ENDMDL
