MODEL        1
REMARK 921   NORMALIZED FREE ENERGY PREDICTED BY IDOCK:   -6.69 KCAL/MOL
REMARK 922        TOTAL FREE ENERGY PREDICTED BY IDOCK:  -13.14 KCAL/MOL
REMARK 923 INTER-LIGAND FREE ENERGY PREDICTED BY IDOCK:  -10.99 KCAL/MOL
REMARK 924 INTRA-LIGAND FREE ENERGY PREDICTED BY IDOCK:   -2.15 KCAL/MOL
REMARK 927      BINDING AFFINITY PREDICTED BY RF-SCORE:    0.00 PKD
ROOT
HETATM    1  C   UNL     1     -11.129  12.194  64.310  1.00  0.00    -0.403 C  
HETATM    2  C   UNL     1     -12.333  12.792  65.022  1.00  0.00    -0.559 C  
ENDROOT
BRANCH   2   3
HETATM    3  C   UNL     1     -12.227  14.314  65.126  1.00  0.00    -0.422 C  
BRANCH   3   4
HETATM    4  C   UNL     1     -10.840  14.799  64.706  1.00  0.00    -0.395 C  
BRANCH   4   5
HETATM    5  C   UNL     1     -10.378  15.947  65.538  1.00  0.00    -0.400 A  
HETATM    6  C   UNL     1      -9.552  16.058  66.646  1.00  0.00    -0.258 A  
HETATM    7  C   UNL     1      -9.856  20.226  66.938  1.00  0.00    -0.597 A  
HETATM    8  C   UNL     1      -9.408  17.458  66.885  1.00  0.00    -0.271 A  
HETATM    9  C   UNL     1     -10.310  18.079  66.025  1.00  0.00    -0.331 A  
HETATM   10  C   UNL     1      -8.892  19.656  67.771  1.00  0.00    -0.379 A  
HETATM   11  C   UNL     1      -8.648  18.278  67.747  1.00  0.00    -0.263 A  
HETATM   12  C   UNL     1     -10.572  19.446  66.024  1.00  0.00    -0.573 A  
HETATM   13  O   UNL     1     -10.877  17.166  65.193  1.00  0.00    -0.626 OA 
BRANCH   6  14
HETATM   14  C   UNL     1      -8.977  14.922  67.345  1.00  0.00    -0.189 C  
HETATM   15  O   UNL     1      -7.762  14.754  67.404  1.00  0.00    -0.180 OA 
BRANCH  14  16
HETATM   16  C   UNL     1      -9.867  13.893  67.958  1.00  0.00    -0.234 A  
HETATM   17  I   UNL     1     -12.786  14.517  71.029  1.00  0.00    -0.463 I  
HETATM   18  C   UNL     1     -11.644  12.080  69.269  1.00  0.00    -0.321 A  
HETATM   19  C   UNL     1     -10.842  14.353  68.839  1.00  0.00    -0.266 A  
HETATM   20  C   UNL     1     -10.646  11.630  68.373  1.00  0.00    -0.211 A  
HETATM   21  I   UNL     1     -10.460   9.598  67.820  1.00  0.00    -0.286 I  
HETATM   22  C   UNL     1     -11.683  13.467  69.535  1.00  0.00    -0.324 A  
HETATM   23  C   UNL     1      -9.738  12.517  67.768  1.00  0.00    -0.202 A  
BRANCH  18  24
HETATM   24  O   UNL     1     -12.457  11.084  69.782  1.00  0.00    -0.293 OA 
BRANCH  24  25
HETATM   25  C   UNL     1     -12.205  10.747  71.141  1.00  0.00    -0.352 C  
BRANCH  25  26
HETATM   26  C   UNL     1     -12.707   9.375  71.611  1.00  0.00    -0.374 C  
BRANCH  26  27
HETATM   27  N   UNL     1     -11.655   8.335  71.428  1.00  0.00    -0.271 NA 
BRANCH  27  28
HETATM   28  C   UNL     1     -10.717   8.216  72.559  1.00  0.00    -0.349 C  
HETATM   29  C   UNL     1      -9.251   8.480  72.233  1.00  0.00    -0.343 C  
ENDBRANCH  27  28
BRANCH  27  30
HETATM   30  C   UNL     1     -12.245   7.059  71.004  1.00  0.00    -0.374 C  
HETATM   31  C   UNL     1     -11.394   6.286  69.995  1.00  0.00    -0.486 C  
ENDBRANCH  27  30
ENDBRANCH  26  27
ENDBRANCH  25  26
ENDBRANCH  24  25
ENDBRANCH  18  24
ENDBRANCH  14  16
ENDBRANCH   6  14
ENDBRANCH   4   5
ENDBRANCH   3   4
ENDBRANCH   2   3
TORSDOF 11
ENDMDL
MODEL        2
REMARK 921   NORMALIZED FREE ENERGY PREDICTED BY IDOCK:   -6.59 KCAL/MOL
REMARK 922        TOTAL FREE ENERGY PREDICTED BY IDOCK:  -12.97 KCAL/MOL
REMARK 923 INTER-LIGAND FREE ENERGY PREDICTED BY IDOCK:  -10.82 KCAL/MOL
REMARK 924 INTRA-LIGAND FREE ENERGY PREDICTED BY IDOCK:   -2.15 KCAL/MOL
REMARK 927      BINDING AFFINITY PREDICTED BY RF-SCORE:    0.00 PKD
ROOT
HETATM    1  C   UNL     1     -11.057  12.293  64.076  1.00  0.00    -0.446 C  
HETATM    2  C   UNL     1     -12.062  12.719  65.135  1.00  0.00    -0.498 C  
ENDROOT
BRANCH   2   3
HETATM    3  C   UNL     1     -12.162  14.241  65.238  1.00  0.00    -0.414 C  
BRANCH   3   4
HETATM    4  C   UNL     1     -10.886  14.912  64.731  1.00  0.00    -0.382 C  
BRANCH   4   5
HETATM    5  C   UNL     1     -10.408  15.973  65.664  1.00  0.00    -0.392 A  
HETATM    6  C   UNL     1      -9.613  15.966  66.800  1.00  0.00    -0.252 A  
HETATM    7  C   UNL     1      -9.777  20.107  67.411  1.00  0.00    -0.563 A  
HETATM    8  C   UNL     1      -9.426  17.337  67.152  1.00  0.00    -0.256 A  
HETATM    9  C   UNL     1     -10.279  18.057  66.319  1.00  0.00    -0.381 A  
HETATM   10  C   UNL     1      -8.860  19.438  68.223  1.00  0.00    -0.382 A  
HETATM   11  C   UNL     1      -8.664  18.058  68.097  1.00  0.00    -0.277 A  
HETATM   12  C   UNL     1     -10.492  19.428  66.419  1.00  0.00    -0.581 A  
HETATM   13  O   UNL     1     -10.853  17.233  65.403  1.00  0.00    -0.501 OA 
BRANCH   6  14
HETATM   14  C   UNL     1      -9.101  14.758  67.422  1.00  0.00    -0.195 C  
HETATM   15  O   UNL     1      -7.930  14.412  67.283  1.00  0.00    -0.193 OA 
BRANCH  14  16
HETATM   16  C   UNL     1     -10.015  13.873  68.201  1.00  0.00    -0.240 A  
HETATM   17  I   UNL     1     -10.515   9.645  67.735  1.00  0.00    -0.286 I  
HETATM   18  C   UNL     1     -11.705  12.012  69.559  1.00  0.00    -0.342 A  
HETATM   19  C   UNL     1      -9.904  12.504  67.974  1.00  0.00    -0.214 A  
HETATM   20  C   UNL     1     -11.806  13.407  69.775  1.00  0.00    -0.326 A  
HETATM   21  I   UNL     1     -13.118  14.233  71.211  1.00  0.00    -0.382 I  
HETATM   22  C   UNL     1     -10.769  11.583  68.592  1.00  0.00    -0.207 A  
HETATM   23  C   UNL     1     -11.011  14.326  69.068  1.00  0.00    -0.282 A  
BRANCH  18  24
HETATM   24  O   UNL     1     -12.557  11.240  70.331  1.00  0.00    -0.270 OA 
BRANCH  24  25
HETATM   25  C   UNL     1     -11.908  10.396  71.274  1.00  0.00    -0.289 C  
BRANCH  25  26
HETATM   26  C   UNL     1     -12.742   9.242  71.846  1.00  0.00    -0.394 C  
BRANCH  26  27
HETATM   27  N   UNL     1     -11.862   8.132  72.309  1.00  0.00    -0.358 NA 
BRANCH  27  28
HETATM   28  C   UNL     1     -12.194   6.815  71.735  1.00  0.00    -0.358 C  
HETATM   29  C   UNL     1     -11.648   6.547  70.336  1.00  0.00    -0.470 C  
ENDBRANCH  27  28
BRANCH  27  30
HETATM   30  C   UNL     1     -10.445   8.496  72.186  1.00  0.00    -0.342 C  
HETATM   31  C   UNL     1      -9.541   7.842  73.231  1.00  0.00    -0.346 C  
ENDBRANCH  27  30
ENDBRANCH  26  27
ENDBRANCH  25  26
ENDBRANCH  24  25
ENDBRANCH  18  24
ENDBRANCH  14  16
ENDBRANCH   6  14
ENDBRANCH   4   5
ENDBRANCH   3   4
ENDBRANCH   2   3
TORSDOF 11
ENDMDL
MODEL        3
REMARK 921   NORMALIZED FREE ENERGY PREDICTED BY IDOCK:   -6.05 KCAL/MOL
REMARK 922        TOTAL FREE ENERGY PREDICTED BY IDOCK:  -12.08 KCAL/MOL
REMARK 923 INTER-LIGAND FREE ENERGY PREDICTED BY IDOCK:  -10.58 KCAL/MOL
REMARK 924 INTRA-LIGAND FREE ENERGY PREDICTED BY IDOCK:   -1.50 KCAL/MOL
REMARK 927      BINDING AFFINITY PREDICTED BY RF-SCORE:    0.00 PKD
ROOT
HETATM    1  C   UNL     1     -11.997  16.259  72.872  1.00  0.00    -0.615 C  
HETATM    2  C   UNL     1     -13.436  15.805  73.054  1.00  0.00    -0.672 C  
ENDROOT
BRANCH   2   3
HETATM    3  C   UNL     1     -13.978  15.129  71.794  1.00  0.00    -0.627 C  
BRANCH   3   4
HETATM    4  C   UNL     1     -12.964  15.200  70.653  1.00  0.00    -0.420 C  
BRANCH   4   5
HETATM    5  C   UNL     1     -12.490  13.846  70.246  1.00  0.00    -0.314 A  
HETATM    6  C   UNL     1     -11.900  13.339  69.098  1.00  0.00    -0.378 A  
HETATM    7  C   UNL     1     -11.531   9.426  70.547  1.00  0.00    -0.317 A  
HETATM    8  C   UNL     1     -11.568  11.983  69.397  1.00  0.00    -0.393 A  
HETATM    9  C   UNL     1     -12.154  11.718  70.632  1.00  0.00    -0.311 A  
HETATM   10  C   UNL     1     -10.872   9.661  69.340  1.00  0.00    -0.239 A  
HETATM   11  C   UNL     1     -10.870  10.935  68.760  1.00  0.00    -0.251 A  
HETATM   12  C   UNL     1     -12.170  10.464  71.234  1.00  0.00    -0.491 A  
HETATM   13  O   UNL     1     -12.689  12.852  71.156  1.00  0.00    -0.360 OA 
BRANCH   6  14
HETATM   14  C   UNL     1     -11.686  14.114  67.889  1.00  0.00    -0.367 C  
HETATM   15  O   UNL     1     -12.350  13.915  66.874  1.00  0.00    -0.410 OA 
BRANCH  14  16
HETATM   16  C   UNL     1     -10.599  15.134  67.838  1.00  0.00    -0.257 A  
HETATM   17  I   UNL     1      -6.395  14.440  68.270  1.00  0.00    -0.171 I  
HETATM   18  C   UNL     1      -8.375  16.928  67.791  1.00  0.00    -0.194 A  
HETATM   19  C   UNL     1      -9.291  14.658  67.858  1.00  0.00    -0.198 A  
HETATM   20  C   UNL     1      -9.711  17.395  67.773  1.00  0.00    -0.268 A  
HETATM   21  I   UNL     1     -10.187  19.445  67.579  1.00  0.00    -0.640 I  
HETATM   22  C   UNL     1      -8.189  15.531  67.895  1.00  0.00    -0.143 A  
HETATM   23  C   UNL     1     -10.805  16.515  67.849  1.00  0.00    -0.326 A  
BRANCH  18  24
HETATM   24  O   UNL     1      -7.412  17.919  67.711  1.00  0.00    -0.200 OA 
BRANCH  24  25
HETATM   25  C   UNL     1      -6.787  18.245  68.947  1.00  0.00    -0.261 C  
BRANCH  25  26
HETATM   26  C   UNL     1      -5.502  19.080  68.865  1.00  0.00    -0.197 C  
BRANCH  26  27
HETATM   27  N   UNL     1      -5.786  20.517  69.137  1.00  0.00    -0.322 NA 
BRANCH  27  28
HETATM   28  C   UNL     1      -5.150  21.040  70.360  1.00  0.00    -0.261 C  
HETATM   29  C   UNL     1      -5.581  20.378  71.664  1.00  0.00    -0.323 C  
ENDBRANCH  27  28
BRANCH  27  30
HETATM   30  C   UNL     1      -5.546  21.337  67.942  1.00  0.00    -0.316 C  
HETATM   31  C   UNL     1      -6.647  21.235  66.886  1.00  0.00    -0.342 C  
ENDBRANCH  27  30
ENDBRANCH  26  27
ENDBRANCH  25  26
ENDBRANCH  24  25
ENDBRANCH  18  24
ENDBRANCH  14  16
ENDBRANCH   6  14
ENDBRANCH   4   5
ENDBRANCH   3   4
ENDBRANCH   2   3
TORSDOF 11
ENDMDL
MODEL        4
REMARK 921   NORMALIZED FREE ENERGY PREDICTED BY IDOCK:   -5.97 KCAL/MOL
REMARK 922        TOTAL FREE ENERGY PREDICTED BY IDOCK:  -11.96 KCAL/MOL
REMARK 923 INTER-LIGAND FREE ENERGY PREDICTED BY IDOCK:   -9.62 KCAL/MOL
REMARK 924 INTRA-LIGAND FREE ENERGY PREDICTED BY IDOCK:   -2.34 KCAL/MOL
REMARK 927      BINDING AFFINITY PREDICTED BY RF-SCORE:    0.00 PKD
ROOT
HETATM    1  C   UNL     1     -12.458  11.997  63.351  1.00  0.00    -0.625 C  
HETATM    2  C   UNL     1     -12.367  12.635  64.729  1.00  0.00    -0.556 C  
ENDROOT
BRANCH   2   3
HETATM    3  C   UNL     1     -12.252  14.157  64.639  1.00  0.00    -0.465 C  
BRANCH   3   4
HETATM    4  C   UNL     1     -10.800  14.609  64.794  1.00  0.00    -0.402 C  
BRANCH   4   5
HETATM    5  C   UNL     1     -10.661  15.688  65.814  1.00  0.00    -0.361 A  
HETATM    6  C   UNL     1     -10.724  15.715  67.198  1.00  0.00    -0.314 A  
HETATM    7  C   UNL     1      -9.945  19.817  67.541  1.00  0.00    -0.540 A  
HETATM    8  C   UNL     1     -10.372  17.045  67.578  1.00  0.00    -0.329 A  
HETATM    9  C   UNL     1     -10.311  17.770  66.391  1.00  0.00    -0.351 A  
HETATM   10  C   UNL     1      -9.930  19.121  68.751  1.00  0.00    -0.493 A  
HETATM   11  C   UNL     1     -10.129  17.737  68.785  1.00  0.00    -0.381 A  
HETATM   12  C   UNL     1     -10.113  19.146  66.325  1.00  0.00    -0.499 A  
HETATM   13  O   UNL     1     -10.460  16.943  65.322  1.00  0.00    -0.638 OA 
BRANCH   6  14
HETATM   14  C   UNL     1     -11.068  14.565  68.016  1.00  0.00    -0.276 C  
HETATM   15  O   UNL     1     -12.147  14.493  68.599  1.00  0.00    -0.296 OA 
BRANCH  14  16
HETATM   16  C   UNL     1     -10.079  13.466  68.214  1.00  0.00    -0.247 A  
HETATM   17  I   UNL     1     -10.816   9.624  69.957  1.00  0.00    -0.354 I  
HETATM   18  C   UNL     1      -8.342  11.249  68.697  1.00  0.00    -0.146 A  
HETATM   19  C   UNL     1     -10.577  12.249  68.669  1.00  0.00    -0.249 A  
HETATM   20  C   UNL     1      -7.852  12.494  68.237  1.00  0.00    -0.144 A  
HETATM   21  I   UNL     1      -5.820  12.792  67.741  1.00  0.00    -0.103 I  
HETATM   22  C   UNL     1      -9.727  11.169  68.967  1.00  0.00    -0.096 A  
HETATM   23  C   UNL     1      -8.699  13.600  68.049  1.00  0.00    -0.176 A  
BRANCH  18  24
HETATM   24  O   UNL     1      -7.383  10.260  68.833  1.00  0.00    -0.079 OA 
BRANCH  24  25
HETATM   25  C   UNL     1      -7.703   9.027  68.201  1.00  0.00    -0.096 C  
BRANCH  25  26
HETATM   26  C   UNL     1      -7.705   9.024  66.666  1.00  0.00    -0.096 C  
BRANCH  26  27
HETATM   27  N   UNL     1      -8.906   8.317  66.139  1.00  0.00    -0.158 NA 
BRANCH  27  28
HETATM   28  C   UNL     1      -9.307   7.136  66.924  1.00  0.00    -0.155 C  
HETATM   29  C   UNL     1     -10.806   6.860  66.985  1.00  0.00    -0.436 C  
ENDBRANCH  27  28
BRANCH  27  30
HETATM   30  C   UNL     1     -10.000   9.260  65.878  1.00  0.00    -0.219 C  
HETATM   31  C   UNL     1      -9.595  10.464  65.027  1.00  0.00    -0.339 C  
ENDBRANCH  27  30
ENDBRANCH  26  27
ENDBRANCH  25  26
ENDBRANCH  24  25
ENDBRANCH  18  24
ENDBRANCH  14  16
ENDBRANCH   6  14
ENDBRANCH   4   5
ENDBRANCH   3   4
ENDBRANCH   2   3
TORSDOF 11
ENDMDL
MODEL        5
REMARK 921   NORMALIZED FREE ENERGY PREDICTED BY IDOCK:   -5.91 KCAL/MOL
REMARK 922        TOTAL FREE ENERGY PREDICTED BY IDOCK:  -11.85 KCAL/MOL
REMARK 923 INTER-LIGAND FREE ENERGY PREDICTED BY IDOCK:   -9.62 KCAL/MOL
REMARK 924 INTRA-LIGAND FREE ENERGY PREDICTED BY IDOCK:   -2.23 KCAL/MOL
REMARK 927      BINDING AFFINITY PREDICTED BY RF-SCORE:    0.00 PKD
ROOT
HETATM    1  C   UNL     1     -14.263  15.305  71.725  1.00  0.00    -0.669 C  
HETATM    2  C   UNL     1     -13.489  14.323  72.589  1.00  0.00    -0.623 C  
ENDROOT
BRANCH   2   3
HETATM    3  C   UNL     1     -13.531  12.908  72.012  1.00  0.00    -0.568 C  
BRANCH   3   4
HETATM    4  C   UNL     1     -12.568  12.765  70.833  1.00  0.00    -0.342 C  
BRANCH   4   5
HETATM    5  C   UNL     1     -12.048  11.374  70.706  1.00  0.00    -0.332 A  
HETATM    6  C   UNL     1     -11.466  10.657  69.671  1.00  0.00    -0.361 A  
HETATM    7  C   UNL     1     -10.900   7.155  71.899  1.00  0.00    -0.255 A  
HETATM    8  C   UNL     1     -11.070   9.408  70.238  1.00  0.00    -0.299 A  
HETATM    9  C   UNL     1     -11.615   9.389  71.519  1.00  0.00    -0.397 A  
HETATM   10  C   UNL     1     -10.280   7.153  70.649  1.00  0.00    -0.205 A  
HETATM   11  C   UNL     1     -10.345   8.274  69.814  1.00  0.00    -0.216 A  
HETATM   12  C   UNL     1     -11.564   8.291  72.373  1.00  0.00    -0.464 A  
HETATM   13  O   UNL     1     -12.184  10.589  71.810  1.00  0.00    -0.280 OA 
BRANCH   6  14
HETATM   14  C   UNL     1     -11.313  11.166  68.320  1.00  0.00    -0.297 C  
HETATM   15  O   UNL     1     -11.997  10.738  67.393  1.00  0.00    -0.205 OA 
BRANCH  14  16
HETATM   16  C   UNL     1     -10.266  12.184  68.019  1.00  0.00    -0.203 A  
HETATM   17  I   UNL     1     -10.573  15.455  65.270  1.00  0.00    -0.391 I  
HETATM   18  C   UNL     1      -8.395  14.217  67.287  1.00  0.00    -0.196 A  
HETATM   19  C   UNL     1     -10.640  13.243  67.196  1.00  0.00    -0.259 A  
HETATM   20  C   UNL     1      -8.031  13.132  68.119  1.00  0.00    -0.154 A  
HETATM   21  I   UNL     1      -6.117  12.983  69.004  1.00  0.00    -0.109 I  
HETATM   22  C   UNL     1      -9.714  14.217  66.781  1.00  0.00    -0.275 A  
HETATM   23  C   UNL     1      -8.936  12.105  68.437  1.00  0.00    -0.146 A  
BRANCH  18  24
HETATM   24  O   UNL     1      -7.392  15.145  67.068  1.00  0.00    -0.167 OA 
BRANCH  24  25
HETATM   25  C   UNL     1      -7.733  16.485  67.402  1.00  0.00    -0.149 C  
BRANCH  25  26
HETATM   26  C   UNL     1      -8.251  16.724  68.827  1.00  0.00    -0.250 C  
BRANCH  26  27
HETATM   27  N   UNL     1      -9.413  17.657  68.818  1.00  0.00    -0.276 NA 
BRANCH  27  28
HETATM   28  C   UNL     1      -9.411  18.618  67.701  1.00  0.00    -0.293 C  
HETATM   29  C   UNL     1     -10.732  19.334  67.443  1.00  0.00    -0.594 C  
ENDBRANCH  27  28
BRANCH  27  30
HETATM   30  C   UNL     1     -10.677  16.925  68.974  1.00  0.00    -0.308 C  
HETATM   31  C   UNL     1     -10.634  15.828  70.037  1.00  0.00    -0.333 C  
ENDBRANCH  27  30
ENDBRANCH  26  27
ENDBRANCH  25  26
ENDBRANCH  24  25
ENDBRANCH  18  24
ENDBRANCH  14  16
ENDBRANCH   6  14
ENDBRANCH   4   5
ENDBRANCH   3   4
ENDBRANCH   2   3
TORSDOF 11
ENDMDL
MODEL        6
REMARK 921   NORMALIZED FREE ENERGY PREDICTED BY IDOCK:   -5.81 KCAL/MOL
REMARK 922        TOTAL FREE ENERGY PREDICTED BY IDOCK:  -11.69 KCAL/MOL
REMARK 923 INTER-LIGAND FREE ENERGY PREDICTED BY IDOCK:   -9.55 KCAL/MOL
REMARK 924 INTRA-LIGAND FREE ENERGY PREDICTED BY IDOCK:   -2.14 KCAL/MOL
REMARK 927      BINDING AFFINITY PREDICTED BY RF-SCORE:    0.00 PKD
ROOT
HETATM    1  C   UNL     1     -10.540  15.965  65.451  1.00  0.00    -0.439 C  
HETATM    2  C   UNL     1     -10.748  14.611  64.792  1.00  0.00    -0.399 C  
ENDROOT
BRANCH   2   3
HETATM    3  C   UNL     1     -12.217  14.375  64.439  1.00  0.00    -0.481 C  
BRANCH   3   4
HETATM    4  C   UNL     1     -12.643  12.948  64.782  1.00  0.00    -0.493 C  
BRANCH   4   5
HETATM    5  C   UNL     1     -11.518  11.982  64.632  1.00  0.00    -0.308 A  
HETATM    6  C   UNL     1     -10.781  11.219  65.526  1.00  0.00    -0.283 A  
HETATM    7  C   UNL     1      -8.388   9.405  62.605  1.00  0.00    -0.178 A  
HETATM    8  C   UNL     1      -9.930  10.398  64.727  1.00  0.00    -0.409 A  
HETATM    9  C   UNL     1     -10.078  10.862  63.423  1.00  0.00    -0.340 A  
HETATM   10  C   UNL     1      -8.254   8.862  63.883  1.00  0.00    -0.171 A  
HETATM   11  C   UNL     1      -9.025   9.337  64.950  1.00  0.00    -0.229 A  
HETATM   12  C   UNL     1      -9.328  10.407  62.342  1.00  0.00    -0.294 A  
HETATM   13  O   UNL     1     -11.058  11.803  63.362  1.00  0.00    -0.393 OA 
BRANCH   6  14
HETATM   14  C   UNL     1     -10.930  11.294  66.968  1.00  0.00    -0.294 C  
HETATM   15  O   UNL     1     -11.420  10.369  67.611  1.00  0.00    -0.401 OA 
BRANCH  14  16
HETATM   16  C   UNL     1     -10.542  12.538  67.696  1.00  0.00    -0.234 A  
HETATM   17  I   UNL     1      -6.671  14.367  67.782  1.00  0.00    -0.066 I  
HETATM   18  C   UNL     1      -9.592  14.882  69.025  1.00  0.00    -0.204 A  
HETATM   19  C   UNL     1      -9.260  13.026  67.462  1.00  0.00    -0.195 A  
HETATM   20  C   UNL     1     -10.891  14.370  69.253  1.00  0.00    -0.239 A  
HETATM   21  I   UNL     1     -12.291  15.357  70.490  1.00  0.00    -0.423 I  
HETATM   22  C   UNL     1      -8.760  14.144  68.153  1.00  0.00    -0.181 A  
HETATM   23  C   UNL     1     -11.340  13.187  68.639  1.00  0.00    -0.327 A  
BRANCH  18  24
HETATM   24  O   UNL     1      -9.300  16.053  69.704  1.00  0.00    -0.210 OA 
BRANCH  24  25
HETATM   25  C   UNL     1      -9.458  17.242  68.939  1.00  0.00    -0.210 C  
BRANCH  25  26
HETATM   26  C   UNL     1      -8.186  18.055  68.666  1.00  0.00    -0.278 C  
BRANCH  26  27
HETATM   27  N   UNL     1      -8.460  19.161  67.706  1.00  0.00    -0.294 NA 
BRANCH  27  28
HETATM   28  C   UNL     1      -8.101  18.856  66.310  1.00  0.00    -0.269 C  
HETATM   29  C   UNL     1      -6.872  17.972  66.121  1.00  0.00    -0.312 C  
ENDBRANCH  27  28
BRANCH  27  30
HETATM   30  C   UNL     1      -9.824  19.677  67.872  1.00  0.00    -0.399 C  
HETATM   31  C   UNL     1     -10.658  19.656  66.591  1.00  0.00    -0.599 C  
ENDBRANCH  27  30
ENDBRANCH  26  27
ENDBRANCH  25  26
ENDBRANCH  24  25
ENDBRANCH  18  24
ENDBRANCH  14  16
ENDBRANCH   6  14
ENDBRANCH   4   5
ENDBRANCH   3   4
ENDBRANCH   2   3
TORSDOF 11
ENDMDL
MODEL        7
REMARK 921   NORMALIZED FREE ENERGY PREDICTED BY IDOCK:   -5.81 KCAL/MOL
REMARK 922        TOTAL FREE ENERGY PREDICTED BY IDOCK:  -11.69 KCAL/MOL
REMARK 923 INTER-LIGAND FREE ENERGY PREDICTED BY IDOCK:  -10.32 KCAL/MOL
REMARK 924 INTRA-LIGAND FREE ENERGY PREDICTED BY IDOCK:   -1.37 KCAL/MOL
REMARK 927      BINDING AFFINITY PREDICTED BY RF-SCORE:    0.00 PKD
ROOT
HETATM    1  C   UNL     1     -11.897   6.362  71.421  1.00  0.00    -0.340 C  
HETATM    2  C   UNL     1     -11.082   7.622  71.662  1.00  0.00    -0.274 C  
ENDROOT
BRANCH   2   3
HETATM    3  C   UNL     1     -11.930   8.731  72.287  1.00  0.00    -0.415 C  
BRANCH   3   4
HETATM    4  C   UNL     1     -12.895   9.329  71.264  1.00  0.00    -0.354 C  
BRANCH   4   5
HETATM    5  C   UNL     1     -12.783  10.815  71.197  1.00  0.00    -0.431 A  
HETATM    6  C   UNL     1     -12.105  11.690  70.362  1.00  0.00    -0.462 A  
HETATM    7  C   UNL     1     -13.499  15.168  72.237  1.00  0.00    -0.539 A  
HETATM    8  C   UNL     1     -12.522  12.999  70.752  1.00  0.00    -0.384 A  
HETATM    9  C   UNL     1     -13.267  12.824  71.914  1.00  0.00    -0.412 A  
HETATM   10  C   UNL     1     -12.815  15.389  71.041  1.00  0.00    -0.525 A  
HETATM   11  C   UNL     1     -12.332  14.317  70.282  1.00  0.00    -0.418 A  
HETATM   12  C   UNL     1     -13.762  13.870  72.688  1.00  0.00    -0.582 A  
HETATM   13  O   UNL     1     -13.447  11.501  72.168  1.00  0.00    -0.410 OA 
BRANCH   6  14
HETATM   14  C   UNL     1     -11.192  11.267  69.316  1.00  0.00    -0.272 C  
HETATM   15  O   UNL     1     -10.684  10.149  69.322  1.00  0.00    -0.205 OA 
BRANCH  14  16
HETATM   16  C   UNL     1     -10.801  12.219  68.235  1.00  0.00    -0.254 A  
HETATM   17  I   UNL     1      -7.257  14.619  68.079  1.00  0.00    -0.214 I  
HETATM   18  C   UNL     1      -9.879  14.098  66.290  1.00  0.00    -0.306 A  
HETATM   19  C   UNL     1      -9.532  12.784  68.327  1.00  0.00    -0.203 A  
HETATM   20  C   UNL     1     -11.167  13.517  66.214  1.00  0.00    -0.297 A  
HETATM   21  I   UNL     1     -12.474  13.879  64.594  1.00  0.00    -0.164 I  
HETATM   22  C   UNL     1      -9.089  13.754  67.410  1.00  0.00    -0.221 A  
HETATM   23  C   UNL     1     -11.640  12.633  67.200  1.00  0.00    -0.434 A  
BRANCH  18  24
HETATM   24  O   UNL     1      -9.562  14.949  65.245  1.00  0.00    -0.190 OA 
BRANCH  24  25
HETATM   25  C   UNL     1      -9.377  16.309  65.618  1.00  0.00    -0.010 C  
BRANCH  25  26
HETATM   26  C   UNL     1     -10.647  17.157  65.767  1.00  0.00    -0.195 C  
BRANCH  26  27
HETATM   27  N   UNL     1     -10.475  18.186  66.831  1.00  0.00    -0.372 NA 
BRANCH  27  28
HETATM   28  C   UNL     1      -9.617  17.761  67.952  1.00  0.00    -0.280 C  
HETATM   29  C   UNL     1     -10.349  17.261  69.193  1.00  0.00    -0.290 C  
ENDBRANCH  27  28
BRANCH  27  30
HETATM   30  C   UNL     1     -10.104  19.484  66.254  1.00  0.00    -0.468 C  
HETATM   31  C   UNL     1      -8.736  19.998  66.704  1.00  0.00    -0.397 C  
ENDBRANCH  27  30
ENDBRANCH  26  27
ENDBRANCH  25  26
ENDBRANCH  24  25
ENDBRANCH  18  24
ENDBRANCH  14  16
ENDBRANCH   6  14
ENDBRANCH   4   5
ENDBRANCH   3   4
ENDBRANCH   2   3
TORSDOF 11
ENDMDL
MODEL        8
REMARK 921   NORMALIZED FREE ENERGY PREDICTED BY IDOCK:   -5.81 KCAL/MOL
REMARK 922        TOTAL FREE ENERGY PREDICTED BY IDOCK:  -11.69 KCAL/MOL
REMARK 923 INTER-LIGAND FREE ENERGY PREDICTED BY IDOCK:   -9.30 KCAL/MOL
REMARK 924 INTRA-LIGAND FREE ENERGY PREDICTED BY IDOCK:   -2.38 KCAL/MOL
REMARK 927      BINDING AFFINITY PREDICTED BY RF-SCORE:    0.00 PKD
ROOT
HETATM    1  C   UNL     1     -14.285  14.916  71.610  1.00  0.00    -0.633 C  
HETATM    2  C   UNL     1     -12.993  15.397  70.971  1.00  0.00    -0.556 C  
ENDROOT
BRANCH   2   3
HETATM    3  C   UNL     1     -12.444  14.378  69.972  1.00  0.00    -0.353 C  
BRANCH   3   4
HETATM    4  C   UNL     1     -11.708  15.072  68.826  1.00  0.00    -0.360 C  
BRANCH   4   5
HETATM    5  C   UNL     1     -11.533  14.171  67.651  1.00  0.00    -0.338 A  
HETATM    6  C   UNL     1     -10.688  13.106  67.376  1.00  0.00    -0.262 A  
HETATM    7  C   UNL     1     -12.261  12.340  63.569  1.00  0.00    -0.669 A  
HETATM    8  C   UNL     1     -11.118  12.584  66.119  1.00  0.00    -0.336 A  
HETATM    9  C   UNL     1     -12.062  13.489  65.641  1.00  0.00    -0.430 A  
HETATM   10  C   UNL     1     -11.371  11.372  64.034  1.00  0.00    -0.291 A  
HETATM   11  C   UNL     1     -10.801  11.472  65.308  1.00  0.00    -0.319 A  
HETATM   12  C   UNL     1     -12.646  13.414  64.380  1.00  0.00    -0.254 A  
HETATM   13  O   UNL     1     -12.331  14.434  66.580  1.00  0.00    -0.411 OA 
BRANCH   6  14
HETATM   14  C   UNL     1      -9.621  12.669  68.259  1.00  0.00    -0.208 C  
HETATM   15  O   UNL     1      -8.603  13.338  68.413  1.00  0.00    -0.173 OA 
BRANCH  14  16
HETATM   16  C   UNL     1      -9.719  11.353  68.955  1.00  0.00    -0.105 A  
HETATM   17  I   UNL     1     -12.962   9.960  71.380  1.00  0.00    -0.509 I  
HETATM   18  C   UNL     1     -10.095   8.903  70.376  1.00  0.00    -0.196 A  
HETATM   19  C   UNL     1     -10.933  11.059  69.570  1.00  0.00    -0.297 A  
HETATM   20  C   UNL     1      -8.868   9.221  69.748  1.00  0.00    -0.167 A  
HETATM   21  I   UNL     1      -7.248   7.864  69.688  1.00  0.00    -0.074 I  
HETATM   22  C   UNL     1     -11.111   9.884  70.322  1.00  0.00    -0.308 A  
HETATM   23  C   UNL     1      -8.666  10.448  69.093  1.00  0.00    -0.173 A  
BRANCH  18  24
HETATM   24  O   UNL     1     -10.136   7.658  70.979  1.00  0.00    -0.190 OA 
BRANCH  24  25
HETATM   25  C   UNL     1     -11.077   6.752  70.415  1.00  0.00    -0.308 C  
BRANCH  25  26
HETATM   26  C   UNL     1     -10.504   5.483  69.771  1.00  0.00    -0.319 C  
BRANCH  26  27
HETATM   27  N   UNL     1     -10.100   5.742  68.360  1.00  0.00    -0.157 NA 
BRANCH  27  28
HETATM   28  C   UNL     1      -9.667   4.541  67.623  1.00  0.00    -0.157 C  
HETATM   29  C   UNL     1      -8.323   4.650  66.910  1.00  0.00    -0.106 C  
ENDBRANCH  27  28
BRANCH  27  30
HETATM   30  C   UNL     1     -11.114   6.539  67.659  1.00  0.00    -0.287 C  
HETATM   31  C   UNL     1     -10.544   7.715  66.866  1.00  0.00    -0.359 C  
ENDBRANCH  27  30
ENDBRANCH  26  27
ENDBRANCH  25  26
ENDBRANCH  24  25
ENDBRANCH  18  24
ENDBRANCH  14  16
ENDBRANCH   6  14
ENDBRANCH   4   5
ENDBRANCH   3   4
ENDBRANCH   2   3
TORSDOF 11
ENDMDL
MODEL        9
REMARK 921   NORMALIZED FREE ENERGY PREDICTED BY IDOCK:   -5.80 KCAL/MOL
REMARK 922        TOTAL FREE ENERGY PREDICTED BY IDOCK:  -11.67 KCAL/MOL
REMARK 923 INTER-LIGAND FREE ENERGY PREDICTED BY IDOCK:   -9.66 KCAL/MOL
REMARK 924 INTRA-LIGAND FREE ENERGY PREDICTED BY IDOCK:   -2.01 KCAL/MOL
REMARK 927      BINDING AFFINITY PREDICTED BY RF-SCORE:    0.00 PKD
ROOT
HETATM    1  C   UNL     1     -13.836  13.818  72.307  1.00  0.00    -0.679 C  
HETATM    2  C   UNL     1     -12.846  13.060  71.438  1.00  0.00    -0.385 C  
ENDROOT
BRANCH   2   3
HETATM    3  C   UNL     1     -13.043  11.547  71.546  1.00  0.00    -0.429 C  
BRANCH   3   4
HETATM    4  C   UNL     1     -12.614  10.843  70.259  1.00  0.00    -0.342 C  
BRANCH   4   5
HETATM    5  C   UNL     1     -11.400  10.003  70.464  1.00  0.00    -0.335 A  
HETATM    6  C   UNL     1     -10.418   9.511  69.617  1.00  0.00    -0.239 A  
HETATM    7  C   UNL     1      -8.230   7.596  72.633  1.00  0.00    -0.153 A  
HETATM    8  C   UNL     1      -9.455   8.881  70.463  1.00  0.00    -0.243 A  
HETATM    9  C   UNL     1     -10.023   8.872  71.734  1.00  0.00    -0.327 A  
HETATM   10  C   UNL     1      -7.592   7.639  71.393  1.00  0.00    -0.080 A  
HETATM   11  C   UNL     1      -8.184   8.287  70.303  1.00  0.00    -0.121 A  
HETATM   12  C   UNL     1      -9.457   8.238  72.836  1.00  0.00    -0.321 A  
HETATM   13  O   UNL     1     -11.187   9.573  71.739  1.00  0.00    -0.363 OA 
BRANCH   6  14
HETATM   14  C   UNL     1     -10.439   9.671  68.174  1.00  0.00    -0.222 C  
HETATM   15  O   UNL     1     -10.600   8.711  67.425  1.00  0.00    -0.274 OA 
BRANCH  14  16
HETATM   16  C   UNL     1     -10.199  11.013  67.568  1.00  0.00    -0.219 A  
HETATM   17  I   UNL     1     -11.951  12.564  63.980  1.00  0.00    -0.654 I  
HETATM   18  C   UNL     1      -9.868  13.520  66.237  1.00  0.00    -0.299 A  
HETATM   19  C   UNL     1     -10.991  11.356  66.475  1.00  0.00    -0.328 A  
HETATM   20  C   UNL     1      -9.071  13.153  67.346  1.00  0.00    -0.208 A  
HETATM   21  I   UNL     1      -7.656  14.469  68.203  1.00  0.00    -0.192 I  
HETATM   22  C   UNL     1     -10.798  12.561  65.775  1.00  0.00    -0.276 A  
HETATM   23  C   UNL     1      -9.198  11.898  67.968  1.00  0.00    -0.190 A  
BRANCH  18  24
HETATM   24  O   UNL     1      -9.621  14.786  65.736  1.00  0.00    -0.316 OA 
BRANCH  24  25
HETATM   25  C   UNL     1     -10.638  15.743  66.005  1.00  0.00    -0.326 C  
BRANCH  25  26
HETATM   26  C   UNL     1     -10.185  17.065  66.639  1.00  0.00    -0.310 C  
BRANCH  26  27
HETATM   27  N   UNL     1     -10.904  17.312  67.920  1.00  0.00    -0.344 NA 
BRANCH  27  28
HETATM   28  C   UNL     1     -11.354  16.089  68.608  1.00  0.00    -0.383 C  
HETATM   29  C   UNL     1     -11.039  16.014  70.098  1.00  0.00    -0.372 C  
ENDBRANCH  27  28
BRANCH  27  30
HETATM   30  C   UNL     1     -10.151  18.236  68.778  1.00  0.00    -0.370 C  
HETATM   31  C   UNL     1      -9.232  19.188  68.011  1.00  0.00    -0.364 C  
ENDBRANCH  27  30
ENDBRANCH  26  27
ENDBRANCH  25  26
ENDBRANCH  24  25
ENDBRANCH  18  24
ENDBRANCH  14  16
ENDBRANCH   6  14
ENDBRANCH   4   5
ENDBRANCH   3   4
ENDBRANCH   2   3
TORSDOF 11
ENDMDL
MODEL       10
REMARK 921   NORMALIZED FREE ENERGY PREDICTED BY IDOCK:   -5.77 KCAL/MOL
REMARK 922        TOTAL FREE ENERGY PREDICTED BY IDOCK:  -11.64 KCAL/MOL
REMARK 923 INTER-LIGAND FREE ENERGY PREDICTED BY IDOCK:   -9.50 KCAL/MOL
REMARK 924 INTRA-LIGAND FREE ENERGY PREDICTED BY IDOCK:   -2.13 KCAL/MOL
REMARK 927      BINDING AFFINITY PREDICTED BY RF-SCORE:    0.00 PKD
ROOT
HETATM    1  C   UNL     1     -13.545  13.654  72.444  1.00  0.00    -0.703 C  
HETATM    2  C   UNL     1     -12.712  14.439  71.443  1.00  0.00    -0.413 C  
ENDROOT
BRANCH   2   3
HETATM    3  C   UNL     1     -12.518  13.665  70.139  1.00  0.00    -0.305 C  
BRANCH   3   4
HETATM    4  C   UNL     1     -11.462  14.329  69.256  1.00  0.00    -0.330 C  
BRANCH   4   5
HETATM    5  C   UNL     1     -11.319  13.636  67.944  1.00  0.00    -0.295 A  
HETATM    6  C   UNL     1     -10.490  12.628  67.476  1.00  0.00    -0.229 A  
HETATM    7  C   UNL     1     -12.148  12.520  63.630  1.00  0.00    -0.642 A  
HETATM    8  C   UNL     1     -10.951  12.326  66.159  1.00  0.00    -0.328 A  
HETATM    9  C   UNL     1     -11.896  13.304  65.860  1.00  0.00    -0.393 A  
HETATM   10  C   UNL     1     -11.257  11.482  63.906  1.00  0.00    -0.439 A  
HETATM   11  C   UNL     1     -10.661  11.364  65.167  1.00  0.00    -0.332 A  
HETATM   12  C   UNL     1     -12.507  13.445  64.617  1.00  0.00    -0.385 A  
HETATM   13  O   UNL     1     -12.137  14.080  66.949  1.00  0.00    -0.424 OA 
BRANCH   6  14
HETATM   14  C   UNL     1      -9.410  12.044  68.250  1.00  0.00    -0.197 C  
HETATM   15  O   UNL     1      -8.250  12.426  68.121  1.00  0.00    -0.157 OA 
BRANCH  14  16
HETATM   16  C   UNL     1      -9.685  10.911  69.180  1.00  0.00    -0.141 A  
HETATM   17  I   UNL     1      -7.112   7.593  70.027  1.00  0.00    -0.061 I  
HETATM   18  C   UNL     1     -10.022   8.650  70.896  1.00  0.00    -0.206 A  
HETATM   19  C   UNL     1      -8.640  10.019  69.408  1.00  0.00    -0.182 A  
HETATM   20  C   UNL     1     -11.073   9.565  70.651  1.00  0.00    -0.300 A  
HETATM   21  I   UNL     1     -12.942   9.422  71.628  1.00  0.00    -0.546 I  
HETATM   22  C   UNL     1      -8.811   8.871  70.203  1.00  0.00    -0.163 A  
HETATM   23  C   UNL     1     -10.924  10.647  69.767  1.00  0.00    -0.340 A  
BRANCH  18  24
HETATM   24  O   UNL     1     -10.327   7.639  71.790  1.00  0.00    -0.193 OA 
BRANCH  24  25
HETATM   25  C   UNL     1     -10.365   6.334  71.225  1.00  0.00    -0.212 C  
BRANCH  25  26
HETATM   26  C   UNL     1     -11.206   6.163  69.953  1.00  0.00    -0.414 C  
BRANCH  26  27
HETATM   27  N   UNL     1     -10.334   5.892  68.775  1.00  0.00    -0.196 NA 
BRANCH  27  28
HETATM   28  C   UNL     1      -9.814   4.514  68.709  1.00  0.00    -0.110 C  
HETATM   29  C   UNL     1      -8.512   4.335  67.936  1.00  0.00    -0.100 C  
ENDBRANCH  27  28
BRANCH  27  30
HETATM   30  C   UNL     1     -10.969   6.351  67.532  1.00  0.00    -0.364 C  
HETATM   31  C   UNL     1     -10.551   7.757  67.102  1.00  0.00    -0.401 C  
ENDBRANCH  27  30
ENDBRANCH  26  27
ENDBRANCH  25  26
ENDBRANCH  24  25
ENDBRANCH  18  24
ENDBRANCH  14  16
ENDBRANCH   6  14
ENDBRANCH   4   5
ENDBRANCH   3   4
ENDBRANCH   2   3
TORSDOF 11
ENDMDL
MODEL       11
REMARK 921   NORMALIZED FREE ENERGY PREDICTED BY IDOCK:   -5.77 KCAL/MOL
REMARK 922        TOTAL FREE ENERGY PREDICTED BY IDOCK:  -11.63 KCAL/MOL
REMARK 923 INTER-LIGAND FREE ENERGY PREDICTED BY IDOCK:  -10.64 KCAL/MOL
REMARK 924 INTRA-LIGAND FREE ENERGY PREDICTED BY IDOCK:   -0.99 KCAL/MOL
REMARK 927      BINDING AFFINITY PREDICTED BY RF-SCORE:    0.00 PKD
ROOT
HETATM    1  C   UNL     1     -12.020   6.778  70.913  1.00  0.00    -0.437 C  
HETATM    2  C   UNL     1     -10.945   7.477  71.730  1.00  0.00    -0.268 C  
ENDROOT
BRANCH   2   3
HETATM    3  C   UNL     1     -11.342   8.914  72.073  1.00  0.00    -0.427 C  
BRANCH   3   4
HETATM    4  C   UNL     1     -12.475   9.402  71.170  1.00  0.00    -0.370 C  
BRANCH   4   5
HETATM    5  C   UNL     1     -12.513  10.890  71.082  1.00  0.00    -0.405 A  
HETATM    6  C   UNL     1     -11.970  11.814  70.201  1.00  0.00    -0.421 A  
HETATM    7  C   UNL     1     -13.591  15.169  72.115  1.00  0.00    -0.558 A  
HETATM    8  C   UNL     1     -12.490  13.082  70.599  1.00  0.00    -0.347 A  
HETATM    9  C   UNL     1     -13.150  12.854  71.804  1.00  0.00    -0.360 A  
HETATM   10  C   UNL     1     -12.999  15.436  70.880  1.00  0.00    -0.539 A  
HETATM   11  C   UNL     1     -12.456  14.405  70.106  1.00  0.00    -0.395 A  
HETATM   12  C   UNL     1     -13.702  13.859  72.593  1.00  0.00    -0.582 A  
HETATM   13  O   UNL     1     -13.186  11.524  72.081  1.00  0.00    -0.505 OA 
BRANCH   6  14
HETATM   14  C   UNL     1     -11.079  11.465  69.109  1.00  0.00    -0.258 C  
HETATM   15  O   UNL     1     -10.779  10.297  68.875  1.00  0.00    -0.203 OA 
BRANCH  14  16
HETATM   16  C   UNL     1     -10.454  12.538  68.283  1.00  0.00    -0.243 A  
HETATM   17  I   UNL     1     -11.994  14.218  64.657  1.00  0.00    -0.425 I  
HETATM   18  C   UNL     1      -9.420  14.564  66.553  1.00  0.00    -0.289 A  
HETATM   19  C   UNL     1     -11.207  13.029  67.220  1.00  0.00    -0.325 A  
HETATM   20  C   UNL     1      -8.667  14.052  67.636  1.00  0.00    -0.189 A  
HETATM   21  I   UNL     1      -6.769  14.823  68.155  1.00  0.00    -0.193 I  
HETATM   22  C   UNL     1     -10.688  13.983  66.327  1.00  0.00    -0.289 A  
HETATM   23  C   UNL     1      -9.154  13.018  68.455  1.00  0.00    -0.129 A  
BRANCH  18  24
HETATM   24  O   UNL     1      -8.801  15.577  65.842  1.00  0.00    -0.254 OA 
BRANCH  24  25
HETATM   25  C   UNL     1      -9.405  16.858  65.978  1.00  0.00    -0.179 C  
BRANCH  25  26
HETATM   26  C   UNL     1      -8.524  17.973  66.556  1.00  0.00    -0.261 C  
BRANCH  26  27
HETATM   27  N   UNL     1      -8.879  18.245  67.978  1.00  0.00    -0.273 NA 
BRANCH  27  28
HETATM   28  C   UNL     1      -7.806  18.887  68.759  1.00  0.00    -0.324 C  
HETATM   29  C   UNL     1      -6.529  19.206  67.989  1.00  0.00    -0.248 C  
ENDBRANCH  27  28
BRANCH  27  30
HETATM   30  C   UNL     1     -10.177  18.924  68.077  1.00  0.00    -0.388 C  
HETATM   31  C   UNL     1     -10.393  20.012  67.025  1.00  0.00    -0.555 C  
ENDBRANCH  27  30
ENDBRANCH  26  27
ENDBRANCH  25  26
ENDBRANCH  24  25
ENDBRANCH  18  24
ENDBRANCH  14  16
ENDBRANCH   6  14
ENDBRANCH   4   5
ENDBRANCH   3   4
ENDBRANCH   2   3
TORSDOF 11
ENDMDL
MODEL       12
REMARK 921   NORMALIZED FREE ENERGY PREDICTED BY IDOCK:   -5.69 KCAL/MOL
REMARK 922        TOTAL FREE ENERGY PREDICTED BY IDOCK:  -11.50 KCAL/MOL
REMARK 923 INTER-LIGAND FREE ENERGY PREDICTED BY IDOCK:   -9.55 KCAL/MOL
REMARK 924 INTRA-LIGAND FREE ENERGY PREDICTED BY IDOCK:   -1.95 KCAL/MOL
REMARK 927      BINDING AFFINITY PREDICTED BY RF-SCORE:    0.00 PKD
ROOT
HETATM    1  C   UNL     1      -9.722  17.059  66.698  1.00  0.00    -0.287 C  
HETATM    2  C   UNL     1     -10.505  16.142  65.773  1.00  0.00    -0.384 C  
ENDROOT
BRANCH   2   3
HETATM    3  C   UNL     1     -10.787  14.789  66.427  1.00  0.00    -0.322 C  
BRANCH   3   4
HETATM    4  C   UNL     1     -10.097  14.680  67.787  1.00  0.00    -0.228 C  
BRANCH   4   5
HETATM    5  C   UNL     1     -11.064  14.364  68.877  1.00  0.00    -0.259 A  
HETATM    6  C   UNL     1     -11.684  13.199  69.303  1.00  0.00    -0.376 A  
HETATM    7  C   UNL     1     -13.760  15.001  72.464  1.00  0.00    -0.572 A  
HETATM    8  C   UNL     1     -12.397  13.550  70.489  1.00  0.00    -0.412 A  
HETATM    9  C   UNL     1     -12.312  14.936  70.580  1.00  0.00    -0.344 A  
HETATM   10  C   UNL     1     -13.819  13.607  72.452  1.00  0.00    -0.691 A  
HETATM   11  C   UNL     1     -13.135  12.867  71.481  1.00  0.00    -0.390 A  
HETATM   12  C   UNL     1     -12.979  15.697  71.536  1.00  0.00    -0.549 A  
HETATM   13  O   UNL     1     -11.484  15.425  69.620  1.00  0.00    -0.274 OA 
BRANCH   6  14
HETATM   14  C   UNL     1     -11.558  11.921  68.626  1.00  0.00    -0.310 C  
HETATM   15  O   UNL     1     -12.140  11.695  67.568  1.00  0.00    -0.611 OA 
BRANCH  14  16
HETATM   16  C   UNL     1     -10.758  10.824  69.244  1.00  0.00    -0.268 A  
HETATM   17  I   UNL     1      -6.978   9.323  67.901  1.00  0.00    -0.077 I  
HETATM   18  C   UNL     1      -9.085   8.742  70.261  1.00  0.00    -0.170 A  
HETATM   19  C   UNL     1      -9.488  10.602  68.720  1.00  0.00    -0.186 A  
HETATM   20  C   UNL     1     -10.380   8.979  70.779  1.00  0.00    -0.243 A  
HETATM   21  I   UNL     1     -11.145   7.909  72.434  1.00  0.00    -0.462 I  
HETATM   22  C   UNL     1      -8.678   9.544  69.171  1.00  0.00    -0.146 A  
HETATM   23  C   UNL     1     -11.223   9.969  70.245  1.00  0.00    -0.379 A  
BRANCH  18  24
HETATM   24  O   UNL     1      -8.380   7.733  70.893  1.00  0.00    -0.108 OA 
BRANCH  24  25
HETATM   25  C   UNL     1      -8.102   6.598  70.081  1.00  0.00    -0.124 C  
BRANCH  25  26
HETATM   26  C   UNL     1      -9.250   5.597  69.888  1.00  0.00    -0.146 C  
BRANCH  26  27
HETATM   27  N   UNL     1      -9.641   5.511  68.453  1.00  0.00    -0.118 NA 
BRANCH  27  28
HETATM   28  C   UNL     1      -9.636   4.142  67.905  1.00  0.00    -0.148 C  
HETATM   29  C   UNL     1      -9.359   3.028  68.909  1.00  0.00    -0.228 C  
ENDBRANCH  27  28
BRANCH  27  30
HETATM   30  C   UNL     1     -10.884   6.251  68.200  1.00  0.00    -0.320 C  
HETATM   31  C   UNL     1     -10.764   7.311  67.105  1.00  0.00    -0.413 C  
ENDBRANCH  27  30
ENDBRANCH  26  27
ENDBRANCH  25  26
ENDBRANCH  24  25
ENDBRANCH  18  24
ENDBRANCH  14  16
ENDBRANCH   6  14
ENDBRANCH   4   5
ENDBRANCH   3   4
ENDBRANCH   2   3
TORSDOF 11
ENDMDL
MODEL       13
REMARK 921   NORMALIZED FREE ENERGY PREDICTED BY IDOCK:   -5.68 KCAL/MOL
REMARK 922        TOTAL FREE ENERGY PREDICTED BY IDOCK:  -11.48 KCAL/MOL
REMARK 923 INTER-LIGAND FREE ENERGY PREDICTED BY IDOCK:   -9.21 KCAL/MOL
REMARK 924 INTRA-LIGAND FREE ENERGY PREDICTED BY IDOCK:   -2.28 KCAL/MOL
REMARK 927      BINDING AFFINITY PREDICTED BY RF-SCORE:    0.00 PKD
ROOT
HETATM    1  C   UNL     1     -11.070  12.780  64.406  1.00  0.00    -0.386 C  
HETATM    2  C   UNL     1     -10.397  13.981  65.050  1.00  0.00    -0.432 C  
ENDROOT
BRANCH   2   3
HETATM    3  C   UNL     1     -11.301  14.644  66.090  1.00  0.00    -0.350 C  
BRANCH   3   4
HETATM    4  C   UNL     1     -10.555  14.868  67.405  1.00  0.00    -0.263 C  
BRANCH   4   5
HETATM    5  C   UNL     1     -11.375  14.467  68.584  1.00  0.00    -0.273 A  
HETATM    6  C   UNL     1     -11.770  13.245  69.107  1.00  0.00    -0.379 A  
HETATM    7  C   UNL     1     -13.858  14.873  72.354  1.00  0.00    -0.587 A  
HETATM    8  C   UNL     1     -12.438  13.545  70.333  1.00  0.00    -0.345 A  
HETATM    9  C   UNL     1     -12.565  14.931  70.360  1.00  0.00    -0.343 A  
HETATM   10  C   UNL     1     -13.698  13.488  72.404  1.00  0.00    -0.704 A  
HETATM   11  C   UNL     1     -12.982  12.811  71.410  1.00  0.00    -0.359 A  
HETATM   12  C   UNL     1     -13.269  15.631  71.336  1.00  0.00    -0.540 A  
HETATM   13  O   UNL     1     -11.899  15.489  69.315  1.00  0.00    -0.334 OA 
BRANCH   6  14
HETATM   14  C   UNL     1     -11.496  11.966  68.476  1.00  0.00    -0.295 C  
HETATM   15  O   UNL     1     -12.141  11.580  67.505  1.00  0.00    -0.614 OA 
BRANCH  14  16
HETATM   16  C   UNL     1     -10.453  11.062  69.042  1.00  0.00    -0.242 A  
HETATM   17  I   UNL     1     -10.959   8.209  72.196  1.00  0.00    -0.442 I  
HETATM   18  C   UNL     1      -8.606   9.263  70.274  1.00  0.00    -0.210 A  
HETATM   19  C   UNL     1     -10.882  10.113  69.966  1.00  0.00    -0.361 A  
HETATM   20  C   UNL     1      -8.188  10.235  69.335  1.00  0.00    -0.165 A  
HETATM   21  I   UNL     1      -6.189  10.363  68.659  1.00  0.00    -0.047 I  
HETATM   22  C   UNL     1      -9.975   9.262  70.623  1.00  0.00    -0.273 A  
HETATM   23  C   UNL     1      -9.088  11.154  68.768  1.00  0.00    -0.144 A  
BRANCH  18  24
HETATM   24  O   UNL     1      -7.601   8.434  70.741  1.00  0.00    -0.060 OA 
BRANCH  24  25
HETATM   25  C   UNL     1      -7.769   7.057  70.428  1.00  0.00    -0.096 C  
BRANCH  25  26
HETATM   26  C   UNL     1      -7.431   6.635  68.991  1.00  0.00    -0.095 C  
BRANCH  26  27
HETATM   27  N   UNL     1      -8.670   6.304  68.232  1.00  0.00    -0.116 NA 
BRANCH  27  28
HETATM   28  C   UNL     1      -9.791   5.843  69.070  1.00  0.00    -0.152 C  
HETATM   29  C   UNL     1     -11.184   6.226  68.582  1.00  0.00    -0.328 C  
ENDBRANCH  27  28
BRANCH  27  30
HETATM   30  C   UNL     1      -9.024   7.386  67.304  1.00  0.00    -0.124 C  
HETATM   31  C   UNL     1      -8.327   7.295  65.946  1.00  0.00    -0.144 C  
ENDBRANCH  27  30
ENDBRANCH  26  27
ENDBRANCH  25  26
ENDBRANCH  24  25
ENDBRANCH  18  24
ENDBRANCH  14  16
ENDBRANCH   6  14
ENDBRANCH   4   5
ENDBRANCH   3   4
ENDBRANCH   2   3
TORSDOF 11
ENDMDL
MODEL       14
REMARK 921   NORMALIZED FREE ENERGY PREDICTED BY IDOCK:   -5.64 KCAL/MOL
REMARK 922        TOTAL FREE ENERGY PREDICTED BY IDOCK:  -11.42 KCAL/MOL
REMARK 923 INTER-LIGAND FREE ENERGY PREDICTED BY IDOCK:   -9.96 KCAL/MOL
REMARK 924 INTRA-LIGAND FREE ENERGY PREDICTED BY IDOCK:   -1.46 KCAL/MOL
REMARK 927      BINDING AFFINITY PREDICTED BY RF-SCORE:    0.00 PKD
ROOT
HETATM    1  C   UNL     1     -12.523  16.004  73.301  1.00  0.00    -0.645 C  
HETATM    2  C   UNL     1     -13.593  15.059  72.777  1.00  0.00    -0.562 C  
ENDROOT
BRANCH   2   3
HETATM    3  C   UNL     1     -13.701  15.117  71.253  1.00  0.00    -0.555 C  
BRANCH   3   4
HETATM    4  C   UNL     1     -12.751  14.116  70.596  1.00  0.00    -0.389 C  
BRANCH   4   5
HETATM    5  C   UNL     1     -12.035  14.712  69.431  1.00  0.00    -0.313 A  
HETATM    6  C   UNL     1     -11.615  14.216  68.207  1.00  0.00    -0.356 A  
HETATM    7  C   UNL     1     -10.001  17.839  66.857  1.00  0.00    -0.332 A  
HETATM    8  C   UNL     1     -11.104  15.339  67.488  1.00  0.00    -0.324 A  
HETATM    9  C   UNL     1     -11.076  16.388  68.403  1.00  0.00    -0.351 A  
HETATM   10  C   UNL     1     -10.070  16.839  65.887  1.00  0.00    -0.324 A  
HETATM   11  C   UNL     1     -10.628  15.590  66.182  1.00  0.00    -0.321 A  
HETATM   12  C   UNL     1     -10.530  17.640  68.137  1.00  0.00    -0.386 A  
HETATM   13  O   UNL     1     -11.664  16.015  69.570  1.00  0.00    -0.325 OA 
BRANCH   6  14
HETATM   14  C   UNL     1     -11.732  12.823  67.814  1.00  0.00    -0.359 C  
HETATM   15  O   UNL     1     -12.275  12.498  66.761  1.00  0.00    -0.532 OA 
BRANCH  14  16
HETATM   16  C   UNL     1     -11.244  11.747  68.723  1.00  0.00    -0.308 A  
HETATM   17  I   UNL     1      -7.320  10.033  68.808  1.00  0.00    -0.094 I  
HETATM   18  C   UNL     1     -10.119   9.687  70.354  1.00  0.00    -0.276 A  
HETATM   19  C   UNL     1      -9.885  11.448  68.668  1.00  0.00    -0.199 A  
HETATM   20  C   UNL     1     -11.497  10.002  70.395  1.00  0.00    -0.314 A  
HETATM   21  I   UNL     1     -12.826   9.075  71.753  1.00  0.00    -0.530 I  
HETATM   22  C   UNL     1      -9.330  10.398  69.421  1.00  0.00    -0.167 A  
HETATM   23  C   UNL     1     -12.060  10.979  69.555  1.00  0.00    -0.400 A  
BRANCH  18  24
HETATM   24  O   UNL     1      -9.720   8.702  71.241  1.00  0.00    -0.193 OA 
BRANCH  24  25
HETATM   25  C   UNL     1      -9.200   7.526  70.633  1.00  0.00    -0.159 C  
BRANCH  25  26
HETATM   26  C   UNL     1     -10.097   6.838  69.594  1.00  0.00    -0.183 C  
BRANCH  26  27
HETATM   27  N   UNL     1      -9.277   6.177  68.540  1.00  0.00    -0.116 NA 
BRANCH  27  28
HETATM   28  C   UNL     1      -9.486   4.722  68.433  1.00  0.00    -0.144 C  
HETATM   29  C   UNL     1      -9.467   3.952  69.749  1.00  0.00    -0.264 C  
ENDBRANCH  27  28
BRANCH  27  30
HETATM   30  C   UNL     1      -9.385   6.892  67.262  1.00  0.00    -0.135 C  
HETATM   31  C   UNL     1     -10.649   7.742  67.129  1.00  0.00    -0.401 C  
ENDBRANCH  27  30
ENDBRANCH  26  27
ENDBRANCH  25  26
ENDBRANCH  24  25
ENDBRANCH  18  24
ENDBRANCH  14  16
ENDBRANCH   6  14
ENDBRANCH   4   5
ENDBRANCH   3   4
ENDBRANCH   2   3
TORSDOF 11
ENDMDL
MODEL       15
REMARK 921   NORMALIZED FREE ENERGY PREDICTED BY IDOCK:   -5.64 KCAL/MOL
REMARK 922        TOTAL FREE ENERGY PREDICTED BY IDOCK:  -11.41 KCAL/MOL
REMARK 923 INTER-LIGAND FREE ENERGY PREDICTED BY IDOCK:   -9.70 KCAL/MOL
REMARK 924 INTRA-LIGAND FREE ENERGY PREDICTED BY IDOCK:   -1.71 KCAL/MOL
REMARK 927      BINDING AFFINITY PREDICTED BY RF-SCORE:    0.00 PKD
ROOT
HETATM    1  C   UNL     1     -10.329  17.498  66.521  1.00  0.00    -0.325 C  
HETATM    2  C   UNL     1      -9.799  16.188  65.960  1.00  0.00    -0.375 C  
ENDROOT
BRANCH   2   3
HETATM    3  C   UNL     1     -10.463  14.981  66.624  1.00  0.00    -0.284 C  
BRANCH   3   4
HETATM    4  C   UNL     1      -9.823  14.676  67.978  1.00  0.00    -0.216 C  
BRANCH   4   5
HETATM    5  C   UNL     1     -10.847  14.456  69.039  1.00  0.00    -0.252 A  
HETATM    6  C   UNL     1     -11.628  13.371  69.410  1.00  0.00    -0.365 A  
HETATM    7  C   UNL     1     -13.510  15.324  72.602  1.00  0.00    -0.610 A  
HETATM    8  C   UNL     1     -12.313  13.773  70.596  1.00  0.00    -0.445 A  
HETATM    9  C   UNL     1     -12.044  15.131  70.742  1.00  0.00    -0.336 A  
HETATM   10  C   UNL     1     -13.757  13.952  72.536  1.00  0.00    -0.665 A  
HETATM   11  C   UNL     1     -13.157  13.162  71.549  1.00  0.00    -0.404 A  
HETATM   12  C   UNL     1     -12.622  15.941  71.714  1.00  0.00    -0.489 A  
HETATM   13  O   UNL     1     -11.137  15.537  69.815  1.00  0.00    -0.248 OA 
BRANCH   6  14
HETATM   14  C   UNL     1     -11.660  12.112  68.687  1.00  0.00    -0.321 C  
HETATM   15  O   UNL     1     -12.064  12.048  67.529  1.00  0.00    -0.555 OA 
BRANCH  14  16
HETATM   16  C   UNL     1     -11.256  10.848  69.370  1.00  0.00    -0.335 A  
HETATM   17  I   UNL     1     -13.623   8.513  72.069  1.00  0.00    -0.438 I  
HETATM   18  C   UNL     1     -10.676   8.434  70.784  1.00  0.00    -0.212 A  
HETATM   19  C   UNL     1     -12.244  10.184  70.092  1.00  0.00    -0.188 A  
HETATM   20  C   UNL     1      -9.685   9.124  70.048  1.00  0.00    -0.195 A  
HETATM   21  I   UNL     1      -7.724   8.371  69.816  1.00  0.00    -0.100 I  
HETATM   22  C   UNL     1     -11.957   9.028  70.840  1.00  0.00    -0.225 A  
HETATM   23  C   UNL     1      -9.957  10.339  69.395  1.00  0.00    -0.254 A  
BRANCH  18  24
HETATM   24  O   UNL     1     -10.251   7.254  71.370  1.00  0.00    -0.189 OA 
BRANCH  24  25
HETATM   25  C   UNL     1     -10.900   6.082  70.891  1.00  0.00    -0.285 C  
BRANCH  25  26
HETATM   26  C   UNL     1     -10.015   5.056  70.171  1.00  0.00    -0.258 C  
BRANCH  26  27
HETATM   27  N   UNL     1      -9.836   5.423  68.738  1.00  0.00    -0.139 NA 
BRANCH  27  28
HETATM   28  C   UNL     1      -9.331   4.328  67.890  1.00  0.00    -0.156 C  
HETATM   29  C   UNL     1      -9.409   2.931  68.497  1.00  0.00    -0.249 C  
ENDBRANCH  27  28
BRANCH  27  30
HETATM   30  C   UNL     1     -11.037   6.083  68.209  1.00  0.00    -0.160 C  
HETATM   31  C   UNL     1     -10.769   6.996  67.013  1.00  0.00    -0.423 C  
ENDBRANCH  27  30
ENDBRANCH  26  27
ENDBRANCH  25  26
ENDBRANCH  24  25
ENDBRANCH  18  24
ENDBRANCH  14  16
ENDBRANCH   6  14
ENDBRANCH   4   5
ENDBRANCH   3   4
ENDBRANCH   2   3
TORSDOF 11
ENDMDL
MODEL       16
REMARK 921   NORMALIZED FREE ENERGY PREDICTED BY IDOCK:   -5.62 KCAL/MOL
REMARK 922        TOTAL FREE ENERGY PREDICTED BY IDOCK:  -11.39 KCAL/MOL
REMARK 923 INTER-LIGAND FREE ENERGY PREDICTED BY IDOCK:   -9.93 KCAL/MOL
REMARK 924 INTRA-LIGAND FREE ENERGY PREDICTED BY IDOCK:   -1.46 KCAL/MOL
REMARK 927      BINDING AFFINITY PREDICTED BY RF-SCORE:    0.00 PKD
ROOT
HETATM    1  C   UNL     1     -12.759  15.573  73.804  1.00  0.00    -0.735 C  
HETATM    2  C   UNL     1     -13.671  15.209  72.644  1.00  0.00    -0.587 C  
ENDROOT
BRANCH   2   3
HETATM    3  C   UNL     1     -13.613  13.713  72.329  1.00  0.00    -0.669 C  
BRANCH   3   4
HETATM    4  C   UNL     1     -12.945  13.461  70.977  1.00  0.00    -0.260 C  
BRANCH   4   5
HETATM    5  C   UNL     1     -12.517  12.041  70.826  1.00  0.00    -0.279 A  
HETATM    6  C   UNL     1     -11.865  11.335  69.826  1.00  0.00    -0.437 A  
HETATM    7  C   UNL     1     -11.840   7.685  71.880  1.00  0.00    -0.332 A  
HETATM    8  C   UNL     1     -11.636  10.030  70.356  1.00  0.00    -0.379 A  
HETATM    9  C   UNL     1     -12.336   9.987  71.559  1.00  0.00    -0.419 A  
HETATM   10  C   UNL     1     -11.071   7.699  70.716  1.00  0.00    -0.276 A  
HETATM   11  C   UNL     1     -10.949   8.865  69.951  1.00  0.00    -0.190 A  
HETATM   12  C   UNL     1     -12.472   8.845  72.342  1.00  0.00    -0.405 A  
HETATM   13  O   UNL     1     -12.846  11.212  71.855  1.00  0.00    -0.411 OA 
BRANCH   6  14
HETATM   14  C   UNL     1     -11.509  11.901  68.537  1.00  0.00    -0.295 C  
HETATM   15  O   UNL     1     -12.138  11.623  67.519  1.00  0.00    -0.611 OA 
BRANCH  14  16
HETATM   16  C   UNL     1     -10.319  12.792  68.415  1.00  0.00    -0.248 A  
HETATM   17  I   UNL     1     -10.311  17.074  68.307  1.00  0.00    -0.388 I  
HETATM   18  C   UNL     1      -8.179  14.670  68.171  1.00  0.00    -0.142 A  
HETATM   19  C   UNL     1     -10.544  14.160  68.547  1.00  0.00    -0.257 A  
HETATM   20  C   UNL     1      -7.969  13.277  68.037  1.00  0.00    -0.152 A  
HETATM   21  I   UNL     1      -6.042  12.448  67.776  1.00  0.00    -0.151 I  
HETATM   22  C   UNL     1      -9.511  15.097  68.371  1.00  0.00    -0.208 A  
HETATM   23  C   UNL     1      -9.029  12.357  68.104  1.00  0.00    -0.196 A  
BRANCH  18  24
HETATM   24  O   UNL     1      -7.034  15.443  68.079  1.00  0.00    -0.112 OA 
BRANCH  24  25
HETATM   25  C   UNL     1      -6.664  16.108  69.281  1.00  0.00    -0.198 C  
BRANCH  25  26
HETATM   26  C   UNL     1      -5.816  17.378  69.127  1.00  0.00    -0.200 C  
BRANCH  26  27
HETATM   27  N   UNL     1      -6.557  18.420  68.361  1.00  0.00    -0.216 NA 
BRANCH  27  28
HETATM   28  C   UNL     1      -7.108  19.506  69.191  1.00  0.00    -0.357 C  
HETATM   29  C   UNL     1      -6.150  20.108  70.214  1.00  0.00    -0.393 C  
ENDBRANCH  27  28
BRANCH  27  30
HETATM   30  C   UNL     1      -5.772  18.886  67.211  1.00  0.00    -0.162 C  
HETATM   31  C   UNL     1      -6.038  18.111  65.920  1.00  0.00    -0.268 C  
ENDBRANCH  27  30
ENDBRANCH  26  27
ENDBRANCH  25  26
ENDBRANCH  24  25
ENDBRANCH  18  24
ENDBRANCH  14  16
ENDBRANCH   6  14
ENDBRANCH   4   5
ENDBRANCH   3   4
ENDBRANCH   2   3
TORSDOF 11
ENDMDL
MODEL       17
REMARK 921   NORMALIZED FREE ENERGY PREDICTED BY IDOCK:   -5.61 KCAL/MOL
REMARK 922        TOTAL FREE ENERGY PREDICTED BY IDOCK:  -11.37 KCAL/MOL
REMARK 923 INTER-LIGAND FREE ENERGY PREDICTED BY IDOCK:   -9.71 KCAL/MOL
REMARK 924 INTRA-LIGAND FREE ENERGY PREDICTED BY IDOCK:   -1.66 KCAL/MOL
REMARK 927      BINDING AFFINITY PREDICTED BY RF-SCORE:    0.00 PKD
ROOT
HETATM    1  C   UNL     1      -9.925   4.437  65.856  1.00  0.00    -0.255 C  
HETATM    2  C   UNL     1      -9.463   5.797  66.353  1.00  0.00    -0.172 C  
ENDROOT
BRANCH   2   3
HETATM    3  C   UNL     1     -10.365   6.327  67.469  1.00  0.00    -0.249 C  
BRANCH   3   4
HETATM    4  C   UNL     1      -9.543   6.995  68.571  1.00  0.00    -0.137 C  
BRANCH   4   5
HETATM    5  C   UNL     1     -10.381   7.882  69.427  1.00  0.00    -0.220 A  
HETATM    6  C   UNL     1     -10.417   9.252  69.644  1.00  0.00    -0.234 A  
HETATM    7  C   UNL     1     -13.617   9.129  72.345  1.00  0.00    -0.544 A  
HETATM    8  C   UNL     1     -11.546   9.481  70.488  1.00  0.00    -0.316 A  
HETATM    9  C   UNL     1     -11.989   8.219  70.873  1.00  0.00    -0.180 A  
HETATM   10  C   UNL     1     -13.252  10.413  71.937  1.00  0.00    -0.535 A  
HETATM   11  C   UNL     1     -12.229  10.605  71.002  1.00  0.00    -0.498 A  
HETATM   12  C   UNL     1     -13.004   7.997  71.798  1.00  0.00    -0.354 A  
HETATM   13  O   UNL     1     -11.300   7.252  70.210  1.00  0.00    -0.273 OA 
BRANCH   6  14
HETATM   14  C   UNL     1      -9.469  10.188  69.069  1.00  0.00    -0.190 C  
HETATM   15  O   UNL     1      -8.296  10.217  69.432  1.00  0.00    -0.151 OA 
BRANCH  14  16
HETATM   16  C   UNL     1      -9.924  11.186  68.057  1.00  0.00    -0.190 A  
HETATM   17  I   UNL     1     -11.522  15.084  68.827  1.00  0.00    -0.371 I  
HETATM   18  C   UNL     1     -10.861  13.225  66.288  1.00  0.00    -0.284 A  
HETATM   19  C   UNL     1     -10.273  12.447  68.534  1.00  0.00    -0.213 A  
HETATM   20  C   UNL     1     -10.505  11.938  65.821  1.00  0.00    -0.256 A  
HETATM   21  I   UNL     1     -10.506  11.443  63.766  1.00  0.00    -0.483 I  
HETATM   22  C   UNL     1     -10.791  13.439  67.683  1.00  0.00    -0.259 A  
HETATM   23  C   UNL     1     -10.094  10.918  66.698  1.00  0.00    -0.264 A  
BRANCH  18  24
HETATM   24  O   UNL     1     -11.246  14.116  65.301  1.00  0.00    -0.306 OA 
BRANCH  24  25
HETATM   25  C   UNL     1     -10.297  15.136  65.014  1.00  0.00    -0.344 C  
BRANCH  25  26
HETATM   26  C   UNL     1     -10.803  16.582  65.083  1.00  0.00    -0.233 C  
BRANCH  26  27
HETATM   27  N   UNL     1      -9.810  17.459  65.767  1.00  0.00    -0.555 NA 
BRANCH  27  28
HETATM   28  C   UNL     1     -10.381  18.314  66.823  1.00  0.00    -0.384 C  
HETATM   29  C   UNL     1     -10.516  19.793  66.476  1.00  0.00    -0.615 C  
ENDBRANCH  27  28
BRANCH  27  30
HETATM   30  C   UNL     1      -8.634  16.690  66.193  1.00  0.00    -0.289 C  
HETATM   31  C   UNL     1      -7.360  17.525  66.327  1.00  0.00    -0.355 C  
ENDBRANCH  27  30
ENDBRANCH  26  27
ENDBRANCH  25  26
ENDBRANCH  24  25
ENDBRANCH  18  24
ENDBRANCH  14  16
ENDBRANCH   6  14
ENDBRANCH   4   5
ENDBRANCH   3   4
ENDBRANCH   2   3
TORSDOF 11
ENDMDL
MODEL       18
REMARK 921   NORMALIZED FREE ENERGY PREDICTED BY IDOCK:   -5.60 KCAL/MOL
REMARK 922        TOTAL FREE ENERGY PREDICTED BY IDOCK:  -11.34 KCAL/MOL
REMARK 923 INTER-LIGAND FREE ENERGY PREDICTED BY IDOCK:   -9.47 KCAL/MOL
REMARK 924 INTRA-LIGAND FREE ENERGY PREDICTED BY IDOCK:   -1.87 KCAL/MOL
REMARK 927      BINDING AFFINITY PREDICTED BY RF-SCORE:    0.00 PKD
ROOT
HETATM    1  C   UNL     1     -13.524  15.291  71.538  1.00  0.00    -0.577 C  
HETATM    2  C   UNL     1     -12.552  14.142  71.323  1.00  0.00    -0.438 C  
ENDROOT
BRANCH   2   3
HETATM    3  C   UNL     1     -12.174  13.991  69.848  1.00  0.00    -0.399 C  
BRANCH   3   4
HETATM    4  C   UNL     1     -11.781  12.549  69.526  1.00  0.00    -0.375 C  
BRANCH   4   5
HETATM    5  C   UNL     1     -11.462  12.371  68.081  1.00  0.00    -0.318 A  
HETATM    6  C   UNL     1     -10.411  11.781  67.395  1.00  0.00    -0.228 A  
HETATM    7  C   UNL     1     -11.951  12.563  63.579  1.00  0.00    -0.629 A  
HETATM    8  C   UNL     1     -10.771  11.829  66.015  1.00  0.00    -0.324 A  
HETATM    9  C   UNL     1     -11.919  12.615  65.955  1.00  0.00    -0.438 A  
HETATM   10  C   UNL     1     -10.841  11.718  63.593  1.00  0.00    -0.508 A  
HETATM   11  C   UNL     1     -10.249  11.332  64.801  1.00  0.00    -0.347 A  
HETATM   12  C   UNL     1     -12.532  13.012  64.770  1.00  0.00    -0.485 A  
HETATM   13  O   UNL     1     -12.351  12.920  67.207  1.00  0.00    -0.312 OA 
BRANCH   6  14
HETATM   14  C   UNL     1      -9.231  11.232  68.039  1.00  0.00    -0.160 C  
HETATM   15  O   UNL     1      -8.219  11.909  68.206  1.00  0.00    -0.145 OA 
BRANCH  14  16
HETATM   16  C   UNL     1      -9.205   9.801  68.457  1.00  0.00    -0.134 A  
HETATM   17  I   UNL     1      -7.362   8.179  71.967  1.00  0.00    -0.124 I  
HETATM   18  C   UNL     1      -9.025   7.119  69.426  1.00  0.00    -0.136 A  
HETATM   19  C   UNL     1      -8.670   9.525  69.713  1.00  0.00    -0.204 A  
HETATM   20  C   UNL     1      -9.562   7.417  68.152  1.00  0.00    -0.142 A  
HETATM   21  I   UNL     1     -10.399   5.930  66.905  1.00  0.00    -0.349 I  
HETATM   22  C   UNL     1      -8.522   8.205  70.177  1.00  0.00    -0.127 A  
HETATM   23  C   UNL     1      -9.603   8.731  67.654  1.00  0.00    -0.179 A  
BRANCH  18  24
HETATM   24  O   UNL     1      -9.055   5.778  69.772  1.00  0.00    -0.133 OA 
BRANCH  24  25
HETATM   25  C   UNL     1     -10.037   5.433  70.741  1.00  0.00    -0.220 C  
BRANCH  25  26
HETATM   26  C   UNL     1     -11.286   6.322  70.797  1.00  0.00    -0.332 C  
BRANCH  26  27
HETATM   27  N   UNL     1     -11.632   6.662  72.206  1.00  0.00    -0.281 NA 
BRANCH  27  28
HETATM   28  C   UNL     1     -11.022   5.773  73.212  1.00  0.00    -0.253 C  
HETATM   29  C   UNL     1     -10.127   6.455  74.241  1.00  0.00    -0.365 C  
ENDBRANCH  27  28
BRANCH  27  30
HETATM   30  C   UNL     1     -11.426   8.092  72.470  1.00  0.00    -0.409 C  
HETATM   31  C   UNL     1     -11.956   9.010  71.369  1.00  0.00    -0.400 C  
ENDBRANCH  27  30
ENDBRANCH  26  27
ENDBRANCH  25  26
ENDBRANCH  24  25
ENDBRANCH  18  24
ENDBRANCH  14  16
ENDBRANCH   6  14
ENDBRANCH   4   5
ENDBRANCH   3   4
ENDBRANCH   2   3
TORSDOF 11
ENDMDL
MODEL       19
REMARK 921   NORMALIZED FREE ENERGY PREDICTED BY IDOCK:   -5.57 KCAL/MOL
REMARK 922        TOTAL FREE ENERGY PREDICTED BY IDOCK:  -11.29 KCAL/MOL
REMARK 923 INTER-LIGAND FREE ENERGY PREDICTED BY IDOCK:  -10.06 KCAL/MOL
REMARK 924 INTRA-LIGAND FREE ENERGY PREDICTED BY IDOCK:   -1.23 KCAL/MOL
REMARK 927      BINDING AFFINITY PREDICTED BY RF-SCORE:    0.00 PKD
ROOT
HETATM    1  C   UNL     1     -11.115  11.908  65.050  1.00  0.00    -0.360 C  
HETATM    2  C   UNL     1     -12.468  12.601  65.062  1.00  0.00    -0.556 C  
ENDROOT
BRANCH   2   3
HETATM    3  C   UNL     1     -12.324  14.118  65.192  1.00  0.00    -0.460 C  
BRANCH   3   4
HETATM    4  C   UNL     1     -10.858  14.519  65.354  1.00  0.00    -0.362 C  
BRANCH   4   5
HETATM    5  C   UNL     1     -10.712  15.796  66.111  1.00  0.00    -0.290 A  
HETATM    6  C   UNL     1     -10.872  16.146  67.443  1.00  0.00    -0.265 A  
HETATM    7  C   UNL     1      -9.822  20.167  66.912  1.00  0.00    -0.593 A  
HETATM    8  C   UNL     1     -10.451  17.507  67.540  1.00  0.00    -0.355 A  
HETATM    9  C   UNL     1     -10.254  17.932  66.229  1.00  0.00    -0.363 A  
HETATM   10  C   UNL     1      -9.942  19.771  68.245  1.00  0.00    -0.557 A  
HETATM   11  C   UNL     1     -10.244  18.444  68.575  1.00  0.00    -0.394 A  
HETATM   12  C   UNL     1      -9.952  19.242  65.870  1.00  0.00    -0.287 A  
HETATM   13  O   UNL     1     -10.387  16.889  65.367  1.00  0.00    -0.609 OA 
BRANCH   6  14
HETATM   14  C   UNL     1     -11.355  15.237  68.467  1.00  0.00    -0.327 C  
HETATM   15  O   UNL     1     -12.165  15.601  69.316  1.00  0.00    -0.303 OA 
BRANCH  14  16
HETATM   16  C   UNL     1     -10.821  13.846  68.544  1.00  0.00    -0.274 A  
HETATM   17  I   UNL     1     -12.480  10.573  70.753  1.00  0.00    -0.488 I  
HETATM   18  C   UNL     1      -9.958  11.138  68.839  1.00  0.00    -0.175 A  
HETATM   19  C   UNL     1     -11.608  12.909  69.208  1.00  0.00    -0.368 A  
HETATM   20  C   UNL     1      -9.170  12.104  68.170  1.00  0.00    -0.197 A  
HETATM   21  I   UNL     1      -7.350  11.609  67.215  1.00  0.00    -0.133 I  
HETATM   22  C   UNL     1     -11.169  11.589  69.411  1.00  0.00    -0.259 A  
HETATM   23  C   UNL     1      -9.570  13.448  68.070  1.00  0.00    -0.219 A  
BRANCH  18  24
HETATM   24  O   UNL     1      -9.426   9.860  68.852  1.00  0.00    -0.156 OA 
BRANCH  24  25
HETATM   25  C   UNL     1      -8.856   9.464  70.094  1.00  0.00    -0.223 C  
BRANCH  25  26
HETATM   26  C   UNL     1      -8.405   8.001  70.204  1.00  0.00    -0.126 C  
BRANCH  26  27
HETATM   27  N   UNL     1      -9.359   7.214  71.035  1.00  0.00    -0.159 NA 
BRANCH  27  28
HETATM   28  C   UNL     1      -9.391   7.606  72.456  1.00  0.00    -0.163 C  
HETATM   29  C   UNL     1     -10.779   7.723  73.078  1.00  0.00    -0.446 C  
ENDBRANCH  27  28
BRANCH  27  30
HETATM   30  C   UNL     1     -10.682   7.152  70.402  1.00  0.00    -0.235 C  
HETATM   31  C   UNL     1     -10.739   6.258  69.164  1.00  0.00    -0.362 C  
ENDBRANCH  27  30
ENDBRANCH  26  27
ENDBRANCH  25  26
ENDBRANCH  24  25
ENDBRANCH  18  24
ENDBRANCH  14  16
ENDBRANCH   6  14
ENDBRANCH   4   5
ENDBRANCH   3   4
ENDBRANCH   2   3
TORSDOF 11
ENDMDL
MODEL       20
REMARK 921   NORMALIZED FREE ENERGY PREDICTED BY IDOCK:   -5.53 KCAL/MOL
REMARK 922        TOTAL FREE ENERGY PREDICTED BY IDOCK:  -11.23 KCAL/MOL
REMARK 923 INTER-LIGAND FREE ENERGY PREDICTED BY IDOCK:   -9.50 KCAL/MOL
REMARK 924 INTRA-LIGAND FREE ENERGY PREDICTED BY IDOCK:   -1.73 KCAL/MOL
REMARK 927      BINDING AFFINITY PREDICTED BY RF-SCORE:    0.00 PKD
ROOT
HETATM    1  C   UNL     1     -13.841  13.741  72.367  1.00  0.00    -0.681 C  
HETATM    2  C   UNL     1     -13.155  14.987  72.902  1.00  0.00    -0.576 C  
ENDROOT
BRANCH   2   3
HETATM    3  C   UNL     1     -12.166  15.566  71.889  1.00  0.00    -0.477 C  
BRANCH   3   4
HETATM    4  C   UNL     1     -12.630  15.307  70.456  1.00  0.00    -0.450 C  
BRANCH   4   5
HETATM    5  C   UNL     1     -11.605  15.723  69.457  1.00  0.00    -0.363 A  
HETATM    6  C   UNL     1     -11.197  15.217  68.232  1.00  0.00    -0.315 A  
HETATM    7  C   UNL     1      -8.336  18.193  67.518  1.00  0.00    -0.237 A  
HETATM    8  C   UNL     1     -10.258  16.159  67.715  1.00  0.00    -0.267 A  
HETATM    9  C   UNL     1     -10.025  17.061  68.750  1.00  0.00    -0.293 A  
HETATM   10  C   UNL     1      -8.584  17.355  66.430  1.00  0.00    -0.282 A  
HETATM   11  C   UNL     1      -9.548  16.343  66.508  1.00  0.00    -0.291 A  
HETATM   12  C   UNL     1      -9.076  18.078  68.700  1.00  0.00    -0.276 A  
HETATM   13  O   UNL     1     -10.859  16.812  69.793  1.00  0.00    -0.325 OA 
BRANCH   6  14
HETATM   14  C   UNL     1     -11.696  13.979  67.660  1.00  0.00    -0.377 C  
HETATM   15  O   UNL     1     -12.464  13.980  66.701  1.00  0.00    -0.420 OA 
BRANCH  14  16
HETATM   16  C   UNL     1     -11.331  12.670  68.276  1.00  0.00    -0.337 A  
HETATM   17  I   UNL     1      -8.218  10.014  67.013  1.00  0.00    -0.117 I  
HETATM   18  C   UNL     1     -10.484  10.137  69.292  1.00  0.00    -0.225 A  
HETATM   19  C   UNL     1     -10.187  12.045  67.786  1.00  0.00    -0.211 A  
HETATM   20  C   UNL     1     -11.644  10.785  69.776  1.00  0.00    -0.317 A  
HETATM   21  I   UNL     1     -12.783  10.009  71.379  1.00  0.00    -0.593 I  
HETATM   22  C   UNL     1      -9.793  10.772  68.235  1.00  0.00    -0.166 A  
HETATM   23  C   UNL     1     -12.090  12.006  69.240  1.00  0.00    -0.249 A  
BRANCH  18  24
HETATM   24  O   UNL     1     -10.179   8.942  69.921  1.00  0.00    -0.189 OA 
BRANCH  24  25
HETATM   25  C   UNL     1      -9.026   8.984  70.754  1.00  0.00    -0.236 C  
BRANCH  25  26
HETATM   26  C   UNL     1      -9.221   8.553  72.214  1.00  0.00    -0.272 C  
BRANCH  26  27
HETATM   27  N   UNL     1      -9.253   7.068  72.329  1.00  0.00    -0.134 NA 
BRANCH  27  28
HETATM   28  C   UNL     1      -7.999   6.470  72.821  1.00  0.00    -0.102 C  
HETATM   29  C   UNL     1      -8.114   5.054  73.374  1.00  0.00    -0.107 C  
ENDBRANCH  27  28
BRANCH  27  30
HETATM   30  C   UNL     1     -10.451   6.620  73.050  1.00  0.00    -0.243 C  
HETATM   31  C   UNL     1     -11.602   6.190  72.140  1.00  0.00    -0.369 C  
ENDBRANCH  27  30
ENDBRANCH  26  27
ENDBRANCH  25  26
ENDBRANCH  24  25
ENDBRANCH  18  24
ENDBRANCH  14  16
ENDBRANCH   6  14
ENDBRANCH   4   5
ENDBRANCH   3   4
ENDBRANCH   2   3
TORSDOF 11
ENDMDL
MODEL       21
REMARK 921   NORMALIZED FREE ENERGY PREDICTED BY IDOCK:   -5.52 KCAL/MOL
REMARK 922        TOTAL FREE ENERGY PREDICTED BY IDOCK:  -11.21 KCAL/MOL
REMARK 923 INTER-LIGAND FREE ENERGY PREDICTED BY IDOCK:   -9.09 KCAL/MOL
REMARK 924 INTRA-LIGAND FREE ENERGY PREDICTED BY IDOCK:   -2.12 KCAL/MOL
REMARK 927      BINDING AFFINITY PREDICTED BY RF-SCORE:    0.00 PKD
ROOT
HETATM    1  C   UNL     1     -14.410  15.146  71.840  1.00  0.00    -0.693 C  
HETATM    2  C   UNL     1     -13.242  15.341  70.887  1.00  0.00    -0.506 C  
ENDROOT
BRANCH   2   3
HETATM    3  C   UNL     1     -12.871  14.040  70.174  1.00  0.00    -0.079 C  
BRANCH   3   4
HETATM    4  C   UNL     1     -11.439  14.092  69.644  1.00  0.00    -0.317 C  
BRANCH   4   5
HETATM    5  C   UNL     1     -11.341  13.561  68.254  1.00  0.00    -0.294 A  
HETATM    6  C   UNL     1     -10.715  12.461  67.688  1.00  0.00    -0.248 A  
HETATM    7  C   UNL     1     -12.033  13.233  63.787  1.00  0.00    -0.551 A  
HETATM    8  C   UNL     1     -11.120  12.446  66.319  1.00  0.00    -0.344 A  
HETATM    9  C   UNL     1     -11.802  13.642  66.117  1.00  0.00    -0.392 A  
HETATM   10  C   UNL     1     -11.414  11.993  63.955  1.00  0.00    -0.518 A  
HETATM   11  C   UNL     1     -10.964  11.580  65.214  1.00  0.00    -0.291 A  
HETATM   12  C   UNL     1     -12.263  14.078  64.878  1.00  0.00    -0.455 A  
HETATM   13  O   UNL     1     -11.958  14.304  67.294  1.00  0.00    -0.401 OA 
BRANCH   6  14
HETATM   14  C   UNL     1      -9.855  11.552  68.423  1.00  0.00    -0.204 C  
HETATM   15  O   UNL     1      -8.649  11.757  68.532  1.00  0.00    -0.162 OA 
BRANCH  14  16
HETATM   16  C   UNL     1     -10.419  10.304  69.015  1.00  0.00    -0.238 A  
HETATM   17  I   UNL     1      -9.728   6.289  67.690  1.00  0.00    -0.180 I  
HETATM   18  C   UNL     1     -11.403   7.801  69.982  1.00  0.00    -0.048 A  
HETATM   19  C   UNL     1      -9.940   9.098  68.508  1.00  0.00    -0.192 A  
HETATM   20  C   UNL     1     -11.880   9.035  70.484  1.00  0.00    -0.073 A  
HETATM   21  I   UNL     1     -13.262   9.145  72.079  1.00  0.00    -0.598 I  
HETATM   22  C   UNL     1     -10.458   7.862  68.933  1.00  0.00    -0.190 A  
HETATM   23  C   UNL     1     -11.434  10.266  69.971  1.00  0.00    -0.367 A  
BRANCH  18  24
HETATM   24  O   UNL     1     -11.940   6.679  70.589  1.00  0.00    -0.395 OA 
BRANCH  24  25
HETATM   25  C   UNL     1     -10.991   5.836  71.231  1.00  0.00    -0.230 C  
BRANCH  25  26
HETATM   26  C   UNL     1     -10.821   6.024  72.745  1.00  0.00    -0.249 C  
BRANCH  26  27
HETATM   27  N   UNL     1      -9.429   6.440  73.073  1.00  0.00    -0.142 NA 
BRANCH  27  28
HETATM   28  C   UNL     1      -8.399   5.862  72.191  1.00  0.00    -0.118 C  
HETATM   29  C   UNL     1      -7.673   4.636  72.736  1.00  0.00    -0.088 C  
ENDBRANCH  27  28
BRANCH  27  30
HETATM   30  C   UNL     1      -9.335   7.898  73.224  1.00  0.00    -0.286 C  
HETATM   31  C   UNL     1      -8.565   8.592  72.100  1.00  0.00    -0.242 C  
ENDBRANCH  27  30
ENDBRANCH  26  27
ENDBRANCH  25  26
ENDBRANCH  24  25
ENDBRANCH  18  24
ENDBRANCH  14  16
ENDBRANCH   6  14
ENDBRANCH   4   5
ENDBRANCH   3   4
ENDBRANCH   2   3
TORSDOF 11
ENDMDL
MODEL       22
REMARK 921   NORMALIZED FREE ENERGY PREDICTED BY IDOCK:   -5.50 KCAL/MOL
REMARK 922        TOTAL FREE ENERGY PREDICTED BY IDOCK:  -11.18 KCAL/MOL
REMARK 923 INTER-LIGAND FREE ENERGY PREDICTED BY IDOCK:   -9.88 KCAL/MOL
REMARK 924 INTRA-LIGAND FREE ENERGY PREDICTED BY IDOCK:   -1.30 KCAL/MOL
REMARK 927      BINDING AFFINITY PREDICTED BY RF-SCORE:    0.00 PKD
ROOT
HETATM    1  C   UNL     1     -10.195  10.392  65.386  1.00  0.00    -0.329 C  
HETATM    2  C   UNL     1     -10.221   9.645  66.710  1.00  0.00    -0.308 C  
ENDROOT
BRANCH   2   3
HETATM    3  C   UNL     1      -8.928   9.852  67.500  1.00  0.00    -0.141 C  
BRANCH   3   4
HETATM    4  C   UNL     1      -9.159  10.769  68.701  1.00  0.00    -0.173 C  
BRANCH   4   5
HETATM    5  C   UNL     1      -9.606  10.007  69.903  1.00  0.00    -0.192 A  
HETATM    6  C   UNL     1     -10.824   9.861  70.548  1.00  0.00    -0.391 A  
HETATM    7  C   UNL     1      -9.395   7.233  73.481  1.00  0.00    -0.253 A  
HETATM    8  C   UNL     1     -10.610   8.885  71.568  1.00  0.00    -0.399 A  
HETATM    9  C   UNL     1      -9.236   8.659  71.586  1.00  0.00    -0.256 A  
HETATM   10  C   UNL     1     -10.783   7.376  73.458  1.00  0.00    -0.347 A  
HETATM   11  C   UNL     1     -11.405   8.187  72.502  1.00  0.00    -0.469 A  
HETATM   12  C   UNL     1      -8.590   7.858  72.522  1.00  0.00    -0.205 A  
HETATM   13  O   UNL     1      -8.633   9.319  70.562  1.00  0.00    -0.198 OA 
BRANCH   6  14
HETATM   14  C   UNL     1     -12.029  10.582  70.177  1.00  0.00    -0.316 C  
HETATM   15  O   UNL     1     -13.122  10.024  70.135  1.00  0.00     0.019 OA 
BRANCH  14  16
HETATM   16  C   UNL     1     -11.947  12.017  69.776  1.00  0.00    -0.370 A  
HETATM   17  I   UNL     1     -12.633  15.430  72.271  1.00  0.00    -0.642 I  
HETATM   18  C   UNL     1     -11.862  14.816  69.210  1.00  0.00    -0.318 A  
HETATM   19  C   UNL     1     -12.069  12.960  70.793  1.00  0.00    -0.252 A  
HETATM   20  C   UNL     1     -11.743  13.844  68.188  1.00  0.00    -0.353 A  
HETATM   21  I   UNL     1     -11.362  14.365  66.176  1.00  0.00    -0.356 I  
HETATM   22  C   UNL     1     -12.087  14.339  70.520  1.00  0.00    -0.343 A  
HETATM   23  C   UNL     1     -11.838  12.468  68.460  1.00  0.00    -0.341 A  
BRANCH  18  24
HETATM   24  O   UNL     1     -11.748  16.128  68.781  1.00  0.00    -0.364 OA 
BRANCH  24  25
HETATM   25  C   UNL     1     -10.581  16.805  69.233  1.00  0.00    -0.336 C  
BRANCH  25  26
HETATM   26  C   UNL     1      -9.766  17.548  68.166  1.00  0.00    -0.302 C  
BRANCH  26  27
HETATM   27  N   UNL     1      -9.352  18.893  68.658  1.00  0.00    -0.361 NA 
BRANCH  27  28
HETATM   28  C   UNL     1      -7.893  19.088  68.737  1.00  0.00    -0.342 C  
HETATM   29  C   UNL     1      -7.043  17.936  68.213  1.00  0.00    -0.232 C  
ENDBRANCH  27  28
BRANCH  27  30
HETATM   30  C   UNL     1     -10.059  19.958  67.935  1.00  0.00    -0.436 C  
HETATM   31  C   UNL     1     -10.576  19.540  66.559  1.00  0.00    -0.579 C  
ENDBRANCH  27  30
ENDBRANCH  26  27
ENDBRANCH  25  26
ENDBRANCH  24  25
ENDBRANCH  18  24
ENDBRANCH  14  16
ENDBRANCH   6  14
ENDBRANCH   4   5
ENDBRANCH   3   4
ENDBRANCH   2   3
TORSDOF 11
ENDMDL
MODEL       23
REMARK 921   NORMALIZED FREE ENERGY PREDICTED BY IDOCK:   -5.49 KCAL/MOL
REMARK 922        TOTAL FREE ENERGY PREDICTED BY IDOCK:  -11.17 KCAL/MOL
REMARK 923 INTER-LIGAND FREE ENERGY PREDICTED BY IDOCK:   -9.34 KCAL/MOL
REMARK 924 INTRA-LIGAND FREE ENERGY PREDICTED BY IDOCK:   -1.83 KCAL/MOL
REMARK 927      BINDING AFFINITY PREDICTED BY RF-SCORE:    0.00 PKD
ROOT
HETATM    1  C   UNL     1     -13.748  13.850  72.311  1.00  0.00    -0.660 C  
HETATM    2  C   UNL     1     -13.213  12.441  72.112  1.00  0.00    -0.491 C  
ENDROOT
BRANCH   2   3
HETATM    3  C   UNL     1     -12.469  12.302  70.783  1.00  0.00    -0.356 C  
BRANCH   3   4
HETATM    4  C   UNL     1     -12.673  10.912  70.182  1.00  0.00    -0.227 C  
BRANCH   4   5
HETATM    5  C   UNL     1     -11.476  10.043  70.373  1.00  0.00    -0.314 A  
HETATM    6  C   UNL     1     -10.521   9.521  69.514  1.00  0.00    -0.234 A  
HETATM    7  C   UNL     1      -8.331   7.575  72.509  1.00  0.00    -0.138 A  
HETATM    8  C   UNL     1      -9.560   8.875  70.349  1.00  0.00    -0.227 A  
HETATM    9  C   UNL     1     -10.106   8.888  71.629  1.00  0.00    -0.341 A  
HETATM   10  C   UNL     1      -7.713   7.594  71.258  1.00  0.00    -0.085 A  
HETATM   11  C   UNL     1      -8.306   8.248  70.173  1.00  0.00    -0.124 A  
HETATM   12  C   UNL     1      -9.538   8.249  72.726  1.00  0.00    -0.338 A  
HETATM   13  O   UNL     1     -11.253   9.618  71.648  1.00  0.00    -0.367 OA 
BRANCH   6  14
HETATM   14  C   UNL     1     -10.562   9.672  68.071  1.00  0.00    -0.243 C  
HETATM   15  O   UNL     1     -10.756   8.710  67.332  1.00  0.00    -0.264 OA 
BRANCH  14  16
HETATM   16  C   UNL     1     -10.303  11.003  67.450  1.00  0.00    -0.242 A  
HETATM   17  I   UNL     1      -6.828  13.452  67.971  1.00  0.00    -0.195 I  
HETATM   18  C   UNL     1      -9.622  13.564  66.381  1.00  0.00    -0.259 A  
HETATM   19  C   UNL     1      -9.039  11.552  67.648  1.00  0.00    -0.168 A  
HETATM   20  C   UNL     1     -10.902  12.993  66.192  1.00  0.00    -0.279 A  
HETATM   21  I   UNL     1     -12.383  13.915  64.998  1.00  0.00    -0.418 I  
HETATM   22  C   UNL     1      -8.710  12.836  67.178  1.00  0.00    -0.202 A  
HETATM   23  C   UNL     1     -11.255  11.758  66.762  1.00  0.00    -0.388 A  
BRANCH  18  24
HETATM   24  O   UNL     1      -9.431  14.786  65.758  1.00  0.00    -0.290 OA 
BRANCH  24  25
HETATM   25  C   UNL     1      -9.292  15.892  66.641  1.00  0.00    -0.249 C  
BRANCH  25  26
HETATM   26  C   UNL     1     -10.133  17.134  66.319  1.00  0.00    -0.320 C  
BRANCH  26  27
HETATM   27  N   UNL     1     -10.853  17.616  67.532  1.00  0.00    -0.279 NA 
BRANCH  27  28
HETATM   28  C   UNL     1     -10.628  16.795  68.736  1.00  0.00    -0.348 C  
HETATM   29  C   UNL     1     -11.702  15.756  69.039  1.00  0.00    -0.405 C  
ENDBRANCH  27  28
BRANCH  27  30
HETATM   30  C   UNL     1     -10.634  19.053  67.740  1.00  0.00    -0.404 C  
HETATM   31  C   UNL     1      -9.809  19.383  68.984  1.00  0.00    -0.487 C  
ENDBRANCH  27  30
ENDBRANCH  26  27
ENDBRANCH  25  26
ENDBRANCH  24  25
ENDBRANCH  18  24
ENDBRANCH  14  16
ENDBRANCH   6  14
ENDBRANCH   4   5
ENDBRANCH   3   4
ENDBRANCH   2   3
TORSDOF 11
ENDMDL
MODEL       24
REMARK 921   NORMALIZED FREE ENERGY PREDICTED BY IDOCK:   -5.49 KCAL/MOL
REMARK 922        TOTAL FREE ENERGY PREDICTED BY IDOCK:  -11.16 KCAL/MOL
REMARK 923 INTER-LIGAND FREE ENERGY PREDICTED BY IDOCK:   -9.54 KCAL/MOL
REMARK 924 INTRA-LIGAND FREE ENERGY PREDICTED BY IDOCK:   -1.62 KCAL/MOL
REMARK 927      BINDING AFFINITY PREDICTED BY RF-SCORE:    0.00 PKD
ROOT
HETATM    1  C   UNL     1     -12.654  15.194  73.800  1.00  0.00    -0.712 C  
HETATM    2  C   UNL     1     -13.607  15.460  72.645  1.00  0.00    -0.641 C  
ENDROOT
BRANCH   2   3
HETATM    3  C   UNL     1     -14.228  14.166  72.117  1.00  0.00    -0.638 C  
BRANCH   3   4
HETATM    4  C   UNL     1     -13.354  12.959  72.453  1.00  0.00    -0.526 C  
BRANCH   4   5
HETATM    5  C   UNL     1     -12.721  12.375  71.236  1.00  0.00    -0.248 A  
HETATM    6  C   UNL     1     -12.402  11.083  70.846  1.00  0.00    -0.503 A  
HETATM    7  C   UNL     1     -10.846  12.181  67.114  1.00  0.00    -0.286 A  
HETATM    8  C   UNL     1     -11.931  11.188  69.502  1.00  0.00    -0.425 A  
HETATM    9  C   UNL     1     -11.820  12.553  69.251  1.00  0.00    -0.304 A  
HETATM   10  C   UNL     1     -11.002  10.806  67.295  1.00  0.00    -0.359 A  
HETATM   11  C   UNL     1     -11.553  10.295  68.476  1.00  0.00    -0.077 A  
HETATM   12  C   UNL     1     -11.278  13.090  68.086  1.00  0.00    -0.305 A  
HETATM   13  O   UNL     1     -12.322  13.270  70.291  1.00  0.00    -0.315 OA 
BRANCH   6  14
HETATM   14  C   UNL     1     -12.567   9.916  71.694  1.00  0.00    -0.424 C  
HETATM   15  O   UNL     1     -13.578   9.756  72.373  1.00  0.00    -0.407 OA 
BRANCH  14  16
HETATM   16  C   UNL     1     -11.471   8.911  71.805  1.00  0.00    -0.423 A  
HETATM   17  I   UNL     1      -7.503   9.248  70.229  1.00  0.00    -0.168 I  
HETATM   18  C   UNL     1      -9.249   7.116  71.887  1.00  0.00    -0.138 A  
HETATM   19  C   UNL     1     -10.217   9.298  71.340  1.00  0.00    -0.371 A  
HETATM   20  C   UNL     1     -10.530   6.739  72.352  1.00  0.00    -0.204 A  
HETATM   21  I   UNL     1     -10.892   4.868  73.269  1.00  0.00    -0.419 I  
HETATM   22  C   UNL     1      -9.130   8.405  71.320  1.00  0.00    -0.178 A  
HETATM   23  C   UNL     1     -11.636   7.603  72.264  1.00  0.00    -0.370 A  
BRANCH  18  24
HETATM   24  O   UNL     1      -8.266   6.153  72.043  1.00  0.00    -0.110 OA 
BRANCH  24  25
HETATM   25  C   UNL     1      -7.782   5.592  70.829  1.00  0.00    -0.092 C  
BRANCH  25  26
HETATM   26  C   UNL     1      -8.815   4.883  69.942  1.00  0.00    -0.094 C  
BRANCH  26  27
HETATM   27  N   UNL     1      -8.757   5.399  68.546  1.00  0.00    -0.095 NA 
BRANCH  27  28
HETATM   28  C   UNL     1      -9.786   6.406  68.228  1.00  0.00    -0.127 C  
HETATM   29  C   UNL     1     -11.158   6.168  68.849  1.00  0.00    -0.417 C  
ENDBRANCH  27  28
BRANCH  27  30
HETATM   30  C   UNL     1      -7.392   5.807  68.190  1.00  0.00    -0.077 C  
HETATM   31  C   UNL     1      -7.324   6.832  67.058  1.00  0.00    -0.082 C  
ENDBRANCH  27  30
ENDBRANCH  26  27
ENDBRANCH  25  26
ENDBRANCH  24  25
ENDBRANCH  18  24
ENDBRANCH  14  16
ENDBRANCH   6  14
ENDBRANCH   4   5
ENDBRANCH   3   4
ENDBRANCH   2   3
TORSDOF 11
ENDMDL
MODEL       25
REMARK 921   NORMALIZED FREE ENERGY PREDICTED BY IDOCK:   -5.48 KCAL/MOL
REMARK 922        TOTAL FREE ENERGY PREDICTED BY IDOCK:  -11.15 KCAL/MOL
REMARK 923 INTER-LIGAND FREE ENERGY PREDICTED BY IDOCK:   -9.33 KCAL/MOL
REMARK 924 INTRA-LIGAND FREE ENERGY PREDICTED BY IDOCK:   -1.82 KCAL/MOL
REMARK 927      BINDING AFFINITY PREDICTED BY RF-SCORE:    0.00 PKD
ROOT
HETATM    1  C   UNL     1     -14.107   8.647  71.854  1.00  0.00    -0.512 C  
HETATM    2  C   UNL     1     -13.134   7.505  71.611  1.00  0.00    -0.401 C  
ENDROOT
BRANCH   2   3
HETATM    3  C   UNL     1     -11.769   7.782  72.244  1.00  0.00    -0.390 C  
BRANCH   3   4
HETATM    4  C   UNL     1     -11.095   8.988  71.590  1.00  0.00    -0.433 C  
BRANCH   4   5
HETATM    5  C   UNL     1     -10.644   8.686  70.201  1.00  0.00    -0.225 A  
HETATM    6  C   UNL     1     -10.753   9.353  68.990  1.00  0.00    -0.209 A  
HETATM    7  C   UNL     1      -8.654   6.480  66.778  1.00  0.00    -0.117 A  
HETATM    8  C   UNL     1      -9.990   8.589  68.056  1.00  0.00    -0.221 A  
HETATM    9  C   UNL     1      -9.639   7.420  68.726  1.00  0.00    -0.147 A  
HETATM   10  C   UNL     1      -8.925   7.660  66.085  1.00  0.00    -0.197 A  
HETATM   11  C   UNL     1      -9.579   8.727  66.712  1.00  0.00    -0.267 A  
HETATM   12  C   UNL     1      -8.986   6.345  68.131  1.00  0.00    -0.116 A  
HETATM   13  O   UNL     1     -10.012   7.492  70.031  1.00  0.00    -0.183 OA 
BRANCH   6  14
HETATM   14  C   UNL     1     -11.498  10.586  68.809  1.00  0.00    -0.224 C  
HETATM   15  O   UNL     1     -12.622  10.730  69.281  1.00  0.00    -0.324 OA 
BRANCH  14  16
HETATM   16  C   UNL     1     -10.927  11.689  67.982  1.00  0.00    -0.275 A  
HETATM   17  I   UNL     1     -12.144  12.843  64.041  1.00  0.00    -0.565 I  
HETATM   18  C   UNL     1      -9.968  13.736  66.234  1.00  0.00    -0.305 A  
HETATM   19  C   UNL     1     -11.579  11.976  66.785  1.00  0.00    -0.391 A  
HETATM   20  C   UNL     1      -9.317  13.429  67.452  1.00  0.00    -0.221 A  
HETATM   21  I   UNL     1      -7.659  14.536  68.155  1.00  0.00    -0.192 I  
HETATM   22  C   UNL     1     -11.083  12.940  65.890  1.00  0.00    -0.283 A  
HETATM   23  C   UNL     1      -9.758  12.387  68.287  1.00  0.00    -0.218 A  
BRANCH  18  24
HETATM   24  O   UNL     1      -9.412  14.787  65.526  1.00  0.00    -0.216 OA 
BRANCH  24  25
HETATM   25  C   UNL     1     -10.213  15.961  65.472  1.00  0.00    -0.365 C  
BRANCH  25  26
HETATM   26  C   UNL     1      -9.730  17.158  66.303  1.00  0.00    -0.278 C  
BRANCH  26  27
HETATM   27  N   UNL     1     -10.781  17.594  67.265  1.00  0.00    -0.288 NA 
BRANCH  27  28
HETATM   28  C   UNL     1     -10.718  16.924  68.576  1.00  0.00    -0.359 C  
HETATM   29  C   UNL     1     -11.759  15.834  68.813  1.00  0.00    -0.387 C  
ENDBRANCH  27  28
BRANCH  27  30
HETATM   30  C   UNL     1     -10.847  19.059  67.345  1.00  0.00    -0.409 C  
HETATM   31  C   UNL     1     -10.407  19.773  66.067  1.00  0.00    -0.612 C  
ENDBRANCH  27  30
ENDBRANCH  26  27
ENDBRANCH  25  26
ENDBRANCH  24  25
ENDBRANCH  18  24
ENDBRANCH  14  16
ENDBRANCH   6  14
ENDBRANCH   4   5
ENDBRANCH   3   4
ENDBRANCH   2   3
TORSDOF 11
ENDMDL
MODEL       26
REMARK 921   NORMALIZED FREE ENERGY PREDICTED BY IDOCK:   -5.48 KCAL/MOL
REMARK 922        TOTAL FREE ENERGY PREDICTED BY IDOCK:  -11.15 KCAL/MOL
REMARK 923 INTER-LIGAND FREE ENERGY PREDICTED BY IDOCK:   -9.60 KCAL/MOL
REMARK 924 INTRA-LIGAND FREE ENERGY PREDICTED BY IDOCK:   -1.55 KCAL/MOL
REMARK 927      BINDING AFFINITY PREDICTED BY RF-SCORE:    0.00 PKD
ROOT
HETATM    1  C   UNL     1     -10.480  16.085  65.487  1.00  0.00    -0.426 C  
HETATM    2  C   UNL     1      -9.242  15.432  66.080  1.00  0.00    -0.362 C  
ENDROOT
BRANCH   2   3
HETATM    3  C   UNL     1      -9.154  15.657  67.590  1.00  0.00    -0.193 C  
BRANCH   3   4
HETATM    4  C   UNL     1     -10.317  16.516  68.087  1.00  0.00    -0.296 C  
BRANCH   4   5
HETATM    5  C   UNL     1     -11.115  15.818  69.135  1.00  0.00    -0.283 A  
HETATM    6  C   UNL     1     -11.809  14.619  69.173  1.00  0.00    -0.347 A  
HETATM    7  C   UNL     1     -13.031  15.007  73.162  1.00  0.00    -0.631 A  
HETATM    8  C   UNL     1     -12.250  14.467  70.523  1.00  0.00    -0.399 A  
HETATM    9  C   UNL     1     -11.955  15.675  71.150  1.00  0.00    -0.409 A  
HETATM   10  C   UNL     1     -13.287  13.757  72.597  1.00  0.00    -0.618 A  
HETATM   11  C   UNL     1     -12.893  13.468  71.285  1.00  0.00    -0.420 A  
HETATM   12  C   UNL     1     -12.332  15.990  72.452  1.00  0.00    -0.581 A  
HETATM   13  O   UNL     1     -11.246  16.481  70.317  1.00  0.00    -0.333 OA 
BRANCH   6  14
HETATM   14  C   UNL     1     -11.983  13.747  68.025  1.00  0.00    -0.355 C  
HETATM   15  O   UNL     1     -12.657  14.089  67.057  1.00  0.00    -0.215 OA 
BRANCH  14  16
HETATM   16  C   UNL     1     -11.390  12.378  68.030  1.00  0.00    -0.340 A  
HETATM   17  I   UNL     1      -9.571  10.352  64.724  1.00  0.00    -0.399 I  
HETATM   18  C   UNL     1     -10.222   9.778  67.820  1.00  0.00    -0.208 A  
HETATM   19  C   UNL     1     -10.724  11.981  66.874  1.00  0.00    -0.282 A  
HETATM   20  C   UNL     1     -10.906  10.198  68.986  1.00  0.00    -0.224 A  
HETATM   21  I   UNL     1     -11.015   8.998  70.723  1.00  0.00    -0.396 I  
HETATM   22  C   UNL     1     -10.196  10.684  66.736  1.00  0.00    -0.233 A  
HETATM   23  C   UNL     1     -11.526  11.457  69.069  1.00  0.00    -0.366 A  
BRANCH  18  24
HETATM   24  O   UNL     1      -9.668   8.512  67.894  1.00  0.00    -0.152 OA 
BRANCH  24  25
HETATM   25  C   UNL     1     -10.434   7.488  67.272  1.00  0.00    -0.321 C  
BRANCH  25  26
HETATM   26  C   UNL     1      -9.646   6.353  66.604  1.00  0.00    -0.157 C  
BRANCH  26  27
HETATM   27  N   UNL     1      -9.745   5.098  67.401  1.00  0.00    -0.143 NA 
BRANCH  27  28
HETATM   28  C   UNL     1      -8.447   4.473  67.711  1.00  0.00    -0.102 C  
HETATM   29  C   UNL     1      -7.214   5.241  67.245  1.00  0.00    -0.075 C  
ENDBRANCH  27  28
BRANCH  27  30
HETATM   30  C   UNL     1     -10.612   5.284  68.572  1.00  0.00    -0.014 C  
HETATM   31  C   UNL     1      -9.945   4.937  69.902  1.00  0.00    -0.317 C  
ENDBRANCH  27  30
ENDBRANCH  26  27
ENDBRANCH  25  26
ENDBRANCH  24  25
ENDBRANCH  18  24
ENDBRANCH  14  16
ENDBRANCH   6  14
ENDBRANCH   4   5
ENDBRANCH   3   4
ENDBRANCH   2   3
TORSDOF 11
ENDMDL
MODEL       27
REMARK 921   NORMALIZED FREE ENERGY PREDICTED BY IDOCK:   -5.47 KCAL/MOL
REMARK 922        TOTAL FREE ENERGY PREDICTED BY IDOCK:  -11.14 KCAL/MOL
REMARK 923 INTER-LIGAND FREE ENERGY PREDICTED BY IDOCK:   -9.55 KCAL/MOL
REMARK 924 INTRA-LIGAND FREE ENERGY PREDICTED BY IDOCK:   -1.59 KCAL/MOL
REMARK 927      BINDING AFFINITY PREDICTED BY RF-SCORE:    0.00 PKD
ROOT
HETATM    1  C   UNL     1      -9.683  15.695  65.778  1.00  0.00    -0.380 C  
HETATM    2  C   UNL     1      -8.624  15.114  66.701  1.00  0.00    -0.279 C  
ENDROOT
BRANCH   2   3
HETATM    3  C   UNL     1      -8.741  15.677  68.118  1.00  0.00    -0.168 C  
BRANCH   3   4
HETATM    4  C   UNL     1     -10.058  16.430  68.304  1.00  0.00    -0.248 C  
BRANCH   4   5
HETATM    5  C   UNL     1     -10.949  15.755  69.290  1.00  0.00    -0.281 A  
HETATM    6  C   UNL     1     -11.709  14.595  69.262  1.00  0.00    -0.348 A  
HETATM    7  C   UNL     1     -13.124  14.963  73.188  1.00  0.00    -0.615 A  
HETATM    8  C   UNL     1     -12.230  14.439  70.581  1.00  0.00    -0.414 A  
HETATM    9  C   UNL     1     -11.905  15.614  71.253  1.00  0.00    -0.419 A  
HETATM   10  C   UNL     1     -13.417  13.743  72.578  1.00  0.00    -0.682 A  
HETATM   11  C   UNL     1     -12.968  13.461  71.283  1.00  0.00    -0.368 A  
HETATM   12  C   UNL     1     -12.334  15.921  72.541  1.00  0.00    -0.575 A  
HETATM   13  O   UNL     1     -11.108  16.398  70.480  1.00  0.00    -0.340 OA 
BRANCH   6  14
HETATM   14  C   UNL     1     -11.868  13.760  68.084  1.00  0.00    -0.376 C  
HETATM   15  O   UNL     1     -12.526  14.135  67.117  1.00  0.00    -0.284 OA 
BRANCH  14  16
HETATM   16  C   UNL     1     -11.279  12.390  68.055  1.00  0.00    -0.317 A  
HETATM   17  I   UNL     1     -11.517   9.421  71.133  1.00  0.00    -0.495 I  
HETATM   18  C   UNL     1     -10.219   9.740  68.208  1.00  0.00    -0.183 A  
HETATM   19  C   UNL     1     -11.608  11.544  69.111  1.00  0.00    -0.382 A  
HETATM   20  C   UNL     1      -9.894  10.614  67.144  1.00  0.00    -0.175 A  
HETATM   21  I   UNL     1      -8.704  10.003  65.507  1.00  0.00    -0.233 I  
HETATM   22  C   UNL     1     -11.047  10.260  69.229  1.00  0.00    -0.245 A  
HETATM   23  C   UNL     1     -10.373  11.935  67.096  1.00  0.00    -0.235 A  
BRANCH  18  24
HETATM   24  O   UNL     1      -9.668   8.474  68.111  1.00  0.00    -0.148 OA 
BRANCH  24  25
HETATM   25  C   UNL     1     -10.497   7.509  67.476  1.00  0.00    -0.271 C  
BRANCH  25  26
HETATM   26  C   UNL     1     -11.269   6.556  68.399  1.00  0.00    -0.180 C  
BRANCH  26  27
HETATM   27  N   UNL     1     -10.431   5.378  68.764  1.00  0.00    -0.181 NA 
BRANCH  27  28
HETATM   28  C   UNL     1      -9.301   5.131  67.850  1.00  0.00    -0.120 C  
HETATM   29  C   UNL     1      -9.360   3.826  67.064  1.00  0.00    -0.219 C  
ENDBRANCH  27  28
BRANCH  27  30
HETATM   30  C   UNL     1     -10.053   5.419  70.182  1.00  0.00    -0.252 C  
HETATM   31  C   UNL     1      -8.648   5.967  70.436  1.00  0.00    -0.135 C  
ENDBRANCH  27  30
ENDBRANCH  26  27
ENDBRANCH  25  26
ENDBRANCH  24  25
ENDBRANCH  18  24
ENDBRANCH  14  16
ENDBRANCH   6  14
ENDBRANCH   4   5
ENDBRANCH   3   4
ENDBRANCH   2   3
TORSDOF 11
ENDMDL
MODEL       28
REMARK 921   NORMALIZED FREE ENERGY PREDICTED BY IDOCK:   -5.46 KCAL/MOL
REMARK 922        TOTAL FREE ENERGY PREDICTED BY IDOCK:  -11.12 KCAL/MOL
REMARK 923 INTER-LIGAND FREE ENERGY PREDICTED BY IDOCK:  -10.03 KCAL/MOL
REMARK 924 INTRA-LIGAND FREE ENERGY PREDICTED BY IDOCK:   -1.09 KCAL/MOL
REMARK 927      BINDING AFFINITY PREDICTED BY RF-SCORE:    0.00 PKD
ROOT
HETATM    1  C   UNL     1     -11.204   5.760  72.556  1.00  0.00    -0.347 C  
HETATM    2  C   UNL     1     -11.879   6.874  71.772  1.00  0.00    -0.354 C  
ENDROOT
BRANCH   2   3
HETATM    3  C   UNL     1     -11.747   8.223  72.481  1.00  0.00    -0.451 C  
BRANCH   3   4
HETATM    4  C   UNL     1     -10.487   8.960  72.030  1.00  0.00    -0.383 C  
BRANCH   4   5
HETATM    5  C   UNL     1     -10.394   9.044  70.544  1.00  0.00    -0.218 A  
HETATM    6  C   UNL     1     -11.018   9.827  69.585  1.00  0.00    -0.269 A  
HETATM    7  C   UNL     1      -8.975   8.156  66.332  1.00  0.00    -0.207 A  
HETATM    8  C   UNL     1     -10.386   9.503  68.347  1.00  0.00    -0.237 A  
HETATM    9  C   UNL     1      -9.564   8.412  68.620  1.00  0.00    -0.149 A  
HETATM   10  C   UNL     1      -9.732   9.286  66.021  1.00  0.00    -0.359 A  
HETATM   11  C   UNL     1     -10.432   9.977  67.017  1.00  0.00    -0.302 A  
HETATM   12  C   UNL     1      -8.855   7.708  67.652  1.00  0.00    -0.125 A  
HETATM   13  O   UNL     1      -9.550   8.152  69.954  1.00  0.00    -0.173 OA 
BRANCH   6  14
HETATM   14  C   UNL     1     -12.078  10.775  69.878  1.00  0.00    -0.337 C  
HETATM   15  O   UNL     1     -13.149  10.411  70.357  1.00  0.00    -0.281 OA 
BRANCH  14  16
HETATM   16  C   UNL     1     -11.905  12.218  69.540  1.00  0.00    -0.380 A  
HETATM   17  I   UNL     1     -12.667  15.568  72.097  1.00  0.00    -0.617 I  
HETATM   18  C   UNL     1     -11.659  15.029  69.091  1.00  0.00    -0.310 A  
HETATM   19  C   UNL     1     -12.076  13.129  70.579  1.00  0.00    -0.385 A  
HETATM   20  C   UNL     1     -11.492  14.089  68.047  1.00  0.00    -0.311 A  
HETATM   21  I   UNL     1     -10.918  14.662  66.095  1.00  0.00    -0.345 I  
HETATM   22  C   UNL     1     -12.016  14.517  70.359  1.00  0.00    -0.318 A  
HETATM   23  C   UNL     1     -11.664  12.709  68.257  1.00  0.00    -0.389 A  
BRANCH  18  24
HETATM   24  O   UNL     1     -11.457  16.348  68.724  1.00  0.00    -0.328 OA 
BRANCH  24  25
HETATM   25  C   UNL     1     -10.239  16.917  69.188  1.00  0.00    -0.292 C  
BRANCH  25  26
HETATM   26  C   UNL     1      -9.466  17.790  68.190  1.00  0.00    -0.282 C  
BRANCH  26  27
HETATM   27  N   UNL     1      -9.124  19.108  68.793  1.00  0.00    -0.368 NA 
BRANCH  27  28
HETATM   28  C   UNL     1      -7.679  19.392  68.850  1.00  0.00    -0.347 C  
HETATM   29  C   UNL     1      -6.890  19.066  67.586  1.00  0.00    -0.228 C  
ENDBRANCH  27  28
BRANCH  27  30
HETATM   30  C   UNL     1      -9.920  20.186  68.192  1.00  0.00    -0.350 C  
HETATM   31  C   UNL     1     -10.617  19.792  66.889  1.00  0.00    -0.588 C  
ENDBRANCH  27  30
ENDBRANCH  26  27
ENDBRANCH  25  26
ENDBRANCH  24  25
ENDBRANCH  18  24
ENDBRANCH  14  16
ENDBRANCH   6  14
ENDBRANCH   4   5
ENDBRANCH   3   4
ENDBRANCH   2   3
TORSDOF 11
ENDMDL
MODEL       29
REMARK 921   NORMALIZED FREE ENERGY PREDICTED BY IDOCK:   -5.44 KCAL/MOL
REMARK 922        TOTAL FREE ENERGY PREDICTED BY IDOCK:  -11.09 KCAL/MOL
REMARK 923 INTER-LIGAND FREE ENERGY PREDICTED BY IDOCK:   -9.12 KCAL/MOL
REMARK 924 INTRA-LIGAND FREE ENERGY PREDICTED BY IDOCK:   -1.97 KCAL/MOL
REMARK 927      BINDING AFFINITY PREDICTED BY RF-SCORE:    0.00 PKD
ROOT
HETATM    1  C   UNL     1     -10.138  17.094  67.404  1.00  0.00    -0.301 C  
HETATM    2  C   UNL     1     -10.270  16.075  68.525  1.00  0.00    -0.236 C  
ENDROOT
BRANCH   2   3
HETATM    3  C   UNL     1     -11.735  15.796  68.864  1.00  0.00    -0.404 C  
BRANCH   3   4
HETATM    4  C   UNL     1     -12.000  14.294  68.964  1.00  0.00    -0.360 C  
BRANCH   4   5
HETATM    5  C   UNL     1     -11.615  13.578  67.714  1.00  0.00    -0.339 A  
HETATM    6  C   UNL     1     -10.638  12.644  67.405  1.00  0.00    -0.240 A  
HETATM    7  C   UNL     1     -11.739  12.251  63.382  1.00  0.00    -0.542 A  
HETATM    8  C   UNL     1     -10.885  12.256  66.053  1.00  0.00    -0.310 A  
HETATM    9  C   UNL     1     -11.868  13.126  65.588  1.00  0.00    -0.387 A  
HETATM   10  C   UNL     1     -10.800  11.316  63.819  1.00  0.00    -0.424 A  
HETATM   11  C   UNL     1     -10.373  11.297  65.152  1.00  0.00    -0.353 A  
HETATM   12  C   UNL     1     -12.315  13.166  64.271  1.00  0.00    -0.421 A  
HETATM   13  O   UNL     1     -12.327  13.907  66.601  1.00  0.00    -0.435 OA 
BRANCH   6  14
HETATM   14  C   UNL     1      -9.623  12.194  68.341  1.00  0.00    -0.186 C  
HETATM   15  O   UNL     1      -8.494  12.678  68.343  1.00  0.00    -0.168 OA 
BRANCH  14  16
HETATM   16  C   UNL     1      -9.919  11.077  69.285  1.00  0.00    -0.088 A  
HETATM   17  I   UNL     1      -7.331   7.823  70.313  1.00  0.00    -0.069 I  
HETATM   18  C   UNL     1     -10.292   8.851  71.037  1.00  0.00    -0.253 A  
HETATM   19  C   UNL     1      -8.871  10.208  69.576  1.00  0.00    -0.198 A  
HETATM   20  C   UNL     1     -11.346   9.742  70.728  1.00  0.00    -0.342 A  
HETATM   21  I   UNL     1     -13.252   9.590  71.630  1.00  0.00    -0.498 I  
HETATM   22  C   UNL     1      -9.056   9.076  70.389  1.00  0.00    -0.210 A  
HETATM   23  C   UNL     1     -11.177  10.807  69.825  1.00  0.00    -0.365 A  
BRANCH  18  24
HETATM   24  O   UNL     1     -10.618   7.854  71.941  1.00  0.00    -0.214 OA 
BRANCH  24  25
HETATM   25  C   UNL     1     -10.619   6.537  71.403  1.00  0.00    -0.228 C  
BRANCH  25  26
HETATM   26  C   UNL     1     -11.409   6.329  70.104  1.00  0.00    -0.406 C  
BRANCH  26  27
HETATM   27  N   UNL     1     -10.723   5.346  69.219  1.00  0.00    -0.211 NA 
BRANCH  27  28
HETATM   28  C   UNL     1     -10.419   5.854  67.869  1.00  0.00    -0.236 C  
HETATM   29  C   UNL     1     -10.777   7.314  67.615  1.00  0.00    -0.294 C  
ENDBRANCH  27  28
BRANCH  27  30
HETATM   30  C   UNL     1      -9.575   4.735  69.900  1.00  0.00    -0.181 C  
HETATM   31  C   UNL     1      -9.174   3.370  69.342  1.00  0.00    -0.222 C  
ENDBRANCH  27  30
ENDBRANCH  26  27
ENDBRANCH  25  26
ENDBRANCH  24  25
ENDBRANCH  18  24
ENDBRANCH  14  16
ENDBRANCH   6  14
ENDBRANCH   4   5
ENDBRANCH   3   4
ENDBRANCH   2   3
TORSDOF 11
ENDMDL
MODEL       30
REMARK 921   NORMALIZED FREE ENERGY PREDICTED BY IDOCK:   -5.42 KCAL/MOL
REMARK 922        TOTAL FREE ENERGY PREDICTED BY IDOCK:  -11.06 KCAL/MOL
REMARK 923 INTER-LIGAND FREE ENERGY PREDICTED BY IDOCK:   -9.43 KCAL/MOL
REMARK 924 INTRA-LIGAND FREE ENERGY PREDICTED BY IDOCK:   -1.62 KCAL/MOL
REMARK 927      BINDING AFFINITY PREDICTED BY RF-SCORE:    0.00 PKD
ROOT
HETATM    1  C   UNL     1      -9.387   3.619  67.815  1.00  0.00    -0.242 C  
HETATM    2  C   UNL     1      -9.876   4.170  66.485  1.00  0.00    -0.214 C  
ENDROOT
BRANCH   2   3
HETATM    3  C   UNL     1      -9.637   5.676  66.376  1.00  0.00    -0.175 C  
BRANCH   3   4
HETATM    4  C   UNL     1     -10.888   6.461  66.770  1.00  0.00    -0.361 C  
BRANCH   4   5
HETATM    5  C   UNL     1     -10.800   6.982  68.164  1.00  0.00    -0.153 A  
HETATM    6  C   UNL     1     -10.202   8.094  68.738  1.00  0.00    -0.221 A  
HETATM    7  C   UNL     1     -11.485   7.253  72.637  1.00  0.00    -0.304 A  
HETATM    8  C   UNL     1     -10.602   8.087  70.109  1.00  0.00    -0.237 A  
HETATM    9  C   UNL     1     -11.251   6.870  70.302  1.00  0.00    -0.316 A  
HETATM   10  C   UNL     1     -10.901   8.510  72.478  1.00  0.00    -0.304 A  
HETATM   11  C   UNL     1     -10.467   8.946  71.221  1.00  0.00    -0.357 A  
HETATM   12  C   UNL     1     -11.696   6.412  71.539  1.00  0.00    -0.369 A  
HETATM   13  O   UNL     1     -11.393   6.215  69.120  1.00  0.00    -0.399 OA 
BRANCH   6  14
HETATM   14  C   UNL     1      -9.369   9.033  68.008  1.00  0.00    -0.141 C  
HETATM   15  O   UNL     1      -8.156   8.869  67.907  1.00  0.00    -0.105 OA 
BRANCH  14  16
HETATM   16  C   UNL     1      -9.972  10.262  67.414  1.00  0.00    -0.230 A  
HETATM   17  I   UNL     1     -10.121  11.306  63.263  1.00  0.00    -0.315 I  
HETATM   18  C   UNL     1     -11.051  12.547  66.081  1.00  0.00    -0.298 A  
HETATM   19  C   UNL     1     -10.033  10.321  66.025  1.00  0.00    -0.308 A  
HETATM   20  C   UNL     1     -10.979  12.471  67.492  1.00  0.00    -0.251 A  
HETATM   21  I   UNL     1     -11.778  13.975  68.744  1.00  0.00    -0.402 I  
HETATM   22  C   UNL     1     -10.507  11.463  65.356  1.00  0.00    -0.280 A  
HETATM   23  C   UNL     1     -10.400  11.370  68.147  1.00  0.00    -0.206 A  
BRANCH  18  24
HETATM   24  O   UNL     1     -11.647  13.696  65.589  1.00  0.00    -0.316 OA 
BRANCH  24  25
HETATM   25  C   UNL     1     -10.764  14.587  64.918  1.00  0.00    -0.429 C  
BRANCH  25  26
HETATM   26  C   UNL     1     -11.091  16.082  65.022  1.00  0.00    -0.336 C  
BRANCH  26  27
HETATM   27  N   UNL     1      -9.949  16.834  65.614  1.00  0.00    -0.575 NA 
BRANCH  27  28
HETATM   28  C   UNL     1     -10.345  17.889  66.565  1.00  0.00    -0.362 C  
HETATM   29  C   UNL     1     -10.440  19.298  65.989  1.00  0.00    -0.573 C  
ENDBRANCH  27  28
BRANCH  27  30
HETATM   30  C   UNL     1      -8.925  15.918  66.131  1.00  0.00    -0.341 C  
HETATM   31  C   UNL     1      -7.649  16.613  66.605  1.00  0.00    -0.314 C  
ENDBRANCH  27  30
ENDBRANCH  26  27
ENDBRANCH  25  26
ENDBRANCH  24  25
ENDBRANCH  18  24
ENDBRANCH  14  16
ENDBRANCH   6  14
ENDBRANCH   4   5
ENDBRANCH   3   4
ENDBRANCH   2   3
TORSDOF 11
ENDMDL
MODEL       31
REMARK 921   NORMALIZED FREE ENERGY PREDICTED BY IDOCK:   -5.40 KCAL/MOL
REMARK 922        TOTAL FREE ENERGY PREDICTED BY IDOCK:  -11.03 KCAL/MOL
REMARK 923 INTER-LIGAND FREE ENERGY PREDICTED BY IDOCK:   -9.34 KCAL/MOL
REMARK 924 INTRA-LIGAND FREE ENERGY PREDICTED BY IDOCK:   -1.69 KCAL/MOL
REMARK 927      BINDING AFFINITY PREDICTED BY RF-SCORE:    0.00 PKD
ROOT
HETATM    1  C   UNL     1     -11.782  12.189  63.586  1.00  0.00    -0.588 C  
HETATM    2  C   UNL     1     -12.351  12.835  64.839  1.00  0.00    -0.551 C  
ENDROOT
BRANCH   2   3
HETATM    3  C   UNL     1     -12.283  14.361  64.768  1.00  0.00    -0.458 C  
BRANCH   3   4
HETATM    4  C   UNL     1     -10.838  14.852  64.856  1.00  0.00    -0.431 C  
BRANCH   4   5
HETATM    5  C   UNL     1     -10.697  16.000  65.796  1.00  0.00    -0.301 A  
HETATM    6  C   UNL     1     -10.734  16.121  67.177  1.00  0.00    -0.262 A  
HETATM    7  C   UNL     1     -10.022  20.249  67.224  1.00  0.00    -0.580 A  
HETATM    8  C   UNL     1     -10.398  17.479  67.458  1.00  0.00    -0.356 A  
HETATM    9  C   UNL     1     -10.374  18.122  66.223  1.00  0.00    -0.397 A  
HETATM   10  C   UNL     1      -9.970  19.638  68.477  1.00  0.00    -0.542 A  
HETATM   11  C   UNL     1     -10.143  18.255  68.610  1.00  0.00    -0.407 A  
HETATM   12  C   UNL     1     -10.202  19.493  66.060  1.00  0.00    -0.567 A  
HETATM   13  O   UNL     1     -10.530  17.221  65.217  1.00  0.00    -0.661 OA 
BRANCH   6  14
HETATM   14  C   UNL     1     -11.040  15.023  68.078  1.00  0.00    -0.300 C  
HETATM   15  O   UNL     1     -12.024  15.053  68.812  1.00  0.00    -0.308 OA 
BRANCH  14  16
HETATM   16  C   UNL     1     -10.117  13.855  68.173  1.00  0.00    -0.250 A  
HETATM   17  I   UNL     1      -5.841  13.964  68.379  1.00  0.00    -0.136 I  
HETATM   18  C   UNL     1      -8.182  11.759  68.341  1.00  0.00    -0.154 A  
HETATM   19  C   UNL     1      -8.769  14.137  68.375  1.00  0.00    -0.178 A  
HETATM   20  C   UNL     1      -9.555  11.492  68.133  1.00  0.00    -0.187 A  
HETATM   21  I   UNL     1     -10.322   9.523  68.059  1.00  0.00    -0.268 I  
HETATM   22  C   UNL     1      -7.799  13.118  68.400  1.00  0.00    -0.135 A  
HETATM   23  C   UNL     1     -10.500  12.524  67.998  1.00  0.00    -0.227 A  
BRANCH  18  24
HETATM   24  O   UNL     1      -7.380  10.636  68.451  1.00  0.00    -0.084 OA 
BRANCH  24  25
HETATM   25  C   UNL     1      -6.921  10.357  69.768  1.00  0.00    -0.138 C  
BRANCH  25  26
HETATM   26  C   UNL     1      -6.714   8.878  70.122  1.00  0.00    -0.041 C  
BRANCH  26  27
HETATM   27  N   UNL     1      -8.006   8.237  70.495  1.00  0.00    -0.095 NA 
BRANCH  27  28
HETATM   28  C   UNL     1      -8.153   6.849  70.023  1.00  0.00    -0.125 C  
HETATM   29  C   UNL     1      -7.248   5.822  70.696  1.00  0.00    -0.082 C  
ENDBRANCH  27  28
BRANCH  27  30
HETATM   30  C   UNL     1      -8.289   8.414  71.925  1.00  0.00    -0.167 C  
HETATM   31  C   UNL     1      -9.772   8.316  72.283  1.00  0.00    -0.362 C  
ENDBRANCH  27  30
ENDBRANCH  26  27
ENDBRANCH  25  26
ENDBRANCH  24  25
ENDBRANCH  18  24
ENDBRANCH  14  16
ENDBRANCH   6  14
ENDBRANCH   4   5
ENDBRANCH   3   4
ENDBRANCH   2   3
TORSDOF 11
ENDMDL
MODEL       32
REMARK 921   NORMALIZED FREE ENERGY PREDICTED BY IDOCK:   -5.40 KCAL/MOL
REMARK 922        TOTAL FREE ENERGY PREDICTED BY IDOCK:  -11.02 KCAL/MOL
REMARK 923 INTER-LIGAND FREE ENERGY PREDICTED BY IDOCK:   -9.30 KCAL/MOL
REMARK 924 INTRA-LIGAND FREE ENERGY PREDICTED BY IDOCK:   -1.72 KCAL/MOL
REMARK 927      BINDING AFFINITY PREDICTED BY RF-SCORE:    0.00 PKD
ROOT
HETATM    1  C   UNL     1     -13.248  15.608  72.524  1.00  0.00    -0.583 C  
HETATM    2  C   UNL     1     -11.816  15.544  72.015  1.00  0.00    -0.538 C  
ENDROOT
BRANCH   2   3
HETATM    3  C   UNL     1     -11.760  15.561  70.487  1.00  0.00    -0.377 C  
BRANCH   3   4
HETATM    4  C   UNL     1     -10.327  15.376  69.987  1.00  0.00    -0.288 C  
BRANCH   4   5
HETATM    5  C   UNL     1      -9.912  16.479  69.074  1.00  0.00    -0.275 A  
HETATM    6  C   UNL     1      -8.999  16.572  68.034  1.00  0.00    -0.204 A  
HETATM    7  C   UNL     1      -9.820  20.585  67.157  1.00  0.00    -0.567 A  
HETATM    8  C   UNL     1      -9.174  17.875  67.478  1.00  0.00    -0.249 A  
HETATM    9  C   UNL     1     -10.041  18.537  68.344  1.00  0.00    -0.388 A  
HETATM   10  C   UNL     1      -9.002  19.944  66.226  1.00  0.00    -0.419 A  
HETATM   11  C   UNL     1      -8.680  18.589  66.365  1.00  0.00    -0.274 A  
HETATM   12  C   UNL     1     -10.380  19.882  68.229  1.00  0.00    -0.526 A  
HETATM   13  O   UNL     1     -10.506  17.684  69.294  1.00  0.00    -0.293 OA 
BRANCH   6  14
HETATM   14  C   UNL     1      -8.100  15.499  67.647  1.00  0.00    -0.146 C  
HETATM   15  O   UNL     1      -6.881  15.651  67.650  1.00  0.00    -0.143 OA 
BRANCH  14  16
HETATM   16  C   UNL     1      -8.652  14.196  67.174  1.00  0.00    -0.230 A  
HETATM   17  I   UNL     1      -6.834  10.338  67.566  1.00  0.00    -0.074 I  
HETATM   18  C   UNL     1      -9.520  11.607  66.332  1.00  0.00    -0.217 A  
HETATM   19  C   UNL     1      -7.952  13.049  67.540  1.00  0.00    -0.177 A  
HETATM   20  C   UNL     1     -10.217  12.783  65.967  1.00  0.00    -0.278 A  
HETATM   21  I   UNL     1     -12.029  12.728  64.881  1.00  0.00    -0.538 I  
HETATM   22  C   UNL     1      -8.335  11.775  67.084  1.00  0.00    -0.168 A  
HETATM   23  C   UNL     1      -9.761  14.060  66.337  1.00  0.00    -0.309 A  
BRANCH  18  24
HETATM   24  O   UNL     1     -10.095  10.428  65.890  1.00  0.00    -0.247 OA 
BRANCH  24  25
HETATM   25  C   UNL     1     -10.494   9.534  66.922  1.00  0.00    -0.208 C  
BRANCH  25  26
HETATM   26  C   UNL     1     -11.249  10.150  68.108  1.00  0.00    -0.180 C  
BRANCH  26  27
HETATM   27  N   UNL     1     -10.657   9.707  69.401  1.00  0.00    -0.217 NA 
BRANCH  27  28
HETATM   28  C   UNL     1     -11.304  10.283  70.594  1.00  0.00    -0.347 C  
HETATM   29  C   UNL     1     -12.052  11.594  70.372  1.00  0.00    -0.462 C  
ENDBRANCH  27  28
BRANCH  27  30
HETATM   30  C   UNL     1     -10.518   8.246  69.445  1.00  0.00    -0.220 C  
HETATM   31  C   UNL     1      -9.211   7.763  70.073  1.00  0.00    -0.153 C  
ENDBRANCH  27  30
ENDBRANCH  26  27
ENDBRANCH  25  26
ENDBRANCH  24  25
ENDBRANCH  18  24
ENDBRANCH  14  16
ENDBRANCH   6  14
ENDBRANCH   4   5
ENDBRANCH   3   4
ENDBRANCH   2   3
TORSDOF 11
ENDMDL
MODEL       33
REMARK 921   NORMALIZED FREE ENERGY PREDICTED BY IDOCK:   -5.40 KCAL/MOL
REMARK 922        TOTAL FREE ENERGY PREDICTED BY IDOCK:  -11.01 KCAL/MOL
REMARK 923 INTER-LIGAND FREE ENERGY PREDICTED BY IDOCK:   -9.12 KCAL/MOL
REMARK 924 INTRA-LIGAND FREE ENERGY PREDICTED BY IDOCK:   -1.90 KCAL/MOL
REMARK 927      BINDING AFFINITY PREDICTED BY RF-SCORE:    0.00 PKD
ROOT
HETATM    1  C   UNL     1     -13.801   7.158  71.609  1.00  0.00    -0.418 C  
HETATM    2  C   UNL     1     -14.352   8.575  71.568  1.00  0.00    -0.451 C  
ENDROOT
BRANCH   2   3
HETATM    3  C   UNL     1     -13.297   9.602  71.980  1.00  0.00    -0.547 C  
BRANCH   3   4
HETATM    4  C   UNL     1     -12.554  10.147  70.760  1.00  0.00    -0.406 C  
BRANCH   4   5
HETATM    5  C   UNL     1     -11.157   9.631  70.685  1.00  0.00    -0.319 A  
HETATM    6  C   UNL     1     -10.255   9.450  69.647  1.00  0.00    -0.225 A  
HETATM    7  C   UNL     1      -7.166   7.991  72.072  1.00  0.00    -0.089 A  
HETATM    8  C   UNL     1      -9.033   9.040  70.262  1.00  0.00    -0.221 A  
HETATM    9  C   UNL     1      -9.344   8.819  71.601  1.00  0.00    -0.275 A  
HETATM   10  C   UNL     1      -6.791   8.261  70.756  1.00  0.00    -0.039 A  
HETATM   11  C   UNL     1      -7.707   8.796  69.843  1.00  0.00    -0.081 A  
HETATM   12  C   UNL     1      -8.454   8.290  72.531  1.00  0.00    -0.251 A  
HETATM   13  O   UNL     1     -10.622   9.201  71.861  1.00  0.00    -0.348 OA 
BRANCH   6  14
HETATM   14  C   UNL     1     -10.573   9.677  68.249  1.00  0.00    -0.225 C  
HETATM   15  O   UNL     1     -11.034   8.783  67.543  1.00  0.00    -0.120 OA 
BRANCH  14  16
HETATM   16  C   UNL     1     -10.284  10.999  67.622  1.00  0.00    -0.211 A  
HETATM   17  I   UNL     1     -12.034  12.591  64.052  1.00  0.00    -0.654 I  
HETATM   18  C   UNL     1      -9.863  13.473  66.254  1.00  0.00    -0.299 A  
HETATM   19  C   UNL     1     -11.080  11.367  66.541  1.00  0.00    -0.312 A  
HETATM   20  C   UNL     1      -9.061  13.081  67.352  1.00  0.00    -0.201 A  
HETATM   21  I   UNL     1      -7.569  14.339  68.165  1.00  0.00    -0.202 I  
HETATM   22  C   UNL     1     -10.846  12.554  65.823  1.00  0.00    -0.276 A  
HETATM   23  C   UNL     1      -9.234  11.841  67.992  1.00  0.00    -0.181 A  
BRANCH  18  24
HETATM   24  O   UNL     1      -9.567  14.721  65.734  1.00  0.00    -0.316 OA 
BRANCH  24  25
HETATM   25  C   UNL     1     -10.572  15.707  65.939  1.00  0.00    -0.343 C  
BRANCH  25  26
HETATM   26  C   UNL     1     -10.116  17.027  66.574  1.00  0.00    -0.314 C  
BRANCH  26  27
HETATM   27  N   UNL     1     -10.841  17.278  67.851  1.00  0.00    -0.344 NA 
BRANCH  27  28
HETATM   28  C   UNL     1     -11.396  16.067  68.482  1.00  0.00    -0.382 C  
HETATM   29  C   UNL     1     -11.106  15.904  69.971  1.00  0.00    -0.356 C  
ENDBRANCH  27  28
BRANCH  27  30
HETATM   30  C   UNL     1     -10.038  18.109  68.758  1.00  0.00    -0.376 C  
HETATM   31  C   UNL     1      -8.722  18.597  68.154  1.00  0.00    -0.336 C  
ENDBRANCH  27  30
ENDBRANCH  26  27
ENDBRANCH  25  26
ENDBRANCH  24  25
ENDBRANCH  18  24
ENDBRANCH  14  16
ENDBRANCH   6  14
ENDBRANCH   4   5
ENDBRANCH   3   4
ENDBRANCH   2   3
TORSDOF 11
ENDMDL
MODEL       34
REMARK 921   NORMALIZED FREE ENERGY PREDICTED BY IDOCK:   -5.37 KCAL/MOL
REMARK 922        TOTAL FREE ENERGY PREDICTED BY IDOCK:  -10.96 KCAL/MOL
REMARK 923 INTER-LIGAND FREE ENERGY PREDICTED BY IDOCK:   -8.74 KCAL/MOL
REMARK 924 INTRA-LIGAND FREE ENERGY PREDICTED BY IDOCK:   -2.22 KCAL/MOL
REMARK 927      BINDING AFFINITY PREDICTED BY RF-SCORE:    0.00 PKD
ROOT
HETATM    1  C   UNL     1      -7.713  17.861  67.720  1.00  0.00    -0.220 C  
HETATM    2  C   UNL     1      -8.611  16.910  68.495  1.00  0.00    -0.251 C  
ENDROOT
BRANCH   2   3
HETATM    3  C   UNL     1      -9.212  15.837  67.587  1.00  0.00    -0.200 C  
BRANCH   3   4
HETATM    4  C   UNL     1     -10.731  15.978  67.499  1.00  0.00    -0.314 C  
BRANCH   4   5
HETATM    5  C   UNL     1     -11.423  15.221  68.582  1.00  0.00    -0.337 A  
HETATM    6  C   UNL     1     -11.802  13.896  68.736  1.00  0.00    -0.396 A  
HETATM    7  C   UNL     1     -13.430  14.403  72.562  1.00  0.00    -0.593 A  
HETATM    8  C   UNL     1     -12.309  13.789  70.066  1.00  0.00    -0.364 A  
HETATM    9  C   UNL     1     -12.378  15.094  70.546  1.00  0.00    -0.358 A  
HETATM   10  C   UNL     1     -13.320  13.074  72.151  1.00  0.00    -0.622 A  
HETATM   11  C   UNL     1     -12.752  12.750  70.914  1.00  0.00    -0.277 A  
HETATM   12  C   UNL     1     -12.934  15.446  71.772  1.00  0.00    -0.509 A  
HETATM   13  O   UNL     1     -11.817  15.957  69.658  1.00  0.00    -0.333 OA 
BRANCH   6  14
HETATM   14  C   UNL     1     -11.653  12.886  67.703  1.00  0.00    -0.355 C  
HETATM   15  O   UNL     1     -12.370  12.880  66.705  1.00  0.00    -0.405 OA 
BRANCH  14  16
HETATM   16  C   UNL     1     -10.657  11.788  67.869  1.00  0.00    -0.231 A  
HETATM   17  I   UNL     1      -6.538  12.197  68.969  1.00  0.00    -0.069 I  
HETATM   18  C   UNL     1      -8.596   9.841  68.221  1.00  0.00    -0.119 A  
HETATM   19  C   UNL     1      -9.410  12.145  68.374  1.00  0.00    -0.170 A  
HETATM   20  C   UNL     1      -9.868   9.496  67.706  1.00  0.00    -0.160 A  
HETATM   21  I   UNL     1     -10.406   7.498  67.275  1.00  0.00    -0.377 I  
HETATM   22  C   UNL     1      -8.368  11.208  68.497  1.00  0.00    -0.154 A  
HETATM   23  C   UNL     1     -10.864  10.463  67.484  1.00  0.00    -0.358 A  
BRANCH  18  24
HETATM   24  O   UNL     1      -7.724   8.777  68.380  1.00  0.00    -0.094 OA 
BRANCH  24  25
HETATM   25  C   UNL     1      -7.453   8.425  69.732  1.00  0.00    -0.072 C  
BRANCH  25  26
HETATM   26  C   UNL     1      -8.526   8.795  70.765  1.00  0.00    -0.173 C  
BRANCH  26  27
HETATM   27  N   UNL     1      -9.365   7.611  71.103  1.00  0.00    -0.154 NA 
BRANCH  27  28
HETATM   28  C   UNL     1      -8.944   6.899  72.324  1.00  0.00    -0.134 C  
HETATM   29  C   UNL     1      -8.455   7.780  73.468  1.00  0.00    -0.259 C  
ENDBRANCH  27  28
BRANCH  27  30
HETATM   30  C   UNL     1     -10.793   7.951  71.073  1.00  0.00    -0.235 C  
HETATM   31  C   UNL     1     -11.083   9.438  71.272  1.00  0.00    -0.446 C  
ENDBRANCH  27  30
ENDBRANCH  26  27
ENDBRANCH  25  26
ENDBRANCH  24  25
ENDBRANCH  18  24
ENDBRANCH  14  16
ENDBRANCH   6  14
ENDBRANCH   4   5
ENDBRANCH   3   4
ENDBRANCH   2   3
TORSDOF 11
ENDMDL
MODEL       35
REMARK 921   NORMALIZED FREE ENERGY PREDICTED BY IDOCK:   -5.37 KCAL/MOL
REMARK 922        TOTAL FREE ENERGY PREDICTED BY IDOCK:  -10.96 KCAL/MOL
REMARK 923 INTER-LIGAND FREE ENERGY PREDICTED BY IDOCK:   -8.49 KCAL/MOL
REMARK 924 INTRA-LIGAND FREE ENERGY PREDICTED BY IDOCK:   -2.47 KCAL/MOL
REMARK 927      BINDING AFFINITY PREDICTED BY RF-SCORE:    0.00 PKD
ROOT
HETATM    1  C   UNL     1     -11.943   6.742  70.870  1.00  0.00    -0.437 C  
HETATM    2  C   UNL     1     -11.212   7.874  71.574  1.00  0.00    -0.286 C  
ENDROOT
BRANCH   2   3
HETATM    3  C   UNL     1     -12.187   8.886  72.177  1.00  0.00    -0.437 C  
BRANCH   3   4
HETATM    4  C   UNL     1     -13.040   9.542  71.091  1.00  0.00    -0.336 C  
BRANCH   4   5
HETATM    5  C   UNL     1     -12.801  11.011  71.009  1.00  0.00    -0.346 A  
HETATM    6  C   UNL     1     -12.274  11.845  70.034  1.00  0.00    -0.291 A  
HETATM    7  C   UNL     1     -12.787  15.376  72.230  1.00  0.00    -0.469 A  
HETATM    8  C   UNL     1     -12.444  13.174  70.527  1.00  0.00    -0.322 A  
HETATM    9  C   UNL     1     -12.882  13.033  71.841  1.00  0.00    -0.211 A  
HETATM   10  C   UNL     1     -12.413  15.570  70.900  1.00  0.00    -0.494 A  
HETATM   11  C   UNL     1     -12.249  14.483  70.034  1.00  0.00    -0.396 A  
HETATM   12  C   UNL     1     -13.056  14.095  72.724  1.00  0.00    -0.573 A  
HETATM   13  O   UNL     1     -13.122  11.725  72.123  1.00  0.00    -0.452 OA 
BRANCH   6  14
HETATM   14  C   UNL     1     -11.706  11.372  68.785  1.00  0.00    -0.339 C  
HETATM   15  O   UNL     1     -12.161  11.725  67.700  1.00  0.00    -0.598 OA 
BRANCH  14  16
HETATM   16  C   UNL     1     -10.584  10.388  68.799  1.00  0.00    -0.232 A  
HETATM   17  I   UNL     1     -10.638   6.404  67.227  1.00  0.00    -0.497 I  
HETATM   18  C   UNL     1      -8.576   8.356  68.739  1.00  0.00    -0.135 A  
HETATM   19  C   UNL     1     -10.784   9.201  68.099  1.00  0.00    -0.186 A  
HETATM   20  C   UNL     1      -8.392   9.567  69.448  1.00  0.00    -0.140 A  
HETATM   21  I   UNL     1      -6.573  10.041  70.414  1.00  0.00    -0.049 I  
HETATM   22  C   UNL     1      -9.828   8.169  68.111  1.00  0.00    -0.168 A  
HETATM   23  C   UNL     1      -9.400  10.544  69.521  1.00  0.00    -0.089 A  
BRANCH  18  24
HETATM   24  O   UNL     1      -7.492   7.496  68.764  1.00  0.00    -0.092 OA 
BRANCH  24  25
HETATM   25  C   UNL     1      -7.669   6.334  69.565  1.00  0.00    -0.099 C  
BRANCH  25  26
HETATM   26  C   UNL     1      -7.157   6.415  71.010  1.00  0.00    -0.070 C  
BRANCH  26  27
HETATM   27  N   UNL     1      -7.885   5.451  71.883  1.00  0.00    -0.110 NA 
BRANCH  27  28
HETATM   28  C   UNL     1      -8.463   6.052  73.099  1.00  0.00    -0.118 C  
HETATM   29  C   UNL     1      -8.084   7.505  73.364  1.00  0.00    -0.161 C  
ENDBRANCH  27  28
BRANCH  27  30
HETATM   30  C   UNL     1      -8.835   4.647  71.105  1.00  0.00    -0.118 C  
HETATM   31  C   UNL     1      -9.791   3.814  71.958  1.00  0.00    -0.243 C  
ENDBRANCH  27  30
ENDBRANCH  26  27
ENDBRANCH  25  26
ENDBRANCH  24  25
ENDBRANCH  18  24
ENDBRANCH  14  16
ENDBRANCH   6  14
ENDBRANCH   4   5
ENDBRANCH   3   4
ENDBRANCH   2   3
TORSDOF 11
ENDMDL
MODEL       36
REMARK 921   NORMALIZED FREE ENERGY PREDICTED BY IDOCK:   -5.36 KCAL/MOL
REMARK 922        TOTAL FREE ENERGY PREDICTED BY IDOCK:  -10.96 KCAL/MOL
REMARK 923 INTER-LIGAND FREE ENERGY PREDICTED BY IDOCK:   -9.01 KCAL/MOL
REMARK 924 INTRA-LIGAND FREE ENERGY PREDICTED BY IDOCK:   -1.96 KCAL/MOL
REMARK 927      BINDING AFFINITY PREDICTED BY RF-SCORE:    0.00 PKD
ROOT
HETATM    1  C   UNL     1      -8.361  16.982  68.664  1.00  0.00    -0.264 C  
HETATM    2  C   UNL     1      -8.671  15.500  68.798  1.00  0.00    -0.192 C  
ENDROOT
BRANCH   2   3
HETATM    3  C   UNL     1      -9.273  14.931  67.513  1.00  0.00    -0.194 C  
BRANCH   3   4
HETATM    4  C   UNL     1     -10.767  15.239  67.422  1.00  0.00    -0.293 C  
BRANCH   4   5
HETATM    5  C   UNL     1     -11.516  14.711  68.598  1.00  0.00    -0.300 A  
HETATM    6  C   UNL     1     -11.814  13.436  69.053  1.00  0.00    -0.378 A  
HETATM    7  C   UNL     1     -13.879  14.715  72.466  1.00  0.00    -0.561 A  
HETATM    8  C   UNL     1     -12.453  13.613  70.317  1.00  0.00    -0.335 A  
HETATM    9  C   UNL     1     -12.667  14.984  70.439  1.00  0.00    -0.325 A  
HETATM   10  C   UNL     1     -13.630  13.343  72.420  1.00  0.00    -0.708 A  
HETATM   11  C   UNL     1     -12.909  12.779  71.361  1.00  0.00    -0.371 A  
HETATM   12  C   UNL     1     -13.377  15.573  71.481  1.00  0.00    -0.593 A  
HETATM   13  O   UNL     1     -12.076  15.649  69.411  1.00  0.00    -0.356 OA 
BRANCH   6  14
HETATM   14  C   UNL     1     -11.482  12.220  68.331  1.00  0.00    -0.307 C  
HETATM   15  O   UNL     1     -12.011  11.950  67.255  1.00  0.00    -0.605 OA 
BRANCH  14  16
HETATM   16  C   UNL     1     -10.529  11.236  68.921  1.00  0.00    -0.232 A  
HETATM   17  I   UNL     1     -11.372   8.344  71.965  1.00  0.00    -0.451 I  
HETATM   18  C   UNL     1      -8.863   9.292  70.190  1.00  0.00    -0.213 A  
HETATM   19  C   UNL     1     -11.062  10.294  69.796  1.00  0.00    -0.340 A  
HETATM   20  C   UNL     1      -8.338  10.258  69.300  1.00  0.00    -0.163 A  
HETATM   21  I   UNL     1      -6.303  10.274  68.726  1.00  0.00    -0.049 I  
HETATM   22  C   UNL     1     -10.246   9.371  70.472  1.00  0.00    -0.271 A  
HETATM   23  C   UNL     1      -9.148  11.248  68.716  1.00  0.00    -0.122 A  
BRANCH  18  24
HETATM   24  O   UNL     1      -7.937   8.388  70.681  1.00  0.00    -0.089 OA 
BRANCH  24  25
HETATM   25  C   UNL     1      -7.883   7.150  69.984  1.00  0.00    -0.113 C  
BRANCH  25  26
HETATM   26  C   UNL     1      -8.490   5.935  70.699  1.00  0.00    -0.129 C  
BRANCH  26  27
HETATM   27  N   UNL     1      -9.623   5.370  69.913  1.00  0.00    -0.157 NA 
BRANCH  27  28
HETATM   28  C   UNL     1      -9.748   5.918  68.550  1.00  0.00    -0.126 C  
HETATM   29  C   UNL     1     -11.156   6.323  68.127  1.00  0.00    -0.364 C  
ENDBRANCH  27  28
BRANCH  27  30
HETATM   30  C   UNL     1      -9.624   3.903  69.969  1.00  0.00    -0.199 C  
HETATM   31  C   UNL     1      -9.294   3.332  71.348  1.00  0.00    -0.206 C  
ENDBRANCH  27  30
ENDBRANCH  26  27
ENDBRANCH  25  26
ENDBRANCH  24  25
ENDBRANCH  18  24
ENDBRANCH  14  16
ENDBRANCH   6  14
ENDBRANCH   4   5
ENDBRANCH   3   4
ENDBRANCH   2   3
TORSDOF 11
ENDMDL
MODEL       37
REMARK 921   NORMALIZED FREE ENERGY PREDICTED BY IDOCK:   -5.36 KCAL/MOL
REMARK 922        TOTAL FREE ENERGY PREDICTED BY IDOCK:  -10.95 KCAL/MOL
REMARK 923 INTER-LIGAND FREE ENERGY PREDICTED BY IDOCK:   -9.37 KCAL/MOL
REMARK 924 INTRA-LIGAND FREE ENERGY PREDICTED BY IDOCK:   -1.57 KCAL/MOL
REMARK 927      BINDING AFFINITY PREDICTED BY RF-SCORE:    0.00 PKD
ROOT
HETATM    1  C   UNL     1     -12.399  12.153  63.641  1.00  0.00    -0.673 C  
HETATM    2  C   UNL     1     -10.900  12.169  63.898  1.00  0.00    -0.461 C  
ENDROOT
BRANCH   2   3
HETATM    3  C   UNL     1     -10.459  10.969  64.738  1.00  0.00    -0.384 C  
BRANCH   3   4
HETATM    4  C   UNL     1      -9.516  11.401  65.861  1.00  0.00    -0.251 C  
BRANCH   4   5
HETATM    5  C   UNL     1     -10.175  11.330  67.196  1.00  0.00    -0.201 A  
HETATM    6  C   UNL     1     -10.891  12.237  67.964  1.00  0.00    -0.253 A  
HETATM    7  C   UNL     1     -11.638   9.574  71.110  1.00  0.00    -0.439 A  
HETATM    8  C   UNL     1     -11.365  11.502  69.092  1.00  0.00    -0.351 A  
HETATM    9  C   UNL     1     -10.740  10.260  69.019  1.00  0.00    -0.227 A  
HETATM   10  C   UNL     1     -12.338  10.778  71.192  1.00  0.00    -0.498 A  
HETATM   11  C   UNL     1     -12.222  11.745  70.187  1.00  0.00    -0.342 A  
HETATM   12  C   UNL     1     -10.838   9.279  70.001  1.00  0.00    -0.264 A  
HETATM   13  O   UNL     1     -10.040  10.148  67.859  1.00  0.00    -0.163 OA 
BRANCH   6  14
HETATM   14  C   UNL     1     -11.084  13.629  67.601  1.00  0.00    -0.273 C  
HETATM   15  O   UNL     1     -12.044  13.987  66.923  1.00  0.00    -0.424 OA 
BRANCH  14  16
HETATM   16  C   UNL     1     -10.074  14.653  67.998  1.00  0.00    -0.227 A  
HETATM   17  I   UNL     1     -10.293  18.878  67.330  1.00  0.00    -0.566 I  
HETATM   18  C   UNL     1      -8.262  16.763  68.653  1.00  0.00    -0.252 A  
HETATM   19  C   UNL     1     -10.425  15.986  67.806  1.00  0.00    -0.298 A  
HETATM   20  C   UNL     1      -7.921  15.402  68.838  1.00  0.00    -0.177 A  
HETATM   21  I   UNL     1      -6.102  14.808  69.735  1.00  0.00    -0.162 I  
HETATM   22  C   UNL     1      -9.521  17.031  68.069  1.00  0.00    -0.256 A  
HETATM   23  C   UNL     1      -8.792  14.363  68.467  1.00  0.00    -0.182 A  
BRANCH  18  24
HETATM   24  O   UNL     1      -7.298  17.666  69.067  1.00  0.00    -0.254 OA 
BRANCH  24  25
HETATM   25  C   UNL     1      -6.414  18.106  68.043  1.00  0.00    -0.189 C  
BRANCH  25  26
HETATM   26  C   UNL     1      -5.188  18.910  68.497  1.00  0.00    -0.192 C  
BRANCH  26  27
HETATM   27  N   UNL     1      -5.488  20.369  68.514  1.00  0.00    -0.239 NA 
BRANCH  27  28
HETATM   28  C   UNL     1      -6.496  20.793  67.525  1.00  0.00    -0.316 C  
HETATM   29  C   UNL     1      -5.959  21.135  66.139  1.00  0.00    -0.320 C  
ENDBRANCH  27  28
BRANCH  27  30
HETATM   30  C   UNL     1      -5.759  20.836  69.880  1.00  0.00    -0.260 C  
HETATM   31  C   UNL     1      -5.181  19.935  70.972  1.00  0.00    -0.279 C  
ENDBRANCH  27  30
ENDBRANCH  26  27
ENDBRANCH  25  26
ENDBRANCH  24  25
ENDBRANCH  18  24
ENDBRANCH  14  16
ENDBRANCH   6  14
ENDBRANCH   4   5
ENDBRANCH   3   4
ENDBRANCH   2   3
TORSDOF 11
ENDMDL
MODEL       38
REMARK 921   NORMALIZED FREE ENERGY PREDICTED BY IDOCK:   -5.33 KCAL/MOL
REMARK 922        TOTAL FREE ENERGY PREDICTED BY IDOCK:  -10.91 KCAL/MOL
REMARK 923 INTER-LIGAND FREE ENERGY PREDICTED BY IDOCK:   -8.67 KCAL/MOL
REMARK 924 INTRA-LIGAND FREE ENERGY PREDICTED BY IDOCK:   -2.24 KCAL/MOL
REMARK 927      BINDING AFFINITY PREDICTED BY RF-SCORE:    0.00 PKD
ROOT
HETATM    1  C   UNL     1     -12.346   7.047  71.204  1.00  0.00    -0.423 C  
HETATM    2  C   UNL     1     -12.103   7.845  72.475  1.00  0.00    -0.298 C  
ENDROOT
BRANCH   2   3
HETATM    3  C   UNL     1     -13.026   9.061  72.563  1.00  0.00    -0.429 C  
BRANCH   3   4
HETATM    4  C   UNL     1     -13.319   9.632  71.176  1.00  0.00    -0.344 C  
BRANCH   4   5
HETATM    5  C   UNL     1     -12.980  11.081  71.089  1.00  0.00    -0.324 A  
HETATM    6  C   UNL     1     -12.284  11.851  70.170  1.00  0.00    -0.319 A  
HETATM    7  C   UNL     1     -12.851  15.475  72.195  1.00  0.00    -0.492 A  
HETATM    8  C   UNL     1     -12.432  13.203  70.605  1.00  0.00    -0.363 A  
HETATM    9  C   UNL     1     -13.041  13.130  71.855  1.00  0.00    -0.385 A  
HETATM   10  C   UNL     1     -12.300  15.604  70.920  1.00  0.00    -0.479 A  
HETATM   11  C   UNL     1     -12.096  14.482  70.109  1.00  0.00    -0.394 A  
HETATM   12  C   UNL     1     -13.259  14.228  72.682  1.00  0.00    -0.601 A  
HETATM   13  O   UNL     1     -13.395  11.848  72.135  1.00  0.00    -0.503 OA 
BRANCH   6  14
HETATM   14  C   UNL     1     -11.592  11.306  69.016  1.00  0.00    -0.319 C  
HETATM   15  O   UNL     1     -12.091  11.342  67.894  1.00  0.00    -0.634 OA 
BRANCH  14  16
HETATM   16  C   UNL     1     -10.273  10.630  69.186  1.00  0.00    -0.238 A  
HETATM   17  I   UNL     1      -7.076  10.474  66.341  1.00  0.00    -0.137 I  
HETATM   18  C   UNL     1      -7.702   9.387  69.302  1.00  0.00    -0.083 A  
HETATM   19  C   UNL     1      -9.330  10.834  68.182  1.00  0.00    -0.155 A  
HETATM   20  C   UNL     1      -8.673   9.189  70.312  1.00  0.00    -0.200 A  
HETATM   21  I   UNL     1      -8.272   8.067  72.058  1.00  0.00    -0.231 I  
HETATM   22  C   UNL     1      -8.084  10.182  68.198  1.00  0.00    -0.105 A  
HETATM   23  C   UNL     1      -9.957   9.757  70.229  1.00  0.00    -0.309 A  
BRANCH  18  24
HETATM   24  O   UNL     1      -6.490   8.760  69.529  1.00  0.00    -0.042 OA 
BRANCH  24  25
HETATM   25  C   UNL     1      -6.185   7.704  68.626  1.00  0.00    -0.035 C  
BRANCH  25  26
HETATM   26  C   UNL     1      -6.600   6.291  69.059  1.00  0.00    -0.048 C  
BRANCH  26  27
HETATM   27  N   UNL     1      -8.003   6.003  68.651  1.00  0.00    -0.103 NA 
BRANCH  27  28
HETATM   28  C   UNL     1      -8.323   6.386  67.264  1.00  0.00    -0.112 C  
HETATM   29  C   UNL     1      -9.618   7.169  67.076  1.00  0.00    -0.204 C  
ENDBRANCH  27  28
BRANCH  27  30
HETATM   30  C   UNL     1      -8.378   4.624  68.990  1.00  0.00    -0.080 C  
HETATM   31  C   UNL     1      -9.724   4.503  69.705  1.00  0.00    -0.285 C  
ENDBRANCH  27  30
ENDBRANCH  26  27
ENDBRANCH  25  26
ENDBRANCH  24  25
ENDBRANCH  18  24
ENDBRANCH  14  16
ENDBRANCH   6  14
ENDBRANCH   4   5
ENDBRANCH   3   4
ENDBRANCH   2   3
TORSDOF 11
ENDMDL
MODEL       39
REMARK 921   NORMALIZED FREE ENERGY PREDICTED BY IDOCK:   -5.33 KCAL/MOL
REMARK 922        TOTAL FREE ENERGY PREDICTED BY IDOCK:  -10.90 KCAL/MOL
REMARK 923 INTER-LIGAND FREE ENERGY PREDICTED BY IDOCK:   -8.53 KCAL/MOL
REMARK 924 INTRA-LIGAND FREE ENERGY PREDICTED BY IDOCK:   -2.38 KCAL/MOL
REMARK 927      BINDING AFFINITY PREDICTED BY RF-SCORE:    0.00 PKD
ROOT
HETATM    1  C   UNL     1     -14.085   7.158  71.466  1.00  0.00    -0.467 C  
HETATM    2  C   UNL     1     -12.635   7.501  71.770  1.00  0.00    -0.363 C  
ENDROOT
BRANCH   2   3
HETATM    3  C   UNL     1     -12.457   8.992  72.062  1.00  0.00    -0.460 C  
BRANCH   3   4
HETATM    4  C   UNL     1     -13.438   9.833  71.246  1.00  0.00    -0.362 C  
BRANCH   4   5
HETATM    5  C   UNL     1     -12.994  11.252  71.134  1.00  0.00    -0.272 A  
HETATM    6  C   UNL     1     -12.300  11.967  70.169  1.00  0.00    -0.230 A  
HETATM    7  C   UNL     1     -12.447  15.619  72.216  1.00  0.00    -0.512 A  
HETATM    8  C   UNL     1     -12.313  13.325  70.608  1.00  0.00    -0.416 A  
HETATM    9  C   UNL     1     -12.843  13.297  71.896  1.00  0.00    -0.234 A  
HETATM   10  C   UNL     1     -11.972  15.708  70.908  1.00  0.00    -0.440 A  
HETATM   11  C   UNL     1     -11.910  14.575  70.088  1.00  0.00    -0.371 A  
HETATM   12  C   UNL     1     -12.919  14.407  72.732  1.00  0.00    -0.555 A  
HETATM   13  O   UNL     1     -13.278  12.047  72.202  1.00  0.00    -0.495 OA 
BRANCH   6  14
HETATM   14  C   UNL     1     -11.730  11.372  68.974  1.00  0.00    -0.343 C  
HETATM   15  O   UNL     1     -12.117  11.691  67.852  1.00  0.00    -0.613 OA 
BRANCH  14  16
HETATM   16  C   UNL     1     -10.695  10.304  69.091  1.00  0.00    -0.259 A  
HETATM   17  I   UNL     1      -6.490  10.852  69.692  1.00  0.00    -0.134 I  
HETATM   18  C   UNL     1      -8.560   8.419  69.324  1.00  0.00    -0.130 A  
HETATM   19  C   UNL     1      -9.408  10.714  69.430  1.00  0.00    -0.082 A  
HETATM   20  C   UNL     1      -9.873   8.021  68.978  1.00  0.00    -0.178 A  
HETATM   21  I   UNL     1     -10.407   5.991  68.731  1.00  0.00    -0.354 I  
HETATM   22  C   UNL     1      -8.337   9.804  69.490  1.00  0.00    -0.161 A  
HETATM   23  C   UNL     1     -10.911   8.954  68.813  1.00  0.00     0.057 A  
BRANCH  18  24
HETATM   24  O   UNL     1      -7.651   7.382  69.448  1.00  0.00    -0.092 OA 
BRANCH  24  25
HETATM   25  C   UNL     1      -7.150   7.181  70.764  1.00  0.00    -0.066 C  
BRANCH  25  26
HETATM   26  C   UNL     1      -7.208   5.747  71.307  1.00  0.00    -0.074 C  
BRANCH  26  27
HETATM   27  N   UNL     1      -8.246   5.626  72.370  1.00  0.00    -0.111 NA 
BRANCH  27  28
HETATM   28  C   UNL     1      -9.081   6.828  72.542  1.00  0.00    -0.133 C  
HETATM   29  C   UNL     1      -8.938   7.547  73.879  1.00  0.00    -0.300 C  
ENDBRANCH  27  28
BRANCH  27  30
HETATM   30  C   UNL     1      -9.013   4.383  72.218  1.00  0.00    -0.120 C  
HETATM   31  C   UNL     1     -10.487   4.510  72.603  1.00  0.00    -0.258 C  
ENDBRANCH  27  30
ENDBRANCH  26  27
ENDBRANCH  25  26
ENDBRANCH  24  25
ENDBRANCH  18  24
ENDBRANCH  14  16
ENDBRANCH   6  14
ENDBRANCH   4   5
ENDBRANCH   3   4
ENDBRANCH   2   3
TORSDOF 11
ENDMDL
MODEL       40
REMARK 921   NORMALIZED FREE ENERGY PREDICTED BY IDOCK:   -5.31 KCAL/MOL
REMARK 922        TOTAL FREE ENERGY PREDICTED BY IDOCK:  -10.88 KCAL/MOL
REMARK 923 INTER-LIGAND FREE ENERGY PREDICTED BY IDOCK:   -9.26 KCAL/MOL
REMARK 924 INTRA-LIGAND FREE ENERGY PREDICTED BY IDOCK:   -1.62 KCAL/MOL
REMARK 927      BINDING AFFINITY PREDICTED BY RF-SCORE:    0.00 PKD
ROOT
HETATM    1  C   UNL     1     -12.265  13.473  64.629  1.00  0.00    -0.450 C  
HETATM    2  C   UNL     1     -11.813  12.282  65.459  1.00  0.00    -0.420 C  
ENDROOT
BRANCH   2   3
HETATM    3  C   UNL     1     -11.201  12.721  66.789  1.00  0.00    -0.338 C  
BRANCH   3   4
HETATM    4  C   UNL     1     -11.517  11.718  67.898  1.00  0.00    -0.387 C  
BRANCH   4   5
HETATM    5  C   UNL     1     -11.978  12.395  69.144  1.00  0.00    -0.240 A  
HETATM    6  C   UNL     1     -12.378  11.941  70.392  1.00  0.00    -0.334 A  
HETATM    7  C   UNL     1     -13.055  15.753  71.991  1.00  0.00    -0.504 A  
HETATM    8  C   UNL     1     -12.570  13.110  71.188  1.00  0.00    -0.403 A  
HETATM    9  C   UNL     1     -12.461  14.184  70.308  1.00  0.00    -0.353 A  
HETATM   10  C   UNL     1     -13.110  14.716  72.923  1.00  0.00    -0.609 A  
HETATM   11  C   UNL     1     -12.858  13.393  72.541  1.00  0.00    -0.186 A  
HETATM   12  C   UNL     1     -12.703  15.508  70.659  1.00  0.00    -0.487 A  
HETATM   13  O   UNL     1     -12.077  13.751  69.078  1.00  0.00    -0.346 OA 
BRANCH   6  14
HETATM   14  C   UNL     1     -12.522  10.537  70.735  1.00  0.00    -0.378 C  
HETATM   15  O   UNL     1     -13.627  10.007  70.815  1.00  0.00    -0.252 OA 
BRANCH  14  16
HETATM   16  C   UNL     1     -11.317   9.720  71.061  1.00  0.00    -0.460 A  
HETATM   17  I   UNL     1      -7.583   9.691  68.963  1.00  0.00    -0.093 I  
HETATM   18  C   UNL     1      -8.915   8.235  71.503  1.00  0.00    -0.173 A  
HETATM   19  C   UNL     1     -10.164   9.982  70.325  1.00  0.00    -0.266 A  
HETATM   20  C   UNL     1     -10.097   7.980  72.239  1.00  0.00    -0.246 A  
HETATM   21  I   UNL     1     -10.161   6.575  73.816  1.00  0.00    -0.378 I  
HETATM   22  C   UNL     1      -8.994   9.220  70.492  1.00  0.00    -0.250 A  
HETATM   23  C   UNL     1     -11.293   8.674  71.985  1.00  0.00    -0.432 A  
BRANCH  18  24
HETATM   24  O   UNL     1      -7.823   7.468  71.870  1.00  0.00    -0.086 OA 
BRANCH  24  25
HETATM   25  C   UNL     1      -7.395   6.531  70.889  1.00  0.00    -0.083 C  
BRANCH  25  26
HETATM   26  C   UNL     1      -8.121   5.179  70.871  1.00  0.00    -0.105 C  
BRANCH  26  27
HETATM   27  N   UNL     1      -8.924   5.026  69.624  1.00  0.00    -0.097 NA 
BRANCH  27  28
HETATM   28  C   UNL     1     -10.378   5.175  69.817  1.00  0.00    -0.262 C  
HETATM   29  C   UNL     1     -11.035   6.310  69.038  1.00  0.00    -0.437 C  
ENDBRANCH  27  28
BRANCH  27  30
HETATM   30  C   UNL     1      -8.377   5.852  68.540  1.00  0.00    -0.109 C  
HETATM   31  C   UNL     1      -7.831   5.048  67.360  1.00  0.00    -0.095 C  
ENDBRANCH  27  30
ENDBRANCH  26  27
ENDBRANCH  25  26
ENDBRANCH  24  25
ENDBRANCH  18  24
ENDBRANCH  14  16
ENDBRANCH   6  14
ENDBRANCH   4   5
ENDBRANCH   3   4
ENDBRANCH   2   3
TORSDOF 11
ENDMDL
MODEL       41
REMARK 921   NORMALIZED FREE ENERGY PREDICTED BY IDOCK:   -5.29 KCAL/MOL
REMARK 922        TOTAL FREE ENERGY PREDICTED BY IDOCK:  -10.85 KCAL/MOL
REMARK 923 INTER-LIGAND FREE ENERGY PREDICTED BY IDOCK:   -9.53 KCAL/MOL
REMARK 924 INTRA-LIGAND FREE ENERGY PREDICTED BY IDOCK:   -1.32 KCAL/MOL
REMARK 927      BINDING AFFINITY PREDICTED BY RF-SCORE:    0.00 PKD
ROOT
HETATM    1  C   UNL     1      -9.927  10.729  64.275  1.00  0.00    -0.403 C  
HETATM    2  C   UNL     1      -8.904   9.996  65.128  1.00  0.00    -0.207 C  
ENDROOT
BRANCH   2   3
HETATM    3  C   UNL     1      -9.572   9.201  66.251  1.00  0.00    -0.321 C  
BRANCH   3   4
HETATM    4  C   UNL     1      -8.912   9.492  67.599  1.00  0.00    -0.124 C  
BRANCH   4   5
HETATM    5  C   UNL     1      -9.918   9.619  68.692  1.00  0.00    -0.165 A  
HETATM    6  C   UNL     1     -11.009  10.449  68.902  1.00  0.00    -0.289 A  
HETATM    7  C   UNL     1     -12.102   8.731  72.563  1.00  0.00    -0.320 A  
HETATM    8  C   UNL     1     -11.639   9.970  70.090  1.00  0.00    -0.320 A  
HETATM    9  C   UNL     1     -10.773   9.013  70.613  1.00  0.00    -0.239 A  
HETATM   10  C   UNL     1     -13.032   9.634  72.046  1.00  0.00    -0.518 A  
HETATM   11  C   UNL     1     -12.822  10.251  70.808  1.00  0.00    -0.427 A  
HETATM   12  C   UNL     1     -10.957   8.381  71.839  1.00  0.00    -0.375 A  
HETATM   13  O   UNL     1      -9.746   8.783  69.753  1.00  0.00    -0.172 OA 
BRANCH   6  14
HETATM   14  C   UNL     1     -11.373  11.546  68.023  1.00  0.00    -0.298 C  
HETATM   15  O   UNL     1     -11.987  11.352  66.977  1.00  0.00    -0.492 OA 
BRANCH  14  16
HETATM   16  C   UNL     1     -10.947  12.938  68.349  1.00  0.00    -0.285 A  
HETATM   17  I   UNL     1     -12.767  15.590  71.177  1.00  0.00    -0.435 I  
HETATM   18  C   UNL     1     -10.308  15.618  69.104  1.00  0.00    -0.241 A  
HETATM   19  C   UNL     1     -11.601  13.561  69.408  1.00  0.00    -0.369 A  
HETATM   20  C   UNL     1      -9.655  14.970  68.029  1.00  0.00    -0.208 A  
HETATM   21  I   UNL     1      -8.064  15.871  66.969  1.00  0.00    -0.298 I  
HETATM   22  C   UNL     1     -11.337  14.899  69.752  1.00  0.00    -0.283 A  
HETATM   23  C   UNL     1     -10.006  13.671  67.624  1.00  0.00    -0.239 A  
BRANCH  18  24
HETATM   24  O   UNL     1      -9.850  16.896  69.379  1.00  0.00    -0.185 OA 
BRANCH  24  25
HETATM   25  C   UNL     1     -10.381  17.914  68.540  1.00  0.00    -0.360 C  
BRANCH  25  26
HETATM   26  C   UNL     1      -9.794  19.321  68.714  1.00  0.00    -0.447 C  
BRANCH  26  27
HETATM   27  N   UNL     1      -8.466  19.427  68.047  1.00  0.00    -0.311 NA 
BRANCH  27  28
HETATM   28  C   UNL     1      -8.439  20.342  66.891  1.00  0.00    -0.285 C  
HETATM   29  C   UNL     1      -7.534  19.924  65.737  1.00  0.00    -0.330 C  
ENDBRANCH  27  28
BRANCH  27  30
HETATM   30  C   UNL     1      -7.401  19.673  69.027  1.00  0.00    -0.328 C  
HETATM   31  C   UNL     1      -6.263  18.654  68.978  1.00  0.00    -0.251 C  
ENDBRANCH  27  30
ENDBRANCH  26  27
ENDBRANCH  25  26
ENDBRANCH  24  25
ENDBRANCH  18  24
ENDBRANCH  14  16
ENDBRANCH   6  14
ENDBRANCH   4   5
ENDBRANCH   3   4
ENDBRANCH   2   3
TORSDOF 11
ENDMDL
MODEL       42
REMARK 921   NORMALIZED FREE ENERGY PREDICTED BY IDOCK:   -5.29 KCAL/MOL
REMARK 922        TOTAL FREE ENERGY PREDICTED BY IDOCK:  -10.84 KCAL/MOL
REMARK 923 INTER-LIGAND FREE ENERGY PREDICTED BY IDOCK:   -9.32 KCAL/MOL
REMARK 924 INTRA-LIGAND FREE ENERGY PREDICTED BY IDOCK:   -1.52 KCAL/MOL
REMARK 927      BINDING AFFINITY PREDICTED BY RF-SCORE:    0.00 PKD
ROOT
HETATM    1  C   UNL     1      -7.525   8.002  72.219  1.00  0.00    -0.117 C  
HETATM    2  C   UNL     1      -8.780   8.441  72.956  1.00  0.00    -0.229 C  
ENDROOT
BRANCH   2   3
HETATM    3  C   UNL     1      -9.210   7.411  74.001  1.00  0.00    -0.292 C  
BRANCH   3   4
HETATM    4  C   UNL     1     -10.574   6.813  73.655  1.00  0.00    -0.347 C  
BRANCH   4   5
HETATM    5  C   UNL     1     -10.689   6.495  72.203  1.00  0.00    -0.221 A  
HETATM    6  C   UNL     1     -11.468   6.994  71.170  1.00  0.00    -0.333 A  
HETATM    7  C   UNL     1      -9.830   4.512  68.219  1.00  0.00    -0.153 A  
HETATM    8  C   UNL     1     -11.000   6.350  69.985  1.00  0.00    -0.397 A  
HETATM    9  C   UNL     1     -10.109   5.372  70.417  1.00  0.00    -0.244 A  
HETATM   10  C   UNL     1     -10.664   5.518  67.732  1.00  0.00    -0.186 A  
HETATM   11  C   UNL     1     -11.246   6.451  68.598  1.00  0.00    -0.338 A  
HETATM   12  C   UNL     1      -9.513   4.434  69.580  1.00  0.00    -0.251 A  
HETATM   13  O   UNL     1      -9.901   5.478  71.756  1.00  0.00    -0.164 OA 
BRANCH   6  14
HETATM   14  C   UNL     1     -12.512   7.987  71.349  1.00  0.00    -0.301 C  
HETATM   15  O   UNL     1     -13.622   7.679  71.775  1.00  0.00    -0.346 OA 
BRANCH  14  16
HETATM   16  C   UNL     1     -12.270   9.405  70.956  1.00  0.00    -0.354 A  
HETATM   17  I   UNL     1      -9.389  10.835  68.128  1.00  0.00    -0.182 I  
HETATM   18  C   UNL     1     -11.639  12.051  70.078  1.00  0.00    -0.195 A  
HETATM   19  C   UNL     1     -11.380   9.621  69.908  1.00  0.00    -0.200 A  
HETATM   20  C   UNL     1     -12.539  11.813  71.143  1.00  0.00    -0.309 A  
HETATM   21  I   UNL     1     -13.598  13.375  72.095  1.00  0.00    -0.443 I  
HETATM   22  C   UNL     1     -11.015  10.919  69.506  1.00  0.00    -0.253 A  
HETATM   23  C   UNL     1     -12.810  10.514  71.609  1.00  0.00    -0.581 A  
BRANCH  18  24
HETATM   24  O   UNL     1     -11.478  13.383  69.739  1.00  0.00    -0.245 OA 
BRANCH  24  25
HETATM   25  C   UNL     1     -12.119  13.773  68.530  1.00  0.00    -0.292 C  
BRANCH  25  26
HETATM   26  C   UNL     1     -11.442  14.890  67.726  1.00  0.00    -0.338 C  
BRANCH  26  27
HETATM   27  N   UNL     1     -11.441  14.569  66.270  1.00  0.00    -0.353 NA 
BRANCH  27  28
HETATM   28  C   UNL     1     -10.352  15.208  65.509  1.00  0.00    -0.375 C  
HETATM   29  C   UNL     1      -9.110  15.576  66.313  1.00  0.00    -0.369 C  
ENDBRANCH  27  28
BRANCH  27  30
HETATM   30  C   UNL     1     -11.553  13.122  66.050  1.00  0.00    -0.353 C  
HETATM   31  C   UNL     1     -12.498  12.737  64.911  1.00  0.00    -0.563 C  
ENDBRANCH  27  30
ENDBRANCH  26  27
ENDBRANCH  25  26
ENDBRANCH  24  25
ENDBRANCH  18  24
ENDBRANCH  14  16
ENDBRANCH   6  14
ENDBRANCH   4   5
ENDBRANCH   3   4
ENDBRANCH   2   3
TORSDOF 11
ENDMDL
MODEL       43
REMARK 921   NORMALIZED FREE ENERGY PREDICTED BY IDOCK:   -5.28 KCAL/MOL
REMARK 922        TOTAL FREE ENERGY PREDICTED BY IDOCK:  -10.83 KCAL/MOL
REMARK 923 INTER-LIGAND FREE ENERGY PREDICTED BY IDOCK:   -8.19 KCAL/MOL
REMARK 924 INTRA-LIGAND FREE ENERGY PREDICTED BY IDOCK:   -2.64 KCAL/MOL
REMARK 927      BINDING AFFINITY PREDICTED BY RF-SCORE:    0.00 PKD
ROOT
HETATM    1  C   UNL     1      -7.653  11.128  66.501  1.00  0.00    -0.135 C  
HETATM    2  C   UNL     1      -7.379   9.697  66.938  1.00  0.00    -0.091 C  
ENDROOT
BRANCH   2   3
HETATM    3  C   UNL     1      -6.831   9.638  68.364  1.00  0.00    -0.061 C  
BRANCH   3   4
HETATM    4  C   UNL     1      -7.604  10.577  69.290  1.00  0.00    -0.134 C  
BRANCH   4   5
HETATM    5  C   UNL     1      -8.703   9.869  70.007  1.00  0.00    -0.157 A  
HETATM    6  C   UNL     1     -10.034   9.615  69.713  1.00  0.00    -0.252 A  
HETATM    7  C   UNL     1     -10.802   7.468  73.228  1.00  0.00    -0.409 A  
HETATM    8  C   UNL     1     -10.508   8.768  70.761  1.00  0.00    -0.270 A  
HETATM    9  C   UNL     1      -9.486   8.733  71.705  1.00  0.00    -0.293 A  
HETATM   10  C   UNL     1     -11.828   7.419  72.284  1.00  0.00    -0.307 A  
HETATM   11  C   UNL     1     -11.692   8.052  71.043  1.00  0.00    -0.295 A  
HETATM   12  C   UNL     1      -9.591   8.111  72.945  1.00  0.00    -0.345 A  
HETATM   13  O   UNL     1      -8.385   9.378  71.237  1.00  0.00    -0.308 OA 
BRANCH   6  14
HETATM   14  C   UNL     1     -10.717  10.131  68.541  1.00  0.00    -0.230 C  
HETATM   15  O   UNL     1     -11.019   9.400  67.601  1.00  0.00    -0.223 OA 
BRANCH  14  16
HETATM   16  C   UNL     1     -11.012  11.589  68.429  1.00  0.00    -0.267 A  
HETATM   17  I   UNL     1     -12.771  14.095  71.425  1.00  0.00    -0.445 I  
HETATM   18  C   UNL     1     -11.672  14.369  68.415  1.00  0.00    -0.332 A  
HETATM   19  C   UNL     1     -11.453  12.229  69.584  1.00  0.00    -0.285 A  
HETATM   20  C   UNL     1     -11.225  13.702  67.250  1.00  0.00    -0.309 A  
HETATM   21  I   UNL     1     -10.879  14.720  65.430  1.00  0.00    -0.465 I  
HETATM   22  C   UNL     1     -11.837  13.582  69.576  1.00  0.00    -0.334 A  
HETATM   23  C   UNL     1     -10.951  12.323  67.244  1.00  0.00    -0.301 A  
BRANCH  18  24
HETATM   24  O   UNL     1     -11.900  15.726  68.258  1.00  0.00    -0.301 OA 
BRANCH  24  25
HETATM   25  C   UNL     1     -11.073  16.567  69.052  1.00  0.00    -0.284 C  
BRANCH  25  26
HETATM   26  C   UNL     1     -10.112  17.494  68.295  1.00  0.00    -0.346 C  
BRANCH  26  27
HETATM   27  N   UNL     1      -8.861  16.774  67.927  1.00  0.00    -0.215 NA 
BRANCH  27  28
HETATM   28  C   UNL     1      -7.838  17.622  67.289  1.00  0.00    -0.205 C  
HETATM   29  C   UNL     1      -6.653  18.004  68.169  1.00  0.00    -0.199 C  
ENDBRANCH  27  28
BRANCH  27  30
HETATM   30  C   UNL     1      -8.359  15.979  69.055  1.00  0.00    -0.243 C  
HETATM   31  C   UNL     1      -8.010  14.535  68.692  1.00  0.00    -0.145 C  
ENDBRANCH  27  30
ENDBRANCH  26  27
ENDBRANCH  25  26
ENDBRANCH  24  25
ENDBRANCH  18  24
ENDBRANCH  14  16
ENDBRANCH   6  14
ENDBRANCH   4   5
ENDBRANCH   3   4
ENDBRANCH   2   3
TORSDOF 11
ENDMDL
MODEL       44
REMARK 921   NORMALIZED FREE ENERGY PREDICTED BY IDOCK:   -5.27 KCAL/MOL
REMARK 922        TOTAL FREE ENERGY PREDICTED BY IDOCK:  -10.80 KCAL/MOL
REMARK 923 INTER-LIGAND FREE ENERGY PREDICTED BY IDOCK:   -9.04 KCAL/MOL
REMARK 924 INTRA-LIGAND FREE ENERGY PREDICTED BY IDOCK:   -1.76 KCAL/MOL
REMARK 927      BINDING AFFINITY PREDICTED BY RF-SCORE:    0.00 PKD
ROOT
HETATM    1  C   UNL     1     -12.139  13.401  69.818  1.00  0.00    -0.374 C  
HETATM    2  C   UNL     1     -12.591  13.107  71.239  1.00  0.00    -0.382 C  
ENDROOT
BRANCH   2   3
HETATM    3  C   UNL     1     -12.961  11.634  71.420  1.00  0.00    -0.426 C  
BRANCH   3   4
HETATM    4  C   UNL     1     -12.621  10.824  70.170  1.00  0.00    -0.309 C  
BRANCH   4   5
HETATM    5  C   UNL     1     -11.455   9.922  70.393  1.00  0.00    -0.301 A  
HETATM    6  C   UNL     1     -10.489   9.378  69.560  1.00  0.00    -0.229 A  
HETATM    7  C   UNL     1      -8.443   7.360  72.608  1.00  0.00    -0.138 A  
HETATM    8  C   UNL     1      -9.571   8.702  70.419  1.00  0.00    -0.196 A  
HETATM    9  C   UNL     1     -10.155   8.725  71.682  1.00  0.00    -0.319 A  
HETATM   10  C   UNL     1      -7.787   7.367  71.377  1.00  0.00    -0.095 A  
HETATM   11  C   UNL     1      -8.330   8.043  70.278  1.00  0.00    -0.125 A  
HETATM   12  C   UNL     1      -9.637   8.065  72.793  1.00  0.00    -0.345 A  
HETATM   13  O   UNL     1     -11.282   9.485  71.671  1.00  0.00    -0.378 OA 
BRANCH   6  14
HETATM   14  C   UNL     1     -10.482   9.536  68.116  1.00  0.00    -0.223 C  
HETATM   15  O   UNL     1     -10.596   8.570  67.366  1.00  0.00    -0.277 OA 
BRANCH  14  16
HETATM   16  C   UNL     1     -10.272  10.884  67.513  1.00  0.00    -0.224 A  
HETATM   17  I   UNL     1      -6.906  13.467  68.098  1.00  0.00    -0.187 I  
HETATM   18  C   UNL     1      -9.684  13.482  66.478  1.00  0.00    -0.283 A  
HETATM   19  C   UNL     1      -9.033  11.481  67.731  1.00  0.00    -0.160 A  
HETATM   20  C   UNL     1     -10.938  12.861  66.269  1.00  0.00    -0.281 A  
HETATM   21  I   UNL     1     -12.442  13.735  65.067  1.00  0.00    -0.367 I  
HETATM   22  C   UNL     1      -8.752  12.783  67.278  1.00  0.00    -0.200 A  
HETATM   23  C   UNL     1     -11.246  11.606  66.822  1.00  0.00    -0.371 A  
BRANCH  18  24
HETATM   24  O   UNL     1      -9.537  14.717  65.870  1.00  0.00    -0.308 OA 
BRANCH  24  25
HETATM   25  C   UNL     1      -9.349  15.806  66.766  1.00  0.00    -0.242 C  
BRANCH  25  26
HETATM   26  C   UNL     1     -10.594  16.301  67.513  1.00  0.00    -0.310 C  
BRANCH  26  27
HETATM   27  N   UNL     1     -10.622  17.790  67.566  1.00  0.00    -0.378 NA 
BRANCH  27  28
HETATM   28  C   UNL     1     -10.091  18.362  68.816  1.00  0.00    -0.363 C  
HETATM   29  C   UNL     1      -8.686  18.949  68.730  1.00  0.00    -0.331 C  
ENDBRANCH  27  28
BRANCH  27  30
HETATM   30  C   UNL     1     -10.042  18.372  66.349  1.00  0.00    -0.403 C  
HETATM   31  C   UNL     1     -10.739  19.648  65.877  1.00  0.00    -0.515 C  
ENDBRANCH  27  30
ENDBRANCH  26  27
ENDBRANCH  25  26
ENDBRANCH  24  25
ENDBRANCH  18  24
ENDBRANCH  14  16
ENDBRANCH   6  14
ENDBRANCH   4   5
ENDBRANCH   3   4
ENDBRANCH   2   3
TORSDOF 11
ENDMDL
MODEL       45
REMARK 921   NORMALIZED FREE ENERGY PREDICTED BY IDOCK:   -5.26 KCAL/MOL
REMARK 922        TOTAL FREE ENERGY PREDICTED BY IDOCK:  -10.79 KCAL/MOL
REMARK 923 INTER-LIGAND FREE ENERGY PREDICTED BY IDOCK:   -9.48 KCAL/MOL
REMARK 924 INTRA-LIGAND FREE ENERGY PREDICTED BY IDOCK:   -1.31 KCAL/MOL
REMARK 927      BINDING AFFINITY PREDICTED BY RF-SCORE:    0.00 PKD
ROOT
HETATM    1  C   UNL     1     -14.179  15.367  72.199  1.00  0.00    -0.660 C  
HETATM    2  C   UNL     1     -12.855  14.741  71.792  1.00  0.00    -0.396 C  
ENDROOT
BRANCH   2   3
HETATM    3  C   UNL     1     -12.972  13.224  71.638  1.00  0.00    -0.441 C  
BRANCH   3   4
HETATM    4  C   UNL     1     -12.333  12.752  70.333  1.00  0.00    -0.324 C  
BRANCH   4   5
HETATM    5  C   UNL     1     -11.939  11.315  70.395  1.00  0.00    -0.380 A  
HETATM    6  C   UNL     1     -11.338  10.444  69.499  1.00  0.00    -0.325 A  
HETATM    7  C   UNL     1     -11.315   7.164  72.104  1.00  0.00    -0.301 A  
HETATM    8  C   UNL     1     -11.117   9.233  70.222  1.00  0.00    -0.289 A  
HETATM    9  C   UNL     1     -11.775   9.398  71.438  1.00  0.00    -0.378 A  
HETATM   10  C   UNL     1     -10.588   6.975  70.929  1.00  0.00    -0.238 A  
HETATM   11  C   UNL     1     -10.468   8.002  69.985  1.00  0.00    -0.228 A  
HETATM   12  C   UNL     1     -11.907   8.397  72.396  1.00  0.00    -0.452 A  
HETATM   13  O   UNL     1     -12.250  10.667  71.552  1.00  0.00    -0.335 OA 
BRANCH   6  14
HETATM   14  C   UNL     1     -11.015  10.791  68.126  1.00  0.00    -0.257 C  
HETATM   15  O   UNL     1     -11.398  10.101  67.185  1.00  0.00    -0.172 OA 
BRANCH  14  16
HETATM   16  C   UNL     1     -10.149  11.970  67.837  1.00  0.00    -0.199 A  
HETATM   17  I   UNL     1     -11.005  15.192  65.148  1.00  0.00    -0.397 I  
HETATM   18  C   UNL     1      -8.638  14.291  67.130  1.00  0.00    -0.216 A  
HETATM   19  C   UNL     1     -10.697  12.968  67.035  1.00  0.00    -0.270 A  
HETATM   20  C   UNL     1      -8.097  13.266  67.942  1.00  0.00    -0.159 A  
HETATM   21  I   UNL     1      -6.176  13.414  68.812  1.00  0.00    -0.119 I  
HETATM   22  C   UNL     1      -9.945  14.086  66.632  1.00  0.00    -0.278 A  
HETATM   23  C   UNL     1      -8.821  12.100  68.246  1.00  0.00    -0.182 A  
BRANCH  18  24
HETATM   24  O   UNL     1      -7.800  15.373  66.921  1.00  0.00    -0.217 OA 
BRANCH  24  25
HETATM   25  C   UNL     1      -8.228  16.585  67.529  1.00  0.00    -0.154 C  
BRANCH  25  26
HETATM   26  C   UNL     1      -7.210  17.734  67.556  1.00  0.00    -0.190 C  
BRANCH  26  27
HETATM   27  N   UNL     1      -7.882  19.031  67.850  1.00  0.00    -0.265 NA 
BRANCH  27  28
HETATM   28  C   UNL     1      -9.184  18.899  68.530  1.00  0.00    -0.361 C  
HETATM   29  C   UNL     1     -10.271  19.864  68.069  1.00  0.00    -0.572 C  
ENDBRANCH  27  28
BRANCH  27  30
HETATM   30  C   UNL     1      -6.959  19.967  68.504  1.00  0.00    -0.304 C  
HETATM   31  C   UNL     1      -6.413  21.053  67.577  1.00  0.00    -0.420 C  
ENDBRANCH  27  30
ENDBRANCH  26  27
ENDBRANCH  25  26
ENDBRANCH  24  25
ENDBRANCH  18  24
ENDBRANCH  14  16
ENDBRANCH   6  14
ENDBRANCH   4   5
ENDBRANCH   3   4
ENDBRANCH   2   3
TORSDOF 11
ENDMDL
MODEL       46
REMARK 921   NORMALIZED FREE ENERGY PREDICTED BY IDOCK:   -5.26 KCAL/MOL
REMARK 922        TOTAL FREE ENERGY PREDICTED BY IDOCK:  -10.78 KCAL/MOL
REMARK 923 INTER-LIGAND FREE ENERGY PREDICTED BY IDOCK:   -9.22 KCAL/MOL
REMARK 924 INTRA-LIGAND FREE ENERGY PREDICTED BY IDOCK:   -1.56 KCAL/MOL
REMARK 927      BINDING AFFINITY PREDICTED BY RF-SCORE:    0.00 PKD
ROOT
HETATM    1  C   UNL     1     -14.370  15.054  71.572  1.00  0.00    -0.651 C  
HETATM    2  C   UNL     1     -12.916  15.427  71.330  1.00  0.00    -0.532 C  
ENDROOT
BRANCH   2   3
HETATM    3  C   UNL     1     -12.479  15.098  69.902  1.00  0.00    -0.269 C  
BRANCH   3   4
HETATM    4  C   UNL     1     -11.790  13.735  69.839  1.00  0.00    -0.394 C  
BRANCH   4   5
HETATM    5  C   UNL     1     -11.591  13.278  68.433  1.00  0.00    -0.337 A  
HETATM    6  C   UNL     1     -10.834  12.275  67.848  1.00  0.00    -0.252 A  
HETATM    7  C   UNL     1     -12.090  13.077  63.933  1.00  0.00    -0.541 A  
HETATM    8  C   UNL     1     -11.187  12.278  66.465  1.00  0.00    -0.373 A  
HETATM    9  C   UNL     1     -11.983  13.406  66.285  1.00  0.00    -0.411 A  
HETATM   10  C   UNL     1     -11.352  11.902  64.075  1.00  0.00    -0.475 A  
HETATM   11  C   UNL     1     -10.905  11.482  65.333  1.00  0.00    -0.318 A  
HETATM   12  C   UNL     1     -12.444  13.845  65.047  1.00  0.00    -0.447 A  
HETATM   13  O   UNL     1     -12.248  13.996  67.480  1.00  0.00    -0.366 OA 
BRANCH   6  14
HETATM   14  C   UNL     1      -9.909  11.426  68.579  1.00  0.00    -0.198 C  
HETATM   15  O   UNL     1      -8.733  11.745  68.733  1.00  0.00    -0.099 OA 
BRANCH  14  16
HETATM   16  C   UNL     1     -10.364  10.108  69.109  1.00  0.00    -0.237 A  
HETATM   17  I   UNL     1     -13.352   9.430  72.101  1.00  0.00    -0.439 I  
HETATM   18  C   UNL     1     -11.361   7.693  70.266  1.00  0.00    -0.181 A  
HETATM   19  C   UNL     1     -11.453  10.123  69.976  1.00  0.00    -0.344 A  
HETATM   20  C   UNL     1     -10.254   7.697  69.386  1.00  0.00    -0.206 A  
HETATM   21  I   UNL     1      -9.320   5.914  68.742  1.00  0.00    -0.162 I  
HETATM   22  C   UNL     1     -11.916   8.950  70.598  1.00  0.00    -0.073 A  
HETATM   23  C   UNL     1      -9.730   8.890  68.857  1.00  0.00    -0.173 A  
BRANCH  18  24
HETATM   24  O   UNL     1     -11.755   6.440  70.701  1.00  0.00    -0.373 OA 
BRANCH  24  25
HETATM   25  C   UNL     1     -11.667   6.240  72.107  1.00  0.00    -0.319 C  
BRANCH  25  26
HETATM   26  C   UNL     1     -10.646   5.200  72.588  1.00  0.00    -0.228 C  
BRANCH  26  27
HETATM   27  N   UNL     1      -9.268   5.768  72.581  1.00  0.00    -0.138 NA 
BRANCH  27  28
HETATM   28  C   UNL     1      -9.024   6.780  73.624  1.00  0.00    -0.141 C  
HETATM   29  C   UNL     1      -8.724   8.189  73.122  1.00  0.00    -0.307 C  
ENDBRANCH  27  28
BRANCH  27  30
HETATM   30  C   UNL     1      -8.259   4.703  72.535  1.00  0.00    -0.114 C  
HETATM   31  C   UNL     1      -8.733   3.426  71.840  1.00  0.00    -0.120 C  
ENDBRANCH  27  30
ENDBRANCH  26  27
ENDBRANCH  25  26
ENDBRANCH  24  25
ENDBRANCH  18  24
ENDBRANCH  14  16
ENDBRANCH   6  14
ENDBRANCH   4   5
ENDBRANCH   3   4
ENDBRANCH   2   3
TORSDOF 11
ENDMDL
MODEL       47
REMARK 921   NORMALIZED FREE ENERGY PREDICTED BY IDOCK:   -5.24 KCAL/MOL
REMARK 922        TOTAL FREE ENERGY PREDICTED BY IDOCK:  -10.76 KCAL/MOL
REMARK 923 INTER-LIGAND FREE ENERGY PREDICTED BY IDOCK:   -9.26 KCAL/MOL
REMARK 924 INTRA-LIGAND FREE ENERGY PREDICTED BY IDOCK:   -1.50 KCAL/MOL
REMARK 927      BINDING AFFINITY PREDICTED BY RF-SCORE:    0.00 PKD
ROOT
HETATM    1  C   UNL     1     -14.368   8.193  71.759  1.00  0.00    -0.582 C  
HETATM    2  C   UNL     1     -13.683   9.453  72.263  1.00  0.00    -0.495 C  
ENDROOT
BRANCH   2   3
HETATM    3  C   UNL     1     -12.417   9.766  71.465  1.00  0.00    -0.495 C  
BRANCH   3   4
HETATM    4  C   UNL     1     -11.643   8.489  71.138  1.00  0.00    -0.325 C  
BRANCH   4   5
HETATM    5  C   UNL     1     -10.251   8.782  70.692  1.00  0.00    -0.202 A  
HETATM    6  C   UNL     1      -9.697   9.211  69.495  1.00  0.00    -0.176 A  
HETATM    7  C   UNL     1      -5.753   9.297  70.906  1.00  0.00    -0.051 A  
HETATM    8  C   UNL     1      -8.311   9.426  69.764  1.00  0.00    -0.161 A  
HETATM    9  C   UNL     1      -8.097   8.927  71.046  1.00  0.00    -0.170 A  
HETATM   10  C   UNL     1      -5.930   9.869  69.646  1.00  0.00    -0.041 A  
HETATM   11  C   UNL     1      -7.202   9.952  69.067  1.00  0.00    -0.077 A  
HETATM   12  C   UNL     1      -6.846   8.834  71.648  1.00  0.00    -0.085 A  
HETATM   13  O   UNL     1      -9.275   8.561  71.616  1.00  0.00    -0.189 OA 
BRANCH   6  14
HETATM   14  C   UNL     1     -10.456   9.397  68.272  1.00  0.00    -0.217 C  
HETATM   15  O   UNL     1     -10.780   8.444  67.567  1.00  0.00    -0.240 OA 
BRANCH  14  16
HETATM   16  C   UNL     1     -10.807  10.772  67.811  1.00  0.00    -0.320 A  
HETATM   17  I   UNL     1     -11.089  12.134  63.760  1.00  0.00    -0.580 I  
HETATM   18  C   UNL     1     -11.439  13.337  66.723  1.00  0.00    -0.350 A  
HETATM   19  C   UNL     1     -10.980  10.948  66.441  1.00  0.00    -0.156 A  
HETATM   20  C   UNL     1     -11.256  13.140  68.112  1.00  0.00    -0.271 A  
HETATM   21  I   UNL     1     -11.561  14.687  69.519  1.00  0.00    -0.417 I  
HETATM   22  C   UNL     1     -11.233  12.216  65.887  1.00  0.00    -0.339 A  
HETATM   23  C   UNL     1     -10.894  11.890  68.642  1.00  0.00    -0.273 A  
BRANCH  18  24
HETATM   24  O   UNL     1     -11.792  14.625  66.359  1.00  0.00    -0.365 OA 
BRANCH  24  25
HETATM   25  C   UNL     1     -10.840  15.298  65.543  1.00  0.00    -0.372 C  
BRANCH  25  26
HETATM   26  C   UNL     1      -9.556  15.771  66.237  1.00  0.00    -0.313 C  
BRANCH  26  27
HETATM   27  N   UNL     1      -9.312  17.217  65.970  1.00  0.00    -0.504 NA 
BRANCH  27  28
HETATM   28  C   UNL     1     -10.527  18.051  65.991  1.00  0.00    -0.313 C  
HETATM   29  C   UNL     1     -10.294  19.558  65.997  1.00  0.00    -0.604 C  
ENDBRANCH  27  28
BRANCH  27  30
HETATM   30  C   UNL     1      -8.221  17.731  66.808  1.00  0.00    -0.250 C  
HETATM   31  C   UNL     1      -6.850  17.700  66.132  1.00  0.00    -0.328 C  
ENDBRANCH  27  30
ENDBRANCH  26  27
ENDBRANCH  25  26
ENDBRANCH  24  25
ENDBRANCH  18  24
ENDBRANCH  14  16
ENDBRANCH   6  14
ENDBRANCH   4   5
ENDBRANCH   3   4
ENDBRANCH   2   3
TORSDOF 11
ENDMDL
MODEL       48
REMARK 921   NORMALIZED FREE ENERGY PREDICTED BY IDOCK:   -5.22 KCAL/MOL
REMARK 922        TOTAL FREE ENERGY PREDICTED BY IDOCK:  -10.73 KCAL/MOL
REMARK 923 INTER-LIGAND FREE ENERGY PREDICTED BY IDOCK:   -8.49 KCAL/MOL
REMARK 924 INTRA-LIGAND FREE ENERGY PREDICTED BY IDOCK:   -2.24 KCAL/MOL
REMARK 927      BINDING AFFINITY PREDICTED BY RF-SCORE:    0.00 PKD
ROOT
HETATM    1  C   UNL     1     -10.933   6.288  66.995  1.00  0.00    -0.442 C  
HETATM    2  C   UNL     1     -10.573   7.765  67.002  1.00  0.00    -0.396 C  
ENDROOT
BRANCH   2   3
HETATM    3  C   UNL     1      -9.116   7.993  66.597  1.00  0.00    -0.199 C  
BRANCH   3   4
HETATM    4  C   UNL     1      -9.001   9.116  65.567  1.00  0.00    -0.252 C  
BRANCH   4   5
HETATM    5  C   UNL     1      -9.697  10.356  66.017  1.00  0.00    -0.211 A  
HETATM    6  C   UNL     1      -9.537  11.208  67.100  1.00  0.00    -0.192 A  
HETATM    7  C   UNL     1     -12.604  13.833  65.981  1.00  0.00    -0.458 A  
HETATM    8  C   UNL     1     -10.441  12.290  66.879  1.00  0.00    -0.240 A  
HETATM    9  C   UNL     1     -11.214  11.915  65.783  1.00  0.00    -0.312 A  
HETATM   10  C   UNL     1     -11.815  14.282  67.041  1.00  0.00    -0.455 A  
HETATM   11  C   UNL     1     -10.724  13.530  67.493  1.00  0.00    -0.266 A  
HETATM   12  C   UNL     1     -12.301  12.643  65.310  1.00  0.00    -0.528 A  
HETATM   13  O   UNL     1     -10.746  10.757  65.247  1.00  0.00    -0.202 OA 
BRANCH   6  14
HETATM   14  C   UNL     1      -8.598  10.974  68.182  1.00  0.00    -0.140 C  
HETATM   15  O   UNL     1      -7.429  11.343  68.107  1.00  0.00    -0.090 OA 
BRANCH  14  16
HETATM   16  C   UNL     1      -9.027  10.216  69.393  1.00  0.00    -0.205 A  
HETATM   17  I   UNL     1     -12.895  10.280  71.232  1.00  0.00    -0.552 I  
HETATM   18  C   UNL     1     -10.042   8.870  71.701  1.00  0.00    -0.341 A  
HETATM   19  C   UNL     1     -10.377  10.280  69.727  1.00  0.00    -0.287 A  
HETATM   20  C   UNL     1      -8.673   8.819  71.349  1.00  0.00    -0.214 A  
HETATM   21  I   UNL     1      -7.278   7.641  72.415  1.00  0.00    -0.110 I  
HETATM   22  C   UNL     1     -10.878   9.672  70.891  1.00  0.00    -0.339 A  
HETATM   23  C   UNL     1      -8.164   9.524  70.244  1.00  0.00    -0.209 A  
BRANCH  18  24
HETATM   24  O   UNL     1     -10.385   8.125  72.815  1.00  0.00    -0.313 OA 
BRANCH  24  25
HETATM   25  C   UNL     1     -11.164   6.966  72.542  1.00  0.00    -0.267 C  
BRANCH  25  26
HETATM   26  C   UNL     1     -10.735   5.671  73.245  1.00  0.00    -0.269 C  
BRANCH  26  27
HETATM   27  N   UNL     1     -10.003   4.776  72.306  1.00  0.00    -0.172 NA 
BRANCH  27  28
HETATM   28  C   UNL     1     -10.041   3.349  72.675  1.00  0.00    -0.162 C  
HETATM   29  C   UNL     1     -11.257   2.906  73.480  1.00  0.00    -0.301 C  
ENDBRANCH  27  28
BRANCH  27  30
HETATM   30  C   UNL     1     -10.387   5.043  70.915  1.00  0.00    -0.190 C  
HETATM   31  C   UNL     1      -9.219   5.008  69.929  1.00  0.00    -0.175 C  
ENDBRANCH  27  30
ENDBRANCH  26  27
ENDBRANCH  25  26
ENDBRANCH  24  25
ENDBRANCH  18  24
ENDBRANCH  14  16
ENDBRANCH   6  14
ENDBRANCH   4   5
ENDBRANCH   3   4
ENDBRANCH   2   3
TORSDOF 11
ENDMDL
MODEL       49
REMARK 921   NORMALIZED FREE ENERGY PREDICTED BY IDOCK:   -5.22 KCAL/MOL
REMARK 922        TOTAL FREE ENERGY PREDICTED BY IDOCK:  -10.73 KCAL/MOL
REMARK 923 INTER-LIGAND FREE ENERGY PREDICTED BY IDOCK:   -8.80 KCAL/MOL
REMARK 924 INTRA-LIGAND FREE ENERGY PREDICTED BY IDOCK:   -1.93 KCAL/MOL
REMARK 927      BINDING AFFINITY PREDICTED BY RF-SCORE:    0.00 PKD
ROOT
HETATM    1  C   UNL     1     -13.191  15.836  72.954  1.00  0.00    -0.640 C  
HETATM    2  C   UNL     1     -11.802  16.219  72.470  1.00  0.00    -0.608 C  
ENDROOT
BRANCH   2   3
HETATM    3  C   UNL     1     -11.528  15.684  71.064  1.00  0.00    -0.439 C  
BRANCH   3   4
HETATM    4  C   UNL     1     -12.096  14.275  70.891  1.00  0.00    -0.417 C  
BRANCH   4   5
HETATM    5  C   UNL     1     -11.800  13.719  69.540  1.00  0.00    -0.339 A  
HETATM    6  C   UNL     1     -11.775  12.436  69.014  1.00  0.00    -0.372 A  
HETATM    7  C   UNL     1     -10.761  13.631  65.129  1.00  0.00    -0.359 A  
HETATM    8  C   UNL     1     -11.545  12.594  67.614  1.00  0.00    -0.414 A  
HETATM    9  C   UNL     1     -11.256  13.944  67.432  1.00  0.00    -0.312 A  
HETATM   10  C   UNL     1     -11.107  12.285  65.249  1.00  0.00    -0.359 A  
HETATM   11  C   UNL     1     -11.512  11.755  66.479  1.00  0.00    -0.325 A  
HETATM   12  C   UNL     1     -10.853  14.500  66.222  1.00  0.00    -0.317 A  
HETATM   13  O   UNL     1     -11.436  14.628  68.593  1.00  0.00    -0.272 OA 
BRANCH   6  14
HETATM   14  C   UNL     1     -11.975  11.233  69.802  1.00  0.00    -0.360 C  
HETATM   15  O   UNL     1     -13.029  11.027  70.399  1.00  0.00    -0.201 OA 
BRANCH  14  16
HETATM   16  C   UNL     1     -10.867  10.246  69.954  1.00  0.00    -0.355 A  
HETATM   17  I   UNL     1     -10.845   6.769  72.455  1.00  0.00    -0.330 I  
HETATM   18  C   UNL     1      -8.866   8.255  70.400  1.00  0.00    -0.141 A  
HETATM   19  C   UNL     1     -11.139   9.112  70.715  1.00  0.00    -0.336 A  
HETATM   20  C   UNL     1      -8.607   9.415  69.632  1.00  0.00    -0.168 A  
HETATM   21  I   UNL     1      -6.767   9.721  68.638  1.00  0.00    -0.051 I  
HETATM   22  C   UNL     1     -10.146   8.155  70.991  1.00  0.00    -0.187 A  
HETATM   23  C   UNL     1      -9.575  10.419  69.456  1.00  0.00    -0.182 A  
BRANCH  18  24
HETATM   24  O   UNL     1      -7.812   7.362  70.480  1.00  0.00    -0.094 OA 
BRANCH  24  25
HETATM   25  C   UNL     1      -8.052   6.098  69.873  1.00  0.00    -0.119 C  
BRANCH  25  26
HETATM   26  C   UNL     1      -7.641   5.956  68.401  1.00  0.00    -0.090 C  
BRANCH  26  27
HETATM   27  N   UNL     1      -8.842   5.877  67.522  1.00  0.00    -0.107 NA 
BRANCH  27  28
HETATM   28  C   UNL     1      -9.126   7.113  66.770  1.00  0.00    -0.147 C  
HETATM   29  C   UNL     1     -10.493   7.739  67.019  1.00  0.00    -0.419 C  
ENDBRANCH  27  28
BRANCH  27  30
HETATM   30  C   UNL     1      -8.807   4.667  66.691  1.00  0.00    -0.111 C  
HETATM   31  C   UNL     1      -9.239   3.396  67.423  1.00  0.00    -0.228 C  
ENDBRANCH  27  30
ENDBRANCH  26  27
ENDBRANCH  25  26
ENDBRANCH  24  25
ENDBRANCH  18  24
ENDBRANCH  14  16
ENDBRANCH   6  14
ENDBRANCH   4   5
ENDBRANCH   3   4
ENDBRANCH   2   3
TORSDOF 11
ENDMDL
MODEL       50
REMARK 921   NORMALIZED FREE ENERGY PREDICTED BY IDOCK:   -5.18 KCAL/MOL
REMARK 922        TOTAL FREE ENERGY PREDICTED BY IDOCK:  -10.67 KCAL/MOL
REMARK 923 INTER-LIGAND FREE ENERGY PREDICTED BY IDOCK:   -8.30 KCAL/MOL
REMARK 924 INTRA-LIGAND FREE ENERGY PREDICTED BY IDOCK:   -2.37 KCAL/MOL
REMARK 927      BINDING AFFINITY PREDICTED BY RF-SCORE:    0.00 PKD
ROOT
HETATM    1  C   UNL     1      -9.858   4.679  69.330  1.00  0.00    -0.272 C  
HETATM    2  C   UNL     1      -9.850   4.573  70.847  1.00  0.00    -0.269 C  
ENDROOT
BRANCH   2   3
HETATM    3  C   UNL     1      -8.693   5.363  71.461  1.00  0.00    -0.139 C  
BRANCH   3   4
HETATM    4  C   UNL     1      -9.152   6.142  72.693  1.00  0.00    -0.140 C  
BRANCH   4   5
HETATM    5  C   UNL     1     -10.027   7.293  72.328  1.00  0.00    -0.169 A  
HETATM    6  C   UNL     1      -9.813   8.487  71.656  1.00  0.00    -0.317 A  
HETATM    7  C   UNL     1     -13.779   9.804  71.934  1.00  0.00    -0.336 A  
HETATM    8  C   UNL     1     -11.097   9.095  71.524  1.00  0.00    -0.436 A  
HETATM    9  C   UNL     1     -11.959   8.319  72.294  1.00  0.00    -0.386 A  
HETATM   10  C   UNL     1     -12.970  10.575  71.099  1.00  0.00    -0.506 A  
HETATM   11  C   UNL     1     -11.633  10.227  70.873  1.00  0.00    -0.454 A  
HETATM   12  C   UNL     1     -13.293   8.637  72.533  1.00  0.00    -0.337 A  
HETATM   13  O   UNL     1     -11.316   7.215  72.759  1.00  0.00    -0.284 OA 
BRANCH   6  14
HETATM   14  C   UNL     1      -8.510   8.935  71.196  1.00  0.00    -0.198 C  
HETATM   15  O   UNL     1      -7.547   8.990  71.956  1.00  0.00    -0.343 OA 
BRANCH  14  16
HETATM   16  C   UNL     1      -8.333   9.401  69.790  1.00  0.00    -0.161 A  
HETATM   17  I   UNL     1      -8.034   6.954  66.287  1.00  0.00    -0.124 I  
HETATM   18  C   UNL     1      -7.978  10.081  67.037  1.00  0.00    -0.106 A  
HETATM   19  C   UNL     1      -8.407   8.430  68.795  1.00  0.00    -0.116 A  
HETATM   20  C   UNL     1      -7.903  11.053  68.062  1.00  0.00    -0.112 A  
HETATM   21  I   UNL     1      -7.654  13.111  67.648  1.00  0.00    -0.152 I  
HETATM   22  C   UNL     1      -8.176   8.742  67.443  1.00  0.00    -0.109 A  
HETATM   23  C   UNL     1      -8.025  10.711  69.420  1.00  0.00    -0.118 A  
BRANCH  18  24
HETATM   24  O   UNL     1      -7.836  10.577  65.753  1.00  0.00    -0.149 OA 
BRANCH  24  25
HETATM   25  C   UNL     1      -8.961  10.372  64.906  1.00  0.00    -0.199 C  
BRANCH  25  26
HETATM   26  C   UNL     1     -10.320  10.833  65.450  1.00  0.00    -0.247 C  
BRANCH  26  27
HETATM   27  N   UNL     1     -10.568  12.263  65.111  1.00  0.00    -0.276 NA 
BRANCH  27  28
HETATM   28  C   UNL     1     -11.028  12.487  63.728  1.00  0.00    -0.447 C  
HETATM   29  C   UNL     1     -12.492  12.160  63.457  1.00  0.00    -0.666 C  
ENDBRANCH  27  28
BRANCH  27  30
HETATM   30  C   UNL     1     -11.405  12.909  66.130  1.00  0.00    -0.317 C  
HETATM   31  C   UNL     1     -11.528  12.114  67.430  1.00  0.00    -0.415 C  
ENDBRANCH  27  30
ENDBRANCH  26  27
ENDBRANCH  25  26
ENDBRANCH  24  25
ENDBRANCH  18  24
ENDBRANCH  14  16
ENDBRANCH   6  14
ENDBRANCH   4   5
ENDBRANCH   3   4
ENDBRANCH   2   3
TORSDOF 11
ENDMDL
MODEL       51
REMARK 921   NORMALIZED FREE ENERGY PREDICTED BY IDOCK:   -5.18 KCAL/MOL
REMARK 922        TOTAL FREE ENERGY PREDICTED BY IDOCK:  -10.66 KCAL/MOL
REMARK 923 INTER-LIGAND FREE ENERGY PREDICTED BY IDOCK:   -9.07 KCAL/MOL
REMARK 924 INTRA-LIGAND FREE ENERGY PREDICTED BY IDOCK:   -1.59 KCAL/MOL
REMARK 927      BINDING AFFINITY PREDICTED BY RF-SCORE:    0.00 PKD
ROOT
HETATM    1  C   UNL     1     -12.360  12.759  63.206  1.00  0.00    -0.437 C  
HETATM    2  C   UNL     1     -11.281  12.131  64.074  1.00  0.00    -0.458 C  
ENDROOT
BRANCH   2   3
HETATM    3  C   UNL     1     -11.678  12.124  65.551  1.00  0.00    -0.384 C  
BRANCH   3   4
HETATM    4  C   UNL     1     -12.474  13.378  65.912  1.00  0.00    -0.468 C  
BRANCH   4   5
HETATM    5  C   UNL     1     -11.624  14.400  66.588  1.00  0.00    -0.384 A  
HETATM    6  C   UNL     1     -11.300  14.657  67.911  1.00  0.00    -0.332 A  
HETATM    7  C   UNL     1      -8.790  17.904  67.071  1.00  0.00    -0.256 A  
HETATM    8  C   UNL     1     -10.328  15.703  67.878  1.00  0.00    -0.259 A  
HETATM    9  C   UNL     1     -10.283  16.129  66.553  1.00  0.00    -0.297 A  
HETATM   10  C   UNL     1      -8.752  17.471  68.397  1.00  0.00    -0.276 A  
HETATM   11  C   UNL     1      -9.504  16.366  68.813  1.00  0.00    -0.247 A  
HETATM   12  C   UNL     1      -9.543  17.221  66.110  1.00  0.00    -0.224 A  
HETATM   13  O   UNL     1     -11.047  15.324  65.769  1.00  0.00    -0.338 OA 
BRANCH   6  14
HETATM   14  C   UNL     1     -11.870  13.940  69.038  1.00  0.00    -0.358 C  
HETATM   15  O   UNL     1     -12.667  14.477  69.802  1.00  0.00    -0.216 OA 
BRANCH  14  16
HETATM   16  C   UNL     1     -11.442  12.540  69.327  1.00  0.00    -0.353 A  
HETATM   17  I   UNL     1      -8.237  10.394  67.464  1.00  0.00    -0.113 I  
HETATM   18  C   UNL     1     -10.477   9.878  69.714  1.00  0.00    -0.261 A  
HETATM   19  C   UNL     1     -10.280  12.099  68.700  1.00  0.00    -0.186 A  
HETATM   20  C   UNL     1     -11.657  10.343  70.341  1.00  0.00    -0.337 A  
HETATM   21  I   UNL     1     -12.742   9.163  71.719  1.00  0.00    -0.524 I  
HETATM   22  C   UNL     1      -9.827  10.774  68.835  1.00  0.00    -0.199 A  
HETATM   23  C   UNL     1     -12.161  11.635  70.109  1.00  0.00    -0.414 A  
BRANCH  18  24
HETATM   24  O   UNL     1     -10.114   8.584  70.043  1.00  0.00    -0.186 OA 
BRANCH  24  25
HETATM   25  C   UNL     1     -10.406   7.610  69.047  1.00  0.00    -0.213 C  
BRANCH  25  26
HETATM   26  C   UNL     1     -10.993   6.281  69.541  1.00  0.00    -0.379 C  
BRANCH  26  27
HETATM   27  N   UNL     1      -9.913   5.282  69.780  1.00  0.00    -0.213 NA 
BRANCH  27  28
HETATM   28  C   UNL     1     -10.058   4.521  71.034  1.00  0.00    -0.152 C  
HETATM   29  C   UNL     1     -10.541   5.319  72.240  1.00  0.00    -0.280 C  
ENDBRANCH  27  28
BRANCH  27  30
HETATM   30  C   UNL     1      -9.699   4.443  68.594  1.00  0.00    -0.120 C  
HETATM   31  C   UNL     1      -9.132   3.058  68.905  1.00  0.00    -0.210 C  
ENDBRANCH  27  30
ENDBRANCH  26  27
ENDBRANCH  25  26
ENDBRANCH  24  25
ENDBRANCH  18  24
ENDBRANCH  14  16
ENDBRANCH   6  14
ENDBRANCH   4   5
ENDBRANCH   3   4
ENDBRANCH   2   3
TORSDOF 11
ENDMDL
MODEL       52
REMARK 921   NORMALIZED FREE ENERGY PREDICTED BY IDOCK:   -5.17 KCAL/MOL
REMARK 922        TOTAL FREE ENERGY PREDICTED BY IDOCK:  -10.64 KCAL/MOL
REMARK 923 INTER-LIGAND FREE ENERGY PREDICTED BY IDOCK:   -8.67 KCAL/MOL
REMARK 924 INTRA-LIGAND FREE ENERGY PREDICTED BY IDOCK:   -1.97 KCAL/MOL
REMARK 927      BINDING AFFINITY PREDICTED BY RF-SCORE:    0.00 PKD
ROOT
HETATM    1  C   UNL     1     -12.277  12.774  70.244  1.00  0.00    -0.351 C  
HETATM    2  C   UNL     1     -12.774  13.810  71.239  1.00  0.00    -0.450 C  
ENDROOT
BRANCH   2   3
HETATM    3  C   UNL     1     -12.570  15.234  70.721  1.00  0.00    -0.474 C  
BRANCH   3   4
HETATM    4  C   UNL     1     -11.083  15.556  70.568  1.00  0.00    -0.369 C  
BRANCH   4   5
HETATM    5  C   UNL     1     -10.822  16.425  69.384  1.00  0.00    -0.327 A  
HETATM    6  C   UNL     1     -10.865  16.218  68.014  1.00  0.00    -0.339 A  
HETATM    7  C   UNL     1      -9.812  20.144  66.999  1.00  0.00    -0.595 A  
HETATM    8  C   UNL     1     -10.635  17.496  67.421  1.00  0.00    -0.311 A  
HETATM    9  C   UNL     1     -10.279  18.337  68.472  1.00  0.00    -0.379 A  
HETATM   10  C   UNL     1     -10.225  19.358  65.923  1.00  0.00    -0.471 A  
HETATM   11  C   UNL     1     -10.650  18.039  66.118  1.00  0.00    -0.269 A  
HETATM   12  C   UNL     1      -9.855  19.653  68.309  1.00  0.00    -0.521 A  
HETATM   13  O   UNL     1     -10.418  17.695  69.661  1.00  0.00    -0.074 OA 
BRANCH   6  14
HETATM   14  C   UNL     1     -11.122  14.929  67.397  1.00  0.00    -0.325 C  
HETATM   15  O   UNL     1     -12.235  14.633  66.970  1.00  0.00    -0.307 OA 
BRANCH  14  16
HETATM   16  C   UNL     1     -10.039  13.906  67.325  1.00  0.00    -0.242 A  
HETATM   17  I   UNL     1      -9.899  10.482  64.755  1.00  0.00    -0.359 I  
HETATM   18  C   UNL     1      -8.090  11.835  67.045  1.00  0.00    -0.169 A  
HETATM   19  C   UNL     1     -10.139  12.958  66.311  1.00  0.00    -0.281 A  
HETATM   20  C   UNL     1      -8.006  12.804  68.071  1.00  0.00    -0.160 A  
HETATM   21  I   UNL     1      -6.371  12.893  69.408  1.00  0.00    -0.009 I  
HETATM   22  C   UNL     1      -9.219  11.900  66.197  1.00  0.00    -0.199 A  
HETATM   23  C   UNL     1      -8.992  13.791  68.242  1.00  0.00    -0.186 A  
BRANCH  18  24
HETATM   24  O   UNL     1      -7.042  10.931  67.010  1.00  0.00    -0.096 OA 
BRANCH  24  25
HETATM   25  C   UNL     1      -7.423   9.569  67.171  1.00  0.00    -0.091 C  
BRANCH  25  26
HETATM   26  C   UNL     1      -7.930   9.160  68.560  1.00  0.00    -0.102 C  
BRANCH  26  27
HETATM   27  N   UNL     1      -9.414   9.029  68.565  1.00  0.00    -0.143 NA 
BRANCH  27  28
HETATM   28  C   UNL     1      -9.901   7.646  68.715  1.00  0.00    -0.164 C  
HETATM   29  C   UNL     1     -10.625   7.064  67.506  1.00  0.00    -0.351 C  
ENDBRANCH  27  28
BRANCH  27  30
HETATM   30  C   UNL     1     -10.025   9.982  69.500  1.00  0.00    -0.228 C  
HETATM   31  C   UNL     1     -10.708   9.325  70.700  1.00  0.00    -0.331 C  
ENDBRANCH  27  30
ENDBRANCH  26  27
ENDBRANCH  25  26
ENDBRANCH  24  25
ENDBRANCH  18  24
ENDBRANCH  14  16
ENDBRANCH   6  14
ENDBRANCH   4   5
ENDBRANCH   3   4
ENDBRANCH   2   3
TORSDOF 11
ENDMDL
MODEL       53
REMARK 921   NORMALIZED FREE ENERGY PREDICTED BY IDOCK:   -5.16 KCAL/MOL
REMARK 922        TOTAL FREE ENERGY PREDICTED BY IDOCK:  -10.63 KCAL/MOL
REMARK 923 INTER-LIGAND FREE ENERGY PREDICTED BY IDOCK:   -8.36 KCAL/MOL
REMARK 924 INTRA-LIGAND FREE ENERGY PREDICTED BY IDOCK:   -2.28 KCAL/MOL
REMARK 927      BINDING AFFINITY PREDICTED BY RF-SCORE:    0.00 PKD
ROOT
HETATM    1  C   UNL     1     -11.034   6.231  66.793  1.00  0.00    -0.328 C  
HETATM    2  C   UNL     1     -10.608   7.673  67.020  1.00  0.00    -0.406 C  
ENDROOT
BRANCH   2   3
HETATM    3  C   UNL     1      -9.125   7.879  66.710  1.00  0.00    -0.189 C  
BRANCH   3   4
HETATM    4  C   UNL     1      -8.926   9.005  65.696  1.00  0.00    -0.249 C  
BRANCH   4   5
HETATM    5  C   UNL     1      -9.678  10.235  66.078  1.00  0.00    -0.218 A  
HETATM    6  C   UNL     1      -9.626  11.093  67.167  1.00  0.00    -0.192 A  
HETATM    7  C   UNL     1     -12.625  13.665  65.773  1.00  0.00    -0.511 A  
HETATM    8  C   UNL     1     -10.524  12.160  66.863  1.00  0.00    -0.250 A  
HETATM    9  C   UNL     1     -11.192  11.769  65.706  1.00  0.00    -0.281 A  
HETATM   10  C   UNL     1     -11.938  14.130  66.895  1.00  0.00    -0.479 A  
HETATM   11  C   UNL     1     -10.879  13.397  67.444  1.00  0.00    -0.279 A  
HETATM   12  C   UNL     1     -12.246  12.478  65.137  1.00  0.00    -0.509 A  
HETATM   13  O   UNL     1     -10.662  10.617  65.218  1.00  0.00    -0.179 OA 
BRANCH   6  14
HETATM   14  C   UNL     1      -8.781  10.878  68.328  1.00  0.00    -0.140 C  
HETATM   15  O   UNL     1      -7.596  11.200  68.326  1.00  0.00    -0.099 OA 
BRANCH  14  16
HETATM   16  C   UNL     1      -9.330  10.195  69.535  1.00  0.00    -0.230 A  
HETATM   17  I   UNL     1      -7.208   7.627  72.226  1.00  0.00    -0.106 I  
HETATM   18  C   UNL     1     -10.186   8.788  71.871  1.00  0.00    -0.345 A  
HETATM   19  C   UNL     1      -8.418   9.523  70.344  1.00  0.00    -0.238 A  
HETATM   20  C   UNL     1     -11.099   9.473  71.036  1.00  0.00    -0.363 A  
HETATM   21  I   UNL     1     -13.154   9.632  71.505  1.00  0.00    -0.490 I  
HETATM   22  C   UNL     1      -8.833   8.778  71.462  1.00  0.00    -0.225 A  
HETATM   23  C   UNL     1     -10.686  10.121  69.859  1.00  0.00    -0.340 A  
BRANCH  18  24
HETATM   24  O   UNL     1     -10.748   8.200  72.990  1.00  0.00    -0.332 OA 
BRANCH  24  25
HETATM   25  C   UNL     1     -10.596   6.787  73.063  1.00  0.00    -0.267 C  
BRANCH  25  26
HETATM   26  C   UNL     1     -11.440   5.957  72.087  1.00  0.00    -0.276 C  
BRANCH  26  27
HETATM   27  N   UNL     1     -10.579   5.032  71.298  1.00  0.00    -0.138 NA 
BRANCH  27  28
HETATM   28  C   UNL     1      -9.955   5.647  70.112  1.00  0.00    -0.207 C  
HETATM   29  C   UNL     1      -8.698   4.958  69.593  1.00  0.00    -0.109 C  
ENDBRANCH  27  28
BRANCH  27  30
HETATM   30  C   UNL     1      -9.633   4.320  72.167  1.00  0.00    -0.145 C  
HETATM   31  C   UNL     1     -10.210   3.062  72.816  1.00  0.00    -0.236 C  
ENDBRANCH  27  30
ENDBRANCH  26  27
ENDBRANCH  25  26
ENDBRANCH  24  25
ENDBRANCH  18  24
ENDBRANCH  14  16
ENDBRANCH   6  14
ENDBRANCH   4   5
ENDBRANCH   3   4
ENDBRANCH   2   3
TORSDOF 11
ENDMDL
MODEL       54
REMARK 921   NORMALIZED FREE ENERGY PREDICTED BY IDOCK:   -5.16 KCAL/MOL
REMARK 922        TOTAL FREE ENERGY PREDICTED BY IDOCK:  -10.62 KCAL/MOL
REMARK 923 INTER-LIGAND FREE ENERGY PREDICTED BY IDOCK:   -8.44 KCAL/MOL
REMARK 924 INTRA-LIGAND FREE ENERGY PREDICTED BY IDOCK:   -2.18 KCAL/MOL
REMARK 927      BINDING AFFINITY PREDICTED BY RF-SCORE:    0.00 PKD
ROOT
HETATM    1  C   UNL     1      -7.938  12.783  68.190  1.00  0.00    -0.156 C  
HETATM    2  C   UNL     1      -7.841  11.266  68.213  1.00  0.00    -0.130 C  
ENDROOT
BRANCH   2   3
HETATM    3  C   UNL     1      -7.035  10.770  69.414  1.00  0.00    -0.116 C  
BRANCH   3   4
HETATM    4  C   UNL     1      -7.859   9.808  70.270  1.00  0.00    -0.190 C  
BRANCH   4   5
HETATM    5  C   UNL     1      -8.574   8.798  69.438  1.00  0.00    -0.133 A  
HETATM    6  C   UNL     1      -9.909   8.571  69.142  1.00  0.00    -0.186 A  
HETATM    7  C   UNL     1      -9.194   5.294  66.632  1.00  0.00    -0.130 A  
HETATM    8  C   UNL     1      -9.919   7.520  68.175  1.00  0.00    -0.198 A  
HETATM    9  C   UNL     1      -8.606   7.063  68.106  1.00  0.00    -0.128 A  
HETATM   10  C   UNL     1     -10.509   5.758  66.617  1.00  0.00    -0.330 A  
HETATM   11  C   UNL     1     -10.885   6.875  67.372  1.00  0.00    -0.396 A  
HETATM   12  C   UNL     1      -8.203   5.958  67.363  1.00  0.00    -0.105 A  
HETATM   13  O   UNL     1      -7.789   7.854  68.851  1.00  0.00    -0.112 OA 
BRANCH   6  14
HETATM   14  C   UNL     1     -11.008   9.316  69.730  1.00  0.00    -0.196 C  
HETATM   15  O   UNL     1     -11.719   8.827  70.604  1.00  0.00    -0.260 OA 
BRANCH  14  16
HETATM   16  C   UNL     1     -11.335  10.684  69.232  1.00  0.00    -0.346 A  
HETATM   17  I   UNL     1     -11.013  12.098  65.202  1.00  0.00    -0.380 I  
HETATM   18  C   UNL     1     -11.885  13.240  68.079  1.00  0.00    -0.355 A  
HETATM   19  C   UNL     1     -11.291  10.875  67.853  1.00  0.00    -0.380 A  
HETATM   20  C   UNL     1     -11.922  13.028  69.478  1.00  0.00    -0.289 A  
HETATM   21  I   UNL     1     -12.513  14.540  70.832  1.00  0.00    -0.488 I  
HETATM   22  C   UNL     1     -11.502  12.141  67.278  1.00  0.00    -0.345 A  
HETATM   23  C   UNL     1     -11.600  11.784  70.048  1.00  0.00    -0.318 A  
BRANCH  18  24
HETATM   24  O   UNL     1     -12.226  14.519  67.675  1.00  0.00    -0.298 OA 
BRANCH  24  25
HETATM   25  C   UNL     1     -11.155  15.278  67.127  1.00  0.00    -0.323 C  
BRANCH  25  26
HETATM   26  C   UNL     1     -10.937  16.678  67.716  1.00  0.00    -0.234 C  
BRANCH  26  27
HETATM   27  N   UNL     1      -9.853  17.396  66.987  1.00  0.00    -0.275 NA 
BRANCH  27  28
HETATM   28  C   UNL     1      -8.973  16.520  66.193  1.00  0.00    -0.309 C  
HETATM   29  C   UNL     1      -7.481  16.636  66.490  1.00  0.00    -0.306 C  
ENDBRANCH  27  28
BRANCH  27  30
HETATM   30  C   UNL     1     -10.389  18.540  66.239  1.00  0.00    -0.427 C  
HETATM   31  C   UNL     1     -10.162  19.890  66.919  1.00  0.00    -0.600 C  
ENDBRANCH  27  30
ENDBRANCH  26  27
ENDBRANCH  25  26
ENDBRANCH  24  25
ENDBRANCH  18  24
ENDBRANCH  14  16
ENDBRANCH   6  14
ENDBRANCH   4   5
ENDBRANCH   3   4
ENDBRANCH   2   3
TORSDOF 11
ENDMDL
MODEL       55
REMARK 921   NORMALIZED FREE ENERGY PREDICTED BY IDOCK:   -5.16 KCAL/MOL
REMARK 922        TOTAL FREE ENERGY PREDICTED BY IDOCK:  -10.62 KCAL/MOL
REMARK 923 INTER-LIGAND FREE ENERGY PREDICTED BY IDOCK:   -8.40 KCAL/MOL
REMARK 924 INTRA-LIGAND FREE ENERGY PREDICTED BY IDOCK:   -2.22 KCAL/MOL
REMARK 927      BINDING AFFINITY PREDICTED BY RF-SCORE:    0.00 PKD
ROOT
HETATM    1  C   UNL     1     -13.625  15.347  71.400  1.00  0.00    -0.604 C  
HETATM    2  C   UNL     1     -12.268  14.713  71.141  1.00  0.00    -0.405 C  
ENDROOT
BRANCH   2   3
HETATM    3  C   UNL     1     -12.046  14.444  69.652  1.00  0.00    -0.381 C  
BRANCH   3   4
HETATM    4  C   UNL     1     -11.980  12.944  69.368  1.00  0.00    -0.327 C  
BRANCH   4   5
HETATM    5  C   UNL     1     -11.551  12.661  67.968  1.00  0.00    -0.343 A  
HETATM    6  C   UNL     1     -10.356  12.258  67.393  1.00  0.00    -0.219 A  
HETATM    7  C   UNL     1     -11.832  12.147  63.474  1.00  0.00    -0.597 A  
HETATM    8  C   UNL     1     -10.644  12.039  66.012  1.00  0.00    -0.303 A  
HETATM    9  C   UNL     1     -11.939  12.512  65.820  1.00  0.00    -0.420 A  
HETATM   10  C   UNL     1     -10.557  11.601  63.628  1.00  0.00    -0.493 A  
HETATM   11  C   UNL     1      -9.955  11.529  64.890  1.00  0.00    -0.303 A  
HETATM   12  C   UNL     1     -12.564  12.593  64.579  1.00  0.00    -0.491 A  
HETATM   13  O   UNL     1     -12.496  12.864  67.009  1.00  0.00    -0.273 OA 
BRANCH   6  14
HETATM   14  C   UNL     1      -9.116  12.096  68.131  1.00  0.00    -0.196 C  
HETATM   15  O   UNL     1      -8.465  13.066  68.510  1.00  0.00    -0.138 OA 
BRANCH  14  16
HETATM   16  C   UNL     1      -8.572  10.731  68.389  1.00  0.00    -0.141 A  
HETATM   17  I   UNL     1      -9.056   8.401  71.951  1.00  0.00    -0.305 I  
HETATM   18  C   UNL     1      -7.611   8.133  69.090  1.00  0.00    -0.096 A  
HETATM   19  C   UNL     1      -8.979  10.107  69.566  1.00  0.00    -0.205 A  
HETATM   20  C   UNL     1      -7.206   8.783  67.900  1.00  0.00    -0.084 A  
HETATM   21  I   UNL     1      -5.961   7.846  66.472  1.00  0.00    -0.043 I  
HETATM   22  C   UNL     1      -8.468   8.855  69.951  1.00  0.00    -0.135 A  
HETATM   23  C   UNL     1      -7.638  10.082  67.581  1.00  0.00    -0.091 A  
BRANCH  18  24
HETATM   24  O   UNL     1      -7.098   6.859  69.261  1.00  0.00    -0.078 OA 
BRANCH  24  25
HETATM   25  C   UNL     1      -8.057   5.812  69.171  1.00  0.00    -0.101 C  
BRANCH  25  26
HETATM   26  C   UNL     1      -8.874   5.741  67.873  1.00  0.00    -0.108 C  
BRANCH  26  27
HETATM   27  N   UNL     1     -10.322   5.551  68.168  1.00  0.00    -0.187 NA 
BRANCH  27  28
HETATM   28  C   UNL     1     -10.661   5.604  69.602  1.00  0.00    -0.331 C  
HETATM   29  C   UNL     1     -11.842   6.497  69.969  1.00  0.00    -0.284 C  
ENDBRANCH  27  28
BRANCH  27  30
HETATM   30  C   UNL     1     -11.151   6.423  67.326  1.00  0.00    -0.330 C  
HETATM   31  C   UNL     1     -10.447   7.703  66.874  1.00  0.00    -0.388 C  
ENDBRANCH  27  30
ENDBRANCH  26  27
ENDBRANCH  25  26
ENDBRANCH  24  25
ENDBRANCH  18  24
ENDBRANCH  14  16
ENDBRANCH   6  14
ENDBRANCH   4   5
ENDBRANCH   3   4
ENDBRANCH   2   3
TORSDOF 11
ENDMDL
MODEL       56
REMARK 921   NORMALIZED FREE ENERGY PREDICTED BY IDOCK:   -5.16 KCAL/MOL
REMARK 922        TOTAL FREE ENERGY PREDICTED BY IDOCK:  -10.62 KCAL/MOL
REMARK 923 INTER-LIGAND FREE ENERGY PREDICTED BY IDOCK:   -9.21 KCAL/MOL
REMARK 924 INTRA-LIGAND FREE ENERGY PREDICTED BY IDOCK:   -1.41 KCAL/MOL
REMARK 927      BINDING AFFINITY PREDICTED BY RF-SCORE:    0.00 PKD
ROOT
HETATM    1  C   UNL     1     -12.993  15.527  71.514  1.00  0.00    -0.545 C  
HETATM    2  C   UNL     1     -12.431  14.145  71.224  1.00  0.00    -0.446 C  
ENDROOT
BRANCH   2   3
HETATM    3  C   UNL     1     -12.133  13.959  69.736  1.00  0.00    -0.404 C  
BRANCH   3   4
HETATM    4  C   UNL     1     -12.039  12.476  69.375  1.00  0.00    -0.237 C  
BRANCH   4   5
HETATM    5  C   UNL     1     -11.679  12.275  67.942  1.00  0.00    -0.347 A  
HETATM    6  C   UNL     1     -10.732  11.501  67.289  1.00  0.00    -0.286 A  
HETATM    7  C   UNL     1     -11.856  12.686  63.432  1.00  0.00    -0.594 A  
HETATM    8  C   UNL     1     -10.994  11.660  65.895  1.00  0.00    -0.334 A  
HETATM    9  C   UNL     1     -11.952  12.666  65.806  1.00  0.00    -0.446 A  
HETATM   10  C   UNL     1     -10.945  11.631  63.471  1.00  0.00    -0.485 A  
HETATM   11  C   UNL     1     -10.514  11.099  64.691  1.00  0.00    -0.400 A  
HETATM   12  C   UNL     1     -12.401  13.212  64.608  1.00  0.00    -0.463 A  
HETATM   13  O   UNL     1     -12.385  13.019  67.046  1.00  0.00    -0.328 OA 
BRANCH   6  14
HETATM   14  C   UNL     1      -9.728  10.704  67.971  1.00  0.00    -0.157 C  
HETATM   15  O   UNL     1      -8.552  11.057  68.016  1.00  0.00    -0.126 OA 
BRANCH  14  16
HETATM   16  C   UNL     1     -10.101   9.396  68.583  1.00  0.00    -0.208 A  
HETATM   17  I   UNL     1     -10.199   5.581  66.637  1.00  0.00    -0.294 I  
HETATM   18  C   UNL     1     -10.795   6.799  69.553  1.00  0.00    -0.273 A  
HETATM   19  C   UNL     1      -9.921   8.262  67.795  1.00  0.00    -0.235 A  
HETATM   20  C   UNL     1     -10.974   7.962  70.339  1.00  0.00    -0.249 A  
HETATM   21  I   UNL     1     -11.645   7.877  72.342  1.00  0.00    -0.391 I  
HETATM   22  C   UNL     1     -10.313   6.986  68.238  1.00  0.00    -0.194 A  
HETATM   23  C   UNL     1     -10.682   9.244  69.843  1.00  0.00    -0.253 A  
BRANCH  18  24
HETATM   24  O   UNL     1     -11.130   5.613  70.184  1.00  0.00    -0.296 OA 
BRANCH  24  25
HETATM   25  C   UNL     1     -10.029   4.760  70.474  1.00  0.00    -0.236 C  
BRANCH  25  26
HETATM   26  C   UNL     1      -9.730   4.508  71.958  1.00  0.00    -0.170 C  
BRANCH  26  27
HETATM   27  N   UNL     1     -10.531   3.362  72.472  1.00  0.00    -0.112 NA 
BRANCH  27  28
HETATM   28  C   UNL     1     -10.152   2.054  71.907  1.00  0.00    -0.133 C  
HETATM   29  C   UNL     1      -8.721   1.604  72.183  1.00  0.00    -0.074 C  
ENDBRANCH  27  28
BRANCH  27  30
HETATM   30  C   UNL     1     -10.598   3.381  73.939  1.00  0.00    -0.197 C  
HETATM   31  C   UNL     1     -10.214   4.723  74.562  1.00  0.00    -0.302 C  
ENDBRANCH  27  30
ENDBRANCH  26  27
ENDBRANCH  25  26
ENDBRANCH  24  25
ENDBRANCH  18  24
ENDBRANCH  14  16
ENDBRANCH   6  14
ENDBRANCH   4   5
ENDBRANCH   3   4
ENDBRANCH   2   3
TORSDOF 11
ENDMDL
MODEL       57
REMARK 921   NORMALIZED FREE ENERGY PREDICTED BY IDOCK:   -5.16 KCAL/MOL
REMARK 922        TOTAL FREE ENERGY PREDICTED BY IDOCK:  -10.62 KCAL/MOL
REMARK 923 INTER-LIGAND FREE ENERGY PREDICTED BY IDOCK:   -8.83 KCAL/MOL
REMARK 924 INTRA-LIGAND FREE ENERGY PREDICTED BY IDOCK:   -1.79 KCAL/MOL
REMARK 927      BINDING AFFINITY PREDICTED BY RF-SCORE:    0.00 PKD
ROOT
HETATM    1  C   UNL     1     -10.816   5.962  72.853  1.00  0.00    -0.293 C  
HETATM    2  C   UNL     1     -10.803   7.443  73.197  1.00  0.00    -0.435 C  
ENDROOT
BRANCH   2   3
HETATM    3  C   UNL     1     -11.525   8.276  72.136  1.00  0.00    -0.427 C  
BRANCH   3   4
HETATM    4  C   UNL     1     -10.567   9.257  71.462  1.00  0.00    -0.405 C  
BRANCH   4   5
HETATM    5  C   UNL     1     -10.331   8.908  70.031  1.00  0.00    -0.204 A  
HETATM    6  C   UNL     1     -10.638   9.526  68.829  1.00  0.00    -0.240 A  
HETATM    7  C   UNL     1      -8.857   6.596  66.423  1.00  0.00    -0.151 A  
HETATM    8  C   UNL     1     -10.015   8.736  67.816  1.00  0.00    -0.243 A  
HETATM    9  C   UNL     1      -9.545   7.598  68.465  1.00  0.00    -0.148 A  
HETATM   10  C   UNL     1      -9.252   7.745  65.738  1.00  0.00    -0.004 A  
HETATM   11  C   UNL     1      -9.820   8.828  66.420  1.00  0.00    -0.352 A  
HETATM   12  C   UNL     1      -8.974   6.509  67.814  1.00  0.00    -0.114 A  
HETATM   13  O   UNL     1      -9.713   7.715  69.809  1.00  0.00    -0.170 OA 
BRANCH   6  14
HETATM   14  C   UNL     1     -11.423  10.743  68.721  1.00  0.00    -0.295 C  
HETATM   15  O   UNL     1     -12.540  10.831  69.223  1.00  0.00    -0.324 OA 
BRANCH  14  16
HETATM   16  C   UNL     1     -10.904  11.901  67.935  1.00  0.00    -0.254 A  
HETATM   17  I   UNL     1      -7.314  14.114  68.682  1.00  0.00    -0.116 I  
HETATM   18  C   UNL     1      -9.748  14.135  66.581  1.00  0.00    -0.288 A  
HETATM   19  C   UNL     1      -9.639  12.373  68.277  1.00  0.00    -0.211 A  
HETATM   20  C   UNL     1     -11.033  13.644  66.249  1.00  0.00    -0.299 A  
HETATM   21  I   UNL     1     -12.159  14.428  64.641  1.00  0.00    -0.331 I  
HETATM   22  C   UNL     1      -9.084  13.507  67.658  1.00  0.00    -0.205 A  
HETATM   23  C   UNL     1     -11.623  12.578  66.950  1.00  0.00    -0.436 A  
BRANCH  18  24
HETATM   24  O   UNL     1      -9.308  15.189  65.799  1.00  0.00    -0.310 OA 
BRANCH  24  25
HETATM   25  C   UNL     1      -9.159  16.424  66.489  1.00  0.00    -0.276 C  
BRANCH  25  26
HETATM   26  C   UNL     1     -10.433  17.255  66.690  1.00  0.00    -0.257 C  
BRANCH  26  27
HETATM   27  N   UNL     1     -10.551  17.710  68.104  1.00  0.00    -0.377 NA 
BRANCH  27  28
HETATM   28  C   UNL     1     -10.486  16.625  69.099  1.00  0.00    -0.333 C  
HETATM   29  C   UNL     1     -11.729  15.746  69.201  1.00  0.00    -0.398 C  
ENDBRANCH  27  28
BRANCH  27  30
HETATM   30  C   UNL     1      -9.635  18.825  68.377  1.00  0.00    -0.365 C  
HETATM   31  C   UNL     1      -9.937  20.090  67.573  1.00  0.00    -0.565 C  
ENDBRANCH  27  30
ENDBRANCH  26  27
ENDBRANCH  25  26
ENDBRANCH  24  25
ENDBRANCH  18  24
ENDBRANCH  14  16
ENDBRANCH   6  14
ENDBRANCH   4   5
ENDBRANCH   3   4
ENDBRANCH   2   3
TORSDOF 11
ENDMDL
MODEL       58
REMARK 921   NORMALIZED FREE ENERGY PREDICTED BY IDOCK:   -5.15 KCAL/MOL
REMARK 922        TOTAL FREE ENERGY PREDICTED BY IDOCK:  -10.61 KCAL/MOL
REMARK 923 INTER-LIGAND FREE ENERGY PREDICTED BY IDOCK:   -8.00 KCAL/MOL
REMARK 924 INTRA-LIGAND FREE ENERGY PREDICTED BY IDOCK:   -2.61 KCAL/MOL
REMARK 927      BINDING AFFINITY PREDICTED BY RF-SCORE:    0.00 PKD
ROOT
HETATM    1  C   UNL     1     -13.267   9.781  71.915  1.00  0.00    -0.545 C  
HETATM    2  C   UNL     1     -12.162  10.612  71.283  1.00  0.00    -0.447 C  
ENDROOT
BRANCH   2   3
HETATM    3  C   UNL     1     -12.518  11.032  69.856  1.00  0.00    -0.286 C  
BRANCH   3   4
HETATM    4  C   UNL     1     -11.729  12.272  69.435  1.00  0.00    -0.392 C  
BRANCH   4   5
HETATM    5  C   UNL     1     -11.379  12.243  67.986  1.00  0.00    -0.293 A  
HETATM    6  C   UNL     1     -10.203  12.020  67.287  1.00  0.00    -0.221 A  
HETATM    7  C   UNL     1     -11.931  12.414  63.491  1.00  0.00    -0.627 A  
HETATM    8  C   UNL     1     -10.569  11.999  65.907  1.00  0.00    -0.302 A  
HETATM    9  C   UNL     1     -11.901  12.401  65.867  1.00  0.00    -0.405 A  
HETATM   10  C   UNL     1     -10.617  11.944  63.483  1.00  0.00    -0.507 A  
HETATM   11  C   UNL     1      -9.928  11.720  64.680  1.00  0.00    -0.275 A  
HETATM   12  C   UNL     1     -12.613  12.630  64.693  1.00  0.00    -0.517 A  
HETATM   13  O   UNL     1     -12.398  12.523  67.127  1.00  0.00    -0.376 OA 
BRANCH   6  14
HETATM   14  C   UNL     1      -8.908  11.835  67.918  1.00  0.00    -0.165 C  
HETATM   15  O   UNL     1      -8.109  12.762  68.024  1.00  0.00    -0.140 OA 
BRANCH  14  16
HETATM   16  C   UNL     1      -8.496  10.484  68.397  1.00  0.00    -0.128 A  
HETATM   17  I   UNL     1      -6.202   7.578  66.244  1.00  0.00    -0.043 I  
HETATM   18  C   UNL     1      -7.623   7.860  69.116  1.00  0.00    -0.098 A  
HETATM   19  C   UNL     1      -7.628   9.766  67.579  1.00  0.00    -0.091 A  
HETATM   20  C   UNL     1      -8.507   8.602  69.933  1.00  0.00    -0.129 A  
HETATM   21  I   UNL     1      -9.159   7.899  71.817  1.00  0.00    -0.252 I  
HETATM   22  C   UNL     1      -7.238   8.452  67.892  1.00  0.00    -0.091 A  
HETATM   23  C   UNL     1      -8.978   9.871  69.555  1.00  0.00    -0.224 A  
BRANCH  18  24
HETATM   24  O   UNL     1      -7.253   6.627  69.626  1.00  0.00    -0.073 OA 
BRANCH  24  25
HETATM   25  C   UNL     1      -7.756   5.508  68.907  1.00  0.00    -0.091 C  
BRANCH  25  26
HETATM   26  C   UNL     1      -9.208   5.104  69.196  1.00  0.00    -0.110 C  
BRANCH  26  27
HETATM   27  N   UNL     1     -10.051   5.251  67.976  1.00  0.00    -0.162 NA 
BRANCH  27  28
HETATM   28  C   UNL     1     -11.032   6.350  68.045  1.00  0.00    -0.311 C  
HETATM   29  C   UNL     1     -10.757   7.540  67.132  1.00  0.00    -0.379 C  
ENDBRANCH  27  28
BRANCH  27  30
HETATM   30  C   UNL     1      -9.224   5.264  66.762  1.00  0.00    -0.126 C  
HETATM   31  C   UNL     1      -9.616   4.206  65.731  1.00  0.00    -0.190 C  
ENDBRANCH  27  30
ENDBRANCH  26  27
ENDBRANCH  25  26
ENDBRANCH  24  25
ENDBRANCH  18  24
ENDBRANCH  14  16
ENDBRANCH   6  14
ENDBRANCH   4   5
ENDBRANCH   3   4
ENDBRANCH   2   3
TORSDOF 11
ENDMDL
MODEL       59
REMARK 921   NORMALIZED FREE ENERGY PREDICTED BY IDOCK:   -5.14 KCAL/MOL
REMARK 922        TOTAL FREE ENERGY PREDICTED BY IDOCK:  -10.59 KCAL/MOL
REMARK 923 INTER-LIGAND FREE ENERGY PREDICTED BY IDOCK:   -9.10 KCAL/MOL
REMARK 924 INTRA-LIGAND FREE ENERGY PREDICTED BY IDOCK:   -1.49 KCAL/MOL
REMARK 927      BINDING AFFINITY PREDICTED BY RF-SCORE:    0.00 PKD
ROOT
HETATM    1  C   UNL     1     -12.315   6.475  71.838  1.00  0.00    -0.339 C  
HETATM    2  C   UNL     1     -13.127   7.640  71.297  1.00  0.00    -0.279 C  
ENDROOT
BRANCH   2   3
HETATM    3  C   UNL     1     -13.069   8.850  72.230  1.00  0.00    -0.491 C  
BRANCH   3   4
HETATM    4  C   UNL     1     -12.630  10.105  71.477  1.00  0.00    -0.537 C  
BRANCH   4   5
HETATM    5  C   UNL     1     -11.253   9.966  70.922  1.00  0.00    -0.360 A  
HETATM    6  C   UNL     1     -10.648  10.368  69.740  1.00  0.00    -0.302 A  
HETATM    7  C   UNL     1      -6.867   8.844  70.704  1.00  0.00    -0.057 A  
HETATM    8  C   UNL     1      -9.266  10.040  69.880  1.00  0.00    -0.195 A  
HETATM    9  C   UNL     1      -9.175   9.293  71.051  1.00  0.00    -0.202 A  
HETATM   10  C   UNL     1      -6.895   9.641  69.559  1.00  0.00    -0.056 A  
HETATM   11  C   UNL     1      -8.082  10.256  69.142  1.00  0.00    -0.138 A  
HETATM   12  C   UNL     1      -8.010   8.673  71.492  1.00  0.00    -0.178 A  
HETATM   13  O   UNL     1     -10.372   9.271  71.694  1.00  0.00    -0.340 OA 
BRANCH   6  14
HETATM   14  C   UNL     1     -11.356  11.006  68.645  1.00  0.00    -0.281 C  
HETATM   15  O   UNL     1     -11.890  10.346  67.757  1.00  0.00    -0.240 OA 
BRANCH  14  16
HETATM   16  C   UNL     1     -11.394  12.494  68.545  1.00  0.00    -0.337 A  
HETATM   17  I   UNL     1     -12.686  15.242  71.565  1.00  0.00    -0.616 I  
HETATM   18  C   UNL     1     -11.562  15.346  68.554  1.00  0.00    -0.359 A  
HETATM   19  C   UNL     1     -11.715  13.191  69.707  1.00  0.00    -0.350 A  
HETATM   20  C   UNL     1     -11.241  14.621  67.382  1.00  0.00    -0.342 A  
HETATM   21  I   UNL     1     -10.727  15.578  65.569  1.00  0.00    -0.378 I  
HETATM   22  C   UNL     1     -11.859  14.590  69.710  1.00  0.00    -0.315 A  
HETATM   23  C   UNL     1     -11.209  13.216  67.365  1.00  0.00    -0.319 A  
BRANCH  18  24
HETATM   24  O   UNL     1     -11.553  16.723  68.408  1.00  0.00    -0.097 OA 
BRANCH  24  25
HETATM   25  C   UNL     1     -10.480  17.386  69.065  1.00  0.00    -0.285 C  
BRANCH  25  26
HETATM   26  C   UNL     1      -9.784  18.507  68.281  1.00  0.00    -0.356 C  
BRANCH  26  27
HETATM   27  N   UNL     1      -8.305  18.332  68.306  1.00  0.00    -0.294 NA 
BRANCH  27  28
HETATM   28  C   UNL     1      -7.720  17.921  67.017  1.00  0.00    -0.211 C  
HETATM   29  C   UNL     1      -7.222  16.481  66.945  1.00  0.00    -0.263 C  
ENDBRANCH  27  28
BRANCH  27  30
HETATM   30  C   UNL     1      -7.647  19.494  68.917  1.00  0.00    -0.348 C  
HETATM   31  C   UNL     1      -6.421  19.143  69.760  1.00  0.00    -0.235 C  
ENDBRANCH  27  30
ENDBRANCH  26  27
ENDBRANCH  25  26
ENDBRANCH  24  25
ENDBRANCH  18  24
ENDBRANCH  14  16
ENDBRANCH   6  14
ENDBRANCH   4   5
ENDBRANCH   3   4
ENDBRANCH   2   3
TORSDOF 11
ENDMDL
MODEL       60
REMARK 921   NORMALIZED FREE ENERGY PREDICTED BY IDOCK:   -5.14 KCAL/MOL
REMARK 922        TOTAL FREE ENERGY PREDICTED BY IDOCK:  -10.59 KCAL/MOL
REMARK 923 INTER-LIGAND FREE ENERGY PREDICTED BY IDOCK:   -8.34 KCAL/MOL
REMARK 924 INTRA-LIGAND FREE ENERGY PREDICTED BY IDOCK:   -2.25 KCAL/MOL
REMARK 927      BINDING AFFINITY PREDICTED BY RF-SCORE:    0.00 PKD
ROOT
HETATM    1  C   UNL     1      -9.624  10.549  64.887  1.00  0.00    -0.334 C  
HETATM    2  C   UNL     1      -9.062   9.191  65.275  1.00  0.00    -0.252 C  
ENDROOT
BRANCH   2   3
HETATM    3  C   UNL     1      -9.848   8.563  66.427  1.00  0.00    -0.327 C  
BRANCH   3   4
HETATM    4  C   UNL     1      -9.190   8.868  67.772  1.00  0.00    -0.153 C  
BRANCH   4   5
HETATM    5  C   UNL     1     -10.199   9.154  68.832  1.00  0.00    -0.207 A  
HETATM    6  C   UNL     1     -11.117  10.174  69.033  1.00  0.00    -0.249 A  
HETATM    7  C   UNL     1     -12.685   8.587  72.579  1.00  0.00    -0.329 A  
HETATM    8  C   UNL     1     -11.880   9.789  70.176  1.00  0.00    -0.141 A  
HETATM    9  C   UNL     1     -11.241   8.665  70.693  1.00  0.00    -0.252 A  
HETATM   10  C   UNL     1     -13.398   9.670  72.064  1.00  0.00    -0.547 A  
HETATM   11  C   UNL     1     -13.017  10.273  70.860  1.00  0.00    -0.456 A  
HETATM   12  C   UNL     1     -11.598   8.043  71.885  1.00  0.00    -0.348 A  
HETATM   13  O   UNL     1     -10.240   8.267  69.864  1.00  0.00    -0.193 OA 
BRANCH   6  14
HETATM   14  C   UNL     1     -11.221  11.348  68.185  1.00  0.00    -0.278 C  
HETATM   15  O   UNL     1     -11.982  11.377  67.222  1.00  0.00    -0.580 OA 
BRANCH  14  16
HETATM   16  C   UNL     1     -10.349  12.532  68.438  1.00  0.00    -0.237 A  
HETATM   17  I   UNL     1     -11.557  16.328  70.011  1.00  0.00     0.312 I  
HETATM   18  C   UNL     1      -8.861  14.911  68.976  1.00  0.00    -0.179 A  
HETATM   19  C   UNL     1     -10.935  13.614  69.090  1.00  0.00    -0.235 A  
HETATM   20  C   UNL     1      -8.283  13.804  68.312  1.00  0.00    -0.156 A  
HETATM   21  I   UNL     1      -6.240  13.753  67.774  1.00  0.00     0.046 I  
HETATM   22  C   UNL     1     -10.231  14.811  69.309  1.00  0.00    -0.185 A  
HETATM   23  C   UNL     1      -9.030  12.654  68.000  1.00  0.00    -0.200 A  
BRANCH  18  24
HETATM   24  O   UNL     1      -7.997  15.967  69.209  1.00  0.00    -0.230 OA 
BRANCH  24  25
HETATM   25  C   UNL     1      -8.305  17.159  68.497  1.00  0.00    -0.262 C  
BRANCH  25  26
HETATM   26  C   UNL     1      -7.918  17.189  67.012  1.00  0.00    -0.201 C  
BRANCH  26  27
HETATM   27  N   UNL     1      -9.013  17.780  66.192  1.00  0.00    -0.491 NA 
BRANCH  27  28
HETATM   28  C   UNL     1     -10.282  17.031  66.244  1.00  0.00    -0.329 C  
HETATM   29  C   UNL     1     -10.239  15.617  65.674  1.00  0.00    -0.402 C  
ENDBRANCH  27  28
BRANCH  27  30
HETATM   30  C   UNL     1      -9.157  19.217  66.461  1.00  0.00    -0.341 C  
HETATM   31  C   UNL     1     -10.544  19.621  66.961  1.00  0.00    -0.602 C  
ENDBRANCH  27  30
ENDBRANCH  26  27
ENDBRANCH  25  26
ENDBRANCH  24  25
ENDBRANCH  18  24
ENDBRANCH  14  16
ENDBRANCH   6  14
ENDBRANCH   4   5
ENDBRANCH   3   4
ENDBRANCH   2   3
TORSDOF 11
ENDMDL
MODEL       61
REMARK 921   NORMALIZED FREE ENERGY PREDICTED BY IDOCK:   -5.14 KCAL/MOL
REMARK 922        TOTAL FREE ENERGY PREDICTED BY IDOCK:  -10.59 KCAL/MOL
REMARK 923 INTER-LIGAND FREE ENERGY PREDICTED BY IDOCK:   -8.48 KCAL/MOL
REMARK 924 INTRA-LIGAND FREE ENERGY PREDICTED BY IDOCK:   -2.11 KCAL/MOL
REMARK 927      BINDING AFFINITY PREDICTED BY RF-SCORE:    0.00 PKD
ROOT
HETATM    1  C   UNL     1     -14.163   7.349  71.604  1.00  0.00    -0.583 C  
HETATM    2  C   UNL     1     -12.684   7.602  71.847  1.00  0.00    -0.320 C  
ENDROOT
BRANCH   2   3
HETATM    3  C   UNL     1     -12.388   9.092  72.027  1.00  0.00    -0.455 C  
BRANCH   3   4
HETATM    4  C   UNL     1     -13.385   9.948  71.247  1.00  0.00    -0.419 C  
BRANCH   4   5
HETATM    5  C   UNL     1     -12.906  11.351  71.088  1.00  0.00    -0.341 A  
HETATM    6  C   UNL     1     -12.197  12.018  70.100  1.00  0.00    -0.309 A  
HETATM    7  C   UNL     1     -12.252  15.737  72.027  1.00  0.00    -0.548 A  
HETATM    8  C   UNL     1     -12.176  13.390  70.494  1.00  0.00    -0.425 A  
HETATM    9  C   UNL     1     -12.704  13.416  71.782  1.00  0.00    -0.223 A  
HETATM   10  C   UNL     1     -11.777  15.771  70.716  1.00  0.00    -0.430 A  
HETATM   11  C   UNL     1     -11.744  14.611  69.933  1.00  0.00    -0.349 A  
HETATM   12  C   UNL     1     -12.753  14.554  72.582  1.00  0.00    -0.444 A  
HETATM   13  O   UNL     1     -13.169  12.187  72.130  1.00  0.00    -0.499 OA 
BRANCH   6  14
HETATM   14  C   UNL     1     -11.643  11.370  68.924  1.00  0.00    -0.323 C  
HETATM   15  O   UNL     1     -12.148  11.517  67.814  1.00  0.00    -0.626 OA 
BRANCH  14  16
HETATM   16  C   UNL     1     -10.473  10.454  69.057  1.00  0.00    -0.240 A  
HETATM   17  I   UNL     1     -10.547   6.172  69.079  1.00  0.00    -0.418 I  
HETATM   18  C   UNL     1      -8.374   8.532  69.314  1.00  0.00    -0.120 A  
HETATM   19  C   UNL     1     -10.720   9.094  68.892  1.00  0.00    -0.167 A  
HETATM   20  C   UNL     1      -8.142   9.917  69.481  1.00  0.00    -0.152 A  
HETATM   21  I   UNL     1      -6.207  10.704  69.805  1.00  0.00    -0.130 I  
HETATM   22  C   UNL     1      -9.709   8.134  69.074  1.00  0.00    -0.163 A  
HETATM   23  C   UNL     1      -9.183  10.858  69.407  1.00  0.00     0.087 A  
BRANCH  18  24
HETATM   24  O   UNL     1      -7.247   7.735  69.419  1.00  0.00    -0.076 OA 
BRANCH  24  25
HETATM   25  C   UNL     1      -7.055   6.827  68.341  1.00  0.00    -0.083 C  
BRANCH  25  26
HETATM   26  C   UNL     1      -6.712   7.445  66.978  1.00  0.00    -0.069 C  
BRANCH  26  27
HETATM   27  N   UNL     1      -7.352   6.678  65.873  1.00  0.00    -0.077 NA 
BRANCH  27  28
HETATM   28  C   UNL     1      -8.077   5.472  66.311  1.00  0.00    -0.106 C  
HETATM   29  C   UNL     1      -9.053   4.882  65.299  1.00  0.00    -0.154 C  
ENDBRANCH  27  28
BRANCH  27  30
HETATM   30  C   UNL     1      -8.137   7.564  65.003  1.00  0.00    -0.127 C  
HETATM   31  C   UNL     1      -8.603   8.851  65.683  1.00  0.00    -0.188 C  
ENDBRANCH  27  30
ENDBRANCH  26  27
ENDBRANCH  25  26
ENDBRANCH  24  25
ENDBRANCH  18  24
ENDBRANCH  14  16
ENDBRANCH   6  14
ENDBRANCH   4   5
ENDBRANCH   3   4
ENDBRANCH   2   3
TORSDOF 11
ENDMDL
MODEL       62
REMARK 921   NORMALIZED FREE ENERGY PREDICTED BY IDOCK:   -5.12 KCAL/MOL
REMARK 922        TOTAL FREE ENERGY PREDICTED BY IDOCK:  -10.57 KCAL/MOL
REMARK 923 INTER-LIGAND FREE ENERGY PREDICTED BY IDOCK:   -9.01 KCAL/MOL
REMARK 924 INTRA-LIGAND FREE ENERGY PREDICTED BY IDOCK:   -1.55 KCAL/MOL
REMARK 927      BINDING AFFINITY PREDICTED BY RF-SCORE:    0.00 PKD
ROOT
HETATM    1  C   UNL     1     -11.929  15.594  71.772  1.00  0.00    -0.518 C  
HETATM    2  C   UNL     1     -12.458  14.267  71.252  1.00  0.00    -0.439 C  
ENDROOT
BRANCH   2   3
HETATM    3  C   UNL     1     -12.103  14.057  69.779  1.00  0.00    -0.405 C  
BRANCH   3   4
HETATM    4  C   UNL     1     -11.865  12.578  69.476  1.00  0.00    -0.375 C  
BRANCH   4   5
HETATM    5  C   UNL     1     -11.471  12.359  68.054  1.00  0.00    -0.322 A  
HETATM    6  C   UNL     1     -10.318  11.898  67.438  1.00  0.00    -0.228 A  
HETATM    7  C   UNL     1     -11.825  12.181  63.539  1.00  0.00    -0.597 A  
HETATM    8  C   UNL     1     -10.633  11.800  66.049  1.00  0.00    -0.302 A  
HETATM    9  C   UNL     1     -11.885  12.391  65.906  1.00  0.00    -0.405 A  
HETATM   10  C   UNL     1     -10.599  11.523  63.640  1.00  0.00    -0.491 A  
HETATM   11  C   UNL     1      -9.997  11.313  64.886  1.00  0.00    -0.323 A  
HETATM   12  C   UNL     1     -12.510  12.610  64.682  1.00  0.00    -0.538 A  
HETATM   13  O   UNL     1     -12.403  12.705  67.123  1.00  0.00    -0.370 OA 
BRANCH   6  14
HETATM   14  C   UNL     1      -9.091  11.583  68.147  1.00  0.00    -0.181 C  
HETATM   15  O   UNL     1      -8.200  12.418  68.288  1.00  0.00    -0.162 OA 
BRANCH  14  16
HETATM   16  C   UNL     1      -8.862  10.205  68.670  1.00  0.00    -0.136 A  
HETATM   17  I   UNL     1     -10.661   6.585  67.254  1.00  0.00    -0.490 I  
HETATM   18  C   UNL     1      -8.578   7.495  69.531  1.00  0.00    -0.133 A  
HETATM   19  C   UNL     1      -9.446   9.160  67.959  1.00  0.00    -0.157 A  
HETATM   20  C   UNL     1      -7.994   8.569  70.242  1.00  0.00    -0.103 A  
HETATM   21  I   UNL     1      -6.753   8.263  71.926  1.00  0.00    -0.094 I  
HETATM   22  C   UNL     1      -9.364   7.829  68.404  1.00  0.00    -0.143 A  
HETATM   23  C   UNL     1      -8.177   9.906  69.849  1.00  0.00    -0.199 A  
BRANCH  18  24
HETATM   24  O   UNL     1      -8.307   6.239  70.045  1.00  0.00    -0.125 OA 
BRANCH  24  25
HETATM   25  C   UNL     1      -9.408   5.605  70.685  1.00  0.00    -0.159 C  
BRANCH  25  26
HETATM   26  C   UNL     1      -9.400   5.603  72.219  1.00  0.00    -0.145 C  
BRANCH  26  27
HETATM   27  N   UNL     1     -10.728   6.013  72.756  1.00  0.00    -0.224 NA 
BRANCH  27  28
HETATM   28  C   UNL     1     -11.484   6.922  71.875  1.00  0.00    -0.272 C  
HETATM   29  C   UNL     1     -11.293   8.411  72.143  1.00  0.00    -0.437 C  
ENDBRANCH  27  28
BRANCH  27  30
HETATM   30  C   UNL     1     -11.497   4.846  73.209  1.00  0.00    -0.274 C  
HETATM   31  C   UNL     1     -10.705   3.538  73.201  1.00  0.00    -0.267 C  
ENDBRANCH  27  30
ENDBRANCH  26  27
ENDBRANCH  25  26
ENDBRANCH  24  25
ENDBRANCH  18  24
ENDBRANCH  14  16
ENDBRANCH   6  14
ENDBRANCH   4   5
ENDBRANCH   3   4
ENDBRANCH   2   3
TORSDOF 11
ENDMDL
MODEL       63
REMARK 921   NORMALIZED FREE ENERGY PREDICTED BY IDOCK:   -5.11 KCAL/MOL
REMARK 922        TOTAL FREE ENERGY PREDICTED BY IDOCK:  -10.55 KCAL/MOL
REMARK 923 INTER-LIGAND FREE ENERGY PREDICTED BY IDOCK:   -9.32 KCAL/MOL
REMARK 924 INTRA-LIGAND FREE ENERGY PREDICTED BY IDOCK:   -1.23 KCAL/MOL
REMARK 927      BINDING AFFINITY PREDICTED BY RF-SCORE:    0.00 PKD
ROOT
HETATM    1  C   UNL     1     -10.575   7.110  73.537  1.00  0.00    -0.416 C  
HETATM    2  C   UNL     1     -10.916   6.166  72.395  1.00  0.00    -0.299 C  
ENDROOT
BRANCH   2   3
HETATM    3  C   UNL     1     -12.163   6.624  71.637  1.00  0.00    -0.401 C  
BRANCH   3   4
HETATM    4  C   UNL     1     -11.895   6.703  70.134  1.00  0.00    -0.347 C  
BRANCH   4   5
HETATM    5  C   UNL     1     -10.697   7.536  69.827  1.00  0.00    -0.242 A  
HETATM    6  C   UNL     1     -10.422   8.892  69.916  1.00  0.00    -0.223 A  
HETATM    7  C   UNL     1      -6.471   8.575  68.560  1.00  0.00    -0.055 A  
HETATM    8  C   UNL     1      -9.038   9.030  69.592  1.00  0.00    -0.155 A  
HETATM    9  C   UNL     1      -8.632   7.776  69.145  1.00  0.00    -0.138 A  
HETATM   10  C   UNL     1      -6.813   9.832  69.059  1.00  0.00    -0.050 A  
HETATM   11  C   UNL     1      -8.085  10.072  69.589  1.00  0.00    -0.180 A  
HETATM   12  C   UNL     1      -7.373   7.507  68.616  1.00  0.00    -0.095 A  
HETATM   13  O   UNL     1      -9.628   6.867  69.312  1.00  0.00    -0.150 OA 
BRANCH   6  14
HETATM   14  C   UNL     1     -11.403   9.895  70.292  1.00  0.00    -0.291 C  
HETATM   15  O   UNL     1     -12.174   9.715  71.232  1.00  0.00    -0.316 OA 
BRANCH  14  16
HETATM   16  C   UNL     1     -11.535  11.148  69.495  1.00  0.00    -0.374 A  
HETATM   17  I   UNL     1     -12.701  15.007  70.942  1.00  0.00    -0.509 I  
HETATM   18  C   UNL     1     -11.863  13.648  68.150  1.00  0.00    -0.372 A  
HETATM   19  C   UNL     1     -11.788  12.319  70.205  1.00  0.00    -0.352 A  
HETATM   20  C   UNL     1     -11.608  12.449  67.444  1.00  0.00    -0.365 A  
HETATM   21  I   UNL     1     -11.317  12.413  65.351  1.00  0.00    -0.406 I  
HETATM   22  C   UNL     1     -12.010  13.544  69.551  1.00  0.00    -0.334 A  
HETATM   23  C   UNL     1     -11.499  11.211  68.101  1.00  0.00    -0.373 A  
BRANCH  18  24
HETATM   24  O   UNL     1     -11.945  14.782  67.360  1.00  0.00    -0.357 OA 
BRANCH  24  25
HETATM   25  C   UNL     1     -10.883  15.712  67.538  1.00  0.00    -0.316 C  
BRANCH  25  26
HETATM   26  C   UNL     1      -9.858  15.805  66.400  1.00  0.00    -0.276 C  
BRANCH  26  27
HETATM   27  N   UNL     1      -9.499  17.225  66.125  1.00  0.00    -0.448 NA 
BRANCH  27  28
HETATM   28  C   UNL     1     -10.374  18.210  66.787  1.00  0.00    -0.365 C  
HETATM   29  C   UNL     1     -10.328  19.624  66.217  1.00  0.00    -0.619 C  
ENDBRANCH  27  28
BRANCH  27  30
HETATM   30  C   UNL     1      -8.066  17.459  66.342  1.00  0.00    -0.280 C  
HETATM   31  C   UNL     1      -7.720  17.942  67.751  1.00  0.00    -0.220 C  
ENDBRANCH  27  30
ENDBRANCH  26  27
ENDBRANCH  25  26
ENDBRANCH  24  25
ENDBRANCH  18  24
ENDBRANCH  14  16
ENDBRANCH   6  14
ENDBRANCH   4   5
ENDBRANCH   3   4
ENDBRANCH   2   3
TORSDOF 11
ENDMDL
MODEL       64
REMARK 921   NORMALIZED FREE ENERGY PREDICTED BY IDOCK:   -5.10 KCAL/MOL
REMARK 922        TOTAL FREE ENERGY PREDICTED BY IDOCK:  -10.53 KCAL/MOL
REMARK 923 INTER-LIGAND FREE ENERGY PREDICTED BY IDOCK:   -9.11 KCAL/MOL
REMARK 924 INTRA-LIGAND FREE ENERGY PREDICTED BY IDOCK:   -1.42 KCAL/MOL
REMARK 927      BINDING AFFINITY PREDICTED BY RF-SCORE:    0.00 PKD
ROOT
HETATM    1  C   UNL     1     -13.752   7.222  71.583  1.00  0.00    -0.446 C  
HETATM    2  C   UNL     1     -14.409   8.576  71.795  1.00  0.00    -0.522 C  
ENDROOT
BRANCH   2   3
HETATM    3  C   UNL     1     -13.373   9.677  72.024  1.00  0.00    -0.547 C  
BRANCH   3   4
HETATM    4  C   UNL     1     -12.654  10.034  70.723  1.00  0.00    -0.372 C  
BRANCH   4   5
HETATM    5  C   UNL     1     -11.235   9.574  70.728  1.00  0.00    -0.317 A  
HETATM    6  C   UNL     1     -10.263   9.448  69.748  1.00  0.00    -0.238 A  
HETATM    7  C   UNL     1      -7.278   8.062  72.340  1.00  0.00    -0.109 A  
HETATM    8  C   UNL     1      -9.067   9.073  70.432  1.00  0.00    -0.242 A  
HETATM    9  C   UNL     1      -9.453   8.814  71.744  1.00  0.00    -0.293 A  
HETATM   10  C   UNL     1      -6.831   8.371  71.055  1.00  0.00    -0.050 A  
HETATM   11  C   UNL     1      -7.709   8.889  70.095  1.00  0.00    -0.084 A  
HETATM   12  C   UNL     1      -8.603   8.302  72.720  1.00  0.00    -0.270 A  
HETATM   13  O   UNL     1     -10.759   9.142  71.929  1.00  0.00    -0.357 OA 
BRANCH   6  14
HETATM   14  C   UNL     1     -10.501   9.690  68.336  1.00  0.00    -0.223 C  
HETATM   15  O   UNL     1     -10.796   8.777  67.570  1.00  0.00    -0.206 OA 
BRANCH  14  16
HETATM   16  C   UNL     1     -10.327  11.061  67.773  1.00  0.00    -0.218 A  
HETATM   17  I   UNL     1      -7.112  13.778  68.565  1.00  0.00    -0.132 I  
HETATM   18  C   UNL     1      -9.817  13.708  66.826  1.00  0.00    -0.271 A  
HETATM   19  C   UNL     1      -9.128  11.708  68.059  1.00  0.00    -0.177 A  
HETATM   20  C   UNL     1     -11.031  13.037  66.548  1.00  0.00    -0.285 A  
HETATM   21  I   UNL     1     -12.520  13.871  65.302  1.00  0.00    -0.401 I  
HETATM   22  C   UNL     1      -8.888  13.032  67.649  1.00  0.00    -0.191 A  
HETATM   23  C   UNL     1     -11.303  11.756  67.057  1.00  0.00    -0.387 A  
BRANCH  18  24
HETATM   24  O   UNL     1      -9.701  14.963  66.253  1.00  0.00    -0.262 OA 
BRANCH  24  25
HETATM   25  C   UNL     1     -10.030  16.046  67.115  1.00  0.00    -0.249 C  
BRANCH  25  26
HETATM   26  C   UNL     1      -9.275  17.361  66.881  1.00  0.00    -0.256 C  
BRANCH  26  27
HETATM   27  N   UNL     1      -9.653  18.378  67.903  1.00  0.00    -0.285 NA 
BRANCH  27  28
HETATM   28  C   UNL     1      -8.508  19.008  68.584  1.00  0.00    -0.359 C  
HETATM   29  C   UNL     1      -7.274  18.128  68.755  1.00  0.00    -0.287 C  
ENDBRANCH  27  28
BRANCH  27  30
HETATM   30  C   UNL     1     -10.625  19.335  67.360  1.00  0.00    -0.487 C  
HETATM   31  C   UNL     1     -10.490  19.574  65.856  1.00  0.00    -0.585 C  
ENDBRANCH  27  30
ENDBRANCH  26  27
ENDBRANCH  25  26
ENDBRANCH  24  25
ENDBRANCH  18  24
ENDBRANCH  14  16
ENDBRANCH   6  14
ENDBRANCH   4   5
ENDBRANCH   3   4
ENDBRANCH   2   3
TORSDOF 11
ENDMDL
MODEL       65
REMARK 921   NORMALIZED FREE ENERGY PREDICTED BY IDOCK:   -5.09 KCAL/MOL
REMARK 922        TOTAL FREE ENERGY PREDICTED BY IDOCK:  -10.52 KCAL/MOL
REMARK 923 INTER-LIGAND FREE ENERGY PREDICTED BY IDOCK:   -9.12 KCAL/MOL
REMARK 924 INTRA-LIGAND FREE ENERGY PREDICTED BY IDOCK:   -1.40 KCAL/MOL
REMARK 927      BINDING AFFINITY PREDICTED BY RF-SCORE:    0.00 PKD
ROOT
HETATM    1  C   UNL     1     -10.162  16.784  66.440  1.00  0.00    -0.329 C  
HETATM    2  C   UNL     1     -10.153  15.512  65.606  1.00  0.00    -0.406 C  
ENDROOT
BRANCH   2   3
HETATM    3  C   UNL     1     -10.994  14.409  66.250  1.00  0.00    -0.318 C  
BRANCH   3   4
HETATM    4  C   UNL     1     -10.261  13.777  67.432  1.00  0.00    -0.252 C  
BRANCH   4   5
HETATM    5  C   UNL     1     -11.125  13.701  68.645  1.00  0.00    -0.272 A  
HETATM    6  C   UNL     1     -11.732  12.657  69.327  1.00  0.00    -0.379 A  
HETATM    7  C   UNL     1     -13.436  15.076  72.293  1.00  0.00    -0.521 A  
HETATM    8  C   UNL     1     -12.316  13.242  70.492  1.00  0.00    -0.389 A  
HETATM    9  C   UNL     1     -12.183  14.618  70.326  1.00  0.00    -0.331 A  
HETATM   10  C   UNL     1     -13.536  13.705  72.535  1.00  0.00    -0.675 A  
HETATM   11  C   UNL     1     -12.971  12.777  71.653  1.00  0.00    -0.402 A  
HETATM   12  C   UNL     1     -12.731  15.563  71.188  1.00  0.00    -0.525 A  
HETATM   13  O   UNL     1     -11.439  14.893  69.222  1.00  0.00    -0.269 OA 
BRANCH   6  14
HETATM   14  C   UNL     1     -11.709  11.276  68.881  1.00  0.00    -0.341 C  
HETATM   15  O   UNL     1     -11.967  10.974  67.718  1.00  0.00    -0.609 OA 
BRANCH  14  16
HETATM   16  C   UNL     1     -11.429  10.181  69.854  1.00  0.00    -0.317 A  
HETATM   17  I   UNL     1     -14.308   7.754  71.895  1.00  0.00    -0.470 I  
HETATM   18  C   UNL     1     -11.111   8.066  71.750  1.00  0.00    -0.260 A  
HETATM   19  C   UNL     1     -12.520   9.430  70.283  1.00  0.00     0.327 A  
HETATM   20  C   UNL     1     -10.014   8.841  71.305  1.00  0.00    -0.263 A  
HETATM   21  I   UNL     1      -8.027   8.426  71.896  1.00  0.00    -0.113 I  
HETATM   22  C   UNL     1     -12.386   8.426  71.259  1.00  0.00    -0.266 A  
HETATM   23  C   UNL     1     -10.178   9.915  70.413  1.00  0.00    -0.299 A  
BRANCH  18  24
HETATM   24  O   UNL     1     -10.786   7.046  72.628  1.00  0.00    -0.229 OA 
BRANCH  24  25
HETATM   25  C   UNL     1     -11.038   5.734  72.139  1.00  0.00    -0.271 C  
BRANCH  25  26
HETATM   26  C   UNL     1     -11.196   4.630  73.193  1.00  0.00    -0.281 C  
BRANCH  26  27
HETATM   27  N   UNL     1     -10.061   3.667  73.125  1.00  0.00    -0.140 NA 
BRANCH  27  28
HETATM   28  C   UNL     1     -10.247   2.579  72.148  1.00  0.00    -0.100 C  
HETATM   29  C   UNL     1      -9.535   2.761  70.812  1.00  0.00    -0.219 C  
ENDBRANCH  27  28
BRANCH  27  30
HETATM   30  C   UNL     1      -8.779   4.371  72.998  1.00  0.00    -0.104 C  
HETATM   31  C   UNL     1      -8.135   4.739  74.334  1.00  0.00    -0.095 C  
ENDBRANCH  27  30
ENDBRANCH  26  27
ENDBRANCH  25  26
ENDBRANCH  24  25
ENDBRANCH  18  24
ENDBRANCH  14  16
ENDBRANCH   6  14
ENDBRANCH   4   5
ENDBRANCH   3   4
ENDBRANCH   2   3
TORSDOF 11
ENDMDL
MODEL       66
REMARK 921   NORMALIZED FREE ENERGY PREDICTED BY IDOCK:   -5.09 KCAL/MOL
REMARK 922        TOTAL FREE ENERGY PREDICTED BY IDOCK:  -10.52 KCAL/MOL
REMARK 923 INTER-LIGAND FREE ENERGY PREDICTED BY IDOCK:   -9.36 KCAL/MOL
REMARK 924 INTRA-LIGAND FREE ENERGY PREDICTED BY IDOCK:   -1.16 KCAL/MOL
REMARK 927      BINDING AFFINITY PREDICTED BY RF-SCORE:    0.00 PKD
ROOT
HETATM    1  C   UNL     1      -9.657   3.118  70.965  1.00  0.00    -0.228 C  
HETATM    2  C   UNL     1      -9.313   4.348  70.140  1.00  0.00    -0.225 C  
ENDROOT
BRANCH   2   3
HETATM    3  C   UNL     1     -10.302   5.488  70.386  1.00  0.00    -0.346 C  
BRANCH   3   4
HETATM    4  C   UNL     1     -10.317   6.467  69.213  1.00  0.00    -0.237 C  
BRANCH   4   5
HETATM    5  C   UNL     1     -10.807   7.815  69.620  1.00  0.00    -0.184 A  
HETATM    6  C   UNL     1     -10.570   9.102  69.162  1.00  0.00    -0.224 A  
HETATM    7  C   UNL     1     -13.146  10.964  71.890  1.00  0.00    -0.537 A  
HETATM    8  C   UNL     1     -11.454   9.946  69.899  1.00  0.00    -0.234 A  
HETATM    9  C   UNL     1     -12.018   9.133  70.878  1.00  0.00    -0.242 A  
HETATM   10  C   UNL     1     -12.659  11.804  70.887  1.00  0.00    -0.384 A  
HETATM   11  C   UNL     1     -11.824  11.309  69.879  1.00  0.00    -0.436 A  
HETATM   12  C   UNL     1     -12.853   9.596  71.891  1.00  0.00    -0.515 A  
HETATM   13  O   UNL     1     -11.646   7.839  70.693  1.00  0.00    -0.281 OA 
BRANCH   6  14
HETATM   14  C   UNL     1      -9.610   9.427  68.121  1.00  0.00    -0.142 C  
HETATM   15  O   UNL     1      -8.640   8.708  67.898  1.00  0.00    -0.135 OA 
BRANCH  14  16
HETATM   16  C   UNL     1      -9.755  10.689  67.339  1.00  0.00    -0.192 A  
HETATM   17  I   UNL     1      -7.760  14.409  68.065  1.00  0.00    -0.211 I  
HETATM   18  C   UNL     1      -9.900  13.203  65.988  1.00  0.00    -0.260 A  
HETATM   19  C   UNL     1      -8.896  11.734  67.671  1.00  0.00    -0.162 A  
HETATM   20  C   UNL     1     -10.766  12.132  65.666  1.00  0.00    -0.275 A  
HETATM   21  I   UNL     1     -12.154  12.243  64.076  1.00  0.00    -0.569 I  
HETATM   22  C   UNL     1      -8.997  12.994  67.055  1.00  0.00    -0.225 A  
HETATM   23  C   UNL     1     -10.730  10.913  66.366  1.00  0.00    -0.257 A  
BRANCH  18  24
HETATM   24  O   UNL     1     -10.061  14.336  65.210  1.00  0.00    -0.364 OA 
BRANCH  24  25
HETATM   25  C   UNL     1     -10.823  15.373  65.815  1.00  0.00    -0.343 C  
BRANCH  25  26
HETATM   26  C   UNL     1     -10.119  16.725  65.993  1.00  0.00    -0.332 C  
BRANCH  26  27
HETATM   27  N   UNL     1     -10.405  17.297  67.339  1.00  0.00    -0.330 NA 
BRANCH  27  28
HETATM   28  C   UNL     1     -10.893  18.688  67.316  1.00  0.00    -0.310 C  
HETATM   29  C   UNL     1     -10.157  19.663  68.228  1.00  0.00    -0.560 C  
ENDBRANCH  27  28
BRANCH  27  30
HETATM   30  C   UNL     1     -11.237  16.385  68.134  1.00  0.00    -0.273 C  
HETATM   31  C   UNL     1     -10.820  16.281  69.601  1.00  0.00    -0.345 C  
ENDBRANCH  27  30
ENDBRANCH  26  27
ENDBRANCH  25  26
ENDBRANCH  24  25
ENDBRANCH  18  24
ENDBRANCH  14  16
ENDBRANCH   6  14
ENDBRANCH   4   5
ENDBRANCH   3   4
ENDBRANCH   2   3
TORSDOF 11
ENDMDL
MODEL       67
REMARK 921   NORMALIZED FREE ENERGY PREDICTED BY IDOCK:   -5.08 KCAL/MOL
REMARK 922        TOTAL FREE ENERGY PREDICTED BY IDOCK:  -10.49 KCAL/MOL
REMARK 923 INTER-LIGAND FREE ENERGY PREDICTED BY IDOCK:   -8.90 KCAL/MOL
REMARK 924 INTRA-LIGAND FREE ENERGY PREDICTED BY IDOCK:   -1.59 KCAL/MOL
REMARK 927      BINDING AFFINITY PREDICTED BY RF-SCORE:    0.00 PKD
ROOT
HETATM    1  C   UNL     1     -12.348  12.874  63.390  1.00  0.00    -0.498 C  
HETATM    2  C   UNL     1     -11.275  12.287  64.293  1.00  0.00    -0.409 C  
ENDROOT
BRANCH   2   3
HETATM    3  C   UNL     1     -11.735  12.225  65.750  1.00  0.00    -0.445 C  
BRANCH   3   4
HETATM    4  C   UNL     1     -12.536  13.471  66.128  1.00  0.00    -0.424 C  
BRANCH   4   5
HETATM    5  C   UNL     1     -11.679  14.507  66.772  1.00  0.00    -0.377 A  
HETATM    6  C   UNL     1     -11.363  14.810  68.088  1.00  0.00    -0.324 A  
HETATM    7  C   UNL     1      -8.805  17.992  67.150  1.00  0.00    -0.249 A  
HETATM    8  C   UNL     1     -10.378  15.841  68.024  1.00  0.00    -0.252 A  
HETATM    9  C   UNL     1     -10.316  16.217  66.685  1.00  0.00    -0.296 A  
HETATM   10  C   UNL     1      -8.784  17.608  68.491  1.00  0.00    -0.285 A  
HETATM   11  C   UNL     1      -9.554  16.529  68.941  1.00  0.00    -0.261 A  
HETATM   12  C   UNL     1      -9.558  17.282  66.208  1.00  0.00    -0.268 A  
HETATM   13  O   UNL     1     -11.083  15.392  65.925  1.00  0.00    -0.321 OA 
BRANCH   6  14
HETATM   14  C   UNL     1     -11.952  14.143  69.236  1.00  0.00    -0.340 C  
HETATM   15  O   UNL     1     -12.674  14.746  70.026  1.00  0.00    -0.268 OA 
BRANCH  14  16
HETATM   16  C   UNL     1     -11.637  12.711  69.511  1.00  0.00    -0.348 A  
HETATM   17  I   UNL     1      -8.513  10.378  67.739  1.00  0.00    -0.114 I  
HETATM   18  C   UNL     1     -10.879   9.981  69.881  1.00  0.00    -0.285 A  
HETATM   19  C   UNL     1     -10.482  12.200  68.924  1.00  0.00    -0.142 A  
HETATM   20  C   UNL     1     -12.050  10.517  70.467  1.00  0.00    -0.345 A  
HETATM   21  I   UNL     1     -13.273   9.391  71.772  1.00  0.00    -0.555 I  
HETATM   22  C   UNL     1     -10.130  10.845  69.050  1.00  0.00    -0.196 A  
HETATM   23  C   UNL     1     -12.451  11.845  70.243  1.00  0.00    -0.199 A  
BRANCH  18  24
HETATM   24  O   UNL     1     -10.622   8.658  70.196  1.00  0.00    -0.215 OA 
BRANCH  24  25
HETATM   25  C   UNL     1      -9.538   8.458  71.095  1.00  0.00    -0.177 C  
BRANCH  25  26
HETATM   26  C   UNL     1      -9.309   7.021  71.583  1.00  0.00    -0.156 C  
BRANCH  26  27
HETATM   27  N   UNL     1      -9.423   6.941  73.067  1.00  0.00    -0.142 NA 
BRANCH  27  28
HETATM   28  C   UNL     1      -8.818   8.078  73.784  1.00  0.00    -0.247 C  
HETATM   29  C   UNL     1      -7.317   7.981  74.031  1.00  0.00    -0.203 C  
ENDBRANCH  27  28
BRANCH  27  30
HETATM   30  C   UNL     1     -10.802   6.644  73.474  1.00  0.00    -0.197 C  
HETATM   31  C   UNL     1     -11.390   5.394  72.819  1.00  0.00    -0.358 C  
ENDBRANCH  27  30
ENDBRANCH  26  27
ENDBRANCH  25  26
ENDBRANCH  24  25
ENDBRANCH  18  24
ENDBRANCH  14  16
ENDBRANCH   6  14
ENDBRANCH   4   5
ENDBRANCH   3   4
ENDBRANCH   2   3
TORSDOF 11
ENDMDL
MODEL       68
REMARK 921   NORMALIZED FREE ENERGY PREDICTED BY IDOCK:   -5.07 KCAL/MOL
REMARK 922        TOTAL FREE ENERGY PREDICTED BY IDOCK:  -10.47 KCAL/MOL
REMARK 923 INTER-LIGAND FREE ENERGY PREDICTED BY IDOCK:   -8.90 KCAL/MOL
REMARK 924 INTRA-LIGAND FREE ENERGY PREDICTED BY IDOCK:   -1.58 KCAL/MOL
REMARK 927      BINDING AFFINITY PREDICTED BY RF-SCORE:    0.00 PKD
ROOT
HETATM    1  C   UNL     1     -11.655  15.891  64.295  1.00  0.00    -0.179 C  
HETATM    2  C   UNL     1     -10.509  15.229  65.043  1.00  0.00    -0.411 C  
ENDROOT
BRANCH   2   3
HETATM    3  C   UNL     1     -11.018  14.244  66.097  1.00  0.00    -0.313 C  
BRANCH   3   4
HETATM    4  C   UNL     1     -10.267  14.414  67.417  1.00  0.00    -0.247 C  
BRANCH   4   5
HETATM    5  C   UNL     1     -11.150  14.167  68.593  1.00  0.00    -0.262 A  
HETATM    6  C   UNL     1     -11.677  13.023  69.174  1.00  0.00    -0.378 A  
HETATM    7  C   UNL     1     -13.663  15.041  72.262  1.00  0.00    -0.574 A  
HETATM    8  C   UNL     1     -12.339  13.461  70.362  1.00  0.00    -0.382 A  
HETATM    9  C   UNL     1     -12.327  14.852  70.306  1.00  0.00    -0.341 A  
HETATM   10  C   UNL     1     -13.644  13.652  72.396  1.00  0.00    -0.703 A  
HETATM   11  C   UNL     1     -12.977  12.850  71.463  1.00  0.00    -0.388 A  
HETATM   12  C   UNL     1     -12.978  15.674  71.219  1.00  0.00    -0.556 A  
HETATM   13  O   UNL     1     -11.585  15.278  69.249  1.00  0.00    -0.292 OA 
BRANCH   6  14
HETATM   14  C   UNL     1     -11.518  11.689  68.625  1.00  0.00    -0.290 C  
HETATM   15  O   UNL     1     -12.145  11.325  67.633  1.00  0.00    -0.600 OA 
BRANCH  14  16
HETATM   16  C   UNL     1     -10.625  10.703  69.302  1.00  0.00    -0.263 A  
HETATM   17  I   UNL     1     -11.730   7.893  72.339  1.00  0.00    -0.338 I  
HETATM   18  C   UNL     1      -9.087   8.762  70.727  1.00  0.00    -0.192 A  
HETATM   19  C   UNL     1     -11.235   9.790  70.157  1.00  0.00    -0.324 A  
HETATM   20  C   UNL     1      -8.483   9.700  69.856  1.00  0.00    -0.198 A  
HETATM   21  I   UNL     1      -6.414   9.671  69.427  1.00  0.00    -0.053 I  
HETATM   22  C   UNL     1     -10.484   8.868  70.908  1.00  0.00    -0.236 A  
HETATM   23  C   UNL     1      -9.234  10.689  69.196  1.00  0.00    -0.162 A  
BRANCH  18  24
HETATM   24  O   UNL     1      -8.213   7.855  71.302  1.00  0.00    -0.095 OA 
BRANCH  24  25
HETATM   25  C   UNL     1      -8.293   6.535  70.779  1.00  0.00    -0.130 C  
BRANCH  25  26
HETATM   26  C   UNL     1      -8.039   5.390  71.768  1.00  0.00    -0.118 C  
BRANCH  26  27
HETATM   27  N   UNL     1      -8.822   4.180  71.390  1.00  0.00    -0.105 NA 
BRANCH  27  28
HETATM   28  C   UNL     1      -9.432   3.471  72.530  1.00  0.00    -0.124 C  
HETATM   29  C   UNL     1     -10.702   4.098  73.094  1.00  0.00    -0.277 C  
ENDBRANCH  27  28
BRANCH  27  30
HETATM   30  C   UNL     1      -9.760   4.478  70.301  1.00  0.00    -0.217 C  
HETATM   31  C   UNL     1      -9.631   3.547  69.095  1.00  0.00    -0.149 C  
ENDBRANCH  27  30
ENDBRANCH  26  27
ENDBRANCH  25  26
ENDBRANCH  24  25
ENDBRANCH  18  24
ENDBRANCH  14  16
ENDBRANCH   6  14
ENDBRANCH   4   5
ENDBRANCH   3   4
ENDBRANCH   2   3
TORSDOF 11
ENDMDL
MODEL       69
REMARK 921   NORMALIZED FREE ENERGY PREDICTED BY IDOCK:   -5.06 KCAL/MOL
REMARK 922        TOTAL FREE ENERGY PREDICTED BY IDOCK:  -10.47 KCAL/MOL
REMARK 923 INTER-LIGAND FREE ENERGY PREDICTED BY IDOCK:   -9.21 KCAL/MOL
REMARK 924 INTRA-LIGAND FREE ENERGY PREDICTED BY IDOCK:   -1.26 KCAL/MOL
REMARK 927      BINDING AFFINITY PREDICTED BY RF-SCORE:    0.00 PKD
ROOT
HETATM    1  C   UNL     1      -7.393  18.861  68.555  1.00  0.00    -0.330 C  
HETATM    2  C   UNL     1      -8.039  17.646  67.910  1.00  0.00    -0.233 C  
ENDROOT
BRANCH   2   3
HETATM    3  C   UNL     1      -8.466  16.613  68.954  1.00  0.00    -0.233 C  
BRANCH   3   4
HETATM    4  C   UNL     1      -9.483  15.631  68.373  1.00  0.00    -0.196 C  
BRANCH   4   5
HETATM    5  C   UNL     1     -10.562  15.308  69.349  1.00  0.00    -0.256 A  
HETATM    6  C   UNL     1     -11.500  14.291  69.442  1.00  0.00    -0.337 A  
HETATM    7  C   UNL     1     -13.193  15.650  73.024  1.00  0.00    -0.664 A  
HETATM    8  C   UNL     1     -12.161  14.483  70.692  1.00  0.00    -0.401 A  
HETATM    9  C   UNL     1     -11.708  15.710  71.170  1.00  0.00    -0.413 A  
HETATM   10  C   UNL     1     -13.629  14.388  72.620  1.00  0.00    -0.589 A  
HETATM   11  C   UNL     1     -13.115  13.786  71.466  1.00  0.00    -0.435 A  
HETATM   12  C   UNL     1     -12.198  16.331  72.314  1.00  0.00    -0.503 A  
HETATM   13  O   UNL     1     -10.722  16.195  70.370  1.00  0.00    -0.280 OA 
BRANCH   6  14
HETATM   14  C   UNL     1     -11.686  13.266  68.429  1.00  0.00    -0.354 C  
HETATM   15  O   UNL     1     -12.105  13.542  67.308  1.00  0.00    -0.368 OA 
BRANCH  14  16
HETATM   16  C   UNL     1     -11.427  11.834  68.759  1.00  0.00    -0.350 A  
HETATM   17  I   UNL     1      -9.083   9.057  66.494  1.00  0.00    -0.265 I  
HETATM   18  C   UNL     1     -10.825   9.075  69.197  1.00  0.00    -0.089 A  
HETATM   19  C   UNL     1     -10.515  11.161  67.951  1.00  0.00    -0.220 A  
HETATM   20  C   UNL     1     -11.752   9.774  70.005  1.00  0.00    -0.074 A  
HETATM   21  I   UNL     1     -12.677   8.887  71.686  1.00  0.00    -0.451 I  
HETATM   22  C   UNL     1     -10.254   9.789  68.119  1.00  0.00    -0.186 A  
HETATM   23  C   UNL     1     -12.088  11.117  69.757  1.00  0.00    -0.414 A  
BRANCH  18  24
HETATM   24  O   UNL     1     -10.604   7.760  69.568  1.00  0.00    -0.227 OA 
BRANCH  24  25
HETATM   25  C   UNL     1      -9.343   7.517  70.179  1.00  0.00    -0.157 C  
BRANCH  25  26
HETATM   26  C   UNL     1      -9.354   6.674  71.461  1.00  0.00    -0.153 C  
BRANCH  26  27
HETATM   27  N   UNL     1     -10.318   5.544  71.344  1.00  0.00    -0.221 NA 
BRANCH  27  28
HETATM   28  C   UNL     1      -9.890   4.474  70.424  1.00  0.00    -0.232 C  
HETATM   29  C   UNL     1      -8.698   3.643  70.886  1.00  0.00    -0.121 C  
ENDBRANCH  27  28
BRANCH  27  30
HETATM   30  C   UNL     1     -10.730   5.062  72.668  1.00  0.00    -0.222 C  
HETATM   31  C   UNL     1     -10.112   5.836  73.832  1.00  0.00    -0.233 C  
ENDBRANCH  27  30
ENDBRANCH  26  27
ENDBRANCH  25  26
ENDBRANCH  24  25
ENDBRANCH  18  24
ENDBRANCH  14  16
ENDBRANCH   6  14
ENDBRANCH   4   5
ENDBRANCH   3   4
ENDBRANCH   2   3
TORSDOF 11
ENDMDL
MODEL       70
REMARK 921   NORMALIZED FREE ENERGY PREDICTED BY IDOCK:   -5.05 KCAL/MOL
REMARK 922        TOTAL FREE ENERGY PREDICTED BY IDOCK:  -10.44 KCAL/MOL
REMARK 923 INTER-LIGAND FREE ENERGY PREDICTED BY IDOCK:   -8.56 KCAL/MOL
REMARK 924 INTRA-LIGAND FREE ENERGY PREDICTED BY IDOCK:   -1.88 KCAL/MOL
REMARK 927      BINDING AFFINITY PREDICTED BY RF-SCORE:    0.00 PKD
ROOT
HETATM    1  C   UNL     1     -11.788  12.218  65.056  1.00  0.00    -0.412 C  
HETATM    2  C   UNL     1     -12.741  13.392  65.219  1.00  0.00    -0.481 C  
ENDROOT
BRANCH   2   3
HETATM    3  C   UNL     1     -12.249  14.626  64.462  1.00  0.00    -0.473 C  
BRANCH   3   4
HETATM    4  C   UNL     1     -10.789  14.932  64.797  1.00  0.00    -0.382 C  
BRANCH   4   5
HETATM    5  C   UNL     1     -10.666  16.064  65.759  1.00  0.00    -0.301 A  
HETATM    6  C   UNL     1     -10.713  16.159  67.141  1.00  0.00    -0.262 A  
HETATM    7  C   UNL     1     -10.040  20.292  67.269  1.00  0.00    -0.545 A  
HETATM    8  C   UNL     1     -10.392  17.516  67.449  1.00  0.00    -0.351 A  
HETATM    9  C   UNL     1     -10.366  18.181  66.227  1.00  0.00    -0.397 A  
HETATM   10  C   UNL     1      -9.991  19.659  68.511  1.00  0.00    -0.542 A  
HETATM   11  C   UNL     1     -10.152  18.272  68.617  1.00  0.00    -0.407 A  
HETATM   12  C   UNL     1     -10.205  19.556  66.090  1.00  0.00    -0.588 A  
HETATM   13  O   UNL     1     -10.506  17.297  65.203  1.00  0.00    -0.656 OA 
BRANCH   6  14
HETATM   14  C   UNL     1     -11.015  15.043  68.020  1.00  0.00    -0.284 C  
HETATM   15  O   UNL     1     -12.040  15.019  68.696  1.00  0.00    -0.265 OA 
BRANCH  14  16
HETATM   16  C   UNL     1     -10.042  13.921  68.164  1.00  0.00    -0.250 A  
HETATM   17  I   UNL     1     -10.895   9.928  69.457  1.00  0.00    -0.284 I  
HETATM   18  C   UNL     1      -8.345  11.650  68.522  1.00  0.00    -0.140 A  
HETATM   19  C   UNL     1     -10.571  12.668  68.462  1.00  0.00    -0.262 A  
HETATM   20  C   UNL     1      -7.825  12.931  68.222  1.00  0.00    -0.142 A  
HETATM   21  I   UNL     1      -5.764  13.259  67.882  1.00  0.00    -0.053 I  
HETATM   22  C   UNL     1      -9.744  11.556  68.699  1.00  0.00    -0.165 A  
HETATM   23  C   UNL     1      -8.655  14.058  68.097  1.00  0.00    -0.181 A  
BRANCH  18  24
HETATM   24  O   UNL     1      -7.399  10.644  68.614  1.00  0.00    -0.083 OA 
BRANCH  24  25
HETATM   25  C   UNL     1      -7.000  10.318  69.940  1.00  0.00    -0.142 C  
BRANCH  25  26
HETATM   26  C   UNL     1      -6.563   8.868  70.187  1.00  0.00    -0.040 C  
BRANCH  26  27
HETATM   27  N   UNL     1      -6.887   8.447  71.579  1.00  0.00    -0.066 NA 
BRANCH  27  28
HETATM   28  C   UNL     1      -7.702   7.222  71.669  1.00  0.00    -0.087 C  
HETATM   29  C   UNL     1      -9.097   7.398  72.259  1.00  0.00    -0.160 C  
ENDBRANCH  27  28
BRANCH  27  30
HETATM   30  C   UNL     1      -5.681   8.423  72.417  1.00  0.00    -0.054 C  
HETATM   31  C   UNL     1      -5.896   8.955  73.833  1.00  0.00    -0.103 C  
ENDBRANCH  27  30
ENDBRANCH  26  27
ENDBRANCH  25  26
ENDBRANCH  24  25
ENDBRANCH  18  24
ENDBRANCH  14  16
ENDBRANCH   6  14
ENDBRANCH   4   5
ENDBRANCH   3   4
ENDBRANCH   2   3
TORSDOF 11
ENDMDL
MODEL       71
REMARK 921   NORMALIZED FREE ENERGY PREDICTED BY IDOCK:   -5.04 KCAL/MOL
REMARK 922        TOTAL FREE ENERGY PREDICTED BY IDOCK:  -10.43 KCAL/MOL
REMARK 923 INTER-LIGAND FREE ENERGY PREDICTED BY IDOCK:   -8.29 KCAL/MOL
REMARK 924 INTRA-LIGAND FREE ENERGY PREDICTED BY IDOCK:   -2.14 KCAL/MOL
REMARK 927      BINDING AFFINITY PREDICTED BY RF-SCORE:    0.00 PKD
ROOT
HETATM    1  C   UNL     1      -9.725   7.511  73.519  1.00  0.00    -0.358 C  
HETATM    2  C   UNL     1     -11.130   7.452  72.939  1.00  0.00    -0.397 C  
ENDROOT
BRANCH   2   3
HETATM    3  C   UNL     1     -11.311   6.243  72.021  1.00  0.00    -0.348 C  
BRANCH   3   4
HETATM    4  C   UNL     1     -10.036   5.402  71.961  1.00  0.00    -0.232 C  
BRANCH   4   5
HETATM    5  C   UNL     1      -9.574   5.193  70.558  1.00  0.00    -0.180 A  
HETATM    6  C   UNL     1      -8.919   5.993  69.634  1.00  0.00    -0.133 A  
HETATM    7  C   UNL     1      -8.773   3.073  66.633  1.00  0.00    -0.135 A  
HETATM    8  C   UNL     1      -8.649   5.150  68.513  1.00  0.00    -0.094 A  
HETATM    9  C   UNL     1      -9.331   3.963  68.766  1.00  0.00    -0.166 A  
HETATM   10  C   UNL     1      -8.021   4.217  66.365  1.00  0.00    -0.098 A  
HETATM   11  C   UNL     1      -7.939   5.257  67.298  1.00  0.00    -0.101 A  
HETATM   12  C   UNL     1      -9.428   2.911  67.859  1.00  0.00    -0.203 A  
HETATM   13  O   UNL     1      -9.869   3.980  70.014  1.00  0.00    -0.210 OA 
BRANCH   6  14
HETATM   14  C   UNL     1      -8.594   7.390  69.858  1.00  0.00    -0.140 C  
HETATM   15  O   UNL     1      -7.703   7.725  70.635  1.00  0.00    -0.087 OA 
BRANCH  14  16
HETATM   16  C   UNL     1      -9.390   8.459  69.187  1.00  0.00    -0.151 A  
HETATM   17  I   UNL     1     -12.646  10.679  70.863  1.00  0.00    -0.505 I  
HETATM   18  C   UNL     1     -11.041  10.512  68.081  1.00  0.00    -0.287 A  
HETATM   19  C   UNL     1     -10.309   9.145  69.976  1.00  0.00    -0.231 A  
HETATM   20  C   UNL     1     -10.104   9.803  67.293  1.00  0.00    -0.207 A  
HETATM   21  I   UNL     1      -9.745  10.281  65.266  1.00  0.00    -0.374 I  
HETATM   22  C   UNL     1     -11.168  10.116  69.432  1.00  0.00    -0.215 A  
HETATM   23  C   UNL     1      -9.329   8.757  67.825  1.00  0.00    -0.157 A  
BRANCH  18  24
HETATM   24  O   UNL     1     -11.727  11.511  67.412  1.00  0.00    -0.567 OA 
BRANCH  24  25
HETATM   25  C   UNL     1     -11.412  12.834  67.827  1.00  0.00    -0.326 C  
BRANCH  25  26
HETATM   26  C   UNL     1     -11.872  13.970  66.904  1.00  0.00    -0.430 C  
BRANCH  26  27
HETATM   27  N   UNL     1     -11.432  13.724  65.502  1.00  0.00    -0.307 NA 
BRANCH  27  28
HETATM   28  C   UNL     1     -12.531  13.676  64.521  1.00  0.00    -0.287 C  
HETATM   29  C   UNL     1     -12.369  12.660  63.395  1.00  0.00    -0.553 C  
ENDBRANCH  27  28
BRANCH  27  30
HETATM   30  C   UNL     1     -10.337  14.628  65.127  1.00  0.00    -0.403 C  
HETATM   31  C   UNL     1     -10.553  16.079  65.555  1.00  0.00    -0.415 C  
ENDBRANCH  27  30
ENDBRANCH  26  27
ENDBRANCH  25  26
ENDBRANCH  24  25
ENDBRANCH  18  24
ENDBRANCH  14  16
ENDBRANCH   6  14
ENDBRANCH   4   5
ENDBRANCH   3   4
ENDBRANCH   2   3
TORSDOF 11
ENDMDL
MODEL       72
REMARK 921   NORMALIZED FREE ENERGY PREDICTED BY IDOCK:   -5.02 KCAL/MOL
REMARK 922        TOTAL FREE ENERGY PREDICTED BY IDOCK:  -10.39 KCAL/MOL
REMARK 923 INTER-LIGAND FREE ENERGY PREDICTED BY IDOCK:   -8.13 KCAL/MOL
REMARK 924 INTRA-LIGAND FREE ENERGY PREDICTED BY IDOCK:   -2.26 KCAL/MOL
REMARK 927      BINDING AFFINITY PREDICTED BY RF-SCORE:    0.00 PKD
ROOT
HETATM    1  C   UNL     1     -10.067  15.798  65.543  1.00  0.00    -0.383 C  
HETATM    2  C   UNL     1     -11.031  14.703  65.115  1.00  0.00    -0.395 C  
ENDROOT
BRANCH   2   3
HETATM    3  C   UNL     1     -11.770  14.103  66.312  1.00  0.00    -0.402 C  
BRANCH   3   4
HETATM    4  C   UNL     1     -12.121  12.636  66.063  1.00  0.00    -0.429 C  
BRANCH   4   5
HETATM    5  C   UNL     1     -10.930  11.845  65.640  1.00  0.00    -0.304 A  
HETATM    6  C   UNL     1      -9.762  11.453  66.276  1.00  0.00    -0.239 A  
HETATM    7  C   UNL     1      -8.226   9.345  62.998  1.00  0.00    -0.167 A  
HETATM    8  C   UNL     1      -9.088  10.595  65.356  1.00  0.00    -0.214 A  
HETATM    9  C   UNL     1      -9.802  10.689  64.164  1.00  0.00    -0.335 A  
HETATM   10  C   UNL     1      -7.515   9.168  64.185  1.00  0.00    -0.109 A  
HETATM   11  C   UNL     1      -7.939   9.774  65.373  1.00  0.00    -0.125 A  
HETATM   12  C   UNL     1      -9.407  10.095  62.969  1.00  0.00    -0.330 A  
HETATM   13  O   UNL     1     -10.931  11.424  64.345  1.00  0.00    -0.341 OA 
BRANCH   6  14
HETATM   14  C   UNL     1      -9.394  11.865  67.619  1.00  0.00    -0.183 C  
HETATM   15  O   UNL     1      -8.888  12.963  67.836  1.00  0.00    -0.171 OA 
BRANCH  14  16
HETATM   16  C   UNL     1      -9.569  10.924  68.764  1.00  0.00    -0.195 A  
HETATM   17  I   UNL     1     -12.932  10.681  71.404  1.00  0.00    -0.394 I  
HETATM   18  C   UNL     1     -10.091   9.228  71.003  1.00  0.00    -0.303 A  
HETATM   19  C   UNL     1     -10.810  10.929  69.395  1.00  0.00    -0.286 A  
HETATM   20  C   UNL     1      -8.835   9.238  70.352  1.00  0.00    -0.234 A  
HETATM   21  I   UNL     1      -7.277   7.914  70.887  1.00  0.00    -0.060 I  
HETATM   22  C   UNL     1     -11.060  10.143  70.533  1.00  0.00    -0.327 A  
HETATM   23  C   UNL     1      -8.561  10.110  69.284  1.00  0.00    -0.180 A  
BRANCH  18  24
HETATM   24  O   UNL     1     -10.203   8.315  72.038  1.00  0.00    -0.220 OA 
BRANCH  24  25
HETATM   25  C   UNL     1     -11.188   7.307  71.840  1.00  0.00    -0.248 C  
BRANCH  25  26
HETATM   26  C   UNL     1     -10.671   5.879  71.620  1.00  0.00    -0.252 C  
BRANCH  26  27
HETATM   27  N   UNL     1     -10.234   5.685  70.209  1.00  0.00    -0.222 NA 
BRANCH  27  28
HETATM   28  C   UNL     1      -9.843   4.303  69.880  1.00  0.00    -0.197 C  
HETATM   29  C   UNL     1      -9.483   3.416  71.067  1.00  0.00    -0.227 C  
ENDBRANCH  27  28
BRANCH  27  30
HETATM   30  C   UNL     1     -11.202   6.271  69.272  1.00  0.00    -0.389 C  
HETATM   31  C   UNL     1     -10.567   6.883  68.024  1.00  0.00    -0.273 C  
ENDBRANCH  27  30
ENDBRANCH  26  27
ENDBRANCH  25  26
ENDBRANCH  24  25
ENDBRANCH  18  24
ENDBRANCH  14  16
ENDBRANCH   6  14
ENDBRANCH   4   5
ENDBRANCH   3   4
ENDBRANCH   2   3
TORSDOF 11
ENDMDL
MODEL       73
REMARK 921   NORMALIZED FREE ENERGY PREDICTED BY IDOCK:   -5.01 KCAL/MOL
REMARK 922        TOTAL FREE ENERGY PREDICTED BY IDOCK:  -10.38 KCAL/MOL
REMARK 923 INTER-LIGAND FREE ENERGY PREDICTED BY IDOCK:   -8.48 KCAL/MOL
REMARK 924 INTRA-LIGAND FREE ENERGY PREDICTED BY IDOCK:   -1.90 KCAL/MOL
REMARK 927      BINDING AFFINITY PREDICTED BY RF-SCORE:    0.00 PKD
ROOT
HETATM    1  C   UNL     1      -9.277   3.806  67.475  1.00  0.00    -0.216 C  
HETATM    2  C   UNL     1     -10.126   4.438  66.384  1.00  0.00    -0.235 C  
ENDROOT
BRANCH   2   3
HETATM    3  C   UNL     1      -9.903   5.949  66.300  1.00  0.00    -0.119 C  
BRANCH   3   4
HETATM    4  C   UNL     1     -11.063   6.713  66.937  1.00  0.00    -0.319 C  
BRANCH   4   5
HETATM    5  C   UNL     1     -10.786   7.057  68.361  1.00  0.00    -0.179 A  
HETATM    6  C   UNL     1     -10.139   8.112  68.986  1.00  0.00    -0.211 A  
HETATM    7  C   UNL     1     -10.815   6.728  72.882  1.00  0.00    -0.304 A  
HETATM    8  C   UNL     1     -10.334   7.913  70.386  1.00  0.00    -0.212 A  
HETATM    9  C   UNL     1     -10.915   6.654  70.508  1.00  0.00    -0.286 A  
HETATM   10  C   UNL     1     -10.293   8.020  72.809  1.00  0.00    -0.408 A  
HETATM   11  C   UNL     1     -10.059   8.631  71.571  1.00  0.00    -0.345 A  
HETATM   12  C   UNL     1     -11.162   6.023  71.724  1.00  0.00    -0.333 A  
HETATM   13  O   UNL     1     -11.212   6.148  69.282  1.00  0.00    -0.387 OA 
BRANCH   6  14
HETATM   14  C   UNL     1      -9.447   9.173  68.275  1.00  0.00    -0.142 C  
HETATM   15  O   UNL     1      -8.231   9.144  68.108  1.00  0.00    -0.114 OA 
BRANCH  14  16
HETATM   16  C   UNL     1     -10.204  10.361  67.785  1.00  0.00    -0.229 A  
HETATM   17  I   UNL     1     -12.278  13.253  70.167  1.00  0.00    -0.126 I  
HETATM   18  C   UNL     1     -11.714  12.675  67.054  1.00  0.00    -0.369 A  
HETATM   19  C   UNL     1     -10.677  11.245  68.751  1.00  0.00    -0.240 A  
HETATM   20  C   UNL     1     -11.228  11.764  66.086  1.00  0.00    -0.306 A  
HETATM   21  I   UNL     1     -11.459  12.095  64.011  1.00  0.00    -0.581 I  
HETATM   22  C   UNL     1     -11.471  12.355  68.409  1.00  0.00    -0.310 A  
HETATM   23  C   UNL     1     -10.531  10.598  66.449  1.00  0.00    -0.276 A  
BRANCH  18  24
HETATM   24  O   UNL     1     -12.382  13.772  66.538  1.00  0.00    -0.428 OA 
BRANCH  24  25
HETATM   25  C   UNL     1     -11.887  15.032  66.975  1.00  0.00    -0.109 C  
BRANCH  25  26
HETATM   26  C   UNL     1     -10.539  15.477  66.394  1.00  0.00    -0.311 C  
BRANCH  26  27
HETATM   27  N   UNL     1      -9.830  16.388  67.338  1.00  0.00    -0.240 NA 
BRANCH  27  28
HETATM   28  C   UNL     1     -10.672  17.466  67.887  1.00  0.00    -0.351 C  
HETATM   29  C   UNL     1      -9.921  18.656  68.475  1.00  0.00    -0.430 C  
ENDBRANCH  27  28
BRANCH  27  30
HETATM   30  C   UNL     1      -9.098  15.625  68.357  1.00  0.00    -0.190 C  
HETATM   31  C   UNL     1      -8.388  14.384  67.814  1.00  0.00    -0.172 C  
ENDBRANCH  27  30
ENDBRANCH  26  27
ENDBRANCH  25  26
ENDBRANCH  24  25
ENDBRANCH  18  24
ENDBRANCH  14  16
ENDBRANCH   6  14
ENDBRANCH   4   5
ENDBRANCH   3   4
ENDBRANCH   2   3
TORSDOF 11
ENDMDL
MODEL       74
REMARK 921   NORMALIZED FREE ENERGY PREDICTED BY IDOCK:   -5.01 KCAL/MOL
REMARK 922        TOTAL FREE ENERGY PREDICTED BY IDOCK:  -10.38 KCAL/MOL
REMARK 923 INTER-LIGAND FREE ENERGY PREDICTED BY IDOCK:   -9.30 KCAL/MOL
REMARK 924 INTRA-LIGAND FREE ENERGY PREDICTED BY IDOCK:   -1.08 KCAL/MOL
REMARK 927      BINDING AFFINITY PREDICTED BY RF-SCORE:    0.00 PKD
ROOT
HETATM    1  C   UNL     1      -9.778   5.270  68.462  1.00  0.00    -0.194 C  
HETATM    2  C   UNL     1     -10.614   6.458  68.013  1.00  0.00    -0.315 C  
ENDROOT
BRANCH   2   3
HETATM    3  C   UNL     1     -10.428   7.661  68.938  1.00  0.00    -0.211 C  
BRANCH   3   4
HETATM    4  C   UNL     1      -9.284   8.553  68.457  1.00  0.00    -0.135 C  
BRANCH   4   5
HETATM    5  C   UNL     1      -9.676   9.368  67.273  1.00  0.00    -0.165 A  
HETATM    6  C   UNL     1     -10.515  10.458  67.092  1.00  0.00    -0.311 A  
HETATM    7  C   UNL     1      -9.792  10.823  62.982  1.00  0.00    -0.344 A  
HETATM    8  C   UNL     1     -10.351  10.852  65.729  1.00  0.00    -0.303 A  
HETATM    9  C   UNL     1      -9.577   9.856  65.142  1.00  0.00    -0.300 A  
HETATM   10  C   UNL     1     -10.515  11.879  63.538  1.00  0.00    -0.505 A  
HETATM   11  C   UNL     1     -10.792  11.914  64.910  1.00  0.00    -0.356 A  
HETATM   12  C   UNL     1      -9.283   9.795  63.783  1.00  0.00    -0.237 A  
HETATM   13  O   UNL     1      -9.147   8.973  66.082  1.00  0.00    -0.170 OA 
BRANCH   6  14
HETATM   14  C   UNL     1     -11.340  11.028  68.142  1.00  0.00    -0.307 C  
HETATM   15  O   UNL     1     -12.261  10.393  68.649  1.00  0.00    -0.163 OA 
BRANCH  14  16
HETATM   16  C   UNL     1     -11.119  12.435  68.585  1.00  0.00    -0.297 A  
HETATM   17  I   UNL     1      -7.828  14.973  67.547  1.00  0.00    -0.231 I  
HETATM   18  C   UNL     1     -10.501  15.124  69.330  1.00  0.00    -0.260 A  
HETATM   19  C   UNL     1     -10.051  13.115  68.004  1.00  0.00    -0.232 A  
HETATM   20  C   UNL     1     -11.580  14.418  69.912  1.00  0.00    -0.284 A  
HETATM   21  I   UNL     1     -12.910  15.322  71.283  1.00  0.00    -0.615 I  
HETATM   22  C   UNL     1      -9.701  14.417  68.404  1.00  0.00    -0.226 A  
HETATM   23  C   UNL     1     -11.852  13.078  69.584  1.00  0.00    -0.385 A  
BRANCH  18  24
HETATM   24  O   UNL     1     -10.364  16.434  69.757  1.00  0.00    -0.266 OA 
BRANCH  24  25
HETATM   25  C   UNL     1     -10.601  17.416  68.757  1.00  0.00    -0.283 C  
BRANCH  25  26
HETATM   26  C   UNL     1      -9.734  18.681  68.820  1.00  0.00    -0.366 C  
BRANCH  26  27
HETATM   27  N   UNL     1      -8.870  18.792  67.611  1.00  0.00    -0.278 NA 
BRANCH  27  28
HETATM   28  C   UNL     1      -9.593  18.652  66.334  1.00  0.00    -0.325 C  
HETATM   29  C   UNL     1     -10.365  19.884  65.873  1.00  0.00    -0.567 C  
ENDBRANCH  27  28
BRANCH  27  30
HETATM   30  C   UNL     1      -8.012  19.982  67.684  1.00  0.00    -0.303 C  
HETATM   31  C   UNL     1      -6.896  19.882  68.724  1.00  0.00    -0.358 C  
ENDBRANCH  27  30
ENDBRANCH  26  27
ENDBRANCH  25  26
ENDBRANCH  24  25
ENDBRANCH  18  24
ENDBRANCH  14  16
ENDBRANCH   6  14
ENDBRANCH   4   5
ENDBRANCH   3   4
ENDBRANCH   2   3
TORSDOF 11
ENDMDL
MODEL       75
REMARK 921   NORMALIZED FREE ENERGY PREDICTED BY IDOCK:   -4.99 KCAL/MOL
REMARK 922        TOTAL FREE ENERGY PREDICTED BY IDOCK:  -10.34 KCAL/MOL
REMARK 923 INTER-LIGAND FREE ENERGY PREDICTED BY IDOCK:   -8.36 KCAL/MOL
REMARK 924 INTRA-LIGAND FREE ENERGY PREDICTED BY IDOCK:   -1.98 KCAL/MOL
REMARK 927      BINDING AFFINITY PREDICTED BY RF-SCORE:    0.00 PKD
ROOT
HETATM    1  C   UNL     1     -12.324  12.416  63.333  1.00  0.00    -0.603 C  
HETATM    2  C   UNL     1     -10.837  12.185  63.546  1.00  0.00    -0.518 C  
ENDROOT
BRANCH   2   3
HETATM    3  C   UNL     1     -10.571  11.327  64.784  1.00  0.00    -0.376 C  
BRANCH   3   4
HETATM    4  C   UNL     1     -11.505  11.711  65.931  1.00  0.00    -0.189 C  
BRANCH   4   5
HETATM    5  C   UNL     1     -10.888  12.723  66.835  1.00  0.00    -0.253 A  
HETATM    6  C   UNL     1      -9.837  12.688  67.739  1.00  0.00    -0.212 A  
HETATM    7  C   UNL     1     -10.138  16.721  68.835  1.00  0.00    -0.285 A  
HETATM    8  C   UNL     1      -9.666  14.033  68.189  1.00  0.00    -0.220 A  
HETATM    9  C   UNL     1     -10.748  14.740  67.671  1.00  0.00    -0.270 A  
HETATM   10  C   UNL     1      -9.003  16.071  69.322  1.00  0.00    -0.228 A  
HETATM   11  C   UNL     1      -8.747  14.734  68.999  1.00  0.00    -0.139 A  
HETATM   12  C   UNL     1     -11.027  16.070  67.972  1.00  0.00    -0.341 A  
HETATM   13  O   UNL     1     -11.472  13.953  66.831  1.00  0.00    -0.321 OA 
BRANCH   6  14
HETATM   14  C   UNL     1      -9.102  11.483  68.081  1.00  0.00    -0.181 C  
HETATM   15  O   UNL     1      -8.167  11.086  67.391  1.00  0.00    -0.119 OA 
BRANCH  14  16
HETATM   16  C   UNL     1      -9.516  10.663  69.256  1.00  0.00    -0.152 A  
HETATM   17  I   UNL     1      -7.107   7.851  71.408  1.00  0.00    -0.075 I  
HETATM   18  C   UNL     1     -10.111   8.995  71.498  1.00  0.00    -0.339 A  
HETATM   19  C   UNL     1      -8.519   9.922  69.885  1.00  0.00    -0.210 A  
HETATM   20  C   UNL     1     -11.112   9.753  70.846  1.00  0.00    -0.357 A  
HETATM   21  I   UNL     1     -13.106   9.825  71.543  1.00  0.00    -0.498 I  
HETATM   22  C   UNL     1      -8.809   9.052  70.952  1.00  0.00    -0.240 A  
HETATM   23  C   UNL     1     -10.829  10.532  69.711  1.00  0.00    -0.335 A  
BRANCH  18  24
HETATM   24  O   UNL     1     -10.548   8.278  72.599  1.00  0.00    -0.332 OA 
BRANCH  24  25
HETATM   25  C   UNL     1     -10.402   6.868  72.490  1.00  0.00    -0.196 C  
BRANCH  25  26
HETATM   26  C   UNL     1     -11.262   6.170  71.428  1.00  0.00    -0.287 C  
BRANCH  26  27
HETATM   27  N   UNL     1     -10.493   5.978  70.166  1.00  0.00    -0.224 NA 
BRANCH  27  28
HETATM   28  C   UNL     1     -10.027   4.598  69.943  1.00  0.00    -0.226 C  
HETATM   29  C   UNL     1      -8.596   4.304  70.382  1.00  0.00    -0.105 C  
ENDBRANCH  27  28
BRANCH  27  30
HETATM   30  C   UNL     1     -11.205   6.560  69.022  1.00  0.00    -0.284 C  
HETATM   31  C   UNL     1     -10.289   7.033  67.893  1.00  0.00    -0.247 C  
ENDBRANCH  27  30
ENDBRANCH  26  27
ENDBRANCH  25  26
ENDBRANCH  24  25
ENDBRANCH  18  24
ENDBRANCH  14  16
ENDBRANCH   6  14
ENDBRANCH   4   5
ENDBRANCH   3   4
ENDBRANCH   2   3
TORSDOF 11
ENDMDL
MODEL       76
REMARK 921   NORMALIZED FREE ENERGY PREDICTED BY IDOCK:   -4.98 KCAL/MOL
REMARK 922        TOTAL FREE ENERGY PREDICTED BY IDOCK:  -10.33 KCAL/MOL
REMARK 923 INTER-LIGAND FREE ENERGY PREDICTED BY IDOCK:   -8.65 KCAL/MOL
REMARK 924 INTRA-LIGAND FREE ENERGY PREDICTED BY IDOCK:   -1.68 KCAL/MOL
REMARK 927      BINDING AFFINITY PREDICTED BY RF-SCORE:    0.00 PKD
ROOT
HETATM    1  C   UNL     1     -14.246  14.510  71.841  1.00  0.00    -0.622 C  
HETATM    2  C   UNL     1     -13.158  15.562  71.693  1.00  0.00    -0.561 C  
ENDROOT
BRANCH   2   3
HETATM    3  C   UNL     1     -12.411  15.419  70.366  1.00  0.00    -0.447 C  
BRANCH   3   4
HETATM    4  C   UNL     1     -10.900  15.512  70.573  1.00  0.00    -0.353 C  
BRANCH   4   5
HETATM    5  C   UNL     1     -10.252  16.383  69.550  1.00  0.00    -0.244 A  
HETATM    6  C   UNL     1      -9.094  16.279  68.795  1.00  0.00    -0.245 A  
HETATM    7  C   UNL     1      -9.643  19.894  66.749  1.00  0.00    -0.523 A  
HETATM    8  C   UNL     1      -9.112  17.393  67.901  1.00  0.00    -0.255 A  
HETATM    9  C   UNL     1     -10.177  18.188  68.316  1.00  0.00    -0.389 A  
HETATM   10  C   UNL     1      -8.606  19.100  66.255  1.00  0.00    -0.303 A  
HETATM   11  C   UNL     1      -8.337  17.844  66.811  1.00  0.00    -0.273 A  
HETATM   12  C   UNL     1     -10.471  19.439  67.781  1.00  0.00    -0.556 A  
HETATM   13  O   UNL     1     -10.882  17.564  69.296  1.00  0.00    -0.034 OA 
BRANCH   6  14
HETATM   14  C   UNL     1      -8.127  15.206  68.938  1.00  0.00    -0.178 C  
HETATM   15  O   UNL     1      -7.159  15.312  69.686  1.00  0.00    -0.179 OA 
BRANCH  14  16
HETATM   16  C   UNL     1      -8.263  13.964  68.122  1.00  0.00    -0.158 A  
HETATM   17  I   UNL     1     -11.670  12.751  65.829  1.00  0.00    -0.491 I  
HETATM   18  C   UNL     1      -8.731  11.644  66.522  1.00  0.00    -0.182 A  
HETATM   19  C   UNL     1      -9.411  13.848  67.343  1.00  0.00    -0.228 A  
HETATM   20  C   UNL     1      -7.572  11.777  67.322  1.00  0.00    -0.150 A  
HETATM   21  I   UNL     1      -6.022  10.339  67.309  1.00  0.00    -0.056 I  
HETATM   22  C   UNL     1      -9.681  12.687  66.597  1.00  0.00    -0.249 A  
HETATM   23  C   UNL     1      -7.367  12.894  68.150  1.00  0.00    -0.119 A  
BRANCH  18  24
HETATM   24  O   UNL     1      -8.787  10.486  65.765  1.00  0.00    -0.162 OA 
BRANCH  24  25
HETATM   25  C   UNL     1      -9.823   9.582  66.131  1.00  0.00    -0.272 C  
BRANCH  25  26
HETATM   26  C   UNL     1      -9.391   8.305  66.864  1.00  0.00    -0.176 C  
BRANCH  26  27
HETATM   27  N   UNL     1     -10.083   8.190  68.179  1.00  0.00    -0.191 NA 
BRANCH  27  28
HETATM   28  C   UNL     1     -10.133   6.819  68.719  1.00  0.00    -0.160 C  
HETATM   29  C   UNL     1     -11.324   6.506  69.617  1.00  0.00    -0.443 C  
ENDBRANCH  27  28
BRANCH  27  30
HETATM   30  C   UNL     1      -9.578   9.188  69.130  1.00  0.00    -0.161 C  
HETATM   31  C   UNL     1     -10.644  10.158  69.639  1.00  0.00    -0.286 C  
ENDBRANCH  27  30
ENDBRANCH  26  27
ENDBRANCH  25  26
ENDBRANCH  24  25
ENDBRANCH  18  24
ENDBRANCH  14  16
ENDBRANCH   6  14
ENDBRANCH   4   5
ENDBRANCH   3   4
ENDBRANCH   2   3
TORSDOF 11
ENDMDL
MODEL       77
REMARK 921   NORMALIZED FREE ENERGY PREDICTED BY IDOCK:   -4.97 KCAL/MOL
REMARK 922        TOTAL FREE ENERGY PREDICTED BY IDOCK:  -10.31 KCAL/MOL
REMARK 923 INTER-LIGAND FREE ENERGY PREDICTED BY IDOCK:   -9.00 KCAL/MOL
REMARK 924 INTRA-LIGAND FREE ENERGY PREDICTED BY IDOCK:   -1.31 KCAL/MOL
REMARK 927      BINDING AFFINITY PREDICTED BY RF-SCORE:    0.00 PKD
ROOT
HETATM    1  C   UNL     1     -12.565  12.452  63.532  1.00  0.00    -0.535 C  
HETATM    2  C   UNL     1     -11.046  12.438  63.488  1.00  0.00    -0.521 C  
ENDROOT
BRANCH   2   3
HETATM    3  C   UNL     1     -10.439  13.003  64.773  1.00  0.00    -0.382 C  
BRANCH   3   4
HETATM    4  C   UNL     1     -11.215  14.228  65.256  1.00  0.00    -0.337 C  
BRANCH   4   5
HETATM    5  C   UNL     1     -10.365  15.134  66.080  1.00  0.00    -0.301 A  
HETATM    6  C   UNL     1     -10.293  15.412  67.437  1.00  0.00    -0.262 A  
HETATM    7  C   UNL     1      -7.137  18.147  67.103  1.00  0.00    -0.212 A  
HETATM    8  C   UNL     1      -9.171  16.280  67.597  1.00  0.00    -0.206 A  
HETATM    9  C   UNL     1      -8.769  16.614  66.306  1.00  0.00    -0.324 A  
HETATM   10  C   UNL     1      -7.460  17.792  68.413  1.00  0.00    -0.263 A  
HETATM   11  C   UNL     1      -8.464  16.852  68.676  1.00  0.00    -0.260 A  
HETATM   12  C   UNL     1      -7.774  17.541  66.014  1.00  0.00    -0.237 A  
HETATM   13  O   UNL     1      -9.476  15.900  65.390  1.00  0.00    -0.355 OA 
BRANCH   6  14
HETATM   14  C   UNL     1     -11.207  14.866  68.425  1.00  0.00    -0.292 C  
HETATM   15  O   UNL     1     -12.030  15.576  68.998  1.00  0.00    -0.354 OA 
BRANCH  14  16
HETATM   16  C   UNL     1     -11.118  13.428  68.811  1.00  0.00    -0.297 A  
HETATM   17  I   UNL     1      -8.540  10.462  67.108  1.00  0.00    -0.137 I  
HETATM   18  C   UNL     1     -10.805  10.646  69.385  1.00  0.00    -0.246 A  
HETATM   19  C   UNL     1     -10.103  12.682  68.218  1.00  0.00    -0.233 A  
HETATM   20  C   UNL     1     -11.832  11.419  69.976  1.00  0.00    -0.359 A  
HETATM   21  I   UNL     1     -13.144  10.627  71.431  1.00  0.00    -0.274 I  
HETATM   22  C   UNL     1      -9.975  11.300  68.447  1.00  0.00    -0.197 A  
HETATM   23  C   UNL     1     -12.018  12.775  69.654  1.00  0.00    -0.354 A  
BRANCH  18  24
HETATM   24  O   UNL     1     -10.753   9.328  69.804  1.00  0.00    -0.222 OA 
BRANCH  24  25
HETATM   25  C   UNL     1      -9.834   9.072  70.859  1.00  0.00    -0.264 C  
BRANCH  25  26
HETATM   26  C   UNL     1      -9.935   7.699  71.537  1.00  0.00    -0.173 C  
BRANCH  26  27
HETATM   27  N   UNL     1     -11.019   6.883  70.921  1.00  0.00    -0.244 NA 
BRANCH  27  28
HETATM   28  C   UNL     1     -10.537   5.771  70.081  1.00  0.00    -0.307 C  
HETATM   29  C   UNL     1     -10.834   5.891  68.590  1.00  0.00    -0.333 C  
ENDBRANCH  27  28
BRANCH  27  30
HETATM   30  C   UNL     1     -12.015   6.485  71.924  1.00  0.00    -0.341 C  
HETATM   31  C   UNL     1     -13.454   6.831  71.543  1.00  0.00    -0.180 C  
ENDBRANCH  27  30
ENDBRANCH  26  27
ENDBRANCH  25  26
ENDBRANCH  24  25
ENDBRANCH  18  24
ENDBRANCH  14  16
ENDBRANCH   6  14
ENDBRANCH   4   5
ENDBRANCH   3   4
ENDBRANCH   2   3
TORSDOF 11
ENDMDL
MODEL       78
REMARK 921   NORMALIZED FREE ENERGY PREDICTED BY IDOCK:   -4.96 KCAL/MOL
REMARK 922        TOTAL FREE ENERGY PREDICTED BY IDOCK:  -10.30 KCAL/MOL
REMARK 923 INTER-LIGAND FREE ENERGY PREDICTED BY IDOCK:   -8.23 KCAL/MOL
REMARK 924 INTRA-LIGAND FREE ENERGY PREDICTED BY IDOCK:   -2.07 KCAL/MOL
REMARK 927      BINDING AFFINITY PREDICTED BY RF-SCORE:    0.00 PKD
ROOT
HETATM    1  C   UNL     1      -7.322   4.717  66.646  1.00  0.00    -0.082 C  
HETATM    2  C   UNL     1      -8.476   4.742  67.635  1.00  0.00    -0.104 C  
ENDROOT
BRANCH   2   3
HETATM    3  C   UNL     1      -9.817   4.488  66.944  1.00  0.00    -0.238 C  
BRANCH   3   4
HETATM    4  C   UNL     1     -10.538   5.801  66.642  1.00  0.00    -0.347 C  
BRANCH   4   5
HETATM    5  C   UNL     1     -10.542   6.716  67.820  1.00  0.00    -0.252 A  
HETATM    6  C   UNL     1      -9.973   7.954  68.077  1.00  0.00    -0.213 A  
HETATM    7  C   UNL     1     -11.537   8.302  71.947  1.00  0.00    -0.377 A  
HETATM    8  C   UNL     1     -10.469   8.352  69.355  1.00  0.00    -0.222 A  
HETATM    9  C   UNL     1     -11.143   7.242  69.856  1.00  0.00    -0.212 A  
HETATM   10  C   UNL     1     -10.928   9.460  71.462  1.00  0.00    -0.429 A  
HETATM   11  C   UNL     1     -10.401   9.505  70.166  1.00  0.00    -0.300 A  
HETATM   12  C   UNL     1     -11.679   7.169  71.139  1.00  0.00    -0.350 A  
HETATM   13  O   UNL     1     -11.210   6.262  68.917  1.00  0.00    -0.370 OA 
BRANCH   6  14
HETATM   14  C   UNL     1      -9.080   8.640  67.160  1.00  0.00    -0.133 C  
HETATM   15  O   UNL     1      -8.031   8.125  66.781  1.00  0.00    -0.100 OA 
BRANCH  14  16
HETATM   16  C   UNL     1      -9.396  10.026  66.706  1.00  0.00    -0.193 A  
HETATM   17  I   UNL     1      -7.787  13.674  68.272  1.00  0.00    -0.141 I  
HETATM   18  C   UNL     1      -9.873  12.754  66.003  1.00  0.00    -0.255 A  
HETATM   19  C   UNL     1      -8.642  11.055  67.265  1.00  0.00    -0.130 A  
HETATM   20  C   UNL     1     -10.631  11.696  65.447  1.00  0.00    -0.280 A  
HETATM   21  I   UNL     1     -12.092  12.020  63.955  1.00  0.00    -0.435 I  
HETATM   22  C   UNL     1      -8.906  12.405  66.972  1.00  0.00    -0.210 A  
HETATM   23  C   UNL     1     -10.432  10.359  65.833  1.00  0.00    -0.196 A  
BRANCH  18  24
HETATM   24  O   UNL     1     -10.190  14.013  65.522  1.00  0.00    -0.317 OA 
BRANCH  24  25
HETATM   25  C   UNL     1     -10.771  14.889  66.481  1.00  0.00    -0.309 C  
BRANCH  25  26
HETATM   26  C   UNL     1     -11.946  14.332  67.295  1.00  0.00    -0.405 C  
BRANCH  26  27
HETATM   27  N   UNL     1     -11.567  14.167  68.727  1.00  0.00    -0.304 NA 
BRANCH  27  28
HETATM   28  C   UNL     1     -12.120  15.198  69.623  1.00  0.00    -0.304 C  
HETATM   29  C   UNL     1     -11.147  16.290  70.056  1.00  0.00    -0.351 C  
ENDBRANCH  27  28
BRANCH  27  30
HETATM   30  C   UNL     1     -11.805  12.791  69.181  1.00  0.00    -0.301 C  
HETATM   31  C   UNL     1     -12.368  12.693  70.599  1.00  0.00    -0.375 C  
ENDBRANCH  27  30
ENDBRANCH  26  27
ENDBRANCH  25  26
ENDBRANCH  24  25
ENDBRANCH  18  24
ENDBRANCH  14  16
ENDBRANCH   6  14
ENDBRANCH   4   5
ENDBRANCH   3   4
ENDBRANCH   2   3
TORSDOF 11
ENDMDL
MODEL       79
REMARK 921   NORMALIZED FREE ENERGY PREDICTED BY IDOCK:   -4.96 KCAL/MOL
REMARK 922        TOTAL FREE ENERGY PREDICTED BY IDOCK:  -10.30 KCAL/MOL
REMARK 923 INTER-LIGAND FREE ENERGY PREDICTED BY IDOCK:   -7.91 KCAL/MOL
REMARK 924 INTRA-LIGAND FREE ENERGY PREDICTED BY IDOCK:   -2.39 KCAL/MOL
REMARK 927      BINDING AFFINITY PREDICTED BY RF-SCORE:    0.00 PKD
ROOT
HETATM    1  C   UNL     1      -7.881  15.362  68.014  1.00  0.00    -0.133 C  
HETATM    2  C   UNL     1      -8.853  15.488  69.177  1.00  0.00    -0.253 C  
ENDROOT
BRANCH   2   3
HETATM    3  C   UNL     1      -9.751  16.718  69.030  1.00  0.00    -0.244 C  
BRANCH   3   4
HETATM    4  C   UNL     1     -11.218  16.313  68.886  1.00  0.00    -0.337 C  
BRANCH   4   5
HETATM    5  C   UNL     1     -11.407  15.280  67.827  1.00  0.00    -0.326 A  
HETATM    6  C   UNL     1     -11.720  13.929  67.849  1.00  0.00    -0.396 A  
HETATM    7  C   UNL     1     -11.709  13.464  63.686  1.00  0.00    -0.376 A  
HETATM    8  C   UNL     1     -11.884  13.546  66.483  1.00  0.00    -0.441 A  
HETATM    9  C   UNL     1     -11.468  14.644  65.735  1.00  0.00    -0.338 A  
HETATM   10  C   UNL     1     -12.196  12.362  64.390  1.00  0.00    -0.519 A  
HETATM   11  C   UNL     1     -12.301  12.392  65.786  1.00  0.00    -0.106 A  
HETATM   12  C   UNL     1     -11.356  14.645  64.348  1.00  0.00    -0.238 A  
HETATM   13  O   UNL     1     -11.205  15.701  66.548  1.00  0.00    -0.208 OA 
BRANCH   6  14
HETATM   14  C   UNL     1     -11.855  13.149  69.066  1.00  0.00    -0.313 C  
HETATM   15  O   UNL     1     -12.641  13.475  69.952  1.00  0.00    -0.187 OA 
BRANCH  14  16
HETATM   16  C   UNL     1     -10.986  11.958  69.290  1.00  0.00    -0.208 A  
HETATM   17  I   UNL     1     -11.939   8.473  71.591  1.00  0.00    -0.458 I  
HETATM   18  C   UNL     1      -9.475   9.599  69.856  1.00  0.00    -0.231 A  
HETATM   19  C   UNL     1     -11.561  10.878  69.955  1.00  0.00    -0.410 A  
HETATM   20  C   UNL     1      -8.906  10.706  69.185  1.00  0.00    -0.122 A  
HETATM   21  I   UNL     1      -6.934  10.671  68.424  1.00  0.00    -0.075 I  
HETATM   22  C   UNL     1     -10.813   9.736  70.291  1.00  0.00    -0.301 A  
HETATM   23  C   UNL     1      -9.633  11.887  68.953  1.00  0.00     0.068 A  
BRANCH  18  24
HETATM   24  O   UNL     1      -8.631   8.513  70.009  1.00  0.00    -0.128 OA 
BRANCH  24  25
HETATM   25  C   UNL     1      -9.007   7.355  69.273  1.00  0.00    -0.136 C  
BRANCH  25  26
HETATM   26  C   UNL     1      -8.482   7.258  67.834  1.00  0.00    -0.118 C  
BRANCH  26  27
HETATM   27  N   UNL     1      -9.607   7.118  66.868  1.00  0.00    -0.159 NA 
BRANCH  27  28
HETATM   28  C   UNL     1     -10.420   5.903  67.056  1.00  0.00    -0.278 C  
HETATM   29  C   UNL     1     -10.121   4.753  66.099  1.00  0.00    -0.288 C  
ENDBRANCH  27  28
BRANCH  27  30
HETATM   30  C   UNL     1     -10.394   8.356  66.792  1.00  0.00    -0.287 C  
HETATM   31  C   UNL     1      -9.817   9.401  65.837  1.00  0.00    -0.362 C  
ENDBRANCH  27  30
ENDBRANCH  26  27
ENDBRANCH  25  26
ENDBRANCH  24  25
ENDBRANCH  18  24
ENDBRANCH  14  16
ENDBRANCH   6  14
ENDBRANCH   4   5
ENDBRANCH   3   4
ENDBRANCH   2   3
TORSDOF 11
ENDMDL
MODEL       80
REMARK 921   NORMALIZED FREE ENERGY PREDICTED BY IDOCK:   -4.95 KCAL/MOL
REMARK 922        TOTAL FREE ENERGY PREDICTED BY IDOCK:  -10.29 KCAL/MOL
REMARK 923 INTER-LIGAND FREE ENERGY PREDICTED BY IDOCK:   -8.20 KCAL/MOL
REMARK 924 INTRA-LIGAND FREE ENERGY PREDICTED BY IDOCK:   -2.08 KCAL/MOL
REMARK 927      BINDING AFFINITY PREDICTED BY RF-SCORE:    0.00 PKD
ROOT
HETATM    1  C   UNL     1     -10.725   7.413  67.068  1.00  0.00    -0.389 C  
HETATM    2  C   UNL     1     -11.032   6.226  67.966  1.00  0.00    -0.418 C  
ENDROOT
BRANCH   2   3
HETATM    3  C   UNL     1     -10.160   5.017  67.621  1.00  0.00    -0.192 C  
BRANCH   3   4
HETATM    4  C   UNL     1      -8.895   4.990  68.478  1.00  0.00    -0.112 C  
BRANCH   4   5
HETATM    5  C   UNL     1      -9.211   4.955  69.934  1.00  0.00    -0.124 A  
HETATM    6  C   UNL     1      -9.074   5.868  70.969  1.00  0.00    -0.156 A  
HETATM    7  C   UNL     1     -10.724   3.376  73.904  1.00  0.00    -0.297 A  
HETATM    8  C   UNL     1      -9.690   5.263  72.106  1.00  0.00    -0.202 A  
HETATM    9  C   UNL     1      -9.979   3.956  71.723  1.00  0.00    -0.163 A  
HETATM   10  C   UNL     1     -10.513   4.692  74.314  1.00  0.00    -0.330 A  
HETATM   11  C   UNL     1     -10.010   5.649  73.426  1.00  0.00    -0.186 A  
HETATM   12  C   UNL     1     -10.482   2.984  72.583  1.00  0.00    -0.175 A  
HETATM   13  O   UNL     1      -9.713   3.778  70.402  1.00  0.00    -0.188 OA 
BRANCH   6  14
HETATM   14  C   UNL     1      -8.436   7.165  70.826  1.00  0.00    -0.133 C  
HETATM   15  O   UNL     1      -7.245   7.324  71.077  1.00  0.00    -0.070 OA 
BRANCH  14  16
HETATM   16  C   UNL     1      -9.243   8.354  70.425  1.00  0.00    -0.161 A  
HETATM   17  I   UNL     1      -8.096  11.434  67.679  1.00  0.00    -0.148 I  
HETATM   18  C   UNL     1     -10.613  10.701  69.542  1.00  0.00    -0.230 A  
HETATM   19  C   UNL     1      -8.725   9.148  69.405  1.00  0.00    -0.140 A  
HETATM   20  C   UNL     1     -11.123   9.885  70.579  1.00  0.00    -0.332 A  
HETATM   21  I   UNL     1     -13.001  10.247  71.480  1.00  0.00    -0.524 I  
HETATM   22  C   UNL     1      -9.359  10.336  69.002  1.00  0.00    -0.189 A  
HETATM   23  C   UNL     1     -10.423   8.760  71.050  1.00  0.00    -0.293 A  
BRANCH  18  24
HETATM   24  O   UNL     1     -11.419  11.771  69.194  1.00  0.00    -0.248 OA 
BRANCH  24  25
HETATM   25  C   UNL     1     -11.742  11.851  67.811  1.00  0.00    -0.292 C  
BRANCH  25  26
HETATM   26  C   UNL     1     -11.685  13.246  67.174  1.00  0.00    -0.376 C  
BRANCH  26  27
HETATM   27  N   UNL     1     -11.325  13.154  65.731  1.00  0.00    -0.300 NA 
BRANCH  27  28
HETATM   28  C   UNL     1     -12.448  12.793  64.847  1.00  0.00    -0.497 C  
HETATM   29  C   UNL     1     -12.063  12.221  63.487  1.00  0.00    -0.649 C  
ENDBRANCH  27  28
BRANCH  27  30
HETATM   30  C   UNL     1     -10.582  14.344  65.296  1.00  0.00    -0.382 C  
HETATM   31  C   UNL     1      -9.700  14.958  66.383  1.00  0.00    -0.306 C  
ENDBRANCH  27  30
ENDBRANCH  26  27
ENDBRANCH  25  26
ENDBRANCH  24  25
ENDBRANCH  18  24
ENDBRANCH  14  16
ENDBRANCH   6  14
ENDBRANCH   4   5
ENDBRANCH   3   4
ENDBRANCH   2   3
TORSDOF 11
ENDMDL
MODEL       81
REMARK 921   NORMALIZED FREE ENERGY PREDICTED BY IDOCK:   -4.93 KCAL/MOL
REMARK 922        TOTAL FREE ENERGY PREDICTED BY IDOCK:  -10.25 KCAL/MOL
REMARK 923 INTER-LIGAND FREE ENERGY PREDICTED BY IDOCK:   -9.26 KCAL/MOL
REMARK 924 INTRA-LIGAND FREE ENERGY PREDICTED BY IDOCK:   -1.00 KCAL/MOL
REMARK 927      BINDING AFFINITY PREDICTED BY RF-SCORE:    0.00 PKD
ROOT
HETATM    1  C   UNL     1     -11.141   5.117  73.008  1.00  0.00    -0.379 C  
HETATM    2  C   UNL     1     -10.219   6.085  73.732  1.00  0.00    -0.253 C  
ENDROOT
BRANCH   2   3
HETATM    3  C   UNL     1     -10.642   7.538  73.511  1.00  0.00    -0.347 C  
BRANCH   3   4
HETATM    4  C   UNL     1      -9.609   8.290  72.673  1.00  0.00    -0.352 C  
BRANCH   4   5
HETATM    5  C   UNL     1      -9.760   8.004  71.217  1.00  0.00    -0.163 A  
HETATM    6  C   UNL     1     -10.609   8.476  70.229  1.00  0.00    -0.238 A  
HETATM    7  C   UNL     1      -8.930   6.185  67.150  1.00  0.00    -0.111 A  
HETATM    8  C   UNL     1     -10.148   7.895  69.009  1.00  0.00    -0.204 A  
HETATM    9  C   UNL     1      -9.178   6.967  69.380  1.00  0.00    -0.147 A  
HETATM   10  C   UNL     1      -9.847   7.146  66.722  1.00  0.00    -0.272 A  
HETATM   11  C   UNL     1     -10.454   8.015  67.636  1.00  0.00    -0.301 A  
HETATM   12  C   UNL     1      -8.556   6.092  68.495  1.00  0.00    -0.113 A  
HETATM   13  O   UNL     1      -8.926   7.052  70.713  1.00  0.00    -0.149 OA 
BRANCH   6  14
HETATM   14  C   UNL     1     -11.708   9.392  70.475  1.00  0.00    -0.198 C  
HETATM   15  O   UNL     1     -12.655   9.079  71.192  1.00  0.00    -0.293 OA 
BRANCH  14  16
HETATM   16  C   UNL     1     -11.736  10.724  69.804  1.00  0.00    -0.399 A  
HETATM   17  I   UNL     1     -12.661  14.497  71.608  1.00  0.00    -0.455 I  
HETATM   18  C   UNL     1     -11.862  13.360  68.707  1.00  0.00    -0.351 A  
HETATM   19  C   UNL     1     -11.922  11.835  70.622  1.00  0.00    -0.320 A  
HETATM   20  C   UNL     1     -11.677  12.220  67.890  1.00  0.00    -0.347 A  
HETATM   21  I   UNL     1     -11.346  12.367  65.808  1.00  0.00    -0.435 I  
HETATM   22  C   UNL     1     -12.044  13.131  70.090  1.00  0.00    -0.321 A  
HETATM   23  C   UNL     1     -11.667  10.919  68.423  1.00  0.00    -0.290 A  
BRANCH  18  24
HETATM   24  O   UNL     1     -11.849  14.569  68.032  1.00  0.00    -0.330 OA 
BRANCH  24  25
HETATM   25  C   UNL     1     -10.629  15.293  68.128  1.00  0.00    -0.254 C  
BRANCH  25  26
HETATM   26  C   UNL     1     -10.744  16.789  68.450  1.00  0.00    -0.362 C  
BRANCH  26  27
HETATM   27  N   UNL     1     -10.836  17.594  67.200  1.00  0.00    -0.186 NA 
BRANCH  27  28
HETATM   28  C   UNL     1     -10.563  19.031  67.383  1.00  0.00    -0.474 C  
HETATM   29  C   UNL     1     -10.320  19.826  66.104  1.00  0.00    -0.627 C  
ENDBRANCH  27  28
BRANCH  27  30
HETATM   30  C   UNL     1     -10.067  16.973  66.115  1.00  0.00    -0.319 C  
HETATM   31  C   UNL     1     -10.930  16.365  65.009  1.00  0.00    -0.265 C  
ENDBRANCH  27  30
ENDBRANCH  26  27
ENDBRANCH  25  26
ENDBRANCH  24  25
ENDBRANCH  18  24
ENDBRANCH  14  16
ENDBRANCH   6  14
ENDBRANCH   4   5
ENDBRANCH   3   4
ENDBRANCH   2   3
TORSDOF 11
ENDMDL
MODEL       82
REMARK 921   NORMALIZED FREE ENERGY PREDICTED BY IDOCK:   -4.90 KCAL/MOL
REMARK 922        TOTAL FREE ENERGY PREDICTED BY IDOCK:  -10.20 KCAL/MOL
REMARK 923 INTER-LIGAND FREE ENERGY PREDICTED BY IDOCK:   -8.03 KCAL/MOL
REMARK 924 INTRA-LIGAND FREE ENERGY PREDICTED BY IDOCK:   -2.17 KCAL/MOL
REMARK 927      BINDING AFFINITY PREDICTED BY RF-SCORE:    0.00 PKD
ROOT
HETATM    1  C   UNL     1     -11.791  11.060  69.995  1.00  0.00    -0.435 C  
HETATM    2  C   UNL     1     -12.903  10.552  70.899  1.00  0.00    -0.485 C  
ENDROOT
BRANCH   2   3
HETATM    3  C   UNL     1     -12.738   9.065  71.216  1.00  0.00    -0.316 C  
BRANCH   3   4
HETATM    4  C   UNL     1     -12.067   8.863  72.574  1.00  0.00    -0.266 C  
BRANCH   4   5
HETATM    5  C   UNL     1     -11.229   7.630  72.602  1.00  0.00    -0.366 A  
HETATM    6  C   UNL     1      -9.888   7.374  72.358  1.00  0.00    -0.207 A  
HETATM    7  C   UNL     1     -10.122   3.272  73.173  1.00  0.00    -0.213 A  
HETATM    8  C   UNL     1      -9.689   5.999  72.686  1.00  0.00    -0.166 A  
HETATM    9  C   UNL     1     -10.960   5.482  72.917  1.00  0.00    -0.285 A  
HETATM   10  C   UNL     1      -8.824   3.758  73.015  1.00  0.00    -0.100 A  
HETATM   11  C   UNL     1      -8.590   5.118  72.783  1.00  0.00    -0.120 A  
HETATM   12  C   UNL     1     -11.223   4.135  73.152  1.00  0.00    -0.244 A  
HETATM   13  O   UNL     1     -11.888   6.474  72.892  1.00  0.00    -0.004 OA 
BRANCH   6  14
HETATM   14  C   UNL     1      -8.947   8.374  71.885  1.00  0.00    -0.214 C  
HETATM   15  O   UNL     1      -8.161   8.926  72.650  1.00  0.00    -0.387 OA 
BRANCH  14  16
HETATM   16  C   UNL     1      -8.961   8.796  70.454  1.00  0.00    -0.188 A  
HETATM   17  I   UNL     1     -10.554   6.602  67.139  1.00  0.00    -0.426 I  
HETATM   18  C   UNL     1      -9.073   9.408  67.665  1.00  0.00    -0.121 A  
HETATM   19  C   UNL     1      -9.663   7.984  69.568  1.00  0.00    -0.170 A  
HETATM   20  C   UNL     1      -8.361  10.220  68.579  1.00  0.00    -0.116 A  
HETATM   21  I   UNL     1      -7.429  12.025  67.995  1.00  0.00    -0.152 I  
HETATM   22  C   UNL     1      -9.677   8.241  68.185  1.00  0.00    -0.158 A  
HETATM   23  C   UNL     1      -8.262   9.891  69.942  1.00  0.00    -0.199 A  
BRANCH  18  24
HETATM   24  O   UNL     1      -9.075   9.866  66.359  1.00  0.00    -0.144 OA 
BRANCH  24  25
HETATM   25  C   UNL     1     -10.360  10.194  65.843  1.00  0.00    -0.151 C  
BRANCH  25  26
HETATM   26  C   UNL     1     -10.940  11.551  66.263  1.00  0.00    -0.275 C  
BRANCH  26  27
HETATM   27  N   UNL     1     -10.626  12.597  65.250  1.00  0.00    -0.285 NA 
BRANCH  27  28
HETATM   28  C   UNL     1     -10.947  12.214  63.863  1.00  0.00    -0.402 C  
HETATM   29  C   UNL     1     -12.431  12.168  63.516  1.00  0.00    -0.666 C  
ENDBRANCH  27  28
BRANCH  27  30
HETATM   30  C   UNL     1     -11.171  13.900  65.650  1.00  0.00    -0.306 C  
HETATM   31  C   UNL     1     -12.052  13.849  66.899  1.00  0.00    -0.467 C  
ENDBRANCH  27  30
ENDBRANCH  26  27
ENDBRANCH  25  26
ENDBRANCH  24  25
ENDBRANCH  18  24
ENDBRANCH  14  16
ENDBRANCH   6  14
ENDBRANCH   4   5
ENDBRANCH   3   4
ENDBRANCH   2   3
TORSDOF 11
ENDMDL
MODEL       83
REMARK 921   NORMALIZED FREE ENERGY PREDICTED BY IDOCK:   -4.90 KCAL/MOL
REMARK 922        TOTAL FREE ENERGY PREDICTED BY IDOCK:  -10.20 KCAL/MOL
REMARK 923 INTER-LIGAND FREE ENERGY PREDICTED BY IDOCK:   -7.75 KCAL/MOL
REMARK 924 INTRA-LIGAND FREE ENERGY PREDICTED BY IDOCK:   -2.45 KCAL/MOL
REMARK 927      BINDING AFFINITY PREDICTED BY RF-SCORE:    0.00 PKD
ROOT
HETATM    1  C   UNL     1      -5.173  13.538  69.922  1.00  0.00    -0.086 C  
HETATM    2  C   UNL     1      -6.158  14.534  70.512  1.00  0.00    -0.183 C  
ENDROOT
BRANCH   2   3
HETATM    3  C   UNL     1      -5.937  15.942  69.956  1.00  0.00    -0.156 C  
BRANCH   3   4
HETATM    4  C   UNL     1      -6.146  15.975  68.443  1.00  0.00    -0.104 C  
BRANCH   4   5
HETATM    5  C   UNL     1      -7.354  16.763  68.065  1.00  0.00    -0.161 A  
HETATM    6  C   UNL     1      -8.718  16.551  68.195  1.00  0.00    -0.194 A  
HETATM    7  C   UNL     1      -9.842  20.193  66.457  1.00  0.00    -0.574 A  
HETATM    8  C   UNL     1      -9.343  17.754  67.749  1.00  0.00    -0.257 A  
HETATM    9  C   UNL     1      -8.321  18.526  67.203  1.00  0.00    -0.249 A  
HETATM   10  C   UNL     1     -10.889  19.486  67.050  1.00  0.00    -0.542 A  
HETATM   11  C   UNL     1     -10.655  18.274  67.709  1.00  0.00    -0.415 A  
HETATM   12  C   UNL     1      -8.523  19.735  66.545  1.00  0.00    -0.380 A  
HETATM   13  O   UNL     1      -7.115  17.937  67.418  1.00  0.00    -0.183 OA 
BRANCH   6  14
HETATM   14  C   UNL     1      -9.301  15.326  68.713  1.00  0.00    -0.210 C  
HETATM   15  O   UNL     1      -9.623  15.219  69.894  1.00  0.00    -0.207 OA 
BRANCH  14  16
HETATM   16  C   UNL     1      -9.464  14.141  67.822  1.00  0.00    -0.207 A  
HETATM   17  I   UNL     1      -6.765  10.841  67.412  1.00  0.00    -0.091 I  
HETATM   18  C   UNL     1      -9.575  11.805  66.179  1.00  0.00    -0.232 A  
HETATM   19  C   UNL     1      -8.529  13.119  67.961  1.00  0.00    -0.181 A  
HETATM   20  C   UNL     1     -10.515  12.854  66.049  1.00  0.00    -0.276 A  
HETATM   21  I   UNL     1     -12.159  12.737  64.726  1.00  0.00    -0.546 I  
HETATM   22  C   UNL     1      -8.537  11.992  67.120  1.00  0.00    -0.182 A  
HETATM   23  C   UNL     1     -10.430  14.026  66.821  1.00  0.00    -0.277 A  
BRANCH  18  24
HETATM   24  O   UNL     1      -9.794  10.720  65.348  1.00  0.00    -0.228 OA 
BRANCH  24  25
HETATM   25  C   UNL     1      -9.901   9.469  66.015  1.00  0.00    -0.283 C  
BRANCH  25  26
HETATM   26  C   UNL     1     -10.848   9.415  67.222  1.00  0.00    -0.094 C  
BRANCH  26  27
HETATM   27  N   UNL     1     -10.113   9.009  68.453  1.00  0.00    -0.184 NA 
BRANCH  27  28
HETATM   28  C   UNL     1     -10.305   9.914  69.600  1.00  0.00    -0.241 C  
HETATM   29  C   UNL     1     -11.328  11.028  69.400  1.00  0.00    -0.352 C  
ENDBRANCH  27  28
BRANCH  27  30
HETATM   30  C   UNL     1     -10.348   7.593  68.765  1.00  0.00    -0.204 C  
HETATM   31  C   UNL     1     -10.999   7.355  70.127  1.00  0.00    -0.272 C  
ENDBRANCH  27  30
ENDBRANCH  26  27
ENDBRANCH  25  26
ENDBRANCH  24  25
ENDBRANCH  18  24
ENDBRANCH  14  16
ENDBRANCH   6  14
ENDBRANCH   4   5
ENDBRANCH   3   4
ENDBRANCH   2   3
TORSDOF 11
ENDMDL
MODEL       84
REMARK 921   NORMALIZED FREE ENERGY PREDICTED BY IDOCK:   -4.90 KCAL/MOL
REMARK 922        TOTAL FREE ENERGY PREDICTED BY IDOCK:  -10.19 KCAL/MOL
REMARK 923 INTER-LIGAND FREE ENERGY PREDICTED BY IDOCK:   -9.03 KCAL/MOL
REMARK 924 INTRA-LIGAND FREE ENERGY PREDICTED BY IDOCK:   -1.16 KCAL/MOL
REMARK 927      BINDING AFFINITY PREDICTED BY RF-SCORE:    0.00 PKD
ROOT
HETATM    1  C   UNL     1      -9.914  19.959  67.299  1.00  0.00    -0.556 C  
HETATM    2  C   UNL     1     -10.501  18.599  66.956  1.00  0.00    -0.453 C  
ENDROOT
BRANCH   2   3
HETATM    3  C   UNL     1      -9.421  17.519  66.889  1.00  0.00    -0.278 C  
BRANCH   3   4
HETATM    4  C   UNL     1      -9.867  16.250  67.615  1.00  0.00    -0.238 C  
BRANCH   4   5
HETATM    5  C   UNL     1     -10.227  15.162  66.661  1.00  0.00    -0.266 A  
HETATM    6  C   UNL     1      -9.819  13.845  66.508  1.00  0.00    -0.296 A  
HETATM    7  C   UNL     1     -12.332  13.039  63.255  1.00  0.00    -0.392 A  
HETATM    8  C   UNL     1     -10.646  13.299  65.481  1.00  0.00    -0.295 A  
HETATM    9  C   UNL     1     -11.356  14.377  64.960  1.00  0.00    -0.373 A  
HETATM   10  C   UNL     1     -11.694  11.918  63.785  1.00  0.00    -0.554 A  
HETATM   11  C   UNL     1     -10.859  12.029  64.903  1.00  0.00    -0.349 A  
HETATM   12  C   UNL     1     -12.195  14.297  63.852  1.00  0.00    -0.233 A  
HETATM   13  O   UNL     1     -11.121  15.499  65.691  1.00  0.00    -0.308 OA 
BRANCH   6  14
HETATM   14  C   UNL     1      -8.767  13.227  67.295  1.00  0.00    -0.214 C  
HETATM   15  O   UNL     1      -7.640  13.712  67.353  1.00  0.00    -0.167 OA 
BRANCH  14  16
HETATM   16  C   UNL     1      -9.023  11.940  68.005  1.00  0.00    -0.185 A  
HETATM   17  I   UNL     1     -12.350  11.021  70.542  1.00  0.00    -0.419 I  
HETATM   18  C   UNL     1      -9.689   9.573  69.460  1.00  0.00    -0.190 A  
HETATM   19  C   UNL     1     -10.246  11.819  68.660  1.00  0.00    -0.211 A  
HETATM   20  C   UNL     1      -8.451   9.714  68.792  1.00  0.00    -0.123 A  
HETATM   21  I   UNL     1      -7.036   8.146  68.695  1.00  0.00    -0.075 I  
HETATM   22  C   UNL     1     -10.562  10.684  69.428  1.00  0.00    -0.239 A  
HETATM   23  C   UNL     1      -8.101  10.899  68.120  1.00  0.00    -0.119 A  
BRANCH  18  24
HETATM   24  O   UNL     1      -9.883   8.348  70.076  1.00  0.00    -0.179 OA 
BRANCH  24  25
HETATM   25  C   UNL     1     -10.763   7.467  69.388  1.00  0.00    -0.211 C  
BRANCH  25  26
HETATM   26  C   UNL     1     -11.436   6.376  70.232  1.00  0.00    -0.402 C  
BRANCH  26  27
HETATM   27  N   UNL     1     -12.073   6.962  71.445  1.00  0.00    -0.344 NA 
BRANCH  27  28
HETATM   28  C   UNL     1     -13.530   7.154  71.332  1.00  0.00    -0.291 C  
HETATM   29  C   UNL     1     -14.099   8.358  72.074  1.00  0.00    -0.495 C  
ENDBRANCH  27  28
BRANCH  27  30
HETATM   30  C   UNL     1     -11.658   6.245  72.657  1.00  0.00    -0.175 C  
HETATM   31  C   UNL     1     -10.598   6.977  73.481  1.00  0.00    -0.405 C  
ENDBRANCH  27  30
ENDBRANCH  26  27
ENDBRANCH  25  26
ENDBRANCH  24  25
ENDBRANCH  18  24
ENDBRANCH  14  16
ENDBRANCH   6  14
ENDBRANCH   4   5
ENDBRANCH   3   4
ENDBRANCH   2   3
TORSDOF 11
ENDMDL
MODEL       85
REMARK 921   NORMALIZED FREE ENERGY PREDICTED BY IDOCK:   -4.88 KCAL/MOL
REMARK 922        TOTAL FREE ENERGY PREDICTED BY IDOCK:  -10.17 KCAL/MOL
REMARK 923 INTER-LIGAND FREE ENERGY PREDICTED BY IDOCK:   -8.61 KCAL/MOL
REMARK 924 INTRA-LIGAND FREE ENERGY PREDICTED BY IDOCK:   -1.56 KCAL/MOL
REMARK 927      BINDING AFFINITY PREDICTED BY RF-SCORE:    0.00 PKD
ROOT
HETATM    1  C   UNL     1      -7.140   7.394  67.553  1.00  0.00    -0.088 C  
HETATM    2  C   UNL     1      -6.478   8.514  68.339  1.00  0.00    -0.055 C  
ENDROOT
BRANCH   2   3
HETATM    3  C   UNL     1      -7.171   9.857  68.100  1.00  0.00    -0.078 C  
BRANCH   3   4
HETATM    4  C   UNL     1      -7.637  10.478  69.417  1.00  0.00    -0.145 C  
BRANCH   4   5
HETATM    5  C   UNL     1      -8.715   9.674  70.059  1.00  0.00    -0.231 A  
HETATM    6  C   UNL     1      -9.934   9.178  69.621  1.00  0.00    -0.198 A  
HETATM    7  C   UNL     1     -10.904   7.291  73.234  1.00  0.00    -0.404 A  
HETATM    8  C   UNL     1     -10.432   8.373  70.689  1.00  0.00    -0.227 A  
HETATM    9  C   UNL     1      -9.573   8.599  71.761  1.00  0.00    -0.290 A  
HETATM   10  C   UNL     1     -11.755   6.983  72.172  1.00  0.00    -0.321 A  
HETATM   11  C   UNL     1     -11.527   7.504  70.894  1.00  0.00    -0.303 A  
HETATM   12  C   UNL     1      -9.773   8.092  73.042  1.00  0.00    -0.348 A  
HETATM   13  O   UNL     1      -8.520   9.365  71.371  1.00  0.00    -0.293 OA 
BRANCH   6  14
HETATM   14  C   UNL     1     -10.499   9.458  68.313  1.00  0.00    -0.217 C  
HETATM   15  O   UNL     1     -10.603   8.582  67.459  1.00  0.00    -0.256 OA 
BRANCH  14  16
HETATM   16  C   UNL     1     -10.911  10.848  67.959  1.00  0.00    -0.317 A  
HETATM   17  I   UNL     1     -11.307  12.489  64.023  1.00  0.00    -0.615 I  
HETATM   18  C   UNL     1     -11.661  13.458  67.069  1.00  0.00    -0.381 A  
HETATM   19  C   UNL     1     -11.111  11.116  66.608  1.00  0.00    -0.255 A  
HETATM   20  C   UNL     1     -11.451  13.167  68.438  1.00  0.00    -0.315 A  
HETATM   21  I   UNL     1     -11.797  14.594  69.959  1.00  0.00    -0.418 I  
HETATM   22  C   UNL     1     -11.423  12.410  66.152  1.00  0.00    -0.379 A  
HETATM   23  C   UNL     1     -11.031  11.897  68.871  1.00  0.00    -0.285 A  
BRANCH  18  24
HETATM   24  O   UNL     1     -12.071  14.753  66.805  1.00  0.00    -0.291 OA 
BRANCH  24  25
HETATM   25  C   UNL     1     -11.071  15.592  66.239  1.00  0.00    -0.177 C  
BRANCH  25  26
HETATM   26  C   UNL     1     -10.568  16.746  67.116  1.00  0.00    -0.256 C  
BRANCH  26  27
HETATM   27  N   UNL     1      -9.196  17.160  66.711  1.00  0.00    -0.244 NA 
BRANCH  27  28
HETATM   28  C   UNL     1      -8.911  18.593  66.908  1.00  0.00    -0.294 C  
HETATM   29  C   UNL     1      -9.940  19.558  66.328  1.00  0.00    -0.538 C  
ENDBRANCH  27  28
BRANCH  27  30
HETATM   30  C   UNL     1      -8.183  16.266  67.287  1.00  0.00    -0.172 C  
HETATM   31  C   UNL     1      -8.270  16.125  68.806  1.00  0.00    -0.216 C  
ENDBRANCH  27  30
ENDBRANCH  26  27
ENDBRANCH  25  26
ENDBRANCH  24  25
ENDBRANCH  18  24
ENDBRANCH  14  16
ENDBRANCH   6  14
ENDBRANCH   4   5
ENDBRANCH   3   4
ENDBRANCH   2   3
TORSDOF 11
ENDMDL
MODEL       86
REMARK 921   NORMALIZED FREE ENERGY PREDICTED BY IDOCK:   -4.88 KCAL/MOL
REMARK 922        TOTAL FREE ENERGY PREDICTED BY IDOCK:  -10.16 KCAL/MOL
REMARK 923 INTER-LIGAND FREE ENERGY PREDICTED BY IDOCK:   -8.12 KCAL/MOL
REMARK 924 INTRA-LIGAND FREE ENERGY PREDICTED BY IDOCK:   -2.04 KCAL/MOL
REMARK 927      BINDING AFFINITY PREDICTED BY RF-SCORE:    0.00 PKD
ROOT
HETATM    1  C   UNL     1     -12.769  10.494  71.355  1.00  0.00    -0.547 C  
HETATM    2  C   UNL     1     -11.373   9.986  71.031  1.00  0.00    -0.434 C  
ENDROOT
BRANCH   2   3
HETATM    3  C   UNL     1     -11.133   8.591  71.608  1.00  0.00    -0.360 C  
BRANCH   3   4
HETATM    4  C   UNL     1     -11.945   7.537  70.856  1.00  0.00    -0.278 C  
BRANCH   4   5
HETATM    5  C   UNL     1     -11.086   6.427  70.355  1.00  0.00    -0.339 A  
HETATM    6  C   UNL     1     -10.486   6.152  69.135  1.00  0.00    -0.310 A  
HETATM    7  C   UNL     1      -8.658   2.599  70.395  1.00  0.00    -0.106 A  
HETATM    8  C   UNL     1      -9.683   4.991  69.350  1.00  0.00    -0.254 A  
HETATM    9  C   UNL     1     -10.009   4.541  70.626  1.00  0.00    -0.203 A  
HETATM   10  C   UNL     1      -8.250   3.046  69.138  1.00  0.00    -0.077 A  
HETATM   11  C   UNL     1      -8.742   4.244  68.607  1.00  0.00    -0.122 A  
HETATM   12  C   UNL     1      -9.534   3.357  71.181  1.00  0.00    -0.224 A  
HETATM   13  O   UNL     1     -10.838   5.424  71.243  1.00  0.00    -0.218 OA 
BRANCH   6  14
HETATM   14  C   UNL     1     -10.678   6.954  67.940  1.00  0.00    -0.232 C  
HETATM   15  O   UNL     1     -11.391   6.568  67.018  1.00  0.00    -0.342 OA 
BRANCH  14  16
HETATM   16  C   UNL     1      -9.952   8.248  67.783  1.00  0.00    -0.235 A  
HETATM   17  I   UNL     1     -10.279  11.002  64.520  1.00  0.00    -0.389 I  
HETATM   18  C   UNL     1      -8.654  10.744  67.284  1.00  0.00    -0.130 A  
HETATM   19  C   UNL     1     -10.325   9.049  66.708  1.00  0.00    -0.310 A  
HETATM   20  C   UNL     1      -8.285   9.915  68.369  1.00  0.00    -0.106 A  
HETATM   21  I   UNL     1      -6.838  10.501  69.794  1.00  0.00    -0.113 I  
HETATM   22  C   UNL     1      -9.655  10.251  66.417  1.00  0.00    -0.185 A  
HETATM   23  C   UNL     1      -8.887   8.663  68.585  1.00  0.00    -0.142 A  
BRANCH  18  24
HETATM   24  O   UNL     1      -7.967  11.943  67.207  1.00  0.00    -0.154 OA 
BRANCH  24  25
HETATM   25  C   UNL     1      -8.667  13.066  67.730  1.00  0.00    -0.188 C  
BRANCH  25  26
HETATM   26  C   UNL     1      -9.294  14.020  66.704  1.00  0.00    -0.277 C  
BRANCH  26  27
HETATM   27  N   UNL     1     -10.769  14.110  66.898  1.00  0.00    -0.284 NA 
BRANCH  27  28
HETATM   28  C   UNL     1     -11.177  14.838  68.114  1.00  0.00    -0.294 C  
HETATM   29  C   UNL     1     -11.952  14.022  69.144  1.00  0.00    -0.400 C  
ENDBRANCH  27  28
BRANCH  27  30
HETATM   30  C   UNL     1     -11.434  14.574  65.674  1.00  0.00    -0.341 C  
HETATM   31  C   UNL     1     -12.775  13.893  65.399  1.00  0.00    -0.525 C  
ENDBRANCH  27  30
ENDBRANCH  26  27
ENDBRANCH  25  26
ENDBRANCH  24  25
ENDBRANCH  18  24
ENDBRANCH  14  16
ENDBRANCH   6  14
ENDBRANCH   4   5
ENDBRANCH   3   4
ENDBRANCH   2   3
TORSDOF 11
ENDMDL
MODEL       87
REMARK 921   NORMALIZED FREE ENERGY PREDICTED BY IDOCK:   -4.85 KCAL/MOL
REMARK 922        TOTAL FREE ENERGY PREDICTED BY IDOCK:  -10.12 KCAL/MOL
REMARK 923 INTER-LIGAND FREE ENERGY PREDICTED BY IDOCK:   -8.48 KCAL/MOL
REMARK 924 INTRA-LIGAND FREE ENERGY PREDICTED BY IDOCK:   -1.64 KCAL/MOL
REMARK 927      BINDING AFFINITY PREDICTED BY RF-SCORE:    0.00 PKD
ROOT
HETATM    1  C   UNL     1     -13.168  10.859  71.786  1.00  0.00    -0.513 C  
HETATM    2  C   UNL     1     -13.230   9.340  71.787  1.00  0.00    -0.472 C  
ENDROOT
BRANCH   2   3
HETATM    3  C   UNL     1     -11.846   8.719  71.980  1.00  0.00    -0.442 C  
BRANCH   3   4
HETATM    4  C   UNL     1     -10.765   9.563  71.304  1.00  0.00    -0.386 C  
BRANCH   4   5
HETATM    5  C   UNL     1     -10.444   9.062  69.937  1.00  0.00    -0.215 A  
HETATM    6  C   UNL     1     -10.514   9.619  68.669  1.00  0.00    -0.235 A  
HETATM    7  C   UNL     1      -9.016   6.249  66.683  1.00  0.00    -0.139 A  
HETATM    8  C   UNL     1      -9.933   8.657  67.789  1.00  0.00    -0.240 A  
HETATM    9  C   UNL     1      -9.733   7.516  68.562  1.00  0.00    -0.156 A  
HETATM   10  C   UNL     1      -9.136   7.386  65.884  1.00  0.00    -0.073 A  
HETATM   11  C   UNL     1      -9.580   8.599  66.423  1.00  0.00    -0.316 A  
HETATM   12  C   UNL     1      -9.290   6.298  68.054  1.00  0.00    -0.114 A  
HETATM   13  O   UNL     1     -10.018   7.770  69.866  1.00  0.00    -0.186 OA 
BRANCH   6  14
HETATM   14  C   UNL     1     -11.066  10.933  68.392  1.00  0.00    -0.262 C  
HETATM   15  O   UNL     1     -12.277  11.136  68.406  1.00  0.00    -0.610 OA 
BRANCH  14  16
HETATM   16  C   UNL     1     -10.162  12.060  68.019  1.00  0.00    -0.203 A  
HETATM   17  I   UNL     1     -10.980  15.197  65.220  1.00  0.00    -0.409 I  
HETATM   18  C   UNL     1      -8.581  14.278  67.155  1.00  0.00    -0.216 A  
HETATM   19  C   UNL     1     -10.696  13.045  67.193  1.00  0.00    -0.266 A  
HETATM   20  C   UNL     1      -8.053  13.266  67.991  1.00  0.00    -0.157 A  
HETATM   21  I   UNL     1      -6.096  13.366  68.785  1.00  0.00    -0.115 I  
HETATM   22  C   UNL     1      -9.913  14.110  66.714  1.00  0.00    -0.267 A  
HETATM   23  C   UNL     1      -8.815  12.148  68.374  1.00  0.00    -0.143 A  
BRANCH  18  24
HETATM   24  O   UNL     1      -7.706  15.311  66.868  1.00  0.00    -0.199 OA 
BRANCH  24  25
HETATM   25  C   UNL     1      -8.045  16.562  67.454  1.00  0.00    -0.150 C  
BRANCH  25  26
HETATM   26  C   UNL     1      -7.971  17.790  66.536  1.00  0.00    -0.264 C  
BRANCH  26  27
HETATM   27  N   UNL     1      -8.347  19.028  67.277  1.00  0.00    -0.273 NA 
BRANCH  27  28
HETATM   28  C   UNL     1      -9.751  19.063  67.726  1.00  0.00    -0.325 C  
HETATM   29  C   UNL     1     -10.728  19.763  66.787  1.00  0.00    -0.526 C  
ENDBRANCH  27  28
BRANCH  27  30
HETATM   30  C   UNL     1      -7.374  19.324  68.336  1.00  0.00    -0.305 C  
HETATM   31  C   UNL     1      -6.323  20.362  67.942  1.00  0.00    -0.304 C  
ENDBRANCH  27  30
ENDBRANCH  26  27
ENDBRANCH  25  26
ENDBRANCH  24  25
ENDBRANCH  18  24
ENDBRANCH  14  16
ENDBRANCH   6  14
ENDBRANCH   4   5
ENDBRANCH   3   4
ENDBRANCH   2   3
TORSDOF 11
ENDMDL
MODEL       88
REMARK 921   NORMALIZED FREE ENERGY PREDICTED BY IDOCK:   -4.85 KCAL/MOL
REMARK 922        TOTAL FREE ENERGY PREDICTED BY IDOCK:  -10.11 KCAL/MOL
REMARK 923 INTER-LIGAND FREE ENERGY PREDICTED BY IDOCK:   -8.30 KCAL/MOL
REMARK 924 INTRA-LIGAND FREE ENERGY PREDICTED BY IDOCK:   -1.81 KCAL/MOL
REMARK 927      BINDING AFFINITY PREDICTED BY RF-SCORE:    0.00 PKD
ROOT
HETATM    1  C   UNL     1     -10.253   3.805  64.187  1.00  0.00    -0.240 C  
HETATM    2  C   UNL     1      -9.370   4.609  65.128  1.00  0.00    -0.153 C  
ENDROOT
BRANCH   2   3
HETATM    3  C   UNL     1     -10.055   4.852  66.474  1.00  0.00    -0.285 C  
BRANCH   3   4
HETATM    4  C   UNL     1     -10.808   6.182  66.475  1.00  0.00    -0.165 C  
BRANCH   4   5
HETATM    5  C   UNL     1     -10.678   6.893  67.780  1.00  0.00    -0.254 A  
HETATM    6  C   UNL     1      -9.958   7.999  68.203  1.00  0.00    -0.217 A  
HETATM    7  C   UNL     1     -11.391   7.910  72.139  1.00  0.00    -0.367 A  
HETATM    8  C   UNL     1     -10.376   8.245  69.546  1.00  0.00    -0.219 A  
HETATM    9  C   UNL     1     -11.171   7.156  69.895  1.00  0.00    -0.208 A  
HETATM   10  C   UNL     1     -10.656   9.051  71.816  1.00  0.00    -0.426 A  
HETATM   11  C   UNL     1     -10.154   9.239  70.523  1.00  0.00    -0.313 A  
HETATM   12  C   UNL     1     -11.687   6.944  71.170  1.00  0.00    -0.381 A  
HETATM   13  O   UNL     1     -11.374   6.352  68.818  1.00  0.00    -0.327 OA 
BRANCH   6  14
HETATM   14  C   UNL     1      -9.007   8.713  67.370  1.00  0.00    -0.133 C  
HETATM   15  O   UNL     1      -8.000   8.163  66.931  1.00  0.00    -0.101 OA 
BRANCH  14  16
HETATM   16  C   UNL     1      -9.206  10.163  67.082  1.00  0.00    -0.157 A  
HETATM   17  I   UNL     1     -11.645  11.861  63.998  1.00  0.00    -0.387 I  
HETATM   18  C   UNL     1      -9.708  12.881  66.355  1.00  0.00    -0.263 A  
HETATM   19  C   UNL     1     -10.160  10.485  66.120  1.00  0.00    -0.306 A  
HETATM   20  C   UNL     1      -8.741  12.535  67.328  1.00  0.00    -0.193 A  
HETATM   21  I   UNL     1      -7.675  13.993  68.425  1.00  0.00    -0.144 I  
HETATM   22  C   UNL     1     -10.375  11.813  65.711  1.00  0.00    -0.253 A  
HETATM   23  C   UNL     1      -8.457  11.196  67.648  1.00  0.00    -0.122 A  
BRANCH  18  24
HETATM   24  O   UNL     1      -9.871  14.240  66.152  1.00  0.00    -0.294 OA 
BRANCH  24  25
HETATM   25  C   UNL     1     -10.899  14.842  66.930  1.00  0.00    -0.316 C  
BRANCH  25  26
HETATM   26  C   UNL     1     -11.965  13.898  67.503  1.00  0.00    -0.386 C  
BRANCH  26  27
HETATM   27  N   UNL     1     -12.170  14.152  68.957  1.00  0.00    -0.303 NA 
BRANCH  27  28
HETATM   28  C   UNL     1     -11.912  12.984  69.819  1.00  0.00    -0.308 C  
HETATM   29  C   UNL     1     -12.053  11.622  69.147  1.00  0.00    -0.315 C  
ENDBRANCH  27  28
BRANCH  27  30
HETATM   30  C   UNL     1     -11.474  15.373  69.382  1.00  0.00    -0.324 C  
HETATM   31  C   UNL     1     -11.820  15.824  70.801  1.00  0.00    -0.438 C  
ENDBRANCH  27  30
ENDBRANCH  26  27
ENDBRANCH  25  26
ENDBRANCH  24  25
ENDBRANCH  18  24
ENDBRANCH  14  16
ENDBRANCH   6  14
ENDBRANCH   4   5
ENDBRANCH   3   4
ENDBRANCH   2   3
TORSDOF 11
ENDMDL
MODEL       89
REMARK 921   NORMALIZED FREE ENERGY PREDICTED BY IDOCK:   -4.84 KCAL/MOL
REMARK 922        TOTAL FREE ENERGY PREDICTED BY IDOCK:  -10.10 KCAL/MOL
REMARK 923 INTER-LIGAND FREE ENERGY PREDICTED BY IDOCK:   -8.86 KCAL/MOL
REMARK 924 INTRA-LIGAND FREE ENERGY PREDICTED BY IDOCK:   -1.24 KCAL/MOL
REMARK 927      BINDING AFFINITY PREDICTED BY RF-SCORE:    0.00 PKD
ROOT
HETATM    1  C   UNL     1     -11.720  13.814  69.021  1.00  0.00    -0.372 C  
HETATM    2  C   UNL     1     -12.238  15.142  69.549  1.00  0.00    -0.268 C  
ENDROOT
BRANCH   2   3
HETATM    3  C   UNL     1     -11.496  16.325  68.924  1.00  0.00    -0.282 C  
BRANCH   3   4
HETATM    4  C   UNL     1     -10.010  16.291  69.279  1.00  0.00    -0.259 C  
BRANCH   4   5
HETATM    5  C   UNL     1      -9.224  17.268  68.472  1.00  0.00    -0.273 A  
HETATM    6  C   UNL     1      -9.137  17.544  67.116  1.00  0.00    -0.247 A  
HETATM    7  C   UNL     1      -6.369  20.660  67.531  1.00  0.00    -0.322 A  
HETATM    8  C   UNL     1      -8.296  18.691  67.005  1.00  0.00    -0.274 A  
HETATM    9  C   UNL     1      -7.783  18.904  68.282  1.00  0.00    -0.301 A  
HETATM   10  C   UNL     1      -6.905  20.528  66.249  1.00  0.00    -0.280 A  
HETATM   11  C   UNL     1      -7.876  19.559  65.974  1.00  0.00    -0.318 A  
HETATM   12  C   UNL     1      -6.819  19.860  68.587  1.00  0.00    -0.352 A  
HETATM   13  O   UNL     1      -8.365  18.059  69.174  1.00  0.00    -0.078 OA 
BRANCH   6  14
HETATM   14  C   UNL     1      -9.820  16.777  66.089  1.00  0.00    -0.309 C  
HETATM   15  O   UNL     1     -10.586  17.312  65.292  1.00  0.00    -0.667 OA 
BRANCH  14  16
HETATM   16  C   UNL     1      -9.648  15.296  66.023  1.00  0.00    -0.372 A  
HETATM   17  I   UNL     1     -12.096  12.515  63.876  1.00  0.00    -0.652 I  
HETATM   18  C   UNL     1      -9.506  12.452  65.781  1.00  0.00    -0.086 A  
HETATM   19  C   UNL     1     -10.479  14.608  65.144  1.00  0.00    -0.440 A  
HETATM   20  C   UNL     1      -8.671  13.168  66.671  1.00  0.00    -0.004 A  
HETATM   21  I   UNL     1      -7.158  12.223  67.804  1.00  0.00    -0.163 I  
HETATM   22  C   UNL     1     -10.460  13.204  65.058  1.00  0.00    -0.342 A  
HETATM   23  C   UNL     1      -8.777  14.561  66.829  1.00  0.00    -0.214 A  
BRANCH  18  24
HETATM   24  O   UNL     1      -9.280  11.087  65.741  1.00  0.00    -0.192 OA 
BRANCH  24  25
HETATM   25  C   UNL     1     -10.262  10.300  66.405  1.00  0.00    -0.225 C  
BRANCH  25  26
HETATM   26  C   UNL     1      -9.831   8.893  66.840  1.00  0.00    -0.223 C  
BRANCH  26  27
HETATM   27  N   UNL     1      -9.800   8.784  68.326  1.00  0.00    -0.159 NA 
BRANCH  27  28
HETATM   28  C   UNL     1     -10.271   9.989  69.032  1.00  0.00    -0.203 C  
HETATM   29  C   UNL     1     -11.001   9.740  70.348  1.00  0.00    -0.371 C  
ENDBRANCH  27  28
BRANCH  27  30
HETATM   30  C   UNL     1     -10.436   7.540  68.777  1.00  0.00    -0.194 C  
HETATM   31  C   UNL     1     -10.795   6.578  67.644  1.00  0.00    -0.419 C  
ENDBRANCH  27  30
ENDBRANCH  26  27
ENDBRANCH  25  26
ENDBRANCH  24  25
ENDBRANCH  18  24
ENDBRANCH  14  16
ENDBRANCH   6  14
ENDBRANCH   4   5
ENDBRANCH   3   4
ENDBRANCH   2   3
TORSDOF 11
ENDMDL
MODEL       90
REMARK 921   NORMALIZED FREE ENERGY PREDICTED BY IDOCK:   -4.84 KCAL/MOL
REMARK 922        TOTAL FREE ENERGY PREDICTED BY IDOCK:  -10.09 KCAL/MOL
REMARK 923 INTER-LIGAND FREE ENERGY PREDICTED BY IDOCK:   -8.44 KCAL/MOL
REMARK 924 INTRA-LIGAND FREE ENERGY PREDICTED BY IDOCK:   -1.65 KCAL/MOL
REMARK 927      BINDING AFFINITY PREDICTED BY RF-SCORE:    0.00 PKD
ROOT
HETATM    1  C   UNL     1     -13.789   9.158  72.245  1.00  0.00    -0.527 C  
HETATM    2  C   UNL     1     -12.354   8.655  72.236  1.00  0.00    -0.449 C  
ENDROOT
BRANCH   2   3
HETATM    3  C   UNL     1     -11.455   9.532  71.363  1.00  0.00    -0.462 C  
BRANCH   3   4
HETATM    4  C   UNL     1     -10.056   8.930  71.236  1.00  0.00    -0.365 C  
BRANCH   4   5
HETATM    5  C   UNL     1      -9.862   8.248  69.925  1.00  0.00    -0.186 A  
HETATM    6  C   UNL     1      -9.258   8.615  68.732  1.00  0.00    -0.142 A  
HETATM    7  C   UNL     1     -10.019   4.985  66.783  1.00  0.00    -0.242 A  
HETATM    8  C   UNL     1      -9.297   7.453  67.903  1.00  0.00    -0.138 A  
HETATM    9  C   UNL     1     -10.091   6.534  68.584  1.00  0.00    -0.161 A  
HETATM   10  C   UNL     1      -9.164   5.845  66.092  1.00  0.00    -0.164 A  
HETATM   11  C   UNL     1      -8.785   7.075  66.643  1.00  0.00    -0.131 A  
HETATM   12  C   UNL     1     -10.483   5.304  68.064  1.00  0.00    -0.143 A  
HETATM   13  O   UNL     1     -10.411   7.006  69.818  1.00  0.00    -0.205 OA 
BRANCH   6  14
HETATM   14  C   UNL     1      -8.705   9.933  68.475  1.00  0.00    -0.121 C  
HETATM   15  O   UNL     1      -7.589  10.249  68.879  1.00  0.00    -0.081 OA 
BRANCH  14  16
HETATM   16  C   UNL     1      -9.520  10.959  67.762  1.00  0.00    -0.165 A  
HETATM   17  I   UNL     1     -11.886  14.055  69.538  1.00  0.00    -0.383 I  
HETATM   18  C   UNL     1     -11.152  12.993  66.593  1.00  0.00    -0.289 A  
HETATM   19  C   UNL     1     -10.093  11.958  68.544  1.00  0.00    -0.211 A  
HETATM   20  C   UNL     1     -10.564  11.968  65.814  1.00  0.00    -0.263 A  
HETATM   21  I   UNL     1     -10.728  11.919  63.707  1.00  0.00    -0.580 I  
HETATM   22  C   UNL     1     -10.945  12.930  67.989  1.00  0.00    -0.247 A  
HETATM   23  C   UNL     1      -9.805  10.938  66.396  1.00  0.00    -0.249 A  
BRANCH  18  24
HETATM   24  O   UNL     1     -11.870  13.932  65.873  1.00  0.00    -0.348 OA 
BRANCH  24  25
HETATM   25  C   UNL     1     -11.416  15.272  66.020  1.00  0.00    -0.085 C  
BRANCH  25  26
HETATM   26  C   UNL     1     -10.056  15.607  65.392  1.00  0.00    -0.335 C  
BRANCH  26  27
HETATM   27  N   UNL     1      -9.500  16.862  65.971  1.00  0.00    -0.480 NA 
BRANCH  27  28
HETATM   28  C   UNL     1     -10.416  17.564  66.889  1.00  0.00    -0.285 C  
HETATM   29  C   UNL     1      -9.958  17.652  68.341  1.00  0.00    -0.356 C  
ENDBRANCH  27  28
BRANCH  27  30
HETATM   30  C   UNL     1      -8.158  16.639  66.523  1.00  0.00    -0.302 C  
HETATM   31  C   UNL     1      -7.154  17.740  66.181  1.00  0.00    -0.347 C  
ENDBRANCH  27  30
ENDBRANCH  26  27
ENDBRANCH  25  26
ENDBRANCH  24  25
ENDBRANCH  18  24
ENDBRANCH  14  16
ENDBRANCH   6  14
ENDBRANCH   4   5
ENDBRANCH   3   4
ENDBRANCH   2   3
TORSDOF 11
ENDMDL
MODEL       91
REMARK 921   NORMALIZED FREE ENERGY PREDICTED BY IDOCK:   -4.80 KCAL/MOL
REMARK 922        TOTAL FREE ENERGY PREDICTED BY IDOCK:  -10.03 KCAL/MOL
REMARK 923 INTER-LIGAND FREE ENERGY PREDICTED BY IDOCK:   -8.44 KCAL/MOL
REMARK 924 INTRA-LIGAND FREE ENERGY PREDICTED BY IDOCK:   -1.60 KCAL/MOL
REMARK 927      BINDING AFFINITY PREDICTED BY RF-SCORE:    0.00 PKD
ROOT
HETATM    1  C   UNL     1     -12.643  13.786  65.474  1.00  0.00    -0.551 C  
HETATM    2  C   UNL     1     -11.581  13.496  64.426  1.00  0.00    -0.429 C  
ENDROOT
BRANCH   2   3
HETATM    3  C   UNL     1     -11.407  11.994  64.198  1.00  0.00    -0.455 C  
BRANCH   3   4
HETATM    4  C   UNL     1      -9.960  11.564  64.438  1.00  0.00    -0.311 C  
BRANCH   4   5
HETATM    5  C   UNL     1      -9.874  10.393  65.357  1.00  0.00    -0.283 A  
HETATM    6  C   UNL     1     -10.320  10.149  66.647  1.00  0.00    -0.274 A  
HETATM    7  C   UNL     1      -8.883   6.218  66.817  1.00  0.00    -0.126 A  
HETATM    8  C   UNL     1     -10.029   8.776  66.906  1.00  0.00    -0.327 A  
HETATM    9  C   UNL     1      -9.257   8.347  65.830  1.00  0.00    -0.111 A  
HETATM   10  C   UNL     1      -9.706   6.580  67.884  1.00  0.00    -0.126 A  
HETATM   11  C   UNL     1     -10.295   7.848  67.937  1.00  0.00    -0.281 A  
HETATM   12  C   UNL     1      -8.660   7.093  65.748  1.00  0.00    -0.143 A  
HETATM   13  O   UNL     1      -9.185   9.318  64.881  1.00  0.00    -0.225 OA 
BRANCH   6  14
HETATM   14  C   UNL     1     -10.963  11.147  67.483  1.00  0.00    -0.275 C  
HETATM   15  O   UNL     1     -12.149  11.057  67.790  1.00  0.00    -0.534 OA 
BRANCH  14  16
HETATM   16  C   UNL     1     -10.201  12.346  67.938  1.00  0.00    -0.213 A  
HETATM   17  I   UNL     1     -11.789  15.831  69.855  1.00  0.00    -0.193 I  
HETATM   18  C   UNL     1      -8.933  14.734  68.862  1.00  0.00    -0.167 A  
HETATM   19  C   UNL     1     -10.907  13.297  68.669  1.00  0.00    -0.285 A  
HETATM   20  C   UNL     1      -8.232  13.758  68.116  1.00  0.00    -0.160 A  
HETATM   21  I   UNL     1      -6.160  13.909  67.728  1.00  0.00     0.096 I  
HETATM   22  C   UNL     1     -10.310  14.503  69.078  1.00  0.00    -0.223 A  
HETATM   23  C   UNL     1      -8.868  12.608  67.616  1.00  0.00    -0.184 A  
BRANCH  18  24
HETATM   24  O   UNL     1      -8.167  15.808  69.282  1.00  0.00    -0.228 OA 
BRANCH  24  25
HETATM   25  C   UNL     1      -8.312  16.987  68.499  1.00  0.00    -0.260 C  
BRANCH  25  26
HETATM   26  C   UNL     1      -7.420  18.176  68.880  1.00  0.00    -0.234 C  
BRANCH  26  27
HETATM   27  N   UNL     1      -8.116  19.466  68.616  1.00  0.00    -0.364 NA 
BRANCH  27  28
HETATM   28  C   UNL     1      -7.409  20.357  67.678  1.00  0.00    -0.302 C  
HETATM   29  C   UNL     1      -6.003  20.775  68.096  1.00  0.00    -0.364 C  
ENDBRANCH  27  28
BRANCH  27  30
HETATM   30  C   UNL     1      -9.528  19.244  68.279  1.00  0.00    -0.359 C  
HETATM   31  C   UNL     1     -10.111  20.286  67.323  1.00  0.00    -0.545 C  
ENDBRANCH  27  30
ENDBRANCH  26  27
ENDBRANCH  25  26
ENDBRANCH  24  25
ENDBRANCH  18  24
ENDBRANCH  14  16
ENDBRANCH   6  14
ENDBRANCH   4   5
ENDBRANCH   3   4
ENDBRANCH   2   3
TORSDOF 11
ENDMDL
MODEL       92
REMARK 921   NORMALIZED FREE ENERGY PREDICTED BY IDOCK:   -4.78 KCAL/MOL
REMARK 922        TOTAL FREE ENERGY PREDICTED BY IDOCK:  -10.01 KCAL/MOL
REMARK 923 INTER-LIGAND FREE ENERGY PREDICTED BY IDOCK:   -8.59 KCAL/MOL
REMARK 924 INTRA-LIGAND FREE ENERGY PREDICTED BY IDOCK:   -1.42 KCAL/MOL
REMARK 927      BINDING AFFINITY PREDICTED BY RF-SCORE:    0.00 PKD
ROOT
HETATM    1  C   UNL     1     -12.079  14.748  64.510  1.00  0.00    -0.460 C  
HETATM    2  C   UNL     1     -10.730  15.080  65.127  1.00  0.00    -0.434 C  
ENDROOT
BRANCH   2   3
HETATM    3  C   UNL     1     -10.025  13.828  65.651  1.00  0.00    -0.275 C  
BRANCH   3   4
HETATM    4  C   UNL     1      -9.315  14.110  66.974  1.00  0.00    -0.253 C  
BRANCH   4   5
HETATM    5  C   UNL     1     -10.271  14.167  68.117  1.00  0.00    -0.241 A  
HETATM    6  C   UNL     1     -11.198  13.278  68.638  1.00  0.00    -0.311 A  
HETATM    7  C   UNL     1     -12.436  15.792  71.752  1.00  0.00    -0.524 A  
HETATM    8  C   UNL     1     -11.702  13.892  69.825  1.00  0.00    -0.372 A  
HETATM    9  C   UNL     1     -11.185  15.185  69.824  1.00  0.00    -0.279 A  
HETATM   10  C   UNL     1     -12.926  14.489  71.831  1.00  0.00    -0.415 A  
HETATM   11  C   UNL     1     -12.560  13.525  70.884  1.00  0.00    -0.414 A  
HETATM   12  C   UNL     1     -11.529  16.163  70.753  1.00  0.00    -0.408 A  
HETATM   13  O   UNL     1     -10.299  15.342  68.805  1.00  0.00    -0.219 OA 
BRANCH   6  14
HETATM   14  C   UNL     1     -11.513  11.992  68.041  1.00  0.00    -0.328 C  
HETATM   15  O   UNL     1     -12.140  11.911  66.988  1.00  0.00    -0.600 OA 
BRANCH  14  16
HETATM   16  C   UNL     1     -11.128  10.730  68.737  1.00  0.00    -0.312 A  
HETATM   17  I   UNL     1      -8.048   7.988  67.578  1.00  0.00    -0.125 I  
HETATM   18  C   UNL     1     -10.249   8.275  69.906  1.00  0.00    -0.201 A  
HETATM   19  C   UNL     1      -9.998  10.071  68.260  1.00  0.00    -0.173 A  
HETATM   20  C   UNL     1     -11.396   8.957  70.376  1.00  0.00    -0.202 A  
HETATM   21  I   UNL     1     -12.487   8.297  72.062  1.00  0.00    -0.401 I  
HETATM   22  C   UNL     1      -9.590   8.833  68.787  1.00  0.00    -0.158 A  
HETATM   23  C   UNL     1     -11.859  10.137  69.767  1.00  0.00    -0.158 A  
BRANCH  18  24
HETATM   24  O   UNL     1      -9.924   7.128  70.609  1.00  0.00    -0.190 OA 
BRANCH  24  25
HETATM   25  C   UNL     1     -10.361   5.915  70.008  1.00  0.00    -0.244 C  
BRANCH  25  26
HETATM   26  C   UNL     1      -9.959   4.615  70.718  1.00  0.00    -0.214 C  
BRANCH  26  27
HETATM   27  N   UNL     1      -9.185   4.906  71.958  1.00  0.00    -0.135 NA 
BRANCH  27  28
HETATM   28  C   UNL     1      -9.936   4.686  73.207  1.00  0.00    -0.151 C  
HETATM   29  C   UNL     1     -10.055   5.895  74.129  1.00  0.00    -0.272 C  
ENDBRANCH  27  28
BRANCH  27  30
HETATM   30  C   UNL     1      -7.872   4.250  71.926  1.00  0.00    -0.084 C  
HETATM   31  C   UNL     1      -7.101   4.463  70.624  1.00  0.00    -0.041 C  
ENDBRANCH  27  30
ENDBRANCH  26  27
ENDBRANCH  25  26
ENDBRANCH  24  25
ENDBRANCH  18  24
ENDBRANCH  14  16
ENDBRANCH   6  14
ENDBRANCH   4   5
ENDBRANCH   3   4
ENDBRANCH   2   3
TORSDOF 11
ENDMDL
MODEL       93
REMARK 921   NORMALIZED FREE ENERGY PREDICTED BY IDOCK:   -4.78 KCAL/MOL
REMARK 922        TOTAL FREE ENERGY PREDICTED BY IDOCK:  -10.00 KCAL/MOL
REMARK 923 INTER-LIGAND FREE ENERGY PREDICTED BY IDOCK:   -8.21 KCAL/MOL
REMARK 924 INTRA-LIGAND FREE ENERGY PREDICTED BY IDOCK:   -1.79 KCAL/MOL
REMARK 927      BINDING AFFINITY PREDICTED BY RF-SCORE:    0.00 PKD
ROOT
HETATM    1  C   UNL     1     -10.876   5.347  72.243  1.00  0.00    -0.286 C  
HETATM    2  C   UNL     1     -11.203   6.779  72.634  1.00  0.00    -0.291 C  
ENDROOT
BRANCH   2   3
HETATM    3  C   UNL     1      -9.987   7.694  72.493  1.00  0.00    -0.263 C  
BRANCH   3   4
HETATM    4  C   UNL     1     -10.390   9.065  71.950  1.00  0.00    -0.357 C  
BRANCH   4   5
HETATM    5  C   UNL     1     -10.229   9.146  70.470  1.00  0.00    -0.235 A  
HETATM    6  C   UNL     1     -10.849   9.887  69.476  1.00  0.00    -0.274 A  
HETATM    7  C   UNL     1      -8.557   8.318  66.339  1.00  0.00    -0.144 A  
HETATM    8  C   UNL     1     -10.139   9.593  68.272  1.00  0.00    -0.203 A  
HETATM    9  C   UNL     1      -9.272   8.553  68.594  1.00  0.00    -0.142 A  
HETATM   10  C   UNL     1      -9.361   9.402  65.984  1.00  0.00    -0.279 A  
HETATM   11  C   UNL     1     -10.147  10.057  66.939  1.00  0.00    -0.287 A  
HETATM   12  C   UNL     1      -8.477   7.885  67.667  1.00  0.00    -0.127 A  
HETATM   13  O   UNL     1      -9.308   8.301  69.929  1.00  0.00    -0.157 OA 
BRANCH   6  14
HETATM   14  C   UNL     1     -11.974  10.774  69.710  1.00  0.00    -0.325 C  
HETATM   15  O   UNL     1     -13.028  10.361  70.187  1.00  0.00    -0.198 OA 
BRANCH  14  16
HETATM   16  C   UNL     1     -11.889  12.210  69.312  1.00  0.00    -0.370 A  
HETATM   17  I   UNL     1     -12.008  15.612  71.911  1.00  0.00    -0.693 I  
HETATM   18  C   UNL     1     -11.762  15.011  68.761  1.00  0.00    -0.334 A  
HETATM   19  C   UNL     1     -11.803  13.142  70.343  1.00  0.00    -0.259 A  
HETATM   20  C   UNL     1     -11.853  14.050  67.726  1.00  0.00    -0.384 A  
HETATM   21  I   UNL     1     -11.771  14.583  65.683  1.00  0.00    -0.224 I  
HETATM   22  C   UNL     1     -11.799  14.525  70.087  1.00  0.00    -0.308 A  
HETATM   23  C   UNL     1     -11.968  12.676  67.999  1.00  0.00    -0.300 A  
BRANCH  18  24
HETATM   24  O   UNL     1     -11.656  16.322  68.330  1.00  0.00    -0.327 OA 
BRANCH  24  25
HETATM   25  C   UNL     1     -10.485  17.001  68.768  1.00  0.00    -0.347 C  
BRANCH  25  26
HETATM   26  C   UNL     1      -9.264  16.927  67.842  1.00  0.00    -0.234 C  
BRANCH  26  27
HETATM   27  N   UNL     1      -8.252  15.972  68.376  1.00  0.00    -0.159 NA 
BRANCH  27  28
HETATM   28  C   UNL     1      -8.080  14.754  67.564  1.00  0.00    -0.181 C  
HETATM   29  C   UNL     1      -8.574  13.459  68.202  1.00  0.00    -0.174 C  
ENDBRANCH  27  28
BRANCH  27  30
HETATM   30  C   UNL     1      -6.994  16.660  68.693  1.00  0.00    -0.172 C  
HETATM   31  C   UNL     1      -6.177  15.987  69.797  1.00  0.00    -0.179 C  
ENDBRANCH  27  30
ENDBRANCH  26  27
ENDBRANCH  25  26
ENDBRANCH  24  25
ENDBRANCH  18  24
ENDBRANCH  14  16
ENDBRANCH   6  14
ENDBRANCH   4   5
ENDBRANCH   3   4
ENDBRANCH   2   3
TORSDOF 11
ENDMDL
MODEL       94
REMARK 921   NORMALIZED FREE ENERGY PREDICTED BY IDOCK:   -4.77 KCAL/MOL
REMARK 922        TOTAL FREE ENERGY PREDICTED BY IDOCK:   -9.99 KCAL/MOL
REMARK 923 INTER-LIGAND FREE ENERGY PREDICTED BY IDOCK:   -7.69 KCAL/MOL
REMARK 924 INTRA-LIGAND FREE ENERGY PREDICTED BY IDOCK:   -2.30 KCAL/MOL
REMARK 927      BINDING AFFINITY PREDICTED BY RF-SCORE:    0.00 PKD
ROOT
HETATM    1  C   UNL     1     -11.282   9.601  71.508  1.00  0.00    -0.377 C  
HETATM    2  C   UNL     1     -12.629  10.213  71.159  1.00  0.00    -0.486 C  
ENDROOT
BRANCH   2   3
HETATM    3  C   UNL     1     -12.533  11.127  69.936  1.00  0.00    -0.257 C  
BRANCH   3   4
HETATM    4  C   UNL     1     -11.075  11.412  69.575  1.00  0.00    -0.274 C  
BRANCH   4   5
HETATM    5  C   UNL     1     -10.879  11.518  68.101  1.00  0.00    -0.215 A  
HETATM    6  C   UNL     1      -9.805  11.281  67.256  1.00  0.00    -0.203 A  
HETATM    7  C   UNL     1     -11.865  12.240  63.736  1.00  0.00    -0.587 A  
HETATM    8  C   UNL     1     -10.310  11.445  65.931  1.00  0.00    -0.299 A  
HETATM    9  C   UNL     1     -11.596  11.957  66.081  1.00  0.00    -0.229 A  
HETATM   10  C   UNL     1     -10.608  11.669  63.534  1.00  0.00    -0.496 A  
HETATM   11  C   UNL     1      -9.825  11.256  64.618  1.00  0.00    -0.314 A  
HETATM   12  C   UNL     1     -12.399  12.373  65.023  1.00  0.00    -0.441 A  
HETATM   13  O   UNL     1     -11.949  11.976  67.394  1.00  0.00    -0.583 OA 
BRANCH   6  14
HETATM   14  C   UNL     1      -8.476  10.922  67.717  1.00  0.00    -0.124 C  
HETATM   15  O   UNL     1      -7.559  11.739  67.728  1.00  0.00    -0.112 OA 
BRANCH  14  16
HETATM   16  C   UNL     1      -8.182   9.519  68.131  1.00  0.00    -0.114 A  
HETATM   17  I   UNL     1      -7.007   8.179  72.025  1.00  0.00    -0.110 I  
HETATM   18  C   UNL     1      -7.562   6.911  69.121  1.00  0.00    -0.097 A  
HETATM   19  C   UNL     1      -7.959   9.300  69.487  1.00  0.00    -0.098 A  
HETATM   20  C   UNL     1      -7.788   7.153  67.746  1.00  0.00    -0.114 A  
HETATM   21  I   UNL     1      -7.819   5.594  66.318  1.00  0.00    -0.105 I  
HETATM   22  C   UNL     1      -7.595   8.034  69.979  1.00  0.00    -0.082 A  
HETATM   23  C   UNL     1      -8.042   8.444  67.251  1.00  0.00    -0.105 A  
BRANCH  18  24
HETATM   24  O   UNL     1      -7.324   5.588  69.449  1.00  0.00    -0.063 OA 
BRANCH  24  25
HETATM   25  C   UNL     1      -8.119   5.085  70.516  1.00  0.00    -0.093 C  
BRANCH  25  26
HETATM   26  C   UNL     1      -9.605   4.852  70.213  1.00  0.00    -0.195 C  
BRANCH  26  27
HETATM   27  N   UNL     1     -10.448   5.894  70.865  1.00  0.00    -0.232 NA 
BRANCH  27  28
HETATM   28  C   UNL     1     -11.440   6.518  69.971  1.00  0.00    -0.412 C  
HETATM   29  C   UNL     1     -11.118   6.459  68.482  1.00  0.00    -0.385 C  
ENDBRANCH  27  28
BRANCH  27  30
HETATM   30  C   UNL     1     -11.009   5.403  72.129  1.00  0.00    -0.201 C  
HETATM   31  C   UNL     1     -10.581   6.209  73.356  1.00  0.00    -0.288 C  
ENDBRANCH  27  30
ENDBRANCH  26  27
ENDBRANCH  25  26
ENDBRANCH  24  25
ENDBRANCH  18  24
ENDBRANCH  14  16
ENDBRANCH   6  14
ENDBRANCH   4   5
ENDBRANCH   3   4
ENDBRANCH   2   3
TORSDOF 11
ENDMDL
MODEL       95
REMARK 921   NORMALIZED FREE ENERGY PREDICTED BY IDOCK:   -4.77 KCAL/MOL
REMARK 922        TOTAL FREE ENERGY PREDICTED BY IDOCK:   -9.98 KCAL/MOL
REMARK 923 INTER-LIGAND FREE ENERGY PREDICTED BY IDOCK:   -7.65 KCAL/MOL
REMARK 924 INTRA-LIGAND FREE ENERGY PREDICTED BY IDOCK:   -2.33 KCAL/MOL
REMARK 927      BINDING AFFINITY PREDICTED BY RF-SCORE:    0.00 PKD
ROOT
HETATM    1  C   UNL     1      -6.525  10.183  64.683  1.00  0.00    -0.125 C  
HETATM    2  C   UNL     1      -6.126  10.838  65.996  1.00  0.00    -0.133 C  
ENDROOT
BRANCH   2   3
HETATM    3  C   UNL     1      -7.338  11.080  66.897  1.00  0.00    -0.133 C  
BRANCH   3   4
HETATM    4  C   UNL     1      -7.378  10.075  68.047  1.00  0.00    -0.087 C  
BRANCH   4   5
HETATM    5  C   UNL     1      -8.234   8.897  67.726  1.00  0.00    -0.110 A  
HETATM    6  C   UNL     1      -9.574   8.601  67.927  1.00  0.00    -0.173 A  
HETATM    7  C   UNL     1      -9.415   4.838  66.092  1.00  0.00    -0.164 A  
HETATM    8  C   UNL     1      -9.800   7.356  67.265  1.00  0.00    -0.230 A  
HETATM    9  C   UNL     1      -8.541   6.902  66.882  1.00  0.00    -0.116 A  
HETATM   10  C   UNL     1     -10.703   5.280  66.397  1.00  0.00    -0.290 A  
HETATM   11  C   UNL     1     -10.913   6.539  66.971  1.00  0.00    -0.466 A  
HETATM   12  C   UNL     1      -8.302   5.657  66.308  1.00  0.00    -0.114 A  
HETATM   13  O   UNL     1      -7.598   7.847  67.138  1.00  0.00    -0.096 OA 
BRANCH   6  14
HETATM   14  C   UNL     1     -10.492   9.456  68.658  1.00  0.00    -0.209 C  
HETATM   15  O   UNL     1     -11.014   9.087  69.707  1.00  0.00    -0.231 OA 
BRANCH  14  16
HETATM   16  C   UNL     1     -10.870  10.790  68.107  1.00  0.00    -0.284 A  
HETATM   17  I   UNL     1     -10.964  11.937  63.982  1.00  0.00    -0.561 I  
HETATM   18  C   UNL     1     -11.539  13.269  66.853  1.00  0.00    -0.364 A  
HETATM   19  C   UNL     1     -10.968  10.891  66.722  1.00  0.00    -0.248 A  
HETATM   20  C   UNL     1     -11.433  13.148  68.258  1.00  0.00    -0.314 A  
HETATM   21  I   UNL     1     -11.884  14.748  69.564  1.00  0.00    -0.364 I  
HETATM   22  C   UNL     1     -11.238  12.118  66.090  1.00  0.00    -0.338 A  
HETATM   23  C   UNL     1     -11.052  11.943  68.873  1.00  0.00    -0.299 A  
BRANCH  18  24
HETATM   24  O   UNL     1     -11.922  14.521  66.402  1.00  0.00    -0.392 OA 
BRANCH  24  25
HETATM   25  C   UNL     1     -10.910  15.240  65.708  1.00  0.00    -0.358 C  
BRANCH  25  26
HETATM   26  C   UNL     1     -10.557  16.628  66.259  1.00  0.00    -0.205 C  
BRANCH  26  27
HETATM   27  N   UNL     1      -9.178  16.639  66.824  1.00  0.00    -0.227 NA 
BRANCH  27  28
HETATM   28  C   UNL     1      -9.087  17.179  68.192  1.00  0.00    -0.247 C  
HETATM   29  C   UNL     1      -9.673  18.573  68.393  1.00  0.00    -0.395 C  
ENDBRANCH  27  28
BRANCH  27  30
HETATM   30  C   UNL     1      -8.529  15.332  66.654  1.00  0.00    -0.229 C  
HETATM   31  C   UNL     1      -7.999  14.727  67.954  1.00  0.00    -0.147 C  
ENDBRANCH  27  30
ENDBRANCH  26  27
ENDBRANCH  25  26
ENDBRANCH  24  25
ENDBRANCH  18  24
ENDBRANCH  14  16
ENDBRANCH   6  14
ENDBRANCH   4   5
ENDBRANCH   3   4
ENDBRANCH   2   3
TORSDOF 11
ENDMDL
MODEL       96
REMARK 921   NORMALIZED FREE ENERGY PREDICTED BY IDOCK:   -4.74 KCAL/MOL
REMARK 922        TOTAL FREE ENERGY PREDICTED BY IDOCK:   -9.94 KCAL/MOL
REMARK 923 INTER-LIGAND FREE ENERGY PREDICTED BY IDOCK:   -8.90 KCAL/MOL
REMARK 924 INTRA-LIGAND FREE ENERGY PREDICTED BY IDOCK:   -1.04 KCAL/MOL
REMARK 927      BINDING AFFINITY PREDICTED BY RF-SCORE:    0.00 PKD
ROOT
HETATM    1  C   UNL     1     -13.639  15.470  72.540  1.00  0.00    -0.646 C  
HETATM    2  C   UNL     1     -12.139  15.625  72.345  1.00  0.00    -0.557 C  
ENDROOT
BRANCH   2   3
HETATM    3  C   UNL     1     -11.651  14.875  71.105  1.00  0.00    -0.347 C  
BRANCH   3   4
HETATM    4  C   UNL     1     -12.770  14.032  70.495  1.00  0.00    -0.347 C  
BRANCH   4   5
HETATM    5  C   UNL     1     -12.398  12.591  70.413  1.00  0.00    -0.232 A  
HETATM    6  C   UNL     1     -11.847  11.797  69.419  1.00  0.00    -0.398 A  
HETATM    7  C   UNL     1     -11.776   8.295  71.717  1.00  0.00    -0.357 A  
HETATM    8  C   UNL     1     -11.618  10.523  70.021  1.00  0.00    -0.392 A  
HETATM    9  C   UNL     1     -12.225  10.586  71.273  1.00  0.00    -0.368 A  
HETATM   10  C   UNL     1     -11.098   8.203  70.501  1.00  0.00    -0.257 A  
HETATM   11  C   UNL     1     -10.999   9.309  69.649  1.00  0.00    -0.192 A  
HETATM   12  C   UNL     1     -12.336   9.505  72.141  1.00  0.00    -0.332 A  
HETATM   13  O   UNL     1     -12.674  11.845  71.519  1.00  0.00    -0.347 OA 
BRANCH   6  14
HETATM   14  C   UNL     1     -11.572  12.261  68.071  1.00  0.00    -0.349 C  
HETATM   15  O   UNL     1     -12.103  11.740  67.093  1.00  0.00    -0.592 OA 
BRANCH  14  16
HETATM   16  C   UNL     1     -10.581  13.352  67.843  1.00  0.00    -0.253 A  
HETATM   17  I   UNL     1      -6.575  13.543  69.345  1.00  0.00     0.077 I  
HETATM   18  C   UNL     1      -8.546  15.336  67.545  1.00  0.00    -0.177 A  
HETATM   19  C   UNL     1      -9.288  13.132  68.310  1.00  0.00    -0.201 A  
HETATM   20  C   UNL     1      -9.866  15.545  67.079  1.00  0.00    -0.232 A  
HETATM   21  I   UNL     1     -10.422  17.280  66.007  1.00  0.00     0.053 I  
HETATM   22  C   UNL     1      -8.294  14.122  68.222  1.00  0.00    -0.157 A  
HETATM   23  C   UNL     1     -10.880  14.591  67.272  1.00  0.00    -0.297 A  
BRANCH  18  24
HETATM   24  O   UNL     1      -7.664  16.370  67.279  1.00  0.00    -0.139 OA 
BRANCH  24  25
HETATM   25  C   UNL     1      -7.006  16.902  68.422  1.00  0.00    -0.173 C  
BRANCH  25  26
HETATM   26  C   UNL     1      -6.827  18.426  68.461  1.00  0.00    -0.253 C  
BRANCH  26  27
HETATM   27  N   UNL     1      -7.715  19.089  67.465  1.00  0.00    -0.239 NA 
BRANCH  27  28
HETATM   28  C   UNL     1      -8.708  20.006  68.054  1.00  0.00    -0.216 C  
HETATM   29  C   UNL     1      -9.752  20.558  67.089  1.00  0.00    -0.581 C  
ENDBRANCH  27  28
BRANCH  27  30
HETATM   30  C   UNL     1      -6.932  19.680  66.372  1.00  0.00    -0.226 C  
HETATM   31  C   UNL     1      -5.513  19.126  66.252  1.00  0.00    -0.172 C  
ENDBRANCH  27  30
ENDBRANCH  26  27
ENDBRANCH  25  26
ENDBRANCH  24  25
ENDBRANCH  18  24
ENDBRANCH  14  16
ENDBRANCH   6  14
ENDBRANCH   4   5
ENDBRANCH   3   4
ENDBRANCH   2   3
TORSDOF 11
ENDMDL
MODEL       97
REMARK 921   NORMALIZED FREE ENERGY PREDICTED BY IDOCK:   -4.73 KCAL/MOL
REMARK 922        TOTAL FREE ENERGY PREDICTED BY IDOCK:   -9.91 KCAL/MOL
REMARK 923 INTER-LIGAND FREE ENERGY PREDICTED BY IDOCK:   -8.92 KCAL/MOL
REMARK 924 INTRA-LIGAND FREE ENERGY PREDICTED BY IDOCK:   -0.99 KCAL/MOL
REMARK 927      BINDING AFFINITY PREDICTED BY RF-SCORE:    0.00 PKD
ROOT
HETATM    1  C   UNL     1     -12.877   7.112  71.516  1.00  0.00    -0.434 C  
HETATM    2  C   UNL     1     -14.307   7.595  71.333  1.00  0.00    -0.537 C  
ENDROOT
BRANCH   2   3
HETATM    3  C   UNL     1     -14.385   9.122  71.283  1.00  0.00     0.006 C  
BRANCH   3   4
HETATM    4  C   UNL     1     -13.245   9.757  72.079  1.00  0.00    -0.557 C  
BRANCH   4   5
HETATM    5  C   UNL     1     -13.009  11.173  71.676  1.00  0.00    -0.443 A  
HETATM    6  C   UNL     1     -12.379  11.772  70.596  1.00  0.00    -0.421 A  
HETATM    7  C   UNL     1     -13.172  15.700  71.818  1.00  0.00    -0.548 A  
HETATM    8  C   UNL     1     -12.615  13.173  70.737  1.00  0.00    -0.338 A  
HETATM    9  C   UNL     1     -13.202  13.330  71.989  1.00  0.00    -0.446 A  
HETATM   10  C   UNL     1     -12.646  15.589  70.530  1.00  0.00    -0.462 A  
HETATM   11  C   UNL     1     -12.375  14.335  69.971  1.00  0.00    -0.403 A  
HETATM   12  C   UNL     1     -13.486  14.563  72.569  1.00  0.00    -0.580 A  
HETATM   13  O   UNL     1     -13.464  12.118  72.546  1.00  0.00    -0.313 OA 
BRANCH   6  14
HETATM   14  C   UNL     1     -11.665  11.039  69.566  1.00  0.00    -0.329 C  
HETATM   15  O   UNL     1     -12.072  11.001  68.408  1.00  0.00    -0.594 OA 
BRANCH  14  16
HETATM   16  C   UNL     1     -10.443  10.258  69.916  1.00  0.00    -0.304 A  
HETATM   17  I   UNL     1      -7.128   9.382  67.350  1.00  0.00    -0.086 I  
HETATM   18  C   UNL     1      -8.040   8.781  70.375  1.00  0.00    -0.116 A  
HETATM   19  C   UNL     1      -9.428  10.223  68.964  1.00  0.00    -0.206 A  
HETATM   20  C   UNL     1      -9.083   8.825  71.330  1.00  0.00    -0.234 A  
HETATM   21  I   UNL     1      -8.911   7.916  73.230  1.00  0.00    -0.325 I  
HETATM   22  C   UNL     1      -8.267   9.453  69.153  1.00  0.00    -0.112 A  
HETATM   23  C   UNL     1     -10.287   9.508  71.083  1.00  0.00    -0.330 A  
BRANCH  18  24
HETATM   24  O   UNL     1      -6.921   8.067  70.767  1.00  0.00    -0.044 OA 
BRANCH  24  25
HETATM   25  C   UNL     1      -6.605   6.951  69.943  1.00  0.00    -0.044 C  
BRANCH  25  26
HETATM   26  C   UNL     1      -7.792   6.138  69.408  1.00  0.00    -0.100 C  
BRANCH  26  27
HETATM   27  N   UNL     1      -8.388   5.300  70.487  1.00  0.00    -0.110 NA 
BRANCH  27  28
HETATM   28  C   UNL     1      -9.607   4.573  70.087  1.00  0.00    -0.194 C  
HETATM   29  C   UNL     1     -10.398   5.191  68.938  1.00  0.00    -0.186 C  
ENDBRANCH  27  28
BRANCH  27  30
HETATM   30  C   UNL     1      -7.369   4.452  71.120  1.00  0.00    -0.048 C  
HETATM   31  C   UNL     1      -7.784   3.892  72.480  1.00  0.00    -0.079 C  
ENDBRANCH  27  30
ENDBRANCH  26  27
ENDBRANCH  25  26
ENDBRANCH  24  25
ENDBRANCH  18  24
ENDBRANCH  14  16
ENDBRANCH   6  14
ENDBRANCH   4   5
ENDBRANCH   3   4
ENDBRANCH   2   3
TORSDOF 11
ENDMDL
MODEL       98
REMARK 921   NORMALIZED FREE ENERGY PREDICTED BY IDOCK:   -4.72 KCAL/MOL
REMARK 922        TOTAL FREE ENERGY PREDICTED BY IDOCK:   -9.91 KCAL/MOL
REMARK 923 INTER-LIGAND FREE ENERGY PREDICTED BY IDOCK:   -7.79 KCAL/MOL
REMARK 924 INTRA-LIGAND FREE ENERGY PREDICTED BY IDOCK:   -2.12 KCAL/MOL
REMARK 927      BINDING AFFINITY PREDICTED BY RF-SCORE:    0.00 PKD
ROOT
HETATM    1  C   UNL     1     -12.717  10.964  70.739  1.00  0.00    -0.431 C  
HETATM    2  C   UNL     1     -11.308  10.411  70.598  1.00  0.00    -0.411 C  
ENDROOT
BRANCH   2   3
HETATM    3  C   UNL     1     -11.128   9.117  71.394  1.00  0.00    -0.415 C  
BRANCH   3   4
HETATM    4  C   UNL     1     -12.028   8.008  70.852  1.00  0.00    -0.201 C  
BRANCH   4   5
HETATM    5  C   UNL     1     -11.272   6.744  70.616  1.00  0.00    -0.312 A  
HETATM    6  C   UNL     1     -10.679   6.174  69.500  1.00  0.00    -0.386 A  
HETATM    7  C   UNL     1      -9.231   2.798  71.512  1.00  0.00    -0.185 A  
HETATM    8  C   UNL     1      -9.998   5.012  69.972  1.00  0.00    -0.324 A  
HETATM    9  C   UNL     1     -10.390   4.862  71.299  1.00  0.00    -0.148 A  
HETATM   10  C   UNL     1      -8.759   2.941  70.208  1.00  0.00    -0.132 A  
HETATM   11  C   UNL     1      -9.122   4.047  69.430  1.00  0.00    -0.191 A  
HETATM   12  C   UNL     1     -10.043   3.776  72.097  1.00  0.00    -0.220 A  
HETATM   13  O   UNL     1     -11.140   5.924  71.695  1.00  0.00    -0.266 OA 
BRANCH   6  14
HETATM   14  C   UNL     1     -10.770   6.732  68.162  1.00  0.00    -0.236 C  
HETATM   15  O   UNL     1     -11.381   6.154  67.267  1.00  0.00    -0.193 OA 
BRANCH  14  16
HETATM   16  C   UNL     1     -10.059   8.001  67.831  1.00  0.00    -0.243 A  
HETATM   17  I   UNL     1      -6.902   9.839  70.067  1.00  0.00    -0.144 I  
HETATM   18  C   UNL     1      -8.589  10.412  67.389  1.00  0.00    -0.125 A  
HETATM   19  C   UNL     1      -8.965   8.332  68.626  1.00  0.00    -0.137 A  
HETATM   20  C   UNL     1      -9.705  10.061  66.593  1.00  0.00    -0.194 A  
HETATM   21  I   UNL     1     -10.308  11.214  64.928  1.00  0.00    -0.342 I  
HETATM   22  C   UNL     1      -8.270   9.543  68.457  1.00  0.00    -0.113 A  
HETATM   23  C   UNL     1     -10.460   8.902  66.843  1.00  0.00    -0.304 A  
BRANCH  18  24
HETATM   24  O   UNL     1      -7.953  11.583  67.017  1.00  0.00    -0.148 OA 
BRANCH  24  25
HETATM   25  C   UNL     1      -8.205  12.696  67.867  1.00  0.00    -0.170 C  
BRANCH  25  26
HETATM   26  C   UNL     1      -8.773  13.954  67.197  1.00  0.00    -0.221 C  
BRANCH  26  27
HETATM   27  N   UNL     1     -10.259  13.982  67.296  1.00  0.00    -0.258 NA 
BRANCH  27  28
HETATM   28  C   UNL     1     -10.788  13.549  68.603  1.00  0.00    -0.259 C  
HETATM   29  C   UNL     1     -11.498  14.625  69.418  1.00  0.00    -0.330 C  
ENDBRANCH  27  28
BRANCH  27  30
HETATM   30  C   UNL     1     -10.795  15.267  66.832  1.00  0.00    -0.317 C  
HETATM   31  C   UNL     1     -10.580  15.529  65.341  1.00  0.00    -0.428 C  
ENDBRANCH  27  30
ENDBRANCH  26  27
ENDBRANCH  25  26
ENDBRANCH  24  25
ENDBRANCH  18  24
ENDBRANCH  14  16
ENDBRANCH   6  14
ENDBRANCH   4   5
ENDBRANCH   3   4
ENDBRANCH   2   3
TORSDOF 11
ENDMDL
MODEL       99
REMARK 921   NORMALIZED FREE ENERGY PREDICTED BY IDOCK:   -4.72 KCAL/MOL
REMARK 922        TOTAL FREE ENERGY PREDICTED BY IDOCK:   -9.90 KCAL/MOL
REMARK 923 INTER-LIGAND FREE ENERGY PREDICTED BY IDOCK:   -9.17 KCAL/MOL
REMARK 924 INTRA-LIGAND FREE ENERGY PREDICTED BY IDOCK:   -0.73 KCAL/MOL
REMARK 927      BINDING AFFINITY PREDICTED BY RF-SCORE:    0.00 PKD
ROOT
HETATM    1  C   UNL     1      -7.169   7.600  73.310  1.00  0.00    -0.106 C  
HETATM    2  C   UNL     1      -8.446   8.249  73.818  1.00  0.00    -0.259 C  
ENDROOT
BRANCH   2   3
HETATM    3  C   UNL     1      -9.684   7.444  73.422  1.00  0.00    -0.319 C  
BRANCH   3   4
HETATM    4  C   UNL     1     -10.709   8.325  72.709  1.00  0.00    -0.313 C  
BRANCH   4   5
HETATM    5  C   UNL     1     -10.551   8.273  71.227  1.00  0.00    -0.219 A  
HETATM    6  C   UNL     1     -11.132   8.963  70.174  1.00  0.00    -0.217 A  
HETATM    7  C   UNL     1      -8.950   7.009  67.179  1.00  0.00    -0.123 A  
HETATM    8  C   UNL     1     -10.447   8.529  68.999  1.00  0.00    -0.216 A  
HETATM    9  C   UNL     1      -9.639   7.471  69.407  1.00  0.00    -0.155 A  
HETATM   10  C   UNL     1      -9.692   8.104  66.734  1.00  0.00    -0.303 A  
HETATM   11  C   UNL     1     -10.435   8.880  67.632  1.00  0.00    -0.320 A  
HETATM   12  C   UNL     1      -8.889   6.684  68.539  1.00  0.00    -0.122 A  
HETATM   13  O   UNL     1      -9.683   7.334  70.758  1.00  0.00    -0.172 OA 
BRANCH   6  14
HETATM   14  C   UNL     1     -12.203   9.931  70.334  1.00  0.00    -0.114 C  
HETATM   15  O   UNL     1     -13.254   9.636  70.897  1.00  0.00    -0.277 OA 
BRANCH  14  16
HETATM   16  C   UNL     1     -12.068  11.298  69.752  1.00  0.00    -0.394 A  
HETATM   17  I   UNL     1     -11.317  12.288  65.654  1.00  0.00    -0.384 I  
HETATM   18  C   UNL     1     -11.759  13.821  68.447  1.00  0.00    -0.358 A  
HETATM   19  C   UNL     1     -11.969  11.382  68.366  1.00  0.00    -0.270 A  
HETATM   20  C   UNL     1     -11.859  13.716  69.854  1.00  0.00    -0.320 A  
HETATM   21  I   UNL     1     -11.920  15.415  71.109  1.00  0.00    -0.598 I  
HETATM   22  C   UNL     1     -11.758  12.611  67.716  1.00  0.00    -0.356 A  
HETATM   23  C   UNL     1     -11.958  12.471  70.500  1.00  0.00    -0.277 A  
BRANCH  18  24
HETATM   24  O   UNL     1     -11.666  15.115  67.964  1.00  0.00    -0.345 OA 
BRANCH  24  25
HETATM   25  C   UNL     1     -10.383  15.477  67.468  1.00  0.00    -0.271 C  
BRANCH  25  26
HETATM   26  C   UNL     1     -10.342  16.115  66.073  1.00  0.00    -0.358 C  
BRANCH  26  27
HETATM   27  N   UNL     1      -9.382  17.254  66.040  1.00  0.00    -0.507 NA 
BRANCH  27  28
HETATM   28  C   UNL     1      -9.824  18.442  66.793  1.00  0.00    -0.342 C  
HETATM   29  C   UNL     1     -10.325  19.610  65.950  1.00  0.00    -0.584 C  
ENDBRANCH  27  28
BRANCH  27  30
HETATM   30  C   UNL     1      -8.023  16.808  66.372  1.00  0.00    -0.321 C  
HETATM   31  C   UNL     1      -7.056  17.946  66.697  1.00  0.00    -0.254 C  
ENDBRANCH  27  30
ENDBRANCH  26  27
ENDBRANCH  25  26
ENDBRANCH  24  25
ENDBRANCH  18  24
ENDBRANCH  14  16
ENDBRANCH   6  14
ENDBRANCH   4   5
ENDBRANCH   3   4
ENDBRANCH   2   3
TORSDOF 11
ENDMDL
MODEL      100
REMARK 921   NORMALIZED FREE ENERGY PREDICTED BY IDOCK:   -4.68 KCAL/MOL
REMARK 922        TOTAL FREE ENERGY PREDICTED BY IDOCK:   -9.84 KCAL/MOL
REMARK 923 INTER-LIGAND FREE ENERGY PREDICTED BY IDOCK:   -8.46 KCAL/MOL
REMARK 924 INTRA-LIGAND FREE ENERGY PREDICTED BY IDOCK:   -1.38 KCAL/MOL
REMARK 927      BINDING AFFINITY PREDICTED BY RF-SCORE:    0.00 PKD
ROOT
HETATM    1  C   UNL     1     -13.272  11.454  71.930  1.00  0.00    -0.485 C  
HETATM    2  C   UNL     1     -12.743  10.059  71.638  1.00  0.00    -0.535 C  
ENDROOT
BRANCH   2   3
HETATM    3  C   UNL     1     -13.729   8.978  72.083  1.00  0.00    -0.536 C  
BRANCH   3   4
HETATM    4  C   UNL     1     -13.343   7.613  71.514  1.00  0.00    -0.383 C  
BRANCH   4   5
HETATM    5  C   UNL     1     -11.937   7.249  71.851  1.00  0.00    -0.306 A  
HETATM    6  C   UNL     1     -10.838   6.860  71.098  1.00  0.00    -0.270 A  
HETATM    7  C   UNL     1      -8.231   6.531  74.361  1.00  0.00    -0.138 A  
HETATM    8  C   UNL     1      -9.746   6.785  72.014  1.00  0.00    -0.159 A  
HETATM    9  C   UNL     1     -10.307   6.944  73.279  1.00  0.00    -0.287 A  
HETATM   10  C   UNL     1      -7.614   6.431  73.114  1.00  0.00    -0.094 A  
HETATM   11  C   UNL     1      -8.353   6.568  71.933  1.00  0.00    -0.115 A  
HETATM   12  C   UNL     1      -9.597   6.817  74.469  1.00  0.00    -0.269 A  
HETATM   13  O   UNL     1     -11.627   7.250  73.177  1.00  0.00    -0.134 OA 
BRANCH   6  14
HETATM   14  C   UNL     1     -10.881   6.622  69.666  1.00  0.00    -0.286 C  
HETATM   15  O   UNL     1     -11.158   5.517  69.209  1.00  0.00    -0.183 OA 
BRANCH  14  16
HETATM   16  C   UNL     1     -10.524   7.715  68.716  1.00  0.00    -0.208 A  
HETATM   17  I   UNL     1      -7.969   7.415  65.292  1.00  0.00    -0.108 I  
HETATM   18  C   UNL     1      -9.704   9.667  66.796  1.00  0.00    -0.197 A  
HETATM   19  C   UNL     1      -9.791   7.352  67.590  1.00  0.00    -0.194 A  
HETATM   20  C   UNL     1     -10.447  10.019  67.948  1.00  0.00    -0.231 A  
HETATM   21  I   UNL     1     -11.130  11.990  68.289  1.00  0.00    -0.387 I  
HETATM   22  C   UNL     1      -9.331   8.310  66.669  1.00  0.00    -0.192 A  
HETATM   23  C   UNL     1     -10.805   9.067  68.919  1.00  0.00    -0.075 A  
BRANCH  18  24
HETATM   24  O   UNL     1      -9.428  10.717  65.937  1.00  0.00    -0.180 OA 
BRANCH  24  25
HETATM   25  C   UNL     1     -10.255  10.775  64.781  1.00  0.00    -0.334 C  
BRANCH  25  26
HETATM   26  C   UNL     1      -9.817  11.744  63.675  1.00  0.00    -0.335 C  
BRANCH  26  27
HETATM   27  N   UNL     1     -10.631  12.992  63.711  1.00  0.00    -0.267 NA 
BRANCH  27  28
HETATM   28  C   UNL     1     -12.045  12.805  63.338  1.00  0.00    -0.534 C  
HETATM   29  C   UNL     1     -13.032  12.743  64.499  1.00  0.00    -0.210 C  
ENDBRANCH  27  28
BRANCH  27  30
HETATM   30  C   UNL     1     -10.438  13.711  64.977  1.00  0.00    -0.391 C  
HETATM   31  C   UNL     1     -10.802  15.194  64.912  1.00  0.00    -0.437 C  
ENDBRANCH  27  30
ENDBRANCH  26  27
ENDBRANCH  25  26
ENDBRANCH  24  25
ENDBRANCH  18  24
ENDBRANCH  14  16
ENDBRANCH   6  14
ENDBRANCH   4   5
ENDBRANCH   3   4
ENDBRANCH   2   3
TORSDOF 11
ENDMDL
MODEL      101
REMARK 921   NORMALIZED FREE ENERGY PREDICTED BY IDOCK:   -4.68 KCAL/MOL
REMARK 922        TOTAL FREE ENERGY PREDICTED BY IDOCK:   -9.84 KCAL/MOL
REMARK 923 INTER-LIGAND FREE ENERGY PREDICTED BY IDOCK:   -7.59 KCAL/MOL
REMARK 924 INTRA-LIGAND FREE ENERGY PREDICTED BY IDOCK:   -2.25 KCAL/MOL
REMARK 927      BINDING AFFINITY PREDICTED BY RF-SCORE:    0.00 PKD
ROOT
HETATM    1  C   UNL     1      -8.332   6.339  71.015  1.00  0.00    -0.124 C  
HETATM    2  C   UNL     1      -9.803   6.616  70.748  1.00  0.00    -0.198 C  
ENDROOT
BRANCH   2   3
HETATM    3  C   UNL     1     -10.450   5.495  69.935  1.00  0.00    -0.386 C  
BRANCH   3   4
HETATM    4  C   UNL     1     -11.172   6.051  68.707  1.00  0.00    -0.212 C  
BRANCH   4   5
HETATM    5  C   UNL     1     -10.382   5.848  67.459  1.00  0.00    -0.215 A  
HETATM    6  C   UNL     1      -9.348   6.546  66.853  1.00  0.00    -0.166 A  
HETATM    7  C   UNL     1      -8.932   3.898  63.633  1.00  0.00    -0.116 A  
HETATM    8  C   UNL     1      -8.943   5.750  65.739  1.00  0.00    -0.144 A  
HETATM    9  C   UNL     1      -9.886   4.730  65.644  1.00  0.00    -0.176 A  
HETATM   10  C   UNL     1      -7.926   4.861  63.725  1.00  0.00    -0.095 A  
HETATM   11  C   UNL     1      -7.910   5.784  64.777  1.00  0.00    -0.114 A  
HETATM   12  C   UNL     1      -9.926   3.798  64.613  1.00  0.00    -0.199 A  
HETATM   13  O   UNL     1     -10.741   4.776  66.700  1.00  0.00    -0.181 OA 
BRANCH   6  14
HETATM   14  C   UNL     1      -8.834   7.814  67.338  1.00  0.00    -0.127 C  
HETATM   15  O   UNL     1      -7.728   7.897  67.865  1.00  0.00    -0.119 OA 
BRANCH  14  16
HETATM   16  C   UNL     1      -9.677   9.042  67.259  1.00  0.00    -0.232 A  
HETATM   17  I   UNL     1     -12.027  10.755  70.403  1.00  0.00    -0.494 I  
HETATM   18  C   UNL     1     -11.360  11.351  67.314  1.00  0.00    -0.275 A  
HETATM   19  C   UNL     1     -10.239   9.493  68.450  1.00  0.00    -0.221 A  
HETATM   20  C   UNL     1     -10.783  10.877  66.112  1.00  0.00    -0.159 A  
HETATM   21  I   UNL     1     -11.001  11.900  64.275  1.00  0.00    -0.491 I  
HETATM   22  C   UNL     1     -11.116  10.593  68.481  1.00  0.00    -0.263 A  
HETATM   23  C   UNL     1      -9.998   9.711  66.076  1.00  0.00    -0.344 A  
BRANCH  18  24
HETATM   24  O   UNL     1     -12.107  12.509  67.183  1.00  0.00    -0.504 OA 
BRANCH  24  25
HETATM   25  C   UNL     1     -11.662  13.600  67.981  1.00  0.00    -0.352 C  
BRANCH  25  26
HETATM   26  C   UNL     1     -11.318  14.897  67.237  1.00  0.00    -0.349 C  
BRANCH  26  27
HETATM   27  N   UNL     1      -9.944  14.830  66.663  1.00  0.00    -0.256 NA 
BRANCH  27  28
HETATM   28  C   UNL     1      -9.554  16.018  65.883  1.00  0.00    -0.335 C  
HETATM   29  C   UNL     1      -8.196  16.620  66.231  1.00  0.00    -0.365 C  
ENDBRANCH  27  28
BRANCH  27  30
HETATM   30  C   UNL     1      -8.964  14.438  67.684  1.00  0.00    -0.192 C  
HETATM   31  C   UNL     1      -8.169  13.180  67.333  1.00  0.00    -0.187 C  
ENDBRANCH  27  30
ENDBRANCH  26  27
ENDBRANCH  25  26
ENDBRANCH  24  25
ENDBRANCH  18  24
ENDBRANCH  14  16
ENDBRANCH   6  14
ENDBRANCH   4   5
ENDBRANCH   3   4
ENDBRANCH   2   3
TORSDOF 11
ENDMDL
MODEL      102
REMARK 921   NORMALIZED FREE ENERGY PREDICTED BY IDOCK:   -4.67 KCAL/MOL
REMARK 922        TOTAL FREE ENERGY PREDICTED BY IDOCK:   -9.83 KCAL/MOL
REMARK 923 INTER-LIGAND FREE ENERGY PREDICTED BY IDOCK:   -8.52 KCAL/MOL
REMARK 924 INTRA-LIGAND FREE ENERGY PREDICTED BY IDOCK:   -1.30 KCAL/MOL
REMARK 927      BINDING AFFINITY PREDICTED BY RF-SCORE:    0.00 PKD
ROOT
HETATM    1  C   UNL     1     -10.651   6.974  73.128  1.00  0.00    -0.350 C  
HETATM    2  C   UNL     1     -11.672   6.218  72.293  1.00  0.00    -0.344 C  
ENDROOT
BRANCH   2   3
HETATM    3  C   UNL     1     -11.045   5.645  71.021  1.00  0.00    -0.202 C  
BRANCH   3   4
HETATM    4  C   UNL     1     -11.364   6.518  69.808  1.00  0.00    -0.456 C  
BRANCH   4   5
HETATM    5  C   UNL     1     -10.291   7.520  69.548  1.00  0.00    -0.216 A  
HETATM    6  C   UNL     1     -10.212   8.899  69.678  1.00  0.00    -0.209 A  
HETATM    7  C   UNL     1      -6.233   9.180  68.399  1.00  0.00    -0.053 A  
HETATM    8  C   UNL     1      -8.857   9.239  69.387  1.00  0.00    -0.149 A  
HETATM    9  C   UNL     1      -8.269   8.068  68.917  1.00  0.00    -0.125 A  
HETATM   10  C   UNL     1      -6.758  10.361  68.924  1.00  0.00    -0.058 A  
HETATM   11  C   UNL     1      -8.061  10.405  69.433  1.00  0.00    -0.161 A  
HETATM   12  C   UNL     1      -6.976   7.994  68.408  1.00  0.00    -0.072 A  
HETATM   13  O   UNL     1      -9.130   7.023  69.039  1.00  0.00    -0.137 OA 
BRANCH   6  14
HETATM   14  C   UNL     1     -11.332   9.741  70.060  1.00  0.00    -0.220 C  
HETATM   15  O   UNL     1     -12.171   9.363  70.873  1.00  0.00    -0.286 OA 
BRANCH  14  16
HETATM   16  C   UNL     1     -11.518  11.074  69.415  1.00  0.00    -0.364 A  
HETATM   17  I   UNL     1     -10.803  12.069  65.311  1.00  0.00    -0.357 I  
HETATM   18  C   UNL     1     -11.790  13.539  67.996  1.00  0.00    -0.365 A  
HETATM   19  C   UNL     1     -11.361  11.128  68.033  1.00  0.00    -0.380 A  
HETATM   20  C   UNL     1     -11.942  13.466  69.401  1.00  0.00    -0.315 A  
HETATM   21  I   UNL     1     -12.513  15.138  70.561  1.00  0.00    -0.433 I  
HETATM   22  C   UNL     1     -11.434  12.344  67.330  1.00  0.00    -0.352 A  
HETATM   23  C   UNL     1     -11.757  12.263  70.105  1.00  0.00    -0.280 A  
BRANCH  18  24
HETATM   24  O   UNL     1     -12.004  14.794  67.452  1.00  0.00    -0.357 OA 
BRANCH  24  25
HETATM   25  C   UNL     1     -10.822  15.489  67.071  1.00  0.00    -0.314 C  
BRANCH  25  26
HETATM   26  C   UNL     1     -10.782  16.991  67.381  1.00  0.00    -0.240 C  
BRANCH  26  27
HETATM   27  N   UNL     1      -9.377  17.489  67.409  1.00  0.00    -0.247 NA 
BRANCH  27  28
HETATM   28  C   UNL     1      -8.483  16.834  66.438  1.00  0.00    -0.303 C  
HETATM   29  C   UNL     1      -7.245  17.630  66.037  1.00  0.00    -0.316 C  
ENDBRANCH  27  28
BRANCH  27  30
HETATM   30  C   UNL     1      -9.337  18.956  67.363  1.00  0.00    -0.289 C  
HETATM   31  C   UNL     1     -10.666  19.603  66.975  1.00  0.00    -0.575 C  
ENDBRANCH  27  30
ENDBRANCH  26  27
ENDBRANCH  25  26
ENDBRANCH  24  25
ENDBRANCH  18  24
ENDBRANCH  14  16
ENDBRANCH   6  14
ENDBRANCH   4   5
ENDBRANCH   3   4
ENDBRANCH   2   3
TORSDOF 11
ENDMDL
MODEL      103
REMARK 921   NORMALIZED FREE ENERGY PREDICTED BY IDOCK:   -4.66 KCAL/MOL
REMARK 922        TOTAL FREE ENERGY PREDICTED BY IDOCK:   -9.80 KCAL/MOL
REMARK 923 INTER-LIGAND FREE ENERGY PREDICTED BY IDOCK:   -8.40 KCAL/MOL
REMARK 924 INTRA-LIGAND FREE ENERGY PREDICTED BY IDOCK:   -1.40 KCAL/MOL
REMARK 927      BINDING AFFINITY PREDICTED BY RF-SCORE:    0.00 PKD
ROOT
HETATM    1  C   UNL     1      -9.062  19.489  67.938  1.00  0.00    -0.387 C  
HETATM    2  C   UNL     1     -10.114  18.413  68.155  1.00  0.00    -0.408 C  
ENDROOT
BRANCH   2   3
HETATM    3  C   UNL     1      -9.606  17.034  67.731  1.00  0.00    -0.244 C  
BRANCH   3   4
HETATM    4  C   UNL     1     -10.615  15.943  68.085  1.00  0.00    -0.280 C  
BRANCH   4   5
HETATM    5  C   UNL     1     -10.714  14.908  67.016  1.00  0.00    -0.307 A  
HETATM    6  C   UNL     1     -10.116  13.673  66.817  1.00  0.00    -0.269 A  
HETATM    7  C   UNL     1     -12.110  12.854  63.225  1.00  0.00    -0.520 A  
HETATM    8  C   UNL     1     -10.740  13.122  65.657  1.00  0.00    -0.294 A  
HETATM    9  C   UNL     1     -11.525  14.145  65.133  1.00  0.00    -0.336 A  
HETATM   10  C   UNL     1     -11.390  11.779  63.746  1.00  0.00    -0.524 A  
HETATM   11  C   UNL     1     -10.711  11.892  64.964  1.00  0.00    -0.341 A  
HETATM   12  C   UNL     1     -12.213  14.060  63.926  1.00  0.00    -0.336 A  
HETATM   13  O   UNL     1     -11.529  15.216  65.969  1.00  0.00    -0.285 OA 
BRANCH   6  14
HETATM   14  C   UNL     1      -9.087  13.123  67.681  1.00  0.00    -0.201 C  
HETATM   15  O   UNL     1      -7.947  13.578  67.689  1.00  0.00    -0.148 OA 
BRANCH  14  16
HETATM   16  C   UNL     1      -9.385  11.939  68.538  1.00  0.00    -0.142 A  
HETATM   17  I   UNL     1      -6.930   8.472  69.081  1.00  0.00    -0.065 I  
HETATM   18  C   UNL     1      -9.772   9.579  70.102  1.00  0.00    -0.246 A  
HETATM   19  C   UNL     1      -8.373  10.993  68.674  1.00  0.00    -0.153 A  
HETATM   20  C   UNL     1     -10.790  10.549  69.951  1.00  0.00    -0.276 A  
HETATM   21  I   UNL     1     -12.639  10.411  70.967  1.00  0.00    -0.543 I  
HETATM   22  C   UNL     1      -8.570   9.800  69.392  1.00  0.00    -0.165 A  
HETATM   23  C   UNL     1     -10.619  11.684  69.139  1.00  0.00    -0.147 A  
BRANCH  18  24
HETATM   24  O   UNL     1     -10.095   8.519  70.932  1.00  0.00    -0.188 OA 
BRANCH  24  25
HETATM   25  C   UNL     1      -9.551   8.601  72.244  1.00  0.00    -0.278 C  
BRANCH  25  26
HETATM   26  C   UNL     1     -10.041   7.555  73.255  1.00  0.00    -0.331 C  
BRANCH  26  27
HETATM   27  N   UNL     1     -10.128   6.208  72.623  1.00  0.00    -0.180 NA 
BRANCH  27  28
HETATM   28  C   UNL     1      -9.104   5.254  73.085  1.00  0.00    -0.127 C  
HETATM   29  C   UNL     1      -8.495   5.548  74.452  1.00  0.00    -0.109 C  
ENDBRANCH  27  28
BRANCH  27  30
HETATM   30  C   UNL     1     -11.499   5.686  72.681  1.00  0.00    -0.285 C  
HETATM   31  C   UNL     1     -12.512   6.507  71.882  1.00  0.00    -0.291 C  
ENDBRANCH  27  30
ENDBRANCH  26  27
ENDBRANCH  25  26
ENDBRANCH  24  25
ENDBRANCH  18  24
ENDBRANCH  14  16
ENDBRANCH   6  14
ENDBRANCH   4   5
ENDBRANCH   3   4
ENDBRANCH   2   3
TORSDOF 11
ENDMDL
MODEL      104
REMARK 921   NORMALIZED FREE ENERGY PREDICTED BY IDOCK:   -4.66 KCAL/MOL
REMARK 922        TOTAL FREE ENERGY PREDICTED BY IDOCK:   -9.80 KCAL/MOL
REMARK 923 INTER-LIGAND FREE ENERGY PREDICTED BY IDOCK:   -7.86 KCAL/MOL
REMARK 924 INTRA-LIGAND FREE ENERGY PREDICTED BY IDOCK:   -1.94 KCAL/MOL
REMARK 927      BINDING AFFINITY PREDICTED BY RF-SCORE:    0.00 PKD
ROOT
HETATM    1  C   UNL     1     -11.199  16.139  64.470  1.00  0.00    -0.275 C  
HETATM    2  C   UNL     1     -12.146  14.966  64.668  1.00  0.00    -0.387 C  
ENDROOT
BRANCH   2   3
HETATM    3  C   UNL     1     -11.479  13.637  64.311  1.00  0.00    -0.393 C  
BRANCH   3   4
HETATM    4  C   UNL     1     -12.171  12.469  65.014  1.00  0.00    -0.519 C  
BRANCH   4   5
HETATM    5  C   UNL     1     -11.278  11.815  66.013  1.00  0.00    -0.296 A  
HETATM    6  C   UNL     1     -10.895  12.127  67.308  1.00  0.00    -0.286 A  
HETATM    7  C   UNL     1      -8.489   8.737  67.829  1.00  0.00    -0.125 A  
HETATM    8  C   UNL     1     -10.120  11.018  67.763  1.00  0.00    -0.201 A  
HETATM    9  C   UNL     1      -9.932  10.209  66.645  1.00  0.00    -0.216 A  
HETATM   10  C   UNL     1      -8.703   9.479  68.990  1.00  0.00    -0.142 A  
HETATM   11  C   UNL     1      -9.525  10.613  68.977  1.00  0.00    -0.202 A  
HETATM   12  C   UNL     1      -9.124   9.076  66.629  1.00  0.00    -0.196 A  
HETATM   13  O   UNL     1     -10.654  10.679  65.594  1.00  0.00    -0.204 OA 
BRANCH   6  14
HETATM   14  C   UNL     1     -11.273  13.352  67.991  1.00  0.00    -0.268 C  
HETATM   15  O   UNL     1     -12.397  13.501  68.464  1.00  0.00    -0.223 OA 
BRANCH  14  16
HETATM   16  C   UNL     1     -10.310  14.488  68.076  1.00  0.00    -0.229 A  
HETATM   17  I   UNL     1      -6.243  14.318  69.411  1.00  0.00    -0.134 I  
HETATM   18  C   UNL     1      -8.321  16.524  68.332  1.00  0.00    -0.200 A  
HETATM   19  C   UNL     1      -8.994  14.170  68.403  1.00  0.00    -0.189 A  
HETATM   20  C   UNL     1      -9.663  16.828  68.004  1.00  0.00    -0.243 A  
HETATM   21  I   UNL     1     -10.293  18.793  67.545  1.00  0.00    -0.513 I  
HETATM   22  C   UNL     1      -8.020  15.167  68.589  1.00  0.00    -0.151 A  
HETATM   23  C   UNL     1     -10.653  15.833  67.930  1.00  0.00    -0.282 A  
BRANCH  18  24
HETATM   24  O   UNL     1      -7.468  17.614  68.367  1.00  0.00    -0.233 OA 
BRANCH  24  25
HETATM   25  C   UNL     1      -6.372  17.544  67.462  1.00  0.00    -0.150 C  
BRANCH  25  26
HETATM   26  C   UNL     1      -6.638  18.019  66.027  1.00  0.00    -0.275 C  
BRANCH  26  27
HETATM   27  N   UNL     1      -5.862  19.256  65.727  1.00  0.00    -0.162 NA 
BRANCH  27  28
HETATM   28  C   UNL     1      -6.383  20.038  64.591  1.00  0.00    -0.257 C  
HETATM   29  C   UNL     1      -5.721  19.769  63.244  1.00  0.00    -0.314 C  
ENDBRANCH  27  28
BRANCH  27  30
HETATM   30  C   UNL     1      -5.640  20.047  66.944  1.00  0.00    -0.170 C  
HETATM   31  C   UNL     1      -6.643  21.184  67.139  1.00  0.00    -0.424 C  
ENDBRANCH  27  30
ENDBRANCH  26  27
ENDBRANCH  25  26
ENDBRANCH  24  25
ENDBRANCH  18  24
ENDBRANCH  14  16
ENDBRANCH   6  14
ENDBRANCH   4   5
ENDBRANCH   3   4
ENDBRANCH   2   3
TORSDOF 11
ENDMDL
MODEL      105
REMARK 921   NORMALIZED FREE ENERGY PREDICTED BY IDOCK:   -4.66 KCAL/MOL
REMARK 922        TOTAL FREE ENERGY PREDICTED BY IDOCK:   -9.80 KCAL/MOL
REMARK 923 INTER-LIGAND FREE ENERGY PREDICTED BY IDOCK:   -7.93 KCAL/MOL
REMARK 924 INTRA-LIGAND FREE ENERGY PREDICTED BY IDOCK:   -1.87 KCAL/MOL
REMARK 927      BINDING AFFINITY PREDICTED BY RF-SCORE:    0.00 PKD
ROOT
HETATM    1  C   UNL     1      -7.919  17.312  67.295  1.00  0.00    -0.207 C  
HETATM    2  C   UNL     1      -7.801  16.405  68.510  1.00  0.00    -0.197 C  
ENDROOT
BRANCH   2   3
HETATM    3  C   UNL     1      -8.986  15.444  68.613  1.00  0.00    -0.191 C  
BRANCH   3   4
HETATM    4  C   UNL     1      -8.560  14.010  68.301  1.00  0.00    -0.180 C  
BRANCH   4   5
HETATM    5  C   UNL     1      -9.303  13.451  67.135  1.00  0.00    -0.240 A  
HETATM    6  C   UNL     1      -9.426  12.180  66.595  1.00  0.00    -0.226 A  
HETATM    7  C   UNL     1     -12.041  13.317  63.526  1.00  0.00    -0.550 A  
HETATM    8  C   UNL     1     -10.394  12.293  65.552  1.00  0.00    -0.296 A  
HETATM    9  C   UNL     1     -10.638  13.657  65.414  1.00  0.00    -0.317 A  
HETATM   10  C   UNL     1     -11.880  11.939  63.669  1.00  0.00    -0.573 A  
HETATM   11  C   UNL     1     -11.072  11.411  64.682  1.00  0.00    -0.277 A  
HETATM   12  C   UNL     1     -11.438  14.210  64.419  1.00  0.00    -0.344 A  
HETATM   13  O   UNL     1      -9.997  14.354  66.389  1.00  0.00    -0.272 OA 
BRANCH   6  14
HETATM   14  C   UNL     1      -8.693  11.022  67.074  1.00  0.00    -0.141 C  
HETATM   15  O   UNL     1      -7.837  10.475  66.383  1.00  0.00    -0.125 OA 
BRANCH  14  16
HETATM   16  C   UNL     1      -9.015  10.432  68.406  1.00  0.00    -0.137 A  
HETATM   17  I   UNL     1     -12.605  10.999  70.671  1.00  0.00    -0.320 I  
HETATM   18  C   UNL     1      -9.818   9.420  70.955  1.00  0.00    -0.268 A  
HETATM   19  C   UNL     1     -10.305  10.639  68.887  1.00  0.00    -0.225 A  
HETATM   20  C   UNL     1      -8.511   9.222  70.451  1.00  0.00    -0.206 A  
HETATM   21  I   UNL     1      -7.075   8.053  71.471  1.00  0.00    -0.095 I  
HETATM   22  C   UNL     1     -10.694  10.198  70.164  1.00  0.00    -0.300 A  
HETATM   23  C   UNL     1      -8.100   9.764  69.221  1.00  0.00    -0.115 A  
BRANCH  18  24
HETATM   24  O   UNL     1     -10.067   8.825  72.179  1.00  0.00    -0.320 OA 
BRANCH  24  25
HETATM   25  C   UNL     1     -10.965   7.723  72.136  1.00  0.00    -0.266 C  
BRANCH  25  26
HETATM   26  C   UNL     1     -10.335   6.324  72.147  1.00  0.00    -0.191 C  
BRANCH  26  27
HETATM   27  N   UNL     1     -10.637   5.597  70.881  1.00  0.00    -0.257 NA 
BRANCH  27  28
HETATM   28  C   UNL     1     -11.486   6.348  69.939  1.00  0.00    -0.415 C  
HETATM   29  C   UNL     1     -10.899   6.564  68.548  1.00  0.00    -0.353 C  
ENDBRANCH  27  28
BRANCH  27  30
HETATM   30  C   UNL     1      -9.413   5.055  70.279  1.00  0.00    -0.172 C  
HETATM   31  C   UNL     1      -8.957   3.727  70.884  1.00  0.00    -0.154 C  
ENDBRANCH  27  30
ENDBRANCH  26  27
ENDBRANCH  25  26
ENDBRANCH  24  25
ENDBRANCH  18  24
ENDBRANCH  14  16
ENDBRANCH   6  14
ENDBRANCH   4   5
ENDBRANCH   3   4
ENDBRANCH   2   3
TORSDOF 11
ENDMDL
MODEL      106
REMARK 921   NORMALIZED FREE ENERGY PREDICTED BY IDOCK:   -4.65 KCAL/MOL
REMARK 922        TOTAL FREE ENERGY PREDICTED BY IDOCK:   -9.79 KCAL/MOL
REMARK 923 INTER-LIGAND FREE ENERGY PREDICTED BY IDOCK:   -7.78 KCAL/MOL
REMARK 924 INTRA-LIGAND FREE ENERGY PREDICTED BY IDOCK:   -2.01 KCAL/MOL
REMARK 927      BINDING AFFINITY PREDICTED BY RF-SCORE:    0.00 PKD
ROOT
HETATM    1  C   UNL     1     -12.055   8.476  72.392  1.00  0.00    -0.436 C  
HETATM    2  C   UNL     1     -11.094   7.354  72.750  1.00  0.00    -0.394 C  
ENDROOT
BRANCH   2   3
HETATM    3  C   UNL     1     -11.109   6.243  71.699  1.00  0.00    -0.325 C  
BRANCH   3   4
HETATM    4  C   UNL     1     -11.854   6.686  70.440  1.00  0.00    -0.407 C  
BRANCH   4   5
HETATM    5  C   UNL     1     -10.955   6.736  69.252  1.00  0.00    -0.259 A  
HETATM    6  C   UNL     1      -9.975   7.619  68.826  1.00  0.00    -0.178 A  
HETATM    7  C   UNL     1      -8.998   5.472  65.364  1.00  0.00    -0.106 A  
HETATM    8  C   UNL     1      -9.393   7.024  67.666  1.00  0.00    -0.128 A  
HETATM    9  C   UNL     1     -10.193   5.925  67.368  1.00  0.00    -0.194 A  
HETATM   10  C   UNL     1      -8.129   6.523  65.658  1.00  0.00    -0.128 A  
HETATM   11  C   UNL     1      -8.305   7.299  66.809  1.00  0.00    -0.119 A  
HETATM   12  C   UNL     1     -10.041   5.134  66.233  1.00  0.00    -0.259 A  
HETATM   13  O   UNL     1     -11.122   5.737  68.342  1.00  0.00    -0.198 OA 
BRANCH   6  14
HETATM   14  C   UNL     1      -9.658   8.865  69.502  1.00  0.00    -0.171 C  
HETATM   15  O   UNL     1      -8.886   8.898  70.456  1.00  0.00    -0.156 OA 
BRANCH  14  16
HETATM   16  C   UNL     1     -10.323  10.133  69.081  1.00  0.00    -0.237 A  
HETATM   17  I   UNL     1     -12.992  12.535  71.416  1.00  0.00     0.096 I  
HETATM   18  C   UNL     1     -11.703  12.559  68.469  1.00  0.00    -0.324 A  
HETATM   19  C   UNL     1     -11.037  10.820  70.059  1.00  0.00    -0.327 A  
HETATM   20  C   UNL     1     -10.976  11.846  67.487  1.00  0.00    -0.247 A  
HETATM   21  I   UNL     1     -10.732  12.571  65.517  1.00  0.00    -0.341 I  
HETATM   22  C   UNL     1     -11.768  11.982  69.758  1.00  0.00    -0.319 A  
HETATM   23  C   UNL     1     -10.340  10.626  67.775  1.00  0.00    -0.239 A  
BRANCH  18  24
HETATM   24  O   UNL     1     -12.272  13.741  68.028  1.00  0.00    -0.323 OA 
BRANCH  24  25
HETATM   25  C   UNL     1     -11.812  14.910  68.695  1.00  0.00    -0.300 C  
BRANCH  25  26
HETATM   26  C   UNL     1     -10.980  15.892  67.859  1.00  0.00    -0.327 C  
BRANCH  26  27
HETATM   27  N   UNL     1      -9.847  16.440  68.658  1.00  0.00    -0.225 NA 
BRANCH  27  28
HETATM   28  C   UNL     1      -8.564  15.747  68.445  1.00  0.00    -0.171 C  
HETATM   29  C   UNL     1      -8.223  15.416  66.996  1.00  0.00    -0.270 C  
ENDBRANCH  27  28
BRANCH  27  30
HETATM   30  C   UNL     1      -9.766  17.900  68.524  1.00  0.00    -0.351 C  
HETATM   31  C   UNL     1     -10.701  18.482  67.464  1.00  0.00    -0.419 C  
ENDBRANCH  27  30
ENDBRANCH  26  27
ENDBRANCH  25  26
ENDBRANCH  24  25
ENDBRANCH  18  24
ENDBRANCH  14  16
ENDBRANCH   6  14
ENDBRANCH   4   5
ENDBRANCH   3   4
ENDBRANCH   2   3
TORSDOF 11
ENDMDL
MODEL      107
REMARK 921   NORMALIZED FREE ENERGY PREDICTED BY IDOCK:   -4.64 KCAL/MOL
REMARK 922        TOTAL FREE ENERGY PREDICTED BY IDOCK:   -9.78 KCAL/MOL
REMARK 923 INTER-LIGAND FREE ENERGY PREDICTED BY IDOCK:   -8.19 KCAL/MOL
REMARK 924 INTRA-LIGAND FREE ENERGY PREDICTED BY IDOCK:   -1.59 KCAL/MOL
REMARK 927      BINDING AFFINITY PREDICTED BY RF-SCORE:    0.00 PKD
ROOT
HETATM    1  C   UNL     1     -12.837   8.743  71.804  1.00  0.00    -0.406 C  
HETATM    2  C   UNL     1     -12.676  10.239  71.585  1.00  0.00    -0.561 C  
ENDROOT
BRANCH   2   3
HETATM    3  C   UNL     1     -11.589  10.545  70.555  1.00  0.00    -0.441 C  
BRANCH   3   4
HETATM    4  C   UNL     1     -12.199  11.007  69.232  1.00  0.00    -0.280 C  
BRANCH   4   5
HETATM    5  C   UNL     1     -11.791  12.400  68.889  1.00  0.00    -0.301 A  
HETATM    6  C   UNL     1     -11.527  13.057  67.697  1.00  0.00    -0.369 A  
HETATM    7  C   UNL     1     -10.703  16.761  69.473  1.00  0.00    -0.273 A  
HETATM    8  C   UNL     1     -11.314  14.425  68.046  1.00  0.00    -0.316 A  
HETATM    9  C   UNL     1     -11.273  14.454  69.438  1.00  0.00    -0.281 A  
HETATM   10  C   UNL     1     -10.800  16.795  68.081  1.00  0.00    -0.353 A  
HETATM   11  C   UNL     1     -11.116  15.640  67.355  1.00  0.00    -0.260 A  
HETATM   12  C   UNL     1     -10.964  15.586  70.186  1.00  0.00    -0.336 A  
HETATM   13  O   UNL     1     -11.588  13.233  69.947  1.00  0.00    -0.264 OA 
BRANCH   6  14
HETATM   14  C   UNL     1     -11.515  12.407  66.399  1.00  0.00    -0.373 C  
HETATM   15  O   UNL     1     -12.496  12.432  65.660  1.00  0.00    -0.640 OA 
BRANCH  14  16
HETATM   16  C   UNL     1     -10.316  11.634  65.962  1.00  0.00    -0.283 A  
HETATM   17  I   UNL     1      -6.870  10.681  68.320  1.00  0.00    -0.073 I  
HETATM   18  C   UNL     1      -7.930  10.197  65.322  1.00  0.00    -0.145 A  
HETATM   19  C   UNL     1      -9.380  11.322  66.944  1.00  0.00    -0.190 A  
HETATM   20  C   UNL     1      -8.890  10.525  64.337  1.00  0.00    -0.197 A  
HETATM   21  I   UNL     1      -8.717   9.874  62.333  1.00  0.00    -0.331 I  
HETATM   22  C   UNL     1      -8.175  10.667  66.632  1.00  0.00    -0.134 A  
HETATM   23  C   UNL     1     -10.038  11.277  64.641  1.00  0.00    -0.343 A  
BRANCH  18  24
HETATM   24  O   UNL     1      -6.855   9.454  64.864  1.00  0.00    -0.087 OA 
BRANCH  24  25
HETATM   25  C   UNL     1      -6.820   8.108  65.324  1.00  0.00    -0.059 C  
BRANCH  25  26
HETATM   26  C   UNL     1      -8.167   7.480  65.705  1.00  0.00    -0.137 C  
BRANCH  26  27
HETATM   27  N   UNL     1      -8.054   6.720  66.982  1.00  0.00    -0.109 NA 
BRANCH  27  28
HETATM   28  C   UNL     1      -8.909   7.230  68.069  1.00  0.00    -0.129 C  
HETATM   29  C   UNL     1     -10.198   7.917  67.630  1.00  0.00    -0.289 C  
ENDBRANCH  27  28
BRANCH  27  30
HETATM   30  C   UNL     1      -8.183   5.276  66.750  1.00  0.00    -0.108 C  
HETATM   31  C   UNL     1      -8.256   4.887  65.273  1.00  0.00    -0.122 C  
ENDBRANCH  27  30
ENDBRANCH  26  27
ENDBRANCH  25  26
ENDBRANCH  24  25
ENDBRANCH  18  24
ENDBRANCH  14  16
ENDBRANCH   6  14
ENDBRANCH   4   5
ENDBRANCH   3   4
ENDBRANCH   2   3
TORSDOF 11
ENDMDL
MODEL      108
REMARK 921   NORMALIZED FREE ENERGY PREDICTED BY IDOCK:   -4.64 KCAL/MOL
REMARK 922        TOTAL FREE ENERGY PREDICTED BY IDOCK:   -9.78 KCAL/MOL
REMARK 923 INTER-LIGAND FREE ENERGY PREDICTED BY IDOCK:   -8.19 KCAL/MOL
REMARK 924 INTRA-LIGAND FREE ENERGY PREDICTED BY IDOCK:   -1.58 KCAL/MOL
REMARK 927      BINDING AFFINITY PREDICTED BY RF-SCORE:    0.00 PKD
ROOT
HETATM    1  C   UNL     1      -7.588   4.679  66.312  1.00  0.00    -0.090 C  
HETATM    2  C   UNL     1      -8.584   4.652  67.460  1.00  0.00    -0.103 C  
ENDROOT
BRANCH   2   3
HETATM    3  C   UNL     1     -10.022   4.525  66.956  1.00  0.00    -0.215 C  
BRANCH   3   4
HETATM    4  C   UNL     1     -10.617   5.897  66.640  1.00  0.00    -0.330 C  
BRANCH   4   5
HETATM    5  C   UNL     1     -10.632   6.785  67.837  1.00  0.00    -0.242 A  
HETATM    6  C   UNL     1     -10.032   7.997  68.141  1.00  0.00    -0.217 A  
HETATM    7  C   UNL     1     -11.713   8.313  71.965  1.00  0.00    -0.407 A  
HETATM    8  C   UNL     1     -10.557   8.384  69.411  1.00  0.00    -0.204 A  
HETATM    9  C   UNL     1     -11.284   7.287  69.865  1.00  0.00    -0.170 A  
HETATM   10  C   UNL     1     -11.051   9.461  71.527  1.00  0.00    -0.446 A  
HETATM   11  C   UNL     1     -10.480   9.516  70.251  1.00  0.00    -0.319 A  
HETATM   12  C   UNL     1     -11.865   7.204  71.127  1.00  0.00    -0.363 A  
HETATM   13  O   UNL     1     -11.351   6.330  68.901  1.00  0.00    -0.373 OA 
BRANCH   6  14
HETATM   14  C   UNL     1      -9.086   8.673  67.271  1.00  0.00    -0.133 C  
HETATM   15  O   UNL     1      -8.078   8.107  66.857  1.00  0.00    -0.102 OA 
BRANCH  14  16
HETATM   16  C   UNL     1      -9.295  10.106  66.910  1.00  0.00    -0.185 A  
HETATM   17  I   UNL     1      -7.172  13.485  68.466  1.00  0.00    -0.102 I  
HETATM   18  C   UNL     1      -9.545  12.902  66.375  1.00  0.00    -0.252 A  
HETATM   19  C   UNL     1      -8.388  11.022  67.436  1.00  0.00    -0.126 A  
HETATM   20  C   UNL     1     -10.459  11.957  65.852  1.00  0.00    -0.258 A  
HETATM   21  I   UNL     1     -12.010  12.504  64.524  1.00  0.00    -0.515 I  
HETATM   22  C   UNL     1      -8.534  12.405  67.229  1.00  0.00    -0.183 A  
HETATM   23  C   UNL     1     -10.367  10.588  66.158  1.00  0.00    -0.276 A  
BRANCH  18  24
HETATM   24  O   UNL     1      -9.771  14.210  65.983  1.00  0.00    -0.301 OA 
BRANCH  24  25
HETATM   25  C   UNL     1     -10.394  15.029  66.964  1.00  0.00    -0.269 C  
BRANCH  25  26
HETATM   26  C   UNL     1     -10.324  16.545  66.737  1.00  0.00    -0.296 C  
BRANCH  26  27
HETATM   27  N   UNL     1      -9.569  17.210  67.835  1.00  0.00    -0.260 NA 
BRANCH  27  28
HETATM   28  C   UNL     1      -8.110  17.255  67.628  1.00  0.00    -0.191 C  
HETATM   29  C   UNL     1      -7.354  18.284  68.462  1.00  0.00    -0.297 C  
ENDBRANCH  27  28
BRANCH  27  30
HETATM   30  C   UNL     1     -10.163  18.510  68.172  1.00  0.00    -0.378 C  
HETATM   31  C   UNL     1     -10.564  19.345  66.955  1.00  0.00    -0.586 C  
ENDBRANCH  27  30
ENDBRANCH  26  27
ENDBRANCH  25  26
ENDBRANCH  24  25
ENDBRANCH  18  24
ENDBRANCH  14  16
ENDBRANCH   6  14
ENDBRANCH   4   5
ENDBRANCH   3   4
ENDBRANCH   2   3
TORSDOF 11
ENDMDL
MODEL      109
REMARK 921   NORMALIZED FREE ENERGY PREDICTED BY IDOCK:   -4.64 KCAL/MOL
REMARK 922        TOTAL FREE ENERGY PREDICTED BY IDOCK:   -9.77 KCAL/MOL
REMARK 923 INTER-LIGAND FREE ENERGY PREDICTED BY IDOCK:   -8.58 KCAL/MOL
REMARK 924 INTRA-LIGAND FREE ENERGY PREDICTED BY IDOCK:   -1.19 KCAL/MOL
REMARK 927      BINDING AFFINITY PREDICTED BY RF-SCORE:    0.00 PKD
ROOT
HETATM    1  C   UNL     1      -7.895  17.516  68.524  1.00  0.00    -0.274 C  
HETATM    2  C   UNL     1      -8.885  18.122  67.543  1.00  0.00    -0.256 C  
ENDROOT
BRANCH   2   3
HETATM    3  C   UNL     1     -10.327  17.964  68.027  1.00  0.00    -0.394 C  
BRANCH   3   4
HETATM    4  C   UNL     1     -10.530  16.620  68.725  1.00  0.00    -0.324 C  
BRANCH   4   5
HETATM    5  C   UNL     1     -11.030  15.576  67.786  1.00  0.00    -0.317 A  
HETATM    6  C   UNL     1     -11.731  14.391  67.951  1.00  0.00    -0.388 A  
HETATM    7  C   UNL     1     -11.906  13.471  63.868  1.00  0.00    -0.460 A  
HETATM    8  C   UNL     1     -12.017  13.921  66.634  1.00  0.00    -0.474 A  
HETATM    9  C   UNL     1     -11.301  14.752  65.777  1.00  0.00    -0.336 A  
HETATM   10  C   UNL     1     -12.691  12.652  64.681  1.00  0.00    -0.458 A  
HETATM   11  C   UNL     1     -12.767  12.871  66.061  1.00  0.00     0.278 A  
HETATM   12  C   UNL     1     -11.210  14.561  64.401  1.00  0.00    -0.208 A  
HETATM   13  O   UNL     1     -10.726  15.769  66.472  1.00  0.00    -0.313 OA 
BRANCH   6  14
HETATM   14  C   UNL     1     -12.079  13.831  69.245  1.00  0.00    -0.329 C  
HETATM   15  O   UNL     1     -12.587  14.519  70.126  1.00  0.00    -0.341 OA 
BRANCH  14  16
HETATM   16  C   UNL     1     -11.764  12.405  69.551  1.00  0.00    -0.388 A  
HETATM   17  I   UNL     1      -8.824   9.952  67.632  1.00  0.00    -0.133 I  
HETATM   18  C   UNL     1     -11.020   9.677  69.966  1.00  0.00    -0.260 A  
HETATM   19  C   UNL     1     -10.667  11.852  68.896  1.00  0.00    -0.236 A  
HETATM   20  C   UNL     1     -12.133  10.255  70.621  1.00  0.00    -0.338 A  
HETATM   21  I   UNL     1     -13.266   9.201  72.061  1.00  0.00    -0.598 I  
HETATM   22  C   UNL     1     -10.326  10.496  69.046  1.00  0.00    -0.213 A  
HETATM   23  C   UNL     1     -12.530  11.582  70.377  1.00  0.00    -0.324 A  
BRANCH  18  24
HETATM   24  O   UNL     1     -10.759   8.363  70.312  1.00  0.00    -0.227 OA 
BRANCH  24  25
HETATM   25  C   UNL     1      -9.459   8.132  70.844  1.00  0.00    -0.162 C  
BRANCH  25  26
HETATM   26  C   UNL     1      -8.980   6.674  70.872  1.00  0.00    -0.147 C  
BRANCH  26  27
HETATM   27  N   UNL     1     -10.135   5.736  70.801  1.00  0.00    -0.192 NA 
BRANCH  27  28
HETATM   28  C   UNL     1     -10.047   4.747  69.712  1.00  0.00    -0.219 C  
HETATM   29  C   UNL     1     -10.389   5.264  68.319  1.00  0.00    -0.181 C  
ENDBRANCH  27  28
BRANCH  27  30
HETATM   30  C   UNL     1     -10.421   5.150  72.118  1.00  0.00    -0.220 C  
HETATM   31  C   UNL     1     -11.851   5.381  72.605  1.00  0.00    -0.145 C  
ENDBRANCH  27  30
ENDBRANCH  26  27
ENDBRANCH  25  26
ENDBRANCH  24  25
ENDBRANCH  18  24
ENDBRANCH  14  16
ENDBRANCH   6  14
ENDBRANCH   4   5
ENDBRANCH   3   4
ENDBRANCH   2   3
TORSDOF 11
ENDMDL
MODEL      110
REMARK 921   NORMALIZED FREE ENERGY PREDICTED BY IDOCK:   -4.63 KCAL/MOL
REMARK 922        TOTAL FREE ENERGY PREDICTED BY IDOCK:   -9.76 KCAL/MOL
REMARK 923 INTER-LIGAND FREE ENERGY PREDICTED BY IDOCK:   -8.01 KCAL/MOL
REMARK 924 INTRA-LIGAND FREE ENERGY PREDICTED BY IDOCK:   -1.75 KCAL/MOL
REMARK 927      BINDING AFFINITY PREDICTED BY RF-SCORE:    0.00 PKD
ROOT
HETATM    1  C   UNL     1     -13.048  11.751  71.825  1.00  0.00    -0.480 C  
HETATM    2  C   UNL     1     -12.414  10.625  71.025  1.00  0.00    -0.515 C  
ENDROOT
BRANCH   2   3
HETATM    3  C   UNL     1     -12.227   9.366  71.872  1.00  0.00    -0.440 C  
BRANCH   3   4
HETATM    4  C   UNL     1     -10.770   8.904  71.857  1.00  0.00    -0.426 C  
BRANCH   4   5
HETATM    5  C   UNL     1     -10.367   8.381  70.520  1.00  0.00    -0.199 A  
HETATM    6  C   UNL     1      -9.389   8.738  69.604  1.00  0.00    -0.158 A  
HETATM    7  C   UNL     1     -10.331   5.733  66.842  1.00  0.00    -0.306 A  
HETATM    8  C   UNL     1      -9.442   7.751  68.574  1.00  0.00    -0.148 A  
HETATM    9  C   UNL     1     -10.572   6.986  68.847  1.00  0.00    -0.215 A  
HETATM   10  C   UNL     1      -9.154   6.429  66.562  1.00  0.00    -0.162 A  
HETATM   11  C   UNL     1      -8.690   7.430  67.423  1.00  0.00    -0.121 A  
HETATM   12  C   UNL     1     -11.056   5.983  68.012  1.00  0.00    -0.233 A  
HETATM   13  O   UNL     1     -11.116   7.351  70.038  1.00  0.00    -0.259 OA 
BRANCH   6  14
HETATM   14  C   UNL     1      -8.518   9.890  69.757  1.00  0.00    -0.192 C  
HETATM   15  O   UNL     1      -7.656   9.930  70.631  1.00  0.00    -0.288 OA 
BRANCH  14  16
HETATM   16  C   UNL     1      -8.701  11.086  68.885  1.00  0.00    -0.122 A  
HETATM   17  I   UNL     1      -5.891  14.254  68.241  1.00  0.00    -0.139 I  
HETATM   18  C   UNL     1      -8.855  13.451  67.287  1.00  0.00    -0.220 A  
HETATM   19  C   UNL     1      -7.593  11.913  68.716  1.00  0.00    -0.090 A  
HETATM   20  C   UNL     1      -9.971  12.601  67.472  1.00  0.00    -0.205 A  
HETATM   21  I   UNL     1     -11.811  12.925  66.485  1.00  0.00    -0.307 I  
HETATM   22  C   UNL     1      -7.672  13.109  67.981  1.00  0.00    -0.146 A  
HETATM   23  C   UNL     1      -9.910  11.466  68.300  1.00  0.00    -0.202 A  
BRANCH  18  24
HETATM   24  O   UNL     1      -9.076  14.526  66.444  1.00  0.00    -0.255 OA 
BRANCH  24  25
HETATM   25  C   UNL     1      -9.192  15.784  67.099  1.00  0.00    -0.210 C  
BRANCH  25  26
HETATM   26  C   UNL     1      -9.113  17.030  66.207  1.00  0.00    -0.246 C  
BRANCH  26  27
HETATM   27  N   UNL     1      -8.581  18.194  66.970  1.00  0.00    -0.247 NA 
BRANCH  27  28
HETATM   28  C   UNL     1      -9.363  19.433  66.810  1.00  0.00    -0.333 C  
HETATM   29  C   UNL     1     -10.805  19.373  67.303  1.00  0.00    -0.561 C  
ENDBRANCH  27  28
BRANCH  27  30
HETATM   30  C   UNL     1      -8.316  17.832  68.368  1.00  0.00    -0.295 C  
HETATM   31  C   UNL     1      -6.926  18.231  68.862  1.00  0.00    -0.289 C  
ENDBRANCH  27  30
ENDBRANCH  26  27
ENDBRANCH  25  26
ENDBRANCH  24  25
ENDBRANCH  18  24
ENDBRANCH  14  16
ENDBRANCH   6  14
ENDBRANCH   4   5
ENDBRANCH   3   4
ENDBRANCH   2   3
TORSDOF 11
ENDMDL
MODEL      111
REMARK 921   NORMALIZED FREE ENERGY PREDICTED BY IDOCK:   -4.63 KCAL/MOL
REMARK 922        TOTAL FREE ENERGY PREDICTED BY IDOCK:   -9.75 KCAL/MOL
REMARK 923 INTER-LIGAND FREE ENERGY PREDICTED BY IDOCK:   -7.80 KCAL/MOL
REMARK 924 INTRA-LIGAND FREE ENERGY PREDICTED BY IDOCK:   -1.96 KCAL/MOL
REMARK 927      BINDING AFFINITY PREDICTED BY RF-SCORE:    0.00 PKD
ROOT
HETATM    1  C   UNL     1     -12.225  12.298  63.623  1.00  0.00    -0.665 C  
HETATM    2  C   UNL     1     -11.515  11.935  64.918  1.00  0.00    -0.315 C  
ENDROOT
BRANCH   2   3
HETATM    3  C   UNL     1     -10.002  11.831  64.721  1.00  0.00    -0.275 C  
BRANCH   3   4
HETATM    4  C   UNL     1      -9.563  10.372  64.593  1.00  0.00    -0.360 C  
BRANCH   4   5
HETATM    5  C   UNL     1      -9.479   9.699  65.921  1.00  0.00    -0.236 A  
HETATM    6  C   UNL     1      -8.722   9.918  67.062  1.00  0.00    -0.137 A  
HETATM    7  C   UNL     1     -10.422   6.782  69.260  1.00  0.00    -0.241 A  
HETATM    8  C   UNL     1      -9.215   8.999  68.037  1.00  0.00    -0.143 A  
HETATM    9  C   UNL     1     -10.097   8.166  67.354  1.00  0.00    -0.233 A  
HETATM   10  C   UNL     1      -9.598   7.629  70.002  1.00  0.00    -0.164 A  
HETATM   11  C   UNL     1      -8.999   8.747  69.410  1.00  0.00    -0.145 A  
HETATM   12  C   UNL     1     -10.709   7.050  67.917  1.00  0.00    -0.274 A  
HETATM   13  O   UNL     1     -10.275   8.606  66.081  1.00  0.00    -0.210 OA 
BRANCH   6  14
HETATM   14  C   UNL     1      -7.674  10.919  67.160  1.00  0.00    -0.123 C  
HETATM   15  O   UNL     1      -6.509  10.656  66.875  1.00  0.00    -0.073 OA 
BRANCH  14  16
HETATM   16  C   UNL     1      -7.990  12.283  67.674  1.00  0.00    -0.161 A  
HETATM   17  I   UNL     1      -5.187  15.311  68.823  1.00  0.00    -0.108 I  
HETATM   18  C   UNL     1      -8.377  14.927  68.688  1.00  0.00    -0.164 A  
HETATM   19  C   UNL     1      -6.915  13.151  67.847  1.00  0.00    -0.132 A  
HETATM   20  C   UNL     1      -9.457  14.030  68.509  1.00  0.00    -0.191 A  
HETATM   21  I   UNL     1     -11.464  14.601  68.847  1.00  0.00    -0.387 I  
HETATM   22  C   UNL     1      -7.085  14.433  68.400  1.00  0.00    -0.106 A  
HETATM   23  C   UNL     1      -9.261  12.713  68.059  1.00  0.00    -0.208 A  
BRANCH  18  24
HETATM   24  O   UNL     1      -8.734  16.186  69.138  1.00  0.00    -0.244 OA 
BRANCH  24  25
HETATM   25  C   UNL     1      -8.559  17.231  68.189  1.00  0.00    -0.242 C  
BRANCH  25  26
HETATM   26  C   UNL     1      -8.325  16.803  66.734  1.00  0.00    -0.237 C  
BRANCH  26  27
HETATM   27  N   UNL     1      -9.552  17.015  65.916  1.00  0.00    -0.526 NA 
BRANCH  27  28
HETATM   28  C   UNL     1     -10.162  15.774  65.404  1.00  0.00    -0.349 C  
HETATM   29  C   UNL     1     -11.416  15.955  64.554  1.00  0.00    -0.287 C  
ENDBRANCH  27  28
BRANCH  27  30
HETATM   30  C   UNL     1     -10.497  17.905  66.603  1.00  0.00    -0.316 C  
HETATM   31  C   UNL     1     -10.579  19.308  66.002  1.00  0.00    -0.550 C  
ENDBRANCH  27  30
ENDBRANCH  26  27
ENDBRANCH  25  26
ENDBRANCH  24  25
ENDBRANCH  18  24
ENDBRANCH  14  16
ENDBRANCH   6  14
ENDBRANCH   4   5
ENDBRANCH   3   4
ENDBRANCH   2   3
TORSDOF 11
ENDMDL
MODEL      112
REMARK 921   NORMALIZED FREE ENERGY PREDICTED BY IDOCK:   -4.63 KCAL/MOL
REMARK 922        TOTAL FREE ENERGY PREDICTED BY IDOCK:   -9.75 KCAL/MOL
REMARK 923 INTER-LIGAND FREE ENERGY PREDICTED BY IDOCK:   -7.62 KCAL/MOL
REMARK 924 INTRA-LIGAND FREE ENERGY PREDICTED BY IDOCK:   -2.13 KCAL/MOL
REMARK 927      BINDING AFFINITY PREDICTED BY RF-SCORE:    0.00 PKD
ROOT
HETATM    1  C   UNL     1     -13.279   9.849  72.236  1.00  0.00    -0.434 C  
HETATM    2  C   UNL     1     -12.913  11.130  71.503  1.00  0.00    -0.542 C  
ENDROOT
BRANCH   2   3
HETATM    3  C   UNL     1     -12.124  10.842  70.225  1.00  0.00    -0.433 C  
BRANCH   3   4
HETATM    4  C   UNL     1     -10.736  10.291  70.547  1.00  0.00    -0.212 C  
BRANCH   4   5
HETATM    5  C   UNL     1     -10.223   9.408  69.461  1.00  0.00    -0.209 A  
HETATM    6  C   UNL     1      -9.096   9.435  68.654  1.00  0.00    -0.132 A  
HETATM    7  C   UNL     1     -10.008   5.900  66.599  1.00  0.00    -0.214 A  
HETATM    8  C   UNL     1      -9.127   8.221  67.902  1.00  0.00    -0.137 A  
HETATM    9  C   UNL     1     -10.366   7.646  68.171  1.00  0.00    -0.204 A  
HETATM   10  C   UNL     1      -8.731   6.402  66.348  1.00  0.00    -0.140 A  
HETATM   11  C   UNL     1      -8.271   7.552  67.000  1.00  0.00    -0.124 A  
HETATM   12  C   UNL     1     -10.849   6.503  67.541  1.00  0.00    -0.433 A  
HETATM   13  O   UNL     1     -11.017   8.351  69.134  1.00  0.00    -0.084 OA 
BRANCH   6  14
HETATM   14  C   UNL     1      -8.123  10.513  68.656  1.00  0.00    -0.127 C  
HETATM   15  O   UNL     1      -7.086  10.438  69.310  1.00  0.00    -0.069 OA 
BRANCH  14  16
HETATM   16  C   UNL     1      -8.401  11.772  67.905  1.00  0.00    -0.149 A  
HETATM   17  I   UNL     1     -11.121  12.269  64.634  1.00  0.00    -0.438 I  
HETATM   18  C   UNL     1      -9.062  14.064  66.333  1.00  0.00    -0.093 A  
HETATM   19  C   UNL     1      -9.433  11.729  66.972  1.00  0.00    -0.191 A  
HETATM   20  C   UNL     1      -8.015  14.088  67.283  1.00  0.00    -0.137 A  
HETATM   21  I   UNL     1      -6.931  15.849  67.722  1.00  0.00    -0.229 I  
HETATM   22  C   UNL     1      -9.730  12.832  66.151  1.00  0.00    -0.246 A  
HETATM   23  C   UNL     1      -7.655  12.946  68.019  1.00  0.00    -0.137 A  
BRANCH  18  24
HETATM   24  O   UNL     1      -9.293  15.268  65.689  1.00  0.00    -0.282 OA 
BRANCH  24  25
HETATM   25  C   UNL     1     -10.569  15.844  65.940  1.00  0.00    -0.337 C  
BRANCH  25  26
HETATM   26  C   UNL     1     -10.592  17.098  66.824  1.00  0.00    -0.192 C  
BRANCH  26  27
HETATM   27  N   UNL     1     -10.477  16.733  68.264  1.00  0.00    -0.322 NA 
BRANCH  27  28
HETATM   28  C   UNL     1     -10.256  17.879  69.164  1.00  0.00    -0.185 C  
HETATM   29  C   UNL     1     -10.000  19.218  68.480  1.00  0.00    -0.513 C  
ENDBRANCH  27  28
BRANCH  27  30
HETATM   30  C   UNL     1     -11.580  15.855  68.675  1.00  0.00    -0.380 C  
HETATM   31  C   UNL     1     -11.130  14.598  69.419  1.00  0.00    -0.293 C  
ENDBRANCH  27  30
ENDBRANCH  26  27
ENDBRANCH  25  26
ENDBRANCH  24  25
ENDBRANCH  18  24
ENDBRANCH  14  16
ENDBRANCH   6  14
ENDBRANCH   4   5
ENDBRANCH   3   4
ENDBRANCH   2   3
TORSDOF 11
ENDMDL
MODEL      113
REMARK 921   NORMALIZED FREE ENERGY PREDICTED BY IDOCK:   -4.59 KCAL/MOL
REMARK 922        TOTAL FREE ENERGY PREDICTED BY IDOCK:   -9.68 KCAL/MOL
REMARK 923 INTER-LIGAND FREE ENERGY PREDICTED BY IDOCK:   -8.04 KCAL/MOL
REMARK 924 INTRA-LIGAND FREE ENERGY PREDICTED BY IDOCK:   -1.64 KCAL/MOL
REMARK 927      BINDING AFFINITY PREDICTED BY RF-SCORE:    0.00 PKD
ROOT
HETATM    1  C   UNL     1      -7.348  10.070  70.189  1.00  0.00    -0.171 C  
HETATM    2  C   UNL     1      -7.080  10.904  68.946  1.00  0.00    -0.090 C  
ENDROOT
BRANCH   2   3
HETATM    3  C   UNL     1      -6.500  10.056  67.813  1.00  0.00    -0.066 C  
BRANCH   3   4
HETATM    4  C   UNL     1      -7.466   9.984  66.630  1.00  0.00    -0.104 C  
BRANCH   4   5
HETATM    5  C   UNL     1      -8.292   8.743  66.663  1.00  0.00    -0.108 A  
HETATM    6  C   UNL     1      -9.509   8.414  67.241  1.00  0.00    -0.196 A  
HETATM    7  C   UNL     1      -9.572   4.482  65.796  1.00  0.00    -0.192 A  
HETATM    8  C   UNL     1      -9.812   7.096  66.785  1.00  0.00    -0.272 A  
HETATM    9  C   UNL     1      -8.668   6.656  66.124  1.00  0.00    -0.148 A  
HETATM   10  C   UNL     1     -10.762   4.900  66.391  1.00  0.00    -0.170 A  
HETATM   11  C   UNL     1     -10.903   6.204  66.878  1.00  0.00    -0.411 A  
HETATM   12  C   UNL     1      -8.501   5.367  65.627  1.00  0.00    -0.138 A  
HETATM   13  O   UNL     1      -7.759   7.663  66.028  1.00  0.00    -0.085 OA 
BRANCH   6  14
HETATM   14  C   UNL     1     -10.261   9.305  68.107  1.00  0.00    -0.205 C  
HETATM   15  O   UNL     1     -10.559   8.983  69.254  1.00  0.00    -0.227 OA 
BRANCH  14  16
HETATM   16  C   UNL     1     -10.746  10.617  67.589  1.00  0.00    -0.315 A  
HETATM   17  I   UNL     1     -12.007  13.990  69.907  1.00  0.00    -0.372 I  
HETATM   18  C   UNL     1     -11.715  13.189  66.806  1.00  0.00    -0.385 A  
HETATM   19  C   UNL     1     -10.965  11.619  68.530  1.00  0.00    -0.264 A  
HETATM   20  C   UNL     1     -11.489  12.158  65.864  1.00  0.00    -0.363 A  
HETATM   21  I   UNL     1     -11.720  12.460  63.785  1.00  0.00    -0.654 I  
HETATM   22  C   UNL     1     -11.497  12.869  68.165  1.00  0.00    -0.315 A  
HETATM   23  C   UNL     1     -11.062  10.876  66.254  1.00  0.00    -0.038 A  
BRANCH  18  24
HETATM   24  O   UNL     1     -12.134  14.391  66.264  1.00  0.00    -0.409 OA 
BRANCH  24  25
HETATM   25  C   UNL     1     -11.086  15.288  65.917  1.00  0.00    -0.287 C  
BRANCH  25  26
HETATM   26  C   UNL     1     -10.645  16.279  67.002  1.00  0.00    -0.284 C  
BRANCH  26  27
HETATM   27  N   UNL     1      -9.950  17.451  66.399  1.00  0.00    -0.305 NA 
BRANCH  27  28
HETATM   28  C   UNL     1     -10.363  18.753  66.953  1.00  0.00    -0.404 C  
HETATM   29  C   UNL     1     -10.110  19.962  66.059  1.00  0.00    -0.589 C  
ENDBRANCH  27  28
BRANCH  27  30
HETATM   30  C   UNL     1      -8.496  17.247  66.376  1.00  0.00    -0.269 C  
HETATM   31  C   UNL     1      -7.826  17.387  67.743  1.00  0.00    -0.205 C  
ENDBRANCH  27  30
ENDBRANCH  26  27
ENDBRANCH  25  26
ENDBRANCH  24  25
ENDBRANCH  18  24
ENDBRANCH  14  16
ENDBRANCH   6  14
ENDBRANCH   4   5
ENDBRANCH   3   4
ENDBRANCH   2   3
TORSDOF 11
ENDMDL
MODEL      114
REMARK 921   NORMALIZED FREE ENERGY PREDICTED BY IDOCK:   -4.55 KCAL/MOL
REMARK 922        TOTAL FREE ENERGY PREDICTED BY IDOCK:   -9.63 KCAL/MOL
REMARK 923 INTER-LIGAND FREE ENERGY PREDICTED BY IDOCK:   -8.32 KCAL/MOL
REMARK 924 INTRA-LIGAND FREE ENERGY PREDICTED BY IDOCK:   -1.31 KCAL/MOL
REMARK 927      BINDING AFFINITY PREDICTED BY RF-SCORE:    0.00 PKD
ROOT
HETATM    1  C   UNL     1     -11.747  15.625  71.647  1.00  0.00    -0.521 C  
HETATM    2  C   UNL     1     -12.328  14.275  71.257  1.00  0.00    -0.439 C  
ENDROOT
BRANCH   2   3
HETATM    3  C   UNL     1     -12.392  14.107  69.738  1.00  0.00    -0.350 C  
BRANCH   3   4
HETATM    4  C   UNL     1     -11.007  14.253  69.109  1.00  0.00    -0.286 C  
BRANCH   4   5
HETATM    5  C   UNL     1     -10.920  13.562  67.791  1.00  0.00    -0.266 A  
HETATM    6  C   UNL     1     -10.035  12.645  67.243  1.00  0.00    -0.212 A  
HETATM    7  C   UNL     1     -12.048  12.302  63.585  1.00  0.00    -0.648 A  
HETATM    8  C   UNL     1     -10.590  12.276  65.980  1.00  0.00    -0.287 A  
HETATM    9  C   UNL     1     -11.662  13.140  65.776  1.00  0.00    -0.374 A  
HETATM   10  C   UNL     1     -11.025  11.373  63.773  1.00  0.00    -0.448 A  
HETATM   11  C   UNL     1     -10.295  11.338  64.967  1.00  0.00    -0.359 A  
HETATM   12  C   UNL     1     -12.407  13.195  64.601  1.00  0.00    -0.463 A  
HETATM   13  O   UNL     1     -11.878  13.899  66.882  1.00  0.00    -0.376 OA 
BRANCH   6  14
HETATM   14  C   UNL     1      -8.825  12.194  67.906  1.00  0.00    -0.177 C  
HETATM   15  O   UNL     1      -7.725  12.656  67.614  1.00  0.00    -0.130 OA 
BRANCH  14  16
HETATM   16  C   UNL     1      -8.890  11.103  68.921  1.00  0.00    -0.086 A  
HETATM   17  I   UNL     1     -12.333   9.865  71.148  1.00  0.00    -0.510 I  
HETATM   18  C   UNL     1      -9.225   9.072  70.903  1.00  0.00    -0.259 A  
HETATM   19  C   UNL     1     -10.152  10.780  69.413  1.00  0.00    -0.166 A  
HETATM   20  C   UNL     1      -7.951   9.415  70.394  1.00  0.00    -0.172 A  
HETATM   21  I   UNL     1      -6.197   8.374  70.950  1.00  0.00    -0.045 I  
HETATM   22  C   UNL     1     -10.324   9.825  70.430  1.00  0.00    -0.293 A  
HETATM   23  C   UNL     1      -7.780  10.450  69.458  1.00  0.00    -0.159 A  
BRANCH  18  24
HETATM   24  O   UNL     1      -9.227   8.034  71.818  1.00  0.00    -0.141 OA 
BRANCH  24  25
HETATM   25  C   UNL     1      -9.830   6.831  71.356  1.00  0.00    -0.178 C  
BRANCH  25  26
HETATM   26  C   UNL     1      -8.901   5.818  70.673  1.00  0.00    -0.140 C  
BRANCH  26  27
HETATM   27  N   UNL     1      -9.681   4.869  69.830  1.00  0.00    -0.185 NA 
BRANCH  27  28
HETATM   28  C   UNL     1      -9.493   5.049  68.379  1.00  0.00    -0.134 C  
HETATM   29  C   UNL     1      -8.520   4.081  67.713  1.00  0.00    -0.102 C  
ENDBRANCH  27  28
BRANCH  27  30
HETATM   30  C   UNL     1      -9.499   3.485  70.288  1.00  0.00    -0.183 C  
HETATM   31  C   UNL     1      -9.813   3.274  71.770  1.00  0.00    -0.229 C  
ENDBRANCH  27  30
ENDBRANCH  26  27
ENDBRANCH  25  26
ENDBRANCH  24  25
ENDBRANCH  18  24
ENDBRANCH  14  16
ENDBRANCH   6  14
ENDBRANCH   4   5
ENDBRANCH   3   4
ENDBRANCH   2   3
TORSDOF 11
ENDMDL
MODEL      115
REMARK 921   NORMALIZED FREE ENERGY PREDICTED BY IDOCK:   -4.53 KCAL/MOL
REMARK 922        TOTAL FREE ENERGY PREDICTED BY IDOCK:   -9.59 KCAL/MOL
REMARK 923 INTER-LIGAND FREE ENERGY PREDICTED BY IDOCK:   -7.61 KCAL/MOL
REMARK 924 INTRA-LIGAND FREE ENERGY PREDICTED BY IDOCK:   -1.98 KCAL/MOL
REMARK 927      BINDING AFFINITY PREDICTED BY RF-SCORE:    0.00 PKD
ROOT
HETATM    1  C   UNL     1      -8.619  10.047  64.573  1.00  0.00    -0.197 C  
HETATM    2  C   UNL     1      -7.761   8.843  64.928  1.00  0.00    -0.112 C  
ENDROOT
BRANCH   2   3
HETATM    3  C   UNL     1      -8.557   7.793  65.704  1.00  0.00    -0.147 C  
BRANCH   3   4
HETATM    4  C   UNL     1      -9.882   8.367  66.206  1.00  0.00    -0.257 C  
BRANCH   4   5
HETATM    5  C   UNL     1      -9.949   8.389  67.695  1.00  0.00    -0.190 A  
HETATM    6  C   UNL     1      -9.330   9.152  68.674  1.00  0.00    -0.135 A  
HETATM    7  C   UNL     1     -11.262   7.294  71.893  1.00  0.00    -0.281 A  
HETATM    8  C   UNL     1      -9.929   8.760  69.909  1.00  0.00    -0.193 A  
HETATM    9  C   UNL     1     -10.724   7.658  69.607  1.00  0.00    -0.228 A  
HETATM   10  C   UNL     1     -10.532   8.433  72.235  1.00  0.00    -0.407 A  
HETATM   11  C   UNL     1      -9.871   9.183  71.255  1.00  0.00    -0.363 A  
HETATM   12  C   UNL     1     -11.394   6.896  70.559  1.00  0.00    -0.374 A  
HETATM   13  O   UNL     1     -10.756   7.450  68.264  1.00  0.00    -0.180 OA 
BRANCH   6  14
HETATM   14  C   UNL     1      -8.303  10.141  68.400  1.00  0.00    -0.113 C  
HETATM   15  O   UNL     1      -7.113   9.838  68.368  1.00  0.00    -0.072 OA 
BRANCH  14  16
HETATM   16  C   UNL     1      -8.677  11.573  68.211  1.00  0.00    -0.162 A  
HETATM   17  I   UNL     1     -11.862  13.104  65.791  1.00  0.00    -0.516 I  
HETATM   18  C   UNL     1      -9.543  14.249  67.703  1.00  0.00    -0.219 A  
HETATM   19  C   UNL     1      -9.841  11.827  67.491  1.00  0.00    -0.195 A  
HETATM   20  C   UNL     1      -8.361  13.972  68.430  1.00  0.00    -0.162 A  
HETATM   21  I   UNL     1      -7.199  15.499  69.317  1.00  0.00    -0.194 I  
HETATM   22  C   UNL     1     -10.246  13.139  67.184  1.00  0.00    -0.244 A  
HETATM   23  C   UNL     1      -7.907  12.657  68.635  1.00  0.00    -0.043 A  
BRANCH  18  24
HETATM   24  O   UNL     1      -9.854  15.593  67.587  1.00  0.00    -0.225 OA 
BRANCH  24  25
HETATM   25  C   UNL     1      -9.422  16.203  66.377  1.00  0.00    -0.295 C  
BRANCH  25  26
HETATM   26  C   UNL     1      -8.960  17.663  66.473  1.00  0.00    -0.262 C  
BRANCH  26  27
HETATM   27  N   UNL     1      -9.575  18.336  67.651  1.00  0.00    -0.278 NA 
BRANCH  27  28
HETATM   28  C   UNL     1      -8.631  19.136  68.453  1.00  0.00    -0.352 C  
HETATM   29  C   UNL     1      -7.241  19.318  67.853  1.00  0.00    -0.285 C  
ENDBRANCH  27  28
BRANCH  27  30
HETATM   30  C   UNL     1     -10.794  19.059  67.269  1.00  0.00    -0.408 C  
HETATM   31  C   UNL     1     -10.646  19.903  66.003  1.00  0.00    -0.527 C  
ENDBRANCH  27  30
ENDBRANCH  26  27
ENDBRANCH  25  26
ENDBRANCH  24  25
ENDBRANCH  18  24
ENDBRANCH  14  16
ENDBRANCH   6  14
ENDBRANCH   4   5
ENDBRANCH   3   4
ENDBRANCH   2   3
TORSDOF 11
ENDMDL
MODEL      116
REMARK 921   NORMALIZED FREE ENERGY PREDICTED BY IDOCK:   -4.52 KCAL/MOL
REMARK 922        TOTAL FREE ENERGY PREDICTED BY IDOCK:   -9.58 KCAL/MOL
REMARK 923 INTER-LIGAND FREE ENERGY PREDICTED BY IDOCK:   -8.40 KCAL/MOL
REMARK 924 INTRA-LIGAND FREE ENERGY PREDICTED BY IDOCK:   -1.18 KCAL/MOL
REMARK 927      BINDING AFFINITY PREDICTED BY RF-SCORE:    0.00 PKD
ROOT
HETATM    1  C   UNL     1     -11.440  11.840  63.642  1.00  0.00    -0.524 C  
HETATM    2  C   UNL     1     -12.258  13.104  63.425  1.00  0.00    -0.521 C  
ENDROOT
BRANCH   2   3
HETATM    3  C   UNL     1     -11.952  14.163  64.485  1.00  0.00    -0.476 C  
BRANCH   3   4
HETATM    4  C   UNL     1     -10.445  14.325  64.681  1.00  0.00    -0.325 C  
BRANCH   4   5
HETATM    5  C   UNL     1     -10.121  15.489  65.555  1.00  0.00    -0.373 A  
HETATM    6  C   UNL     1      -9.309  15.659  66.666  1.00  0.00    -0.291 A  
HETATM    7  C   UNL     1     -10.117  19.745  67.114  1.00  0.00    -0.553 A  
HETATM    8  C   UNL     1      -9.335  17.057  66.957  1.00  0.00    -0.249 A  
HETATM    9  C   UNL     1     -10.311  17.594  66.121  1.00  0.00    -0.334 A  
HETATM   10  C   UNL     1      -9.087  19.266  67.924  1.00  0.00    -0.363 A  
HETATM   11  C   UNL     1      -8.676  17.931  67.849  1.00  0.00    -0.252 A  
HETATM   12  C   UNL     1     -10.737  18.918  66.171  1.00  0.00    -0.364 A  
HETATM   13  O   UNL     1     -10.767  16.650  65.256  1.00  0.00    -0.550 OA 
BRANCH   6  14
HETATM   14  C   UNL     1      -8.596  14.577  67.321  1.00  0.00    -0.215 C  
HETATM   15  O   UNL     1      -7.529  14.769  67.897  1.00  0.00    -0.116 OA 
BRANCH  14  16
HETATM   16  C   UNL     1      -9.125  13.184  67.252  1.00  0.00    -0.217 A  
HETATM   17  I   UNL     1     -12.009  11.393  69.864  1.00  0.00    -0.389 I  
HETATM   18  C   UNL     1     -10.249  10.557  67.305  1.00  0.00    -0.215 A  
HETATM   19  C   UNL     1     -10.167  12.865  68.119  1.00  0.00    -0.239 A  
HETATM   20  C   UNL     1      -9.189  10.898  66.432  1.00  0.00    -0.174 A  
HETATM   21  I   UNL     1      -8.428   9.542  65.000  1.00  0.00    -0.225 I  
HETATM   22  C   UNL     1     -10.688  11.561  68.197  1.00  0.00    -0.205 A  
HETATM   23  C   UNL     1      -8.601  12.174  66.442  1.00  0.00    -0.002 A  
BRANCH  18  24
HETATM   24  O   UNL     1     -10.718   9.261  67.174  1.00  0.00    -0.251 OA 
BRANCH  24  25
HETATM   25  C   UNL     1     -10.226   8.347  68.146  1.00  0.00    -0.208 C  
BRANCH  25  26
HETATM   26  C   UNL     1     -10.054   6.891  67.693  1.00  0.00    -0.161 C  
BRANCH  26  27
HETATM   27  N   UNL     1      -8.611   6.527  67.616  1.00  0.00    -0.117 NA 
BRANCH  27  28
HETATM   28  C   UNL     1      -7.773   7.152  68.655  1.00  0.00    -0.120 C  
HETATM   29  C   UNL     1      -7.097   6.190  69.627  1.00  0.00    -0.073 C  
ENDBRANCH  27  28
BRANCH  27  30
HETATM   30  C   UNL     1      -8.439   5.073  67.505  1.00  0.00    -0.105 C  
HETATM   31  C   UNL     1      -9.752   4.289  67.512  1.00  0.00    -0.198 C  
ENDBRANCH  27  30
ENDBRANCH  26  27
ENDBRANCH  25  26
ENDBRANCH  24  25
ENDBRANCH  18  24
ENDBRANCH  14  16
ENDBRANCH   6  14
ENDBRANCH   4   5
ENDBRANCH   3   4
ENDBRANCH   2   3
TORSDOF 11
ENDMDL
MODEL      117
REMARK 921   NORMALIZED FREE ENERGY PREDICTED BY IDOCK:   -4.52 KCAL/MOL
REMARK 922        TOTAL FREE ENERGY PREDICTED BY IDOCK:   -9.57 KCAL/MOL
REMARK 923 INTER-LIGAND FREE ENERGY PREDICTED BY IDOCK:   -7.88 KCAL/MOL
REMARK 924 INTRA-LIGAND FREE ENERGY PREDICTED BY IDOCK:   -1.69 KCAL/MOL
REMARK 927      BINDING AFFINITY PREDICTED BY RF-SCORE:    0.00 PKD
ROOT
HETATM    1  C   UNL     1      -6.107  12.694  68.904  1.00  0.00    -0.079 C  
HETATM    2  C   UNL     1      -6.620  12.871  67.483  1.00  0.00    -0.160 C  
ENDROOT
BRANCH   2   3
HETATM    3  C   UNL     1      -6.385  11.618  66.639  1.00  0.00    -0.066 C  
BRANCH   3   4
HETATM    4  C   UNL     1      -7.492  10.588  66.863  1.00  0.00    -0.110 C  
BRANCH   4   5
HETATM    5  C   UNL     1      -8.820  11.092  66.409  1.00  0.00    -0.178 A  
HETATM    6  C   UNL     1      -9.877  11.722  67.046  1.00  0.00    -0.213 A  
HETATM    7  C   UNL     1     -12.236  12.098  63.605  1.00  0.00    -0.663 A  
HETATM    8  C   UNL     1     -10.805  12.063  66.016  1.00  0.00    -0.329 A  
HETATM    9  C   UNL     1     -10.329  11.443  64.864  1.00  0.00    -0.292 A  
HETATM   10  C   UNL     1     -12.718  12.791  64.716  1.00  0.00    -0.469 A  
HETATM   11  C   UNL     1     -12.010  12.794  65.923  1.00  0.00    -0.506 A  
HETATM   12  C   UNL     1     -11.010  11.425  63.650  1.00  0.00    -0.443 A  
HETATM   13  O   UNL     1      -9.115  10.878  65.096  1.00  0.00    -0.197 OA 
BRANCH   6  14
HETATM   14  C   UNL     1      -9.932  11.963  68.477  1.00  0.00    -0.192 C  
HETATM   15  O   UNL     1      -9.945  13.103  68.935  1.00  0.00    -0.084 OA 
BRANCH  14  16
HETATM   16  C   UNL     1      -9.910  10.815  69.430  1.00  0.00    -0.112 A  
HETATM   17  I   UNL     1     -13.166   9.395  71.822  1.00  0.00    -0.555 I  
HETATM   18  C   UNL     1     -10.075   8.670  71.310  1.00  0.00    -0.242 A  
HETATM   19  C   UNL     1     -11.129  10.444  69.992  1.00  0.00    -0.379 A  
HETATM   20  C   UNL     1      -8.845   9.063  70.732  1.00  0.00    -0.234 A  
HETATM   21  I   UNL     1      -7.042   8.022  71.100  1.00  0.00    -0.070 I  
HETATM   22  C   UNL     1     -11.214   9.430  70.962  1.00  0.00    -0.342 A  
HETATM   23  C   UNL     1      -8.755  10.152  69.847  1.00  0.00    -0.091 A  
BRANCH  18  24
HETATM   24  O   UNL     1      -9.996   7.581  72.162  1.00  0.00    -0.170 OA 
BRANCH  24  25
HETATM   25  C   UNL     1     -10.257   6.324  71.550  1.00  0.00    -0.200 C  
BRANCH  25  26
HETATM   26  C   UNL     1     -11.073   6.351  70.251  1.00  0.00    -0.354 C  
BRANCH  26  27
HETATM   27  N   UNL     1     -10.316   5.714  69.136  1.00  0.00    -0.234 NA 
BRANCH  27  28
HETATM   28  C   UNL     1      -9.623   6.667  68.251  1.00  0.00    -0.125 C  
HETATM   29  C   UNL     1     -10.478   7.294  67.155  1.00  0.00    -0.394 C  
ENDBRANCH  27  28
BRANCH  27  30
HETATM   30  C   UNL     1      -9.460   4.629  69.633  1.00  0.00    -0.162 C  
HETATM   31  C   UNL     1      -9.405   3.409  68.714  1.00  0.00    -0.234 C  
ENDBRANCH  27  30
ENDBRANCH  26  27
ENDBRANCH  25  26
ENDBRANCH  24  25
ENDBRANCH  18  24
ENDBRANCH  14  16
ENDBRANCH   6  14
ENDBRANCH   4   5
ENDBRANCH   3   4
ENDBRANCH   2   3
TORSDOF 11
ENDMDL
MODEL      118
REMARK 921   NORMALIZED FREE ENERGY PREDICTED BY IDOCK:   -4.51 KCAL/MOL
REMARK 922        TOTAL FREE ENERGY PREDICTED BY IDOCK:   -9.56 KCAL/MOL
REMARK 923 INTER-LIGAND FREE ENERGY PREDICTED BY IDOCK:   -7.61 KCAL/MOL
REMARK 924 INTRA-LIGAND FREE ENERGY PREDICTED BY IDOCK:   -1.95 KCAL/MOL
REMARK 927      BINDING AFFINITY PREDICTED BY RF-SCORE:    0.00 PKD
ROOT
HETATM    1  C   UNL     1      -9.231   5.858  71.908  1.00  0.00    -0.155 C  
HETATM    2  C   UNL     1      -9.710   6.495  70.614  1.00  0.00    -0.194 C  
ENDROOT
BRANCH   2   3
HETATM    3  C   UNL     1     -10.453   5.491  69.732  1.00  0.00    -0.389 C  
BRANCH   3   4
HETATM    4  C   UNL     1     -11.036   6.172  68.494  1.00  0.00    -0.352 C  
BRANCH   4   5
HETATM    5  C   UNL     1     -10.211   5.917  67.279  1.00  0.00    -0.200 A  
HETATM    6  C   UNL     1      -9.174   6.599  66.661  1.00  0.00    -0.179 A  
HETATM    7  C   UNL     1      -8.634   3.791  63.600  1.00  0.00    -0.093 A  
HETATM    8  C   UNL     1      -8.728   5.751  65.602  1.00  0.00    -0.151 A  
HETATM    9  C   UNL     1      -9.652   4.713  65.539  1.00  0.00    -0.179 A  
HETATM   10  C   UNL     1      -7.646   4.774  63.665  1.00  0.00    -0.064 A  
HETATM   11  C   UNL     1      -7.671   5.752  64.665  1.00  0.00    -0.098 A  
HETATM   12  C   UNL     1      -9.651   3.725  64.559  1.00  0.00    -0.171 A  
HETATM   13  O   UNL     1     -10.534   4.800  66.570  1.00  0.00    -0.268 OA 
BRANCH   6  14
HETATM   14  C   UNL     1      -8.692   7.900  67.089  1.00  0.00    -0.131 C  
HETATM   15  O   UNL     1      -7.557   8.048  67.535  1.00  0.00    -0.098 OA 
BRANCH  14  16
HETATM   16  C   UNL     1      -9.601   9.083  67.053  1.00  0.00    -0.231 A  
HETATM   17  I   UNL     1     -10.384  11.622  63.694  1.00  0.00    -0.548 I  
HETATM   18  C   UNL     1     -11.272  11.384  66.776  1.00  0.00    -0.252 A  
HETATM   19  C   UNL     1      -9.811   9.672  65.809  1.00  0.00    -0.373 A  
HETATM   20  C   UNL     1     -11.045  10.773  68.032  1.00  0.00    -0.299 A  
HETATM   21  I   UNL     1     -12.018  11.421  69.792  1.00  0.00    -0.385 I  
HETATM   22  C   UNL     1     -10.584  10.839  65.668  1.00  0.00    -0.129 A  
HETATM   23  C   UNL     1     -10.181   9.673  68.176  1.00  0.00    -0.225 A  
BRANCH  18  24
HETATM   24  O   UNL     1     -12.147  12.457  66.799  1.00  0.00    -0.578 OA 
BRANCH  24  25
HETATM   25  C   UNL     1     -11.536  13.729  66.618  1.00  0.00    -0.369 C  
BRANCH  25  26
HETATM   26  C   UNL     1     -11.315  14.569  67.883  1.00  0.00    -0.310 C  
BRANCH  26  27
HETATM   27  N   UNL     1      -9.876  14.574  68.270  1.00  0.00    -0.222 NA 
BRANCH  27  28
HETATM   28  C   UNL     1      -8.963  14.093  67.217  1.00  0.00    -0.214 C  
HETATM   29  C   UNL     1      -8.027  12.958  67.621  1.00  0.00    -0.167 C  
ENDBRANCH  27  28
BRANCH  27  30
HETATM   30  C   UNL     1      -9.491  15.867  68.849  1.00  0.00    -0.234 C  
HETATM   31  C   UNL     1     -10.632  16.881  68.922  1.00  0.00    -0.353 C  
ENDBRANCH  27  30
ENDBRANCH  26  27
ENDBRANCH  25  26
ENDBRANCH  24  25
ENDBRANCH  18  24
ENDBRANCH  14  16
ENDBRANCH   6  14
ENDBRANCH   4   5
ENDBRANCH   3   4
ENDBRANCH   2   3
TORSDOF 11
ENDMDL
MODEL      119
REMARK 921   NORMALIZED FREE ENERGY PREDICTED BY IDOCK:   -4.51 KCAL/MOL
REMARK 922        TOTAL FREE ENERGY PREDICTED BY IDOCK:   -9.55 KCAL/MOL
REMARK 923 INTER-LIGAND FREE ENERGY PREDICTED BY IDOCK:   -7.76 KCAL/MOL
REMARK 924 INTRA-LIGAND FREE ENERGY PREDICTED BY IDOCK:   -1.79 KCAL/MOL
REMARK 927      BINDING AFFINITY PREDICTED BY RF-SCORE:    0.00 PKD
ROOT
HETATM    1  C   UNL     1      -9.515   7.043  71.803  1.00  0.00    -0.157 C  
HETATM    2  C   UNL     1     -10.726   6.666  70.964  1.00  0.00    -0.278 C  
ENDROOT
BRANCH   2   3
HETATM    3  C   UNL     1     -10.341   5.757  69.796  1.00  0.00    -0.332 C  
BRANCH   3   4
HETATM    4  C   UNL     1     -11.138   6.108  68.540  1.00  0.00    -0.352 C  
BRANCH   4   5
HETATM    5  C   UNL     1     -10.364   5.834  67.296  1.00  0.00    -0.230 A  
HETATM    6  C   UNL     1      -9.312   6.475  66.658  1.00  0.00    -0.184 A  
HETATM    7  C   UNL     1      -9.005   3.700  63.535  1.00  0.00    -0.099 A  
HETATM    8  C   UNL     1      -8.941   5.626  65.572  1.00  0.00    -0.113 A  
HETATM    9  C   UNL     1      -9.918   4.636  65.520  1.00  0.00    -0.183 A  
HETATM   10  C   UNL     1      -7.968   4.631  63.586  1.00  0.00    -0.091 A  
HETATM   11  C   UNL     1      -7.914   5.591  64.603  1.00  0.00    -0.115 A  
HETATM   12  C   UNL     1      -9.995   3.668  64.523  1.00  0.00    -0.190 A  
HETATM   13  O   UNL     1     -10.764   4.747  66.579  1.00  0.00    -0.217 OA 
BRANCH   6  14
HETATM   14  C   UNL     1      -8.753   7.743  67.093  1.00  0.00    -0.125 C  
HETATM   15  O   UNL     1      -7.628   7.813  67.581  1.00  0.00    -0.107 OA 
BRANCH  14  16
HETATM   16  C   UNL     1      -9.571   8.988  67.011  1.00  0.00    -0.231 A  
HETATM   17  I   UNL     1     -11.826  10.796  70.172  1.00  0.00    -0.481 I  
HETATM   18  C   UNL     1     -11.202  11.334  67.063  1.00  0.00    -0.255 A  
HETATM   19  C   UNL     1     -10.102   9.468  68.206  1.00  0.00    -0.210 A  
HETATM   20  C   UNL     1     -10.657  10.830  65.859  1.00  0.00    -0.147 A  
HETATM   21  I   UNL     1     -10.887  11.831  64.012  1.00  0.00    -0.554 I  
HETATM   22  C   UNL     1     -10.953  10.587  68.237  1.00  0.00    -0.263 A  
HETATM   23  C   UNL     1      -9.899   9.646  65.825  1.00  0.00    -0.373 A  
BRANCH  18  24
HETATM   24  O   UNL     1     -11.926  12.506  66.930  1.00  0.00    -0.507 OA 
BRANCH  24  25
HETATM   25  C   UNL     1     -11.291  13.663  67.461  1.00  0.00    -0.308 C  
BRANCH  25  26
HETATM   26  C   UNL     1     -12.149  14.560  68.364  1.00  0.00    -0.214 C  
BRANCH  26  27
HETATM   27  N   UNL     1     -11.293  15.334  69.307  1.00  0.00    -0.277 NA 
BRANCH  27  28
HETATM   28  C   UNL     1     -11.501  15.000  70.728  1.00  0.00    -0.292 C  
HETATM   29  C   UNL     1     -12.889  14.483  71.089  1.00  0.00    -0.408 C  
ENDBRANCH  27  28
BRANCH  27  30
HETATM   30  C   UNL     1      -9.886  15.307  68.887  1.00  0.00    -0.221 C  
HETATM   31  C   UNL     1      -9.278  16.690  68.656  1.00  0.00    -0.248 C  
ENDBRANCH  27  30
ENDBRANCH  26  27
ENDBRANCH  25  26
ENDBRANCH  24  25
ENDBRANCH  18  24
ENDBRANCH  14  16
ENDBRANCH   6  14
ENDBRANCH   4   5
ENDBRANCH   3   4
ENDBRANCH   2   3
TORSDOF 11
ENDMDL
MODEL      120
REMARK 921   NORMALIZED FREE ENERGY PREDICTED BY IDOCK:   -4.48 KCAL/MOL
REMARK 922        TOTAL FREE ENERGY PREDICTED BY IDOCK:   -9.50 KCAL/MOL
REMARK 923 INTER-LIGAND FREE ENERGY PREDICTED BY IDOCK:   -8.00 KCAL/MOL
REMARK 924 INTRA-LIGAND FREE ENERGY PREDICTED BY IDOCK:   -1.50 KCAL/MOL
REMARK 927      BINDING AFFINITY PREDICTED BY RF-SCORE:    0.00 PKD
ROOT
HETATM    1  C   UNL     1     -10.863   2.197  73.089  1.00  0.00    -0.264 C  
HETATM    2  C   UNL     1     -11.122   3.579  73.666  1.00  0.00    -0.314 C  
ENDROOT
BRANCH   2   3
HETATM    3  C   UNL     1     -10.140   4.613  73.115  1.00  0.00    -0.202 C  
BRANCH   3   4
HETATM    4  C   UNL     1     -10.735   5.355  71.919  1.00  0.00    -0.275 C  
BRANCH   4   5
HETATM    5  C   UNL     1      -9.937   5.139  70.678  1.00  0.00    -0.226 A  
HETATM    6  C   UNL     1      -9.045   5.922  69.961  1.00  0.00    -0.154 A  
HETATM    7  C   UNL     1      -8.222   3.013  67.061  1.00  0.00    -0.085 A  
HETATM    8  C   UNL     1      -8.523   5.077  68.935  1.00  0.00    -0.088 A  
HETATM    9  C   UNL     1      -9.280   3.910  68.991  1.00  0.00    -0.153 A  
HETATM   10  C   UNL     1      -7.394   4.135  67.007  1.00  0.00    -0.073 A  
HETATM   11  C   UNL     1      -7.523   5.168  67.943  1.00  0.00    -0.076 A  
HETATM   12  C   UNL     1      -9.172   2.866  68.077  1.00  0.00    -0.248 A  
HETATM   13  O   UNL     1     -10.117   3.938  70.061  1.00  0.00    -0.056 OA 
BRANCH   6  14
HETATM   14  C   UNL     1      -8.749   7.308  70.277  1.00  0.00    -0.147 C  
HETATM   15  O   UNL     1      -7.823   7.611  71.025  1.00  0.00    -0.087 OA 
BRANCH  14  16
HETATM   16  C   UNL     1      -9.615   8.398  69.741  1.00  0.00    -0.170 A  
HETATM   17  I   UNL     1      -9.469  10.104  65.815  1.00  0.00    -0.334 I  
HETATM   18  C   UNL     1     -11.151  10.481  68.530  1.00  0.00    -0.275 A  
HETATM   19  C   UNL     1      -9.484   8.693  68.387  1.00  0.00    -0.144 A  
HETATM   20  C   UNL     1     -11.269  10.170  69.905  1.00  0.00    -0.287 A  
HETATM   21  I   UNL     1     -12.678  11.122  71.160  1.00  0.00    -0.286 I  
HETATM   22  C   UNL     1     -10.191   9.754  67.792  1.00  0.00    -0.208 A  
HETATM   23  C   UNL     1     -10.475   9.181  70.512  1.00  0.00    -0.289 A  
BRANCH  18  24
HETATM   24  O   UNL     1     -12.000  11.480  68.084  1.00  0.00    -0.571 OA 
BRANCH  24  25
HETATM   25  C   UNL     1     -11.445  12.790  68.107  1.00  0.00    -0.314 C  
BRANCH  25  26
HETATM   26  C   UNL     1     -11.864  13.730  66.969  1.00  0.00    -0.410 C  
BRANCH  26  27
HETATM   27  N   UNL     1     -11.500  13.153  65.644  1.00  0.00    -0.314 NA 
BRANCH  27  28
HETATM   28  C   UNL     1     -12.655  12.805  64.797  1.00  0.00    -0.446 C  
HETATM   29  C   UNL     1     -12.323  12.119  63.475  1.00  0.00    -0.682 C  
ENDBRANCH  27  28
BRANCH  27  30
HETATM   30  C   UNL     1     -10.492  13.980  64.968  1.00  0.00    -0.420 C  
HETATM   31  C   UNL     1     -10.286  15.354  65.605  1.00  0.00    -0.403 C  
ENDBRANCH  27  30
ENDBRANCH  26  27
ENDBRANCH  25  26
ENDBRANCH  24  25
ENDBRANCH  18  24
ENDBRANCH  14  16
ENDBRANCH   6  14
ENDBRANCH   4   5
ENDBRANCH   3   4
ENDBRANCH   2   3
TORSDOF 11
ENDMDL
MODEL      121
REMARK 921   NORMALIZED FREE ENERGY PREDICTED BY IDOCK:   -4.47 KCAL/MOL
REMARK 922        TOTAL FREE ENERGY PREDICTED BY IDOCK:   -9.49 KCAL/MOL
REMARK 923 INTER-LIGAND FREE ENERGY PREDICTED BY IDOCK:   -8.19 KCAL/MOL
REMARK 924 INTRA-LIGAND FREE ENERGY PREDICTED BY IDOCK:   -1.30 KCAL/MOL
REMARK 927      BINDING AFFINITY PREDICTED BY RF-SCORE:    0.00 PKD
ROOT
HETATM    1  C   UNL     1      -8.083  17.590  67.606  1.00  0.00    -0.211 C  
HETATM    2  C   UNL     1      -8.673  16.657  66.560  1.00  0.00    -0.317 C  
ENDROOT
BRANCH   2   3
HETATM    3  C   UNL     1      -9.350  15.446  67.203  1.00  0.00    -0.225 C  
BRANCH   3   4
HETATM    4  C   UNL     1     -10.872  15.563  67.130  1.00  0.00    -0.316 C  
BRANCH   4   5
HETATM    5  C   UNL     1     -11.534  14.958  68.321  1.00  0.00    -0.324 A  
HETATM    6  C   UNL     1     -11.829  13.656  68.697  1.00  0.00    -0.409 A  
HETATM    7  C   UNL     1     -13.558  14.698  72.368  1.00  0.00    -0.555 A  
HETATM    8  C   UNL     1     -12.354  13.744  70.022  1.00  0.00    -0.364 A  
HETATM    9  C   UNL     1     -12.515  15.104  70.271  1.00  0.00    -0.342 A  
HETATM   10  C   UNL     1     -13.355  13.329  72.191  1.00  0.00    -0.618 A  
HETATM   11  C   UNL     1     -12.744  12.838  71.032  1.00  0.00    -0.331 A  
HETATM   12  C   UNL     1     -13.116  15.622  71.414  1.00  0.00    -0.559 A  
HETATM   13  O   UNL     1     -11.995  15.838  69.252  1.00  0.00    -0.369 OA 
BRANCH   6  14
HETATM   14  C   UNL     1     -11.597  12.497  67.854  1.00  0.00    -0.347 C  
HETATM   15  O   UNL     1     -12.227  12.324  66.814  1.00  0.00    -0.558 OA 
BRANCH  14  16
HETATM   16  C   UNL     1     -10.619  11.451  68.274  1.00  0.00    -0.224 A  
HETATM   17  I   UNL     1     -11.229   8.389  71.206  1.00  0.00    -0.378 I  
HETATM   18  C   UNL     1      -8.894   9.384  69.231  1.00  0.00    -0.150 A  
HETATM   19  C   UNL     1     -11.088  10.468  69.142  1.00  0.00    -0.302 A  
HETATM   20  C   UNL     1      -8.434  10.392  68.351  1.00  0.00    -0.124 A  
HETATM   21  I   UNL     1      -6.474  10.390  67.560  1.00  0.00    -0.060 I  
HETATM   22  C   UNL     1     -10.235   9.481  69.666  1.00  0.00    -0.218 A  
HETATM   23  C   UNL     1      -9.269  11.439  67.922  1.00  0.00    -0.164 A  
BRANCH  18  24
HETATM   24  O   UNL     1      -7.952   8.425  69.561  1.00  0.00    -0.106 OA 
BRANCH  24  25
HETATM   25  C   UNL     1      -8.182   7.141  68.994  1.00  0.00    -0.125 C  
BRANCH  25  26
HETATM   26  C   UNL     1      -7.979   7.015  67.478  1.00  0.00    -0.113 C  
BRANCH  26  27
HETATM   27  N   UNL     1      -7.672   5.607  67.100  1.00  0.00    -0.099 NA 
BRANCH  27  28
HETATM   28  C   UNL     1      -8.737   4.940  66.330  1.00  0.00    -0.115 C  
HETATM   29  C   UNL     1      -8.761   5.242  64.835  1.00  0.00    -0.122 C  
ENDBRANCH  27  28
BRANCH  27  30
HETATM   30  C   UNL     1      -6.340   5.503  66.490  1.00  0.00    -0.039 C  
HETATM   31  C   UNL     1      -5.196   5.432  67.502  1.00  0.00    -0.004 C  
ENDBRANCH  27  30
ENDBRANCH  26  27
ENDBRANCH  25  26
ENDBRANCH  24  25
ENDBRANCH  18  24
ENDBRANCH  14  16
ENDBRANCH   6  14
ENDBRANCH   4   5
ENDBRANCH   3   4
ENDBRANCH   2   3
TORSDOF 11
ENDMDL
MODEL      122
REMARK 921   NORMALIZED FREE ENERGY PREDICTED BY IDOCK:   -4.47 KCAL/MOL
REMARK 922        TOTAL FREE ENERGY PREDICTED BY IDOCK:   -9.48 KCAL/MOL
REMARK 923 INTER-LIGAND FREE ENERGY PREDICTED BY IDOCK:   -7.86 KCAL/MOL
REMARK 924 INTRA-LIGAND FREE ENERGY PREDICTED BY IDOCK:   -1.63 KCAL/MOL
REMARK 927      BINDING AFFINITY PREDICTED BY RF-SCORE:    0.00 PKD
ROOT
HETATM    1  C   UNL     1     -10.766   5.899  66.808  1.00  0.00    -0.371 C  
HETATM    2  C   UNL     1     -10.167   4.559  66.413  1.00  0.00    -0.249 C  
ENDROOT
BRANCH   2   3
HETATM    3  C   UNL     1      -9.413   3.913  67.577  1.00  0.00    -0.236 C  
BRANCH   3   4
HETATM    4  C   UNL     1      -8.685   4.966  68.412  1.00  0.00    -0.109 C  
BRANCH   4   5
HETATM    5  C   UNL     1      -9.103   4.926  69.843  1.00  0.00    -0.117 A  
HETATM    6  C   UNL     1      -9.133   5.866  70.862  1.00  0.00    -0.159 A  
HETATM    7  C   UNL     1     -10.742   3.274  73.732  1.00  0.00    -0.298 A  
HETATM    8  C   UNL     1      -9.769   5.222  71.966  1.00  0.00    -0.202 A  
HETATM    9  C   UNL     1      -9.900   3.887  71.596  1.00  0.00    -0.177 A  
HETATM   10  C   UNL     1     -10.693   4.612  74.123  1.00  0.00    -0.329 A  
HETATM   11  C   UNL     1     -10.222   5.599  73.249  1.00  0.00    -0.217 A  
HETATM   12  C   UNL     1     -10.367   2.885  72.442  1.00  0.00    -0.155 A  
HETATM   13  O   UNL     1      -9.520   3.713  70.302  1.00  0.00    -0.160 OA 
BRANCH   6  14
HETATM   14  C   UNL     1      -8.617   7.217  70.732  1.00  0.00    -0.144 C  
HETATM   15  O   UNL     1      -7.544   7.544  71.232  1.00  0.00    -0.079 OA 
BRANCH  14  16
HETATM   16  C   UNL     1      -9.423   8.261  70.034  1.00  0.00    -0.167 A  
HETATM   17  I   UNL     1     -12.842  10.330  71.574  1.00  0.00    -0.549 I  
HETATM   18  C   UNL     1     -11.101  10.259  68.870  1.00  0.00    -0.231 A  
HETATM   19  C   UNL     1     -10.405   8.901  70.785  1.00  0.00    -0.283 A  
HETATM   20  C   UNL     1     -10.100   9.597  68.121  1.00  0.00    -0.175 A  
HETATM   21  I   UNL     1      -9.665  10.111  66.118  1.00  0.00    -0.324 I  
HETATM   22  C   UNL     1     -11.276   9.843  70.209  1.00  0.00    -0.301 A  
HETATM   23  C   UNL     1      -9.310   8.577  68.679  1.00  0.00    -0.142 A  
BRANCH  18  24
HETATM   24  O   UNL     1     -11.795  11.237  68.178  1.00  0.00    -0.553 OA 
BRANCH  24  25
HETATM   25  C   UNL     1     -11.509  12.571  68.581  1.00  0.00    -0.306 C  
BRANCH  25  26
HETATM   26  C   UNL     1     -10.485  13.338  67.734  1.00  0.00    -0.239 C  
BRANCH  26  27
HETATM   27  N   UNL     1     -10.858  14.777  67.627  1.00  0.00    -0.278 NA 
BRANCH  27  28
HETATM   28  C   UNL     1     -10.011  15.683  68.423  1.00  0.00    -0.210 C  
HETATM   29  C   UNL     1     -10.451  17.144  68.452  1.00  0.00    -0.376 C  
ENDBRANCH  27  28
BRANCH  27  30
HETATM   30  C   UNL     1     -11.009  15.180  66.223  1.00  0.00    -0.335 C  
HETATM   31  C   UNL     1     -10.104  14.416  65.256  1.00  0.00    -0.387 C  
ENDBRANCH  27  30
ENDBRANCH  26  27
ENDBRANCH  25  26
ENDBRANCH  24  25
ENDBRANCH  18  24
ENDBRANCH  14  16
ENDBRANCH   6  14
ENDBRANCH   4   5
ENDBRANCH   3   4
ENDBRANCH   2   3
TORSDOF 11
ENDMDL
MODEL      123
REMARK 921   NORMALIZED FREE ENERGY PREDICTED BY IDOCK:   -4.46 KCAL/MOL
REMARK 922        TOTAL FREE ENERGY PREDICTED BY IDOCK:   -9.47 KCAL/MOL
REMARK 923 INTER-LIGAND FREE ENERGY PREDICTED BY IDOCK:   -8.01 KCAL/MOL
REMARK 924 INTRA-LIGAND FREE ENERGY PREDICTED BY IDOCK:   -1.46 KCAL/MOL
REMARK 927      BINDING AFFINITY PREDICTED BY RF-SCORE:    0.00 PKD
ROOT
HETATM    1  C   UNL     1      -5.702   7.179  71.982  1.00  0.00    -0.037 C  
HETATM    2  C   UNL     1      -5.913   8.682  72.071  1.00  0.00    -0.065 C  
ENDROOT
BRANCH   2   3
HETATM    3  C   UNL     1      -6.769   9.201  70.915  1.00  0.00    -0.087 C  
BRANCH   3   4
HETATM    4  C   UNL     1      -8.257   9.004  71.201  1.00  0.00    -0.198 C  
BRANCH   4   5
HETATM    5  C   UNL     1      -8.907   8.130  70.183  1.00  0.00    -0.145 A  
HETATM    6  C   UNL     1     -10.219   7.948  69.770  1.00  0.00    -0.212 A  
HETATM    7  C   UNL     1      -9.310   5.085  66.850  1.00  0.00    -0.134 A  
HETATM    8  C   UNL     1     -10.156   7.055  68.658  1.00  0.00    -0.168 A  
HETATM    9  C   UNL     1      -8.836   6.614  68.607  1.00  0.00    -0.122 A  
HETATM   10  C   UNL     1     -10.627   5.545  66.820  1.00  0.00    -0.360 A  
HETATM   11  C   UNL     1     -11.061   6.537  67.707  1.00  0.00    -0.366 A  
HETATM   12  C   UNL     1      -8.375   5.632  67.735  1.00  0.00    -0.100 A  
HETATM   13  O   UNL     1      -8.076   7.284  69.513  1.00  0.00    -0.125 OA 
BRANCH   6  14
HETATM   14  C   UNL     1     -11.360   8.596  70.390  1.00  0.00    -0.187 C  
HETATM   15  O   UNL     1     -12.148   7.970  71.095  1.00  0.00    -0.300 OA 
BRANCH  14  16
HETATM   16  C   UNL     1     -11.634  10.039  70.128  1.00  0.00    -0.320 A  
HETATM   17  I   UNL     1     -10.397  12.314  66.716  1.00  0.00    -0.263 I  
HETATM   18  C   UNL     1     -12.033  12.785  69.445  1.00  0.00    -0.263 A  
HETATM   19  C   UNL     1     -11.257  10.532  68.882  1.00  0.00    -0.323 A  
HETATM   20  C   UNL     1     -12.407  12.268  70.708  1.00  0.00    -0.290 A  
HETATM   21  I   UNL     1     -13.410  13.440  72.153  1.00  0.00    -0.491 I  
HETATM   22  C   UNL     1     -11.394  11.893  68.555  1.00  0.00    -0.276 A  
HETATM   23  C   UNL     1     -12.163  10.930  71.063  1.00  0.00    -0.464 A  
BRANCH  18  24
HETATM   24  O   UNL     1     -12.339  14.121  69.249  1.00  0.00    -0.311 OA 
BRANCH  24  25
HETATM   25  C   UNL     1     -11.226  15.004  69.313  1.00  0.00    -0.286 C  
BRANCH  25  26
HETATM   26  C   UNL     1     -11.275  16.235  68.398  1.00  0.00    -0.349 C  
BRANCH  26  27
HETATM   27  N   UNL     1      -9.900  16.700  68.061  1.00  0.00    -0.240 NA 
BRANCH  27  28
HETATM   28  C   UNL     1      -9.487  16.417  66.675  1.00  0.00    -0.256 C  
HETATM   29  C   UNL     1     -10.614  16.076  65.705  1.00  0.00    -0.366 C  
ENDBRANCH  27  28
BRANCH  27  30
HETATM   30  C   UNL     1      -9.701  18.096  68.470  1.00  0.00    -0.362 C  
HETATM   31  C   UNL     1     -10.542  19.102  67.683  1.00  0.00    -0.546 C  
ENDBRANCH  27  30
ENDBRANCH  26  27
ENDBRANCH  25  26
ENDBRANCH  24  25
ENDBRANCH  18  24
ENDBRANCH  14  16
ENDBRANCH   6  14
ENDBRANCH   4   5
ENDBRANCH   3   4
ENDBRANCH   2   3
TORSDOF 11
ENDMDL
MODEL      124
REMARK 921   NORMALIZED FREE ENERGY PREDICTED BY IDOCK:   -4.45 KCAL/MOL
REMARK 922        TOTAL FREE ENERGY PREDICTED BY IDOCK:   -9.46 KCAL/MOL
REMARK 923 INTER-LIGAND FREE ENERGY PREDICTED BY IDOCK:   -7.91 KCAL/MOL
REMARK 924 INTRA-LIGAND FREE ENERGY PREDICTED BY IDOCK:   -1.55 KCAL/MOL
REMARK 927      BINDING AFFINITY PREDICTED BY RF-SCORE:    0.00 PKD
ROOT
HETATM    1  C   UNL     1     -12.197  13.251  63.744  1.00  0.00    -0.508 C  
HETATM    2  C   UNL     1     -10.990  12.604  64.404  1.00  0.00    -0.386 C  
ENDROOT
BRANCH   2   3
HETATM    3  C   UNL     1     -11.407  11.588  65.468  1.00  0.00    -0.151 C  
BRANCH   3   4
HETATM    4  C   UNL     1     -10.188  10.880  66.060  1.00  0.00    -0.311 C  
BRANCH   4   5
HETATM    5  C   UNL     1     -10.456  10.371  67.436  1.00  0.00    -0.249 A  
HETATM    6  C   UNL     1     -10.814  10.975  68.631  1.00  0.00    -0.256 A  
HETATM    7  C   UNL     1     -10.987   7.413  70.829  1.00  0.00    -0.272 A  
HETATM    8  C   UNL     1     -11.045   9.909  69.552  1.00  0.00    -0.255 A  
HETATM    9  C   UNL     1     -10.623   8.753  68.900  1.00  0.00    -0.155 A  
HETATM   10  C   UNL     1     -11.483   8.532  71.499  1.00  0.00    -0.350 A  
HETATM   11  C   UNL     1     -11.530   9.782  70.872  1.00  0.00    -0.447 A  
HETATM   12  C   UNL     1     -10.568   7.497  69.497  1.00  0.00    -0.239 A  
HETATM   13  O   UNL     1     -10.291   9.030  67.611  1.00  0.00    -0.226 OA 
BRANCH   6  14
HETATM   14  C   UNL     1     -10.926  12.412  68.810  1.00  0.00    -0.246 C  
HETATM   15  O   UNL     1     -11.921  12.918  69.322  1.00  0.00    -0.296 OA 
BRANCH  14  16
HETATM   16  C   UNL     1      -9.847  13.314  68.312  1.00  0.00    -0.231 A  
HETATM   17  I   UNL     1     -10.315  16.705  65.738  1.00  0.00    -0.073 I  
HETATM   18  C   UNL     1      -7.935  15.144  67.235  1.00  0.00    -0.205 A  
HETATM   19  C   UNL     1     -10.252  14.441  67.602  1.00  0.00    -0.229 A  
HETATM   20  C   UNL     1      -7.542  13.992  67.956  1.00  0.00    -0.143 A  
HETATM   21  I   UNL     1      -5.519  13.586  68.417  1.00  0.00    -0.121 I  
HETATM   22  C   UNL     1      -9.320  15.317  67.017  1.00  0.00    -0.224 A  
HETATM   23  C   UNL     1      -8.480  13.064  68.441  1.00  0.00    -0.118 A  
BRANCH  18  24
HETATM   24  O   UNL     1      -6.893  15.957  66.824  1.00  0.00    -0.243 OA 
BRANCH  24  25
HETATM   25  C   UNL     1      -6.642  17.077  67.665  1.00  0.00    -0.144 C  
BRANCH  25  26
HETATM   26  C   UNL     1      -6.277  18.392  66.963  1.00  0.00    -0.169 C  
BRANCH  26  27
HETATM   27  N   UNL     1      -7.503  19.119  66.528  1.00  0.00    -0.235 NA 
BRANCH  27  28
HETATM   28  C   UNL     1      -8.302  19.677  67.634  1.00  0.00    -0.308 C  
HETATM   29  C   UNL     1      -9.521  20.496  67.222  1.00  0.00    -0.559 C  
ENDBRANCH  27  28
BRANCH  27  30
HETATM   30  C   UNL     1      -7.193  20.087  65.468  1.00  0.00    -0.282 C  
HETATM   31  C   UNL     1      -5.883  20.845  65.680  1.00  0.00    -0.273 C  
ENDBRANCH  27  30
ENDBRANCH  26  27
ENDBRANCH  25  26
ENDBRANCH  24  25
ENDBRANCH  18  24
ENDBRANCH  14  16
ENDBRANCH   6  14
ENDBRANCH   4   5
ENDBRANCH   3   4
ENDBRANCH   2   3
TORSDOF 11
ENDMDL
MODEL      125
REMARK 921   NORMALIZED FREE ENERGY PREDICTED BY IDOCK:   -4.44 KCAL/MOL
REMARK 922        TOTAL FREE ENERGY PREDICTED BY IDOCK:   -9.45 KCAL/MOL
REMARK 923 INTER-LIGAND FREE ENERGY PREDICTED BY IDOCK:   -8.51 KCAL/MOL
REMARK 924 INTRA-LIGAND FREE ENERGY PREDICTED BY IDOCK:   -0.94 KCAL/MOL
REMARK 927      BINDING AFFINITY PREDICTED BY RF-SCORE:    0.00 PKD
ROOT
HETATM    1  C   UNL     1     -11.256   7.471  72.354  1.00  0.00    -0.356 C  
HETATM    2  C   UNL     1     -10.189   6.818  71.491  1.00  0.00    -0.210 C  
ENDROOT
BRANCH   2   3
HETATM    3  C   UNL     1     -10.259   7.305  70.043  1.00  0.00    -0.206 C  
BRANCH   3   4
HETATM    4  C   UNL     1     -10.113   8.824  69.966  1.00  0.00    -0.200 C  
BRANCH   4   5
HETATM    5  C   UNL     1     -10.111   9.311  68.556  1.00  0.00    -0.190 A  
HETATM    6  C   UNL     1     -10.670  10.407  67.918  1.00  0.00    -0.307 A  
HETATM    7  C   UNL     1      -9.140   9.471  64.132  1.00  0.00    -0.203 A  
HETATM    8  C   UNL     1     -10.182  10.366  66.577  1.00  0.00    -0.289 A  
HETATM    9  C   UNL     1      -9.524   9.146  66.455  1.00  0.00    -0.227 A  
HETATM   10  C   UNL     1      -9.732  10.732  64.222  1.00  0.00    -0.357 A  
HETATM   11  C   UNL     1     -10.245  11.198  65.438  1.00  0.00    -0.327 A  
HETATM   12  C   UNL     1      -9.001   8.657  65.261  1.00  0.00    -0.150 A  
HETATM   13  O   UNL     1      -9.459   8.520  67.660  1.00  0.00    -0.141 OA 
BRANCH   6  14
HETATM   14  C   UNL     1     -11.546  11.364  68.570  1.00  0.00    -0.318 C  
HETATM   15  O   UNL     1     -12.692  11.064  68.896  1.00  0.00    -0.216 OA 
BRANCH  14  16
HETATM   16  C   UNL     1     -11.085  12.763  68.802  1.00  0.00    -0.303 A  
HETATM   17  I   UNL     1     -12.492  15.472  71.806  1.00  0.00    -0.624 I  
HETATM   18  C   UNL     1     -10.358  15.461  69.400  1.00  0.00    -0.258 A  
HETATM   19  C   UNL     1     -11.583  13.408  69.931  1.00  0.00    -0.270 A  
HETATM   20  C   UNL     1      -9.864  14.792  68.256  1.00  0.00    -0.222 A  
HETATM   21  I   UNL     1      -8.447  15.672  66.958  1.00  0.00    -0.317 I  
HETATM   22  C   UNL     1     -11.279  14.754  70.205  1.00  0.00    -0.214 A  
HETATM   23  C   UNL     1     -10.263  13.483  67.933  1.00  0.00    -0.247 A  
BRANCH  18  24
HETATM   24  O   UNL     1      -9.872  16.745  69.579  1.00  0.00    -0.143 OA 
BRANCH  24  25
HETATM   25  C   UNL     1     -10.585  17.756  68.877  1.00  0.00    -0.080 C  
BRANCH  25  26
HETATM   26  C   UNL     1      -9.993  19.171  68.927  1.00  0.00    -0.416 C  
BRANCH  26  27
HETATM   27  N   UNL     1      -9.026  19.381  67.813  1.00  0.00    -0.305 NA 
BRANCH  27  28
HETATM   28  C   UNL     1      -9.466  20.363  66.805  1.00  0.00    -0.341 C  
HETATM   29  C   UNL     1     -10.631  19.928  65.923  1.00  0.00    -0.523 C  
ENDBRANCH  27  28
BRANCH  27  30
HETATM   30  C   UNL     1      -7.672  19.621  68.328  1.00  0.00    -0.321 C  
HETATM   31  C   UNL     1      -6.639  19.926  67.244  1.00  0.00    -0.231 C  
ENDBRANCH  27  30
ENDBRANCH  26  27
ENDBRANCH  25  26
ENDBRANCH  24  25
ENDBRANCH  18  24
ENDBRANCH  14  16
ENDBRANCH   6  14
ENDBRANCH   4   5
ENDBRANCH   3   4
ENDBRANCH   2   3
TORSDOF 11
ENDMDL
MODEL      126
REMARK 921   NORMALIZED FREE ENERGY PREDICTED BY IDOCK:   -4.44 KCAL/MOL
REMARK 922        TOTAL FREE ENERGY PREDICTED BY IDOCK:   -9.45 KCAL/MOL
REMARK 923 INTER-LIGAND FREE ENERGY PREDICTED BY IDOCK:   -7.39 KCAL/MOL
REMARK 924 INTRA-LIGAND FREE ENERGY PREDICTED BY IDOCK:   -2.06 KCAL/MOL
REMARK 927      BINDING AFFINITY PREDICTED BY RF-SCORE:    0.00 PKD
ROOT
HETATM    1  C   UNL     1     -12.540   9.432  71.409  1.00  0.00    -0.430 C  
HETATM    2  C   UNL     1     -12.130  10.273  70.211  1.00  0.00    -0.330 C  
ENDROOT
BRANCH   2   3
HETATM    3  C   UNL     1     -12.499  11.745  70.402  1.00  0.00    -0.280 C  
BRANCH   3   4
HETATM    4  C   UNL     1     -11.443  12.661  69.784  1.00  0.00    -0.200 C  
BRANCH   4   5
HETATM    5  C   UNL     1     -11.260  12.395  68.329  1.00  0.00    -0.263 A  
HETATM    6  C   UNL     1     -10.277  11.759  67.585  1.00  0.00    -0.216 A  
HETATM    7  C   UNL     1     -12.165  12.321  63.888  1.00  0.00    -0.608 A  
HETATM    8  C   UNL     1     -10.764  11.727  66.244  1.00  0.00    -0.312 A  
HETATM    9  C   UNL     1     -11.912  12.514  66.244  1.00  0.00    -0.343 A  
HETATM   10  C   UNL     1     -11.059  11.471  63.850  1.00  0.00    -0.458 A  
HETATM   11  C   UNL     1     -10.357  11.155  65.019  1.00  0.00    -0.362 A  
HETATM   12  C   UNL     1     -12.632  12.843  65.099  1.00  0.00    -0.536 A  
HETATM   13  O   UNL     1     -12.225  12.896  67.510  1.00  0.00    -0.303 OA 
BRANCH   6  14
HETATM   14  C   UNL     1      -9.042  11.243  68.149  1.00  0.00    -0.166 C  
HETATM   15  O   UNL     1      -7.984  11.857  68.044  1.00  0.00    -0.129 OA 
BRANCH  14  16
HETATM   16  C   UNL     1      -9.026   9.910  68.819  1.00  0.00    -0.140 A  
HETATM   17  I   UNL     1     -10.595   6.236  67.276  1.00  0.00    -0.476 I  
HETATM   18  C   UNL     1      -9.114   7.280  69.933  1.00  0.00    -0.141 A  
HETATM   19  C   UNL     1      -9.465   8.825  68.066  1.00  0.00    -0.158 A  
HETATM   20  C   UNL     1      -8.674   8.395  70.685  1.00  0.00    -0.146 A  
HETATM   21  I   UNL     1      -7.919   8.202  72.650  1.00  0.00    -0.137 I  
HETATM   22  C   UNL     1      -9.569   7.536  68.620  1.00  0.00    -0.151 A  
HETATM   23  C   UNL     1      -8.680   9.697  70.154  1.00  0.00    -0.263 A  
BRANCH  18  24
HETATM   24  O   UNL     1      -9.048   6.067  70.597  1.00  0.00    -0.147 OA 
BRANCH  24  25
HETATM   25  C   UNL     1     -10.244   5.689  71.269  1.00  0.00    -0.220 C  
BRANCH  25  26
HETATM   26  C   UNL     1     -10.399   4.200  71.605  1.00  0.00     0.018 C  
BRANCH  26  27
HETATM   27  N   UNL     1      -9.111   3.476  71.409  1.00  0.00    -0.105 NA 
BRANCH  27  28
HETATM   28  C   UNL     1      -8.498   2.981  72.655  1.00  0.00    -0.075 C  
HETATM   29  C   UNL     1      -7.195   3.658  73.067  1.00  0.00    -0.054 C  
ENDBRANCH  27  28
BRANCH  27  30
HETATM   30  C   UNL     1      -9.232   2.458  70.358  1.00  0.00    -0.122 C  
HETATM   31  C   UNL     1      -8.753   2.923  68.983  1.00  0.00    -0.133 C  
ENDBRANCH  27  30
ENDBRANCH  26  27
ENDBRANCH  25  26
ENDBRANCH  24  25
ENDBRANCH  18  24
ENDBRANCH  14  16
ENDBRANCH   6  14
ENDBRANCH   4   5
ENDBRANCH   3   4
ENDBRANCH   2   3
TORSDOF 11
ENDMDL
MODEL      127
REMARK 921   NORMALIZED FREE ENERGY PREDICTED BY IDOCK:   -4.43 KCAL/MOL
REMARK 922        TOTAL FREE ENERGY PREDICTED BY IDOCK:   -9.43 KCAL/MOL
REMARK 923 INTER-LIGAND FREE ENERGY PREDICTED BY IDOCK:   -7.86 KCAL/MOL
REMARK 924 INTRA-LIGAND FREE ENERGY PREDICTED BY IDOCK:   -1.57 KCAL/MOL
REMARK 927      BINDING AFFINITY PREDICTED BY RF-SCORE:    0.00 PKD
ROOT
HETATM    1  C   UNL     1     -10.991   6.218  67.200  1.00  0.00    -0.453 C  
HETATM    2  C   UNL     1      -9.952   5.245  67.733  1.00  0.00    -0.204 C  
ENDROOT
BRANCH   2   3
HETATM    3  C   UNL     1      -8.986   5.925  68.704  1.00  0.00    -0.116 C  
BRANCH   3   4
HETATM    4  C   UNL     1      -9.356   5.616  70.154  1.00  0.00    -0.188 C  
BRANCH   4   5
HETATM    5  C   UNL     1     -10.348   6.589  70.694  1.00  0.00    -0.201 A  
HETATM    6  C   UNL     1     -10.259   7.892  71.161  1.00  0.00    -0.221 A  
HETATM    7  C   UNL     1     -14.350   8.294  71.967  1.00  0.00    -0.541 A  
HETATM    8  C   UNL     1     -11.602   8.308  71.411  1.00  0.00    -0.322 A  
HETATM    9  C   UNL     1     -12.382   7.164  71.261  1.00  0.00    -0.379 A  
HETATM   10  C   UNL     1     -13.621   9.479  72.066  1.00  0.00    -0.492 A  
HETATM   11  C   UNL     1     -12.252   9.506  71.780  1.00  0.00    -0.465 A  
HETATM   12  C   UNL     1     -13.745   7.109  71.535  1.00  0.00    -0.413 A  
HETATM   13  O   UNL     1     -11.626   6.132  70.802  1.00  0.00    -0.316 OA 
BRANCH   6  14
HETATM   14  C   UNL     1      -9.008   8.614  71.312  1.00  0.00    -0.210 C  
HETATM   15  O   UNL     1      -8.342   8.534  72.341  1.00  0.00    -0.268 OA 
BRANCH  14  16
HETATM   16  C   UNL     1      -8.537   9.527  70.230  1.00  0.00    -0.258 A  
HETATM   17  I   UNL     1     -10.158   9.887  66.282  1.00  0.00    -0.199 I  
HETATM   18  C   UNL     1      -7.783  11.179  68.024  1.00  0.00    -0.107 A  
HETATM   19  C   UNL     1      -9.309   9.577  69.072  1.00  0.00    -0.155 A  
HETATM   20  C   UNL     1      -7.009  11.114  69.207  1.00  0.00    -0.118 A  
HETATM   21  I   UNL     1      -5.303  12.325  69.505  1.00  0.00    -0.091 I  
HETATM   22  C   UNL     1      -8.918  10.340  67.958  1.00  0.00    -0.132 A  
HETATM   23  C   UNL     1      -7.352  10.262  70.271  1.00  0.00    -0.032 A  
BRANCH  18  24
HETATM   24  O   UNL     1      -7.313  12.064  67.069  1.00  0.00    -0.142 OA 
BRANCH  24  25
HETATM   25  C   UNL     1      -7.932  13.345  67.086  1.00  0.00    -0.054 C  
BRANCH  25  26
HETATM   26  C   UNL     1      -9.254  13.457  67.858  1.00  0.00    -0.216 C  
BRANCH  26  27
HETATM   27  N   UNL     1      -9.679  14.880  67.976  1.00  0.00    -0.209 NA 
BRANCH  27  28
HETATM   28  C   UNL     1     -11.036  15.152  67.470  1.00  0.00    -0.319 C  
HETATM   29  C   UNL     1     -11.760  13.963  66.847  1.00  0.00    -0.425 C  
ENDBRANCH  27  28
BRANCH  27  30
HETATM   30  C   UNL     1      -9.434  15.392  69.331  1.00  0.00    -0.267 C  
HETATM   31  C   UNL     1     -10.702  15.795  70.083  1.00  0.00    -0.354 C  
ENDBRANCH  27  30
ENDBRANCH  26  27
ENDBRANCH  25  26
ENDBRANCH  24  25
ENDBRANCH  18  24
ENDBRANCH  14  16
ENDBRANCH   6  14
ENDBRANCH   4   5
ENDBRANCH   3   4
ENDBRANCH   2   3
TORSDOF 11
ENDMDL
MODEL      128
REMARK 921   NORMALIZED FREE ENERGY PREDICTED BY IDOCK:   -4.43 KCAL/MOL
REMARK 922        TOTAL FREE ENERGY PREDICTED BY IDOCK:   -9.43 KCAL/MOL
REMARK 923 INTER-LIGAND FREE ENERGY PREDICTED BY IDOCK:   -7.45 KCAL/MOL
REMARK 924 INTRA-LIGAND FREE ENERGY PREDICTED BY IDOCK:   -1.97 KCAL/MOL
REMARK 927      BINDING AFFINITY PREDICTED BY RF-SCORE:    0.00 PKD
ROOT
HETATM    1  C   UNL     1      -8.419  10.056  64.146  1.00  0.00    -0.179 C  
HETATM    2  C   UNL     1      -7.410   9.079  64.728  1.00  0.00    -0.100 C  
ENDROOT
BRANCH   2   3
HETATM    3  C   UNL     1      -8.097   7.950  65.497  1.00  0.00    -0.130 C  
BRANCH   3   4
HETATM    4  C   UNL     1      -9.519   8.343  65.898  1.00  0.00    -0.169 C  
BRANCH   4   5
HETATM    5  C   UNL     1      -9.683   8.395  67.379  1.00  0.00    -0.170 A  
HETATM    6  C   UNL     1      -9.155   9.200  68.377  1.00  0.00    -0.132 A  
HETATM    7  C   UNL     1     -11.229   7.347  71.509  1.00  0.00    -0.271 A  
HETATM    8  C   UNL     1      -9.819   8.815  69.580  1.00  0.00    -0.183 A  
HETATM    9  C   UNL     1     -10.556   7.679  69.254  1.00  0.00    -0.201 A  
HETATM   10  C   UNL     1     -10.561   8.517  71.870  1.00  0.00    -0.392 A  
HETATM   11  C   UNL     1      -9.863   9.268  70.917  1.00  0.00    -0.363 A  
HETATM   12  C   UNL     1     -11.260   6.915  70.179  1.00  0.00    -0.361 A  
HETATM   13  O   UNL     1     -10.493   7.441  67.917  1.00  0.00    -0.196 OA 
BRANCH   6  14
HETATM   14  C   UNL     1      -8.146  10.219  68.146  1.00  0.00    -0.110 C  
HETATM   15  O   UNL     1      -6.952   9.991  68.325  1.00  0.00    -0.067 OA 
BRANCH  14  16
HETATM   16  C   UNL     1      -8.553  11.596  67.741  1.00  0.00    -0.144 A  
HETATM   17  I   UNL     1      -7.045  15.288  69.301  1.00  0.00    -0.207 I  
HETATM   18  C   UNL     1      -9.202  14.310  67.125  1.00  0.00    -0.223 A  
HETATM   19  C   UNL     1      -7.822  12.650  68.282  1.00  0.00    -0.144 A  
HETATM   20  C   UNL     1      -9.936  13.226  66.587  1.00  0.00    -0.272 A  
HETATM   21  I   UNL     1     -11.489  13.505  65.181  1.00  0.00    -0.387 I  
HETATM   22  C   UNL     1      -8.168  13.990  68.034  1.00  0.00    -0.155 A  
HETATM   23  C   UNL     1      -9.650  11.893  66.931  1.00  0.00    -0.208 A  
BRANCH  18  24
HETATM   24  O   UNL     1      -9.606  15.560  66.691  1.00  0.00    -0.229 OA 
BRANCH  24  25
HETATM   25  C   UNL     1     -10.734  16.094  67.374  1.00  0.00    -0.291 C  
BRANCH  25  26
HETATM   26  C   UNL     1     -10.550  16.396  68.867  1.00  0.00    -0.307 C  
BRANCH  26  27
HETATM   27  N   UNL     1     -11.611  15.732  69.676  1.00  0.00    -0.342 NA 
BRANCH  27  28
HETATM   28  C   UNL     1     -12.179  14.522  69.055  1.00  0.00    -0.180 C  
HETATM   29  C   UNL     1     -11.789  13.199  69.706  1.00  0.00    -0.386 C  
ENDBRANCH  27  28
BRANCH  27  30
HETATM   30  C   UNL     1     -11.173  15.541  71.065  1.00  0.00    -0.373 C  
HETATM   31  C   UNL     1     -12.235  15.896  72.106  1.00  0.00    -0.578 C  
ENDBRANCH  27  30
ENDBRANCH  26  27
ENDBRANCH  25  26
ENDBRANCH  24  25
ENDBRANCH  18  24
ENDBRANCH  14  16
ENDBRANCH   6  14
ENDBRANCH   4   5
ENDBRANCH   3   4
ENDBRANCH   2   3
TORSDOF 11
ENDMDL
MODEL      129
REMARK 921   NORMALIZED FREE ENERGY PREDICTED BY IDOCK:   -4.43 KCAL/MOL
REMARK 922        TOTAL FREE ENERGY PREDICTED BY IDOCK:   -9.42 KCAL/MOL
REMARK 923 INTER-LIGAND FREE ENERGY PREDICTED BY IDOCK:   -7.54 KCAL/MOL
REMARK 924 INTRA-LIGAND FREE ENERGY PREDICTED BY IDOCK:   -1.89 KCAL/MOL
REMARK 927      BINDING AFFINITY PREDICTED BY RF-SCORE:    0.00 PKD
ROOT
HETATM    1  C   UNL     1     -12.500   6.762  71.219  1.00  0.00    -0.365 C  
HETATM    2  C   UNL     1     -11.759   6.024  72.322  1.00  0.00    -0.338 C  
ENDROOT
BRANCH   2   3
HETATM    3  C   UNL     1     -10.414   6.680  72.635  1.00  0.00    -0.237 C  
BRANCH   3   4
HETATM    4  C   UNL     1      -9.253   5.747  72.292  1.00  0.00    -0.151 C  
BRANCH   4   5
HETATM    5  C   UNL     1      -9.134   5.525  70.823  1.00  0.00    -0.146 A  
HETATM    6  C   UNL     1      -8.773   6.334  69.756  1.00  0.00    -0.137 A  
HETATM    7  C   UNL     1      -9.185   3.345  66.849  1.00  0.00    -0.202 A  
HETATM    8  C   UNL     1      -8.734   5.477  68.614  1.00  0.00    -0.108 A  
HETATM    9  C   UNL     1      -9.261   4.261  69.041  1.00  0.00    -0.145 A  
HETATM   10  C   UNL     1      -8.591   4.521  66.390  1.00  0.00    -0.112 A  
HETATM   11  C   UNL     1      -8.348   5.590  67.261  1.00  0.00    -0.104 A  
HETATM   12  C   UNL     1      -9.512   3.181  68.200  1.00  0.00    -0.217 A  
HETATM   13  O   UNL     1      -9.479   4.283  70.383  1.00  0.00    -0.140 OA 
BRANCH   6  14
HETATM   14  C   UNL     1      -8.489   7.753  69.875  1.00  0.00    -0.132 C  
HETATM   15  O   UNL     1      -7.463   8.158  70.416  1.00  0.00    -0.064 OA 
BRANCH  14  16
HETATM   16  C   UNL     1      -9.480   8.757  69.391  1.00  0.00    -0.161 A  
HETATM   17  I   UNL     1      -9.774  10.387  65.441  1.00  0.00    -0.384 I  
HETATM   18  C   UNL     1     -11.272  10.681  68.272  1.00  0.00    -0.301 A  
HETATM   19  C   UNL     1      -9.477   9.033  68.027  1.00  0.00    -0.157 A  
HETATM   20  C   UNL     1     -11.259  10.390  69.657  1.00  0.00    -0.277 A  
HETATM   21  I   UNL     1     -12.645  11.249  71.002  1.00  0.00    -0.276 I  
HETATM   22  C   UNL     1     -10.313  10.020  67.473  1.00  0.00    -0.232 A  
HETATM   23  C   UNL     1     -10.342   9.482  70.215  1.00  0.00    -0.321 A  
BRANCH  18  24
HETATM   24  O   UNL     1     -12.233  11.597  67.878  1.00  0.00    -0.560 OA 
BRANCH  24  25
HETATM   25  C   UNL     1     -11.718  12.799  67.318  1.00  0.00    -0.378 C  
BRANCH  25  26
HETATM   26  C   UNL     1     -10.821  13.649  68.228  1.00  0.00    -0.251 C  
BRANCH  26  27
HETATM   27  N   UNL     1     -11.065  15.102  68.005  1.00  0.00    -0.295 NA 
BRANCH  27  28
HETATM   28  C   UNL     1     -11.761  15.777  69.115  1.00  0.00    -0.388 C  
HETATM   29  C   UNL     1     -11.464  15.236  70.510  1.00  0.00    -0.342 C  
ENDBRANCH  27  28
BRANCH  27  30
HETATM   30  C   UNL     1      -9.840  15.782  67.567  1.00  0.00    -0.229 C  
HETATM   31  C   UNL     1      -9.550  15.642  66.073  1.00  0.00    -0.386 C  
ENDBRANCH  27  30
ENDBRANCH  26  27
ENDBRANCH  25  26
ENDBRANCH  24  25
ENDBRANCH  18  24
ENDBRANCH  14  16
ENDBRANCH   6  14
ENDBRANCH   4   5
ENDBRANCH   3   4
ENDBRANCH   2   3
TORSDOF 11
ENDMDL
MODEL      130
REMARK 921   NORMALIZED FREE ENERGY PREDICTED BY IDOCK:   -4.37 KCAL/MOL
REMARK 922        TOTAL FREE ENERGY PREDICTED BY IDOCK:   -9.32 KCAL/MOL
REMARK 923 INTER-LIGAND FREE ENERGY PREDICTED BY IDOCK:   -8.01 KCAL/MOL
REMARK 924 INTRA-LIGAND FREE ENERGY PREDICTED BY IDOCK:   -1.31 KCAL/MOL
REMARK 927      BINDING AFFINITY PREDICTED BY RF-SCORE:    0.00 PKD
ROOT
HETATM    1  C   UNL     1     -11.289   7.952  72.780  1.00  0.00    -0.453 C  
HETATM    2  C   UNL     1     -11.655   6.530  72.386  1.00  0.00    -0.292 C  
ENDROOT
BRANCH   2   3
HETATM    3  C   UNL     1     -10.976   6.113  71.080  1.00  0.00    -0.343 C  
BRANCH   3   4
HETATM    4  C   UNL     1     -11.637   6.788  69.878  1.00  0.00    -0.326 C  
BRANCH   4   5
HETATM    5  C   UNL     1     -10.787   6.699  68.656  1.00  0.00    -0.262 A  
HETATM    6  C   UNL     1      -9.798   7.505  68.114  1.00  0.00    -0.179 A  
HETATM    7  C   UNL     1      -9.036   5.021  64.827  1.00  0.00    -0.095 A  
HETATM    8  C   UNL     1      -9.284   6.788  66.991  1.00  0.00    -0.152 A  
HETATM    9  C   UNL     1     -10.131   5.695  66.826  1.00  0.00    -0.197 A  
HETATM   10  C   UNL     1      -8.122   6.063  64.990  1.00  0.00    -0.133 A  
HETATM   11  C   UNL     1      -8.224   6.945  66.072  1.00  0.00    -0.125 A  
HETATM   12  C   UNL     1     -10.052   4.800  65.763  1.00  0.00    -0.236 A  
HETATM   13  O   UNL     1     -11.024   5.628  67.849  1.00  0.00    -0.176 OA 
BRANCH   6  14
HETATM   14  C   UNL     1      -9.414   8.795  68.660  1.00  0.00    -0.141 C  
HETATM   15  O   UNL     1      -8.536   8.893  69.513  1.00  0.00    -0.121 OA 
BRANCH  14  16
HETATM   16  C   UNL     1     -10.132  10.030  68.233  1.00  0.00    -0.182 A  
HETATM   17  I   UNL     1     -10.452  11.576  64.252  1.00  0.00    -0.482 I  
HETATM   18  C   UNL     1     -11.431  12.363  67.213  1.00  0.00    -0.354 A  
HETATM   19  C   UNL     1     -10.225  10.260  66.863  1.00  0.00    -0.286 A  
HETATM   20  C   UNL     1     -11.325  12.115  68.602  1.00  0.00    -0.280 A  
HETATM   21  I   UNL     1     -12.226  13.371  70.043  1.00  0.00    -0.142 I  
HETATM   22  C   UNL     1     -10.809  11.432  66.350  1.00  0.00    -0.271 A  
HETATM   23  C   UNL     1     -10.640  10.995  69.105  1.00  0.00    -0.253 A  
BRANCH  18  24
HETATM   24  O   UNL     1     -12.133  13.507  66.877  1.00  0.00    -0.390 OA 
BRANCH  24  25
HETATM   25  C   UNL     1     -11.339  14.561  66.345  1.00  0.00    -0.349 C  
BRANCH  25  26
HETATM   26  C   UNL     1     -10.857  15.625  67.340  1.00  0.00    -0.315 C  
BRANCH  26  27
HETATM   27  N   UNL     1      -9.686  16.367  66.795  1.00  0.00    -0.241 NA 
BRANCH  27  28
HETATM   28  C   UNL     1      -9.987  17.745  66.367  1.00  0.00    -0.344 C  
HETATM   29  C   UNL     1     -10.452  18.693  67.467  1.00  0.00    -0.473 C  
ENDBRANCH  27  28
BRANCH  27  30
HETATM   30  C   UNL     1      -8.529  16.261  67.693  1.00  0.00    -0.168 C  
HETATM   31  C   UNL     1      -7.205  16.003  66.975  1.00  0.00    -0.249 C  
ENDBRANCH  27  30
ENDBRANCH  26  27
ENDBRANCH  25  26
ENDBRANCH  24  25
ENDBRANCH  18  24
ENDBRANCH  14  16
ENDBRANCH   6  14
ENDBRANCH   4   5
ENDBRANCH   3   4
ENDBRANCH   2   3
TORSDOF 11
ENDMDL
MODEL      131
REMARK 921   NORMALIZED FREE ENERGY PREDICTED BY IDOCK:   -4.37 KCAL/MOL
REMARK 922        TOTAL FREE ENERGY PREDICTED BY IDOCK:   -9.32 KCAL/MOL
REMARK 923 INTER-LIGAND FREE ENERGY PREDICTED BY IDOCK:   -7.47 KCAL/MOL
REMARK 924 INTRA-LIGAND FREE ENERGY PREDICTED BY IDOCK:   -1.85 KCAL/MOL
REMARK 927      BINDING AFFINITY PREDICTED BY RF-SCORE:    0.00 PKD
ROOT
HETATM    1  C   UNL     1      -6.143  10.661  68.222  1.00  0.00    -0.046 C  
HETATM    2  C   UNL     1      -7.015  11.201  69.345  1.00  0.00    -0.124 C  
ENDROOT
BRANCH   2   3
HETATM    3  C   UNL     1      -8.132  12.098  68.810  1.00  0.00     0.033 C  
BRANCH   3   4
HETATM    4  C   UNL     1      -7.730  12.748  67.487  1.00  0.00    -0.168 C  
BRANCH   4   5
HETATM    5  C   UNL     1      -8.827  12.678  66.478  1.00  0.00    -0.062 A  
HETATM    6  C   UNL     1      -9.362  11.654  65.711  1.00  0.00    -0.220 A  
HETATM    7  C   UNL     1     -12.263  14.040  63.856  1.00  0.00    -0.336 A  
HETATM    8  C   UNL     1     -10.487  12.221  65.039  1.00  0.00    -0.322 A  
HETATM    9  C   UNL     1     -10.430  13.587  65.299  1.00  0.00    -0.336 A  
HETATM   10  C   UNL     1     -12.401  12.672  63.620  1.00  0.00    -0.584 A  
HETATM   11  C   UNL     1     -11.531  11.750  64.212  1.00  0.00    -0.386 A  
HETATM   12  C   UNL     1     -11.282  14.527  64.727  1.00  0.00    -0.395 A  
HETATM   13  O   UNL     1      -9.441  13.859  66.191  1.00  0.00    -0.255 OA 
BRANCH   6  14
HETATM   14  C   UNL     1      -8.831  10.303  65.680  1.00  0.00    -0.168 C  
HETATM   15  O   UNL     1      -7.919   9.991  64.919  1.00  0.00    -0.130 OA 
BRANCH  14  16
HETATM   16  C   UNL     1      -9.435   9.242  66.537  1.00  0.00    -0.259 A  
HETATM   17  I   UNL     1     -11.071   9.731  70.465  1.00  0.00    -0.443 I  
HETATM   18  C   UNL     1     -10.611   7.362  68.339  1.00  0.00    -0.152 A  
HETATM   19  C   UNL     1     -10.035   9.661  67.722  1.00  0.00    -0.211 A  
HETATM   20  C   UNL     1      -9.995   6.955  67.132  1.00  0.00    -0.183 A  
HETATM   21  I   UNL     1     -10.001   4.942  66.487  1.00  0.00    -0.308 I  
HETATM   22  C   UNL     1     -10.565   8.741  68.644  1.00  0.00    -0.139 A  
HETATM   23  C   UNL     1      -9.371   7.874  66.271  1.00  0.00    -0.225 A  
BRANCH  18  24
HETATM   24  O   UNL     1     -11.180   6.338  69.077  1.00  0.00    -0.375 OA 
BRANCH  24  25
HETATM   25  C   UNL     1     -10.421   5.924  70.207  1.00  0.00    -0.261 C  
BRANCH  25  26
HETATM   26  C   UNL     1     -11.145   5.941  71.560  1.00  0.00    -0.250 C  
BRANCH  26  27
HETATM   27  N   UNL     1     -10.172   5.810  72.682  1.00  0.00    -0.180 NA 
BRANCH  27  28
HETATM   28  C   UNL     1      -9.557   7.082  73.103  1.00  0.00    -0.166 C  
HETATM   29  C   UNL     1      -8.945   7.091  74.499  1.00  0.00    -0.223 C  
ENDBRANCH  27  28
BRANCH  27  30
HETATM   30  C   UNL     1     -10.743   5.029  73.786  1.00  0.00    -0.301 C  
HETATM   31  C   UNL     1     -11.096   3.589  73.413  1.00  0.00    -0.291 C  
ENDBRANCH  27  30
ENDBRANCH  26  27
ENDBRANCH  25  26
ENDBRANCH  24  25
ENDBRANCH  18  24
ENDBRANCH  14  16
ENDBRANCH   6  14
ENDBRANCH   4   5
ENDBRANCH   3   4
ENDBRANCH   2   3
TORSDOF 11
ENDMDL
MODEL      132
REMARK 921   NORMALIZED FREE ENERGY PREDICTED BY IDOCK:   -4.36 KCAL/MOL
REMARK 922        TOTAL FREE ENERGY PREDICTED BY IDOCK:   -9.32 KCAL/MOL
REMARK 923 INTER-LIGAND FREE ENERGY PREDICTED BY IDOCK:   -6.62 KCAL/MOL
REMARK 924 INTRA-LIGAND FREE ENERGY PREDICTED BY IDOCK:   -2.70 KCAL/MOL
REMARK 927      BINDING AFFINITY PREDICTED BY RF-SCORE:    0.00 PKD
ROOT
HETATM    1  C   UNL     1     -10.279   4.703  71.090  1.00  0.00    -0.199 C  
HETATM    2  C   UNL     1     -10.466   4.511  72.587  1.00  0.00    -0.258 C  
ENDROOT
BRANCH   2   3
HETATM    3  C   UNL     1      -9.371   5.219  73.387  1.00  0.00    -0.135 C  
BRANCH   3   4
HETATM    4  C   UNL     1      -9.940   6.404  74.167  1.00  0.00    -0.326 C  
BRANCH   4   5
HETATM    5  C   UNL     1     -10.434   7.480  73.261  1.00  0.00    -0.371 A  
HETATM    6  C   UNL     1      -9.815   8.348  72.374  1.00  0.00    -0.378 A  
HETATM    7  C   UNL     1     -13.354  10.206  71.120  1.00  0.00    -0.372 A  
HETATM    8  C   UNL     1     -10.871   9.047  71.714  1.00  0.00    -0.437 A  
HETATM    9  C   UNL     1     -12.035   8.688  72.387  1.00  0.00    -0.340 A  
HETATM   10  C   UNL     1     -12.226  10.545  70.373  1.00  0.00    -0.415 A  
HETATM   11  C   UNL     1     -10.982   9.966  70.649  1.00  0.00    -0.405 A  
HETATM   12  C   UNL     1     -13.286   9.244  72.134  1.00  0.00    -0.535 A  
HETATM   13  O   UNL     1     -11.774   7.721  73.306  1.00  0.00    -0.188 OA 
BRANCH   6  14
HETATM   14  C   UNL     1      -8.376   8.441  72.204  1.00  0.00    -0.164 C  
HETATM   15  O   UNL     1      -7.648   8.836  73.111  1.00  0.00    -0.375 OA 
BRANCH  14  16
HETATM   16  C   UNL     1      -7.757   8.116  70.886  1.00  0.00    -0.085 A  
HETATM   17  I   UNL     1      -6.591   4.242  69.479  1.00  0.00    -0.034 I  
HETATM   18  C   UNL     1      -6.552   7.283  68.433  1.00  0.00    -0.049 A  
HETATM   19  C   UNL     1      -7.595   6.765  70.587  1.00  0.00    -0.095 A  
HETATM   20  C   UNL     1      -6.721   8.650  68.755  1.00  0.00    -0.058 A  
HETATM   21  I   UNL     1      -6.222  10.197  67.403  1.00  0.00    -0.060 I  
HETATM   22  C   UNL     1      -6.951   6.344  69.410  1.00  0.00    -0.071 A  
HETATM   23  C   UNL     1      -7.266   9.060  69.984  1.00  0.00    -0.058 A  
BRANCH  18  24
HETATM   24  O   UNL     1      -6.000   7.042  67.186  1.00  0.00    -0.023 OA 
BRANCH  24  25
HETATM   25  C   UNL     1      -6.944   6.915  66.130  1.00  0.00    -0.068 C  
BRANCH  25  26
HETATM   26  C   UNL     1      -7.759   5.616  66.092  1.00  0.00    -0.095 C  
BRANCH  26  27
HETATM   27  N   UNL     1      -9.219   5.908  66.017  1.00  0.00    -0.154 NA 
BRANCH  27  28
HETATM   28  C   UNL     1     -10.078   4.863  66.602  1.00  0.00    -0.249 C  
HETATM   29  C   UNL     1      -9.450   3.478  66.715  1.00  0.00    -0.190 C  
ENDBRANCH  27  28
BRANCH  27  30
HETATM   30  C   UNL     1      -9.511   7.262  66.504  1.00  0.00    -0.163 C  
HETATM   31  C   UNL     1     -10.330   7.297  67.795  1.00  0.00    -0.267 C  
ENDBRANCH  27  30
ENDBRANCH  26  27
ENDBRANCH  25  26
ENDBRANCH  24  25
ENDBRANCH  18  24
ENDBRANCH  14  16
ENDBRANCH   6  14
ENDBRANCH   4   5
ENDBRANCH   3   4
ENDBRANCH   2   3
TORSDOF 11
ENDMDL
MODEL      133
REMARK 921   NORMALIZED FREE ENERGY PREDICTED BY IDOCK:   -4.34 KCAL/MOL
REMARK 922        TOTAL FREE ENERGY PREDICTED BY IDOCK:   -9.27 KCAL/MOL
REMARK 923 INTER-LIGAND FREE ENERGY PREDICTED BY IDOCK:   -7.60 KCAL/MOL
REMARK 924 INTRA-LIGAND FREE ENERGY PREDICTED BY IDOCK:   -1.67 KCAL/MOL
REMARK 927      BINDING AFFINITY PREDICTED BY RF-SCORE:    0.00 PKD
ROOT
HETATM    1  C   UNL     1     -11.653   6.563  70.370  1.00  0.00    -0.470 C  
HETATM    2  C   UNL     1     -10.715   5.830  71.316  1.00  0.00    -0.323 C  
ENDROOT
BRANCH   2   3
HETATM    3  C   UNL     1      -9.383   6.565  71.472  1.00  0.00    -0.149 C  
BRANCH   3   4
HETATM    4  C   UNL     1      -8.239   5.769  70.845  1.00  0.00    -0.121 C  
BRANCH   4   5
HETATM    5  C   UNL     1      -8.412   5.614  69.372  1.00  0.00    -0.106 A  
HETATM    6  C   UNL     1      -8.289   6.477  68.294  1.00  0.00    -0.117 A  
HETATM    7  C   UNL     1      -9.212   3.603  65.390  1.00  0.00    -0.153 A  
HETATM    8  C   UNL     1      -8.461   5.671  67.129  1.00  0.00    -0.110 A  
HETATM    9  C   UNL     1      -8.867   4.423  67.594  1.00  0.00    -0.109 A  
HETATM   10  C   UNL     1      -8.747   4.815  64.878  1.00  0.00    -0.148 A  
HETATM   11  C   UNL     1      -8.357   5.852  65.733  1.00  0.00    -0.140 A  
HETATM   12  C   UNL     1      -9.258   3.372  66.769  1.00  0.00    -0.194 A  
HETATM   13  O   UNL     1      -8.812   4.381  68.952  1.00  0.00    -0.091 OA 
BRANCH   6  14
HETATM   14  C   UNL     1      -8.016   7.898  68.422  1.00  0.00    -0.122 C  
HETATM   15  O   UNL     1      -6.911   8.310  68.766  1.00  0.00    -0.064 OA 
BRANCH  14  16
HETATM   16  C   UNL     1      -9.106   8.891  68.195  1.00  0.00    -0.142 A  
HETATM   17  I   UNL     1      -9.907  11.051  64.584  1.00  0.00    -0.411 I  
HETATM   18  C   UNL     1     -11.107  10.830  67.560  1.00  0.00    -0.308 A  
HETATM   19  C   UNL     1      -9.264   9.361  66.894  1.00  0.00    -0.173 A  
HETATM   20  C   UNL     1     -10.930  10.343  68.877  1.00  0.00    -0.245 A  
HETATM   21  I   UNL     1     -12.207  10.902  70.466  1.00  0.00    -0.469 I  
HETATM   22  C   UNL     1     -10.205  10.358  66.580  1.00  0.00    -0.229 A  
HETATM   23  C   UNL     1      -9.912   9.429  69.199  1.00  0.00    -0.184 A  
BRANCH  18  24
HETATM   24  O   UNL     1     -12.151  11.725  67.405  1.00  0.00    -0.595 OA 
BRANCH  24  25
HETATM   25  C   UNL     1     -11.837  13.072  67.738  1.00  0.00    -0.347 C  
BRANCH  25  26
HETATM   26  C   UNL     1     -11.732  14.060  66.568  1.00  0.00    -0.394 C  
BRANCH  26  27
HETATM   27  N   UNL     1     -10.783  15.163  66.890  1.00  0.00    -0.303 NA 
BRANCH  27  28
HETATM   28  C   UNL     1     -10.368  15.965  65.726  1.00  0.00    -0.376 C  
HETATM   29  C   UNL     1     -11.357  16.008  64.566  1.00  0.00    -0.303 C  
ENDBRANCH  27  28
BRANCH  27  30
HETATM   30  C   UNL     1     -11.268  15.962  68.023  1.00  0.00    -0.319 C  
HETATM   31  C   UNL     1     -10.596  17.328  68.154  1.00  0.00    -0.386 C  
ENDBRANCH  27  30
ENDBRANCH  26  27
ENDBRANCH  25  26
ENDBRANCH  24  25
ENDBRANCH  18  24
ENDBRANCH  14  16
ENDBRANCH   6  14
ENDBRANCH   4   5
ENDBRANCH   3   4
ENDBRANCH   2   3
TORSDOF 11
ENDMDL
MODEL      134
REMARK 921   NORMALIZED FREE ENERGY PREDICTED BY IDOCK:   -4.32 KCAL/MOL
REMARK 922        TOTAL FREE ENERGY PREDICTED BY IDOCK:   -9.24 KCAL/MOL
REMARK 923 INTER-LIGAND FREE ENERGY PREDICTED BY IDOCK:   -7.70 KCAL/MOL
REMARK 924 INTRA-LIGAND FREE ENERGY PREDICTED BY IDOCK:   -1.54 KCAL/MOL
REMARK 927      BINDING AFFINITY PREDICTED BY RF-SCORE:    0.00 PKD
ROOT
HETATM    1  C   UNL     1      -9.128   6.726  72.514  1.00  0.00    -0.142 C  
HETATM    2  C   UNL     1     -10.442   7.486  72.442  1.00  0.00    -0.291 C  
ENDROOT
BRANCH   2   3
HETATM    3  C   UNL     1     -10.227   8.951  72.059  1.00  0.00    -0.363 C  
BRANCH   3   4
HETATM    4  C   UNL     1     -11.054   9.326  70.830  1.00  0.00    -0.349 C  
BRANCH   4   5
HETATM    5  C   UNL     1     -10.488   8.741  69.580  1.00  0.00    -0.220 A  
HETATM    6  C   UNL     1      -9.485   9.132  68.706  1.00  0.00    -0.147 A  
HETATM    7  C   UNL     1      -9.857   5.808  66.183  1.00  0.00    -0.087 A  
HETATM    8  C   UNL     1      -9.343   8.060  67.773  1.00  0.00    -0.151 A  
HETATM    9  C   UNL     1     -10.399   7.192  68.038  1.00  0.00    -0.194 A  
HETATM   10  C   UNL     1      -8.747   6.612  65.922  1.00  0.00    -0.147 A  
HETATM   11  C   UNL     1      -8.469   7.732  66.714  1.00  0.00    -0.126 A  
HETATM   12  C   UNL     1     -10.697   6.070  67.270  1.00  0.00    -0.400 A  
HETATM   13  O   UNL     1     -11.075   7.591  69.147  1.00  0.00    -0.069 OA 
BRANCH   6  14
HETATM   14  C   UNL     1      -8.765  10.388  68.809  1.00  0.00    -0.146 C  
HETATM   15  O   UNL     1      -7.924  10.574  69.685  1.00  0.00    -0.143 OA 
BRANCH  14  16
HETATM   16  C   UNL     1      -9.083  11.511  67.879  1.00  0.00    -0.167 A  
HETATM   17  I   UNL     1      -7.130  15.318  67.680  1.00  0.00    -0.201 I  
HETATM   18  C   UNL     1      -9.541  13.782  66.206  1.00  0.00    -0.249 A  
HETATM   19  C   UNL     1      -8.219  12.603  67.897  1.00  0.00    -0.170 A  
HETATM   20  C   UNL     1     -10.409  12.665  66.203  1.00  0.00    -0.256 A  
HETATM   21  I   UNL     1     -12.046  12.513  64.874  1.00  0.00    -0.407 I  
HETATM   22  C   UNL     1      -8.465  13.750  67.122  1.00  0.00    -0.175 A  
HETATM   23  C   UNL     1     -10.214  11.571  67.064  1.00  0.00    -0.244 A  
BRANCH  18  24
HETATM   24  O   UNL     1      -9.869  14.777  65.302  1.00  0.00    -0.329 OA 
BRANCH  24  25
HETATM   25  C   UNL     1     -10.834  15.713  65.769  1.00  0.00    -0.306 C  
BRANCH  25  26
HETATM   26  C   UNL     1     -10.305  17.092  66.184  1.00  0.00    -0.322 C  
BRANCH  26  27
HETATM   27  N   UNL     1     -10.315  17.239  67.667  1.00  0.00    -0.337 NA 
BRANCH  27  28
HETATM   28  C   UNL     1     -10.464  18.628  68.139  1.00  0.00    -0.315 C  
HETATM   29  C   UNL     1     -10.775  19.662  67.062  1.00  0.00    -0.575 C  
ENDBRANCH  27  28
BRANCH  27  30
HETATM   30  C   UNL     1     -11.257  16.296  68.284  1.00  0.00    -0.324 C  
HETATM   31  C   UNL     1     -11.068  16.122  69.791  1.00  0.00    -0.350 C  
ENDBRANCH  27  30
ENDBRANCH  26  27
ENDBRANCH  25  26
ENDBRANCH  24  25
ENDBRANCH  18  24
ENDBRANCH  14  16
ENDBRANCH   6  14
ENDBRANCH   4   5
ENDBRANCH   3   4
ENDBRANCH   2   3
TORSDOF 11
ENDMDL
MODEL      135
REMARK 921   NORMALIZED FREE ENERGY PREDICTED BY IDOCK:   -4.28 KCAL/MOL
REMARK 922        TOTAL FREE ENERGY PREDICTED BY IDOCK:   -9.18 KCAL/MOL
REMARK 923 INTER-LIGAND FREE ENERGY PREDICTED BY IDOCK:   -7.55 KCAL/MOL
REMARK 924 INTRA-LIGAND FREE ENERGY PREDICTED BY IDOCK:   -1.63 KCAL/MOL
REMARK 927      BINDING AFFINITY PREDICTED BY RF-SCORE:    0.00 PKD
ROOT
HETATM    1  C   UNL     1     -12.360  12.523  63.892  1.00  0.00    -0.576 C  
HETATM    2  C   UNL     1     -11.389  12.045  64.959  1.00  0.00    -0.365 C  
ENDROOT
BRANCH   2   3
HETATM    3  C   UNL     1     -10.023  11.698  64.365  1.00  0.00    -0.298 C  
BRANCH   3   4
HETATM    4  C   UNL     1      -9.679  10.228  64.599  1.00  0.00    -0.398 C  
BRANCH   4   5
HETATM    5  C   UNL     1      -9.563   9.909  66.051  1.00  0.00    -0.225 A  
HETATM    6  C   UNL     1      -8.841  10.457  67.100  1.00  0.00    -0.141 A  
HETATM    7  C   UNL     1     -10.335   7.835  70.007  1.00  0.00    -0.221 A  
HETATM    8  C   UNL     1      -9.278   9.770  68.273  1.00  0.00    -0.130 A  
HETATM    9  C   UNL     1     -10.086   8.731  67.819  1.00  0.00    -0.207 A  
HETATM   10  C   UNL     1      -9.587   8.898  70.515  1.00  0.00    -0.242 A  
HETATM   11  C   UNL     1      -9.063   9.879  69.664  1.00  0.00    -0.245 A  
HETATM   12  C   UNL     1     -10.622   7.744  68.641  1.00  0.00    -0.152 A  
HETATM   13  O   UNL     1     -10.279   8.831  66.477  1.00  0.00    -0.288 OA 
BRANCH   6  14
HETATM   14  C   UNL     1      -7.872  11.527  66.945  1.00  0.00    -0.163 C  
HETATM   15  O   UNL     1      -6.786  11.334  66.405  1.00  0.00    -0.128 OA 
BRANCH  14  16
HETATM   16  C   UNL     1      -8.159  12.881  67.500  1.00  0.00    -0.181 A  
HETATM   17  I   UNL     1      -5.415  16.151  67.853  1.00  0.00    -0.154 I  
HETATM   18  C   UNL     1      -8.494  15.522  68.539  1.00  0.00    -0.163 A  
HETATM   19  C   UNL     1      -7.151  13.834  67.381  1.00  0.00    -0.093 A  
HETATM   20  C   UNL     1      -9.507  14.541  68.654  1.00  0.00    -0.205 A  
HETATM   21  I   UNL     1     -11.404  14.971  69.482  1.00  0.00    -0.393 I  
HETATM   22  C   UNL     1      -7.280  15.118  67.940  1.00  0.00    -0.144 A  
HETATM   23  C   UNL     1      -9.323  13.227  68.189  1.00  0.00    -0.220 A  
BRANCH  18  24
HETATM   24  O   UNL     1      -8.828  16.767  69.045  1.00  0.00    -0.253 OA 
BRANCH  24  25
HETATM   25  C   UNL     1      -9.159  17.742  68.064  1.00  0.00    -0.269 C  
BRANCH  25  26
HETATM   26  C   UNL     1      -8.905  19.207  68.442  1.00  0.00    -0.347 C  
BRANCH  26  27
HETATM   27  N   UNL     1      -7.449  19.522  68.391  1.00  0.00    -0.313 NA 
BRANCH  27  28
HETATM   28  C   UNL     1      -7.053  20.379  67.259  1.00  0.00    -0.298 C  
HETATM   29  C   UNL     1      -7.363  19.826  65.871  1.00  0.00    -0.331 C  
ENDBRANCH  27  28
BRANCH  27  30
HETATM   30  C   UNL     1      -6.967  19.996  69.695  1.00  0.00    -0.141 C  
HETATM   31  C   UNL     1      -5.763  19.222  70.232  1.00  0.00    -0.268 C  
ENDBRANCH  27  30
ENDBRANCH  26  27
ENDBRANCH  25  26
ENDBRANCH  24  25
ENDBRANCH  18  24
ENDBRANCH  14  16
ENDBRANCH   6  14
ENDBRANCH   4   5
ENDBRANCH   3   4
ENDBRANCH   2   3
TORSDOF 11
ENDMDL
MODEL      136
REMARK 921   NORMALIZED FREE ENERGY PREDICTED BY IDOCK:   -4.27 KCAL/MOL
REMARK 922        TOTAL FREE ENERGY PREDICTED BY IDOCK:   -9.17 KCAL/MOL
REMARK 923 INTER-LIGAND FREE ENERGY PREDICTED BY IDOCK:   -8.15 KCAL/MOL
REMARK 924 INTRA-LIGAND FREE ENERGY PREDICTED BY IDOCK:   -1.01 KCAL/MOL
REMARK 927      BINDING AFFINITY PREDICTED BY RF-SCORE:    0.00 PKD
ROOT
HETATM    1  C   UNL     1     -13.403  15.847  73.055  1.00  0.00    -0.663 C  
HETATM    2  C   UNL     1     -11.935  15.961  72.678  1.00  0.00    -0.610 C  
ENDROOT
BRANCH   2   3
HETATM    3  C   UNL     1     -11.693  15.553  71.224  1.00  0.00    -0.457 C  
BRANCH   3   4
HETATM    4  C   UNL     1     -12.529  14.330  70.850  1.00  0.00    -0.424 C  
BRANCH   4   5
HETATM    5  C   UNL     1     -12.055  13.699  69.584  1.00  0.00    -0.321 A  
HETATM    6  C   UNL     1     -11.829  12.389  69.190  1.00  0.00    -0.352 A  
HETATM    7  C   UNL     1     -10.651  13.358  65.288  1.00  0.00    -0.333 A  
HETATM    8  C   UNL     1     -11.505  12.452  67.801  1.00  0.00    -0.383 A  
HETATM    9  C   UNL     1     -11.371  13.806  67.509  1.00  0.00    -0.309 A  
HETATM   10  C   UNL     1     -10.837  11.994  65.515  1.00  0.00    -0.336 A  
HETATM   11  C   UNL     1     -11.275  11.526  66.760  1.00  0.00    -0.350 A  
HETATM   12  C   UNL     1     -10.941  14.300  66.281  1.00  0.00    -0.317 A  
HETATM   13  O   UNL     1     -11.729  14.561  68.581  1.00  0.00    -0.301 OA 
BRANCH   6  14
HETATM   14  C   UNL     1     -11.944  11.245  70.077  1.00  0.00    -0.368 C  
HETATM   15  O   UNL     1     -12.905  11.113  70.831  1.00  0.00    -0.334 OA 
BRANCH  14  16
HETATM   16  C   UNL     1     -10.852  10.231  70.134  1.00  0.00    -0.362 A  
HETATM   17  I   UNL     1     -10.810   6.622  72.441  1.00  0.00    -0.325 I  
HETATM   18  C   UNL     1      -8.877   8.182  70.398  1.00  0.00    -0.141 A  
HETATM   19  C   UNL     1     -11.118   9.062  70.842  1.00  0.00    -0.343 A  
HETATM   20  C   UNL     1      -8.622   9.377  69.685  1.00  0.00    -0.168 A  
HETATM   21  I   UNL     1      -6.813   9.703  68.641  1.00  0.00    -0.056 I  
HETATM   22  C   UNL     1     -10.136   8.073  71.029  1.00  0.00    -0.186 A  
HETATM   23  C   UNL     1      -9.575  10.408  69.599  1.00  0.00    -0.142 A  
BRANCH  18  24
HETATM   24  O   UNL     1      -7.838   7.267  70.390  1.00  0.00    -0.096 OA 
BRANCH  24  25
HETATM   25  C   UNL     1      -8.108   6.063  69.682  1.00  0.00    -0.107 C  
BRANCH  25  26
HETATM   26  C   UNL     1      -6.999   5.003  69.685  1.00  0.00    -0.054 C  
BRANCH  26  27
HETATM   27  N   UNL     1      -7.162   4.070  70.835  1.00  0.00    -0.037 NA 
BRANCH  27  28
HETATM   28  C   UNL     1      -7.900   2.835  70.514  1.00  0.00    -0.042 C  
HETATM   29  C   UNL     1      -9.335   2.770  71.025  1.00  0.00    -0.217 C  
ENDBRANCH  27  28
BRANCH  27  30
HETATM   30  C   UNL     1      -5.880   3.840  71.513  1.00  0.00    -0.013 C  
HETATM   31  C   UNL     1      -5.810   2.520  72.282  1.00  0.00    -0.009 C  
ENDBRANCH  27  30
ENDBRANCH  26  27
ENDBRANCH  25  26
ENDBRANCH  24  25
ENDBRANCH  18  24
ENDBRANCH  14  16
ENDBRANCH   6  14
ENDBRANCH   4   5
ENDBRANCH   3   4
ENDBRANCH   2   3
TORSDOF 11
ENDMDL
MODEL      137
REMARK 921   NORMALIZED FREE ENERGY PREDICTED BY IDOCK:   -4.27 KCAL/MOL
REMARK 922        TOTAL FREE ENERGY PREDICTED BY IDOCK:   -9.16 KCAL/MOL
REMARK 923 INTER-LIGAND FREE ENERGY PREDICTED BY IDOCK:   -7.60 KCAL/MOL
REMARK 924 INTRA-LIGAND FREE ENERGY PREDICTED BY IDOCK:   -1.56 KCAL/MOL
REMARK 927      BINDING AFFINITY PREDICTED BY RF-SCORE:    0.00 PKD
ROOT
HETATM    1  C   UNL     1     -11.622  15.996  64.385  1.00  0.00    -0.212 C  
HETATM    2  C   UNL     1     -12.288  14.639  64.540  1.00  0.00    -0.416 C  
ENDROOT
BRANCH   2   3
HETATM    3  C   UNL     1     -11.841  13.934  65.821  1.00  0.00    -0.393 C  
BRANCH   3   4
HETATM    4  C   UNL     1     -12.027  12.421  65.711  1.00  0.00    -0.437 C  
BRANCH   4   5
HETATM    5  C   UNL     1     -10.775  11.738  65.276  1.00  0.00    -0.287 A  
HETATM    6  C   UNL     1      -9.665  11.249  65.948  1.00  0.00    -0.258 A  
HETATM    7  C   UNL     1      -7.741   9.810  62.516  1.00  0.00    -0.126 A  
HETATM    8  C   UNL     1      -8.874  10.587  64.961  1.00  0.00    -0.207 A  
HETATM    9  C   UNL     1      -9.468  10.891  63.739  1.00  0.00    -0.275 A  
HETATM   10  C   UNL     1      -7.147   9.423  63.718  1.00  0.00    -0.098 A  
HETATM   11  C   UNL     1      -7.707   9.792  64.947  1.00  0.00    -0.127 A  
HETATM   12  C   UNL     1      -8.936  10.536  62.503  1.00  0.00    -0.303 A  
HETATM   13  O   UNL     1     -10.632  11.566  63.933  1.00  0.00    -0.324 OA 
BRANCH   6  14
HETATM   14  C   UNL     1      -9.446  11.408  67.375  1.00  0.00    -0.167 C  
HETATM   15  O   UNL     1      -8.651  12.235  67.812  1.00  0.00    -0.151 OA 
BRANCH  14  16
HETATM   16  C   UNL     1     -10.148  10.516  68.342  1.00  0.00    -0.181 A  
HETATM   17  I   UNL     1     -12.750  11.713  71.526  1.00  0.00    -0.014 I  
HETATM   18  C   UNL     1     -11.563   8.988  70.299  1.00  0.00    -0.060 A  
HETATM   19  C   UNL     1     -11.060  11.119  69.204  1.00  0.00    -0.306 A  
HETATM   20  C   UNL     1     -10.630   8.391  69.418  1.00  0.00    -0.197 A  
HETATM   21  I   UNL     1     -10.294   6.305  69.375  1.00  0.00    -0.373 I  
HETATM   22  C   UNL     1     -11.718  10.389  70.209  1.00  0.00    -0.321 A  
HETATM   23  C   UNL     1      -9.896   9.151  68.491  1.00  0.00    -0.178 A  
BRANCH  18  24
HETATM   24  O   UNL     1     -12.203   8.106  71.153  1.00  0.00    -0.300 OA 
BRANCH  24  25
HETATM   25  C   UNL     1     -11.903   8.285  72.531  1.00  0.00    -0.373 C  
BRANCH  25  26
HETATM   26  C   UNL     1     -10.430   8.140  72.936  1.00  0.00    -0.268 C  
BRANCH  26  27
HETATM   27  N   UNL     1     -10.246   6.985  73.860  1.00  0.00    -0.355 NA 
BRANCH  27  28
HETATM   28  C   UNL     1     -10.595   5.678  73.274  1.00  0.00    -0.250 C  
HETATM   29  C   UNL     1      -9.428   4.726  73.038  1.00  0.00    -0.146 C  
ENDBRANCH  27  28
BRANCH  27  30
HETATM   30  C   UNL     1      -8.921   7.021  74.491  1.00  0.00    -0.188 C  
HETATM   31  C   UNL     1      -8.046   8.189  74.036  1.00  0.00    -0.312 C  
ENDBRANCH  27  30
ENDBRANCH  26  27
ENDBRANCH  25  26
ENDBRANCH  24  25
ENDBRANCH  18  24
ENDBRANCH  14  16
ENDBRANCH   6  14
ENDBRANCH   4   5
ENDBRANCH   3   4
ENDBRANCH   2   3
TORSDOF 11
ENDMDL
MODEL      138
REMARK 921   NORMALIZED FREE ENERGY PREDICTED BY IDOCK:   -4.24 KCAL/MOL
REMARK 922        TOTAL FREE ENERGY PREDICTED BY IDOCK:   -9.12 KCAL/MOL
REMARK 923 INTER-LIGAND FREE ENERGY PREDICTED BY IDOCK:   -7.56 KCAL/MOL
REMARK 924 INTRA-LIGAND FREE ENERGY PREDICTED BY IDOCK:   -1.56 KCAL/MOL
REMARK 927      BINDING AFFINITY PREDICTED BY RF-SCORE:    0.00 PKD
ROOT
HETATM    1  C   UNL     1     -11.015   6.315  66.882  1.00  0.00    -0.404 C  
HETATM    2  C   UNL     1     -10.420   5.019  66.354  1.00  0.00    -0.349 C  
ENDROOT
BRANCH   2   3
HETATM    3  C   UNL     1      -9.516   4.350  67.391  1.00  0.00    -0.201 C  
BRANCH   3   4
HETATM    4  C   UNL     1      -8.503   5.343  67.961  1.00  0.00    -0.097 C  
BRANCH   4   5
HETATM    5  C   UNL     1      -8.927   5.866  69.291  1.00  0.00    -0.117 A  
HETATM    6  C   UNL     1      -8.936   7.126  69.869  1.00  0.00    -0.142 A  
HETATM    7  C   UNL     1     -10.620   5.875  73.496  1.00  0.00    -0.289 A  
HETATM    8  C   UNL     1      -9.592   6.971  71.128  1.00  0.00    -0.165 A  
HETATM    9  C   UNL     1      -9.755   5.599  71.299  1.00  0.00    -0.167 A  
HETATM   10  C   UNL     1     -10.538   7.259  73.342  1.00  0.00    -0.435 A  
HETATM   11  C   UNL     1     -10.039   7.823  72.162  1.00  0.00    -0.265 A  
HETATM   12  C   UNL     1     -10.250   5.011  72.459  1.00  0.00    -0.247 A  
HETATM   13  O   UNL     1      -9.376   4.933  70.176  1.00  0.00    -0.134 OA 
BRANCH   6  14
HETATM   14  C   UNL     1      -8.385   8.311  69.237  1.00  0.00    -0.122 C  
HETATM   15  O   UNL     1      -7.186   8.570  69.295  1.00  0.00    -0.061 OA 
BRANCH  14  16
HETATM   16  C   UNL     1      -9.288   9.280  68.550  1.00  0.00    -0.143 A  
HETATM   17  I   UNL     1     -12.530  11.462  70.304  1.00  0.00    -0.149 I  
HETATM   18  C   UNL     1     -11.132  11.150  67.424  1.00  0.00    -0.307 A  
HETATM   19  C   UNL     1     -10.183   9.981  69.355  1.00  0.00    -0.239 A  
HETATM   20  C   UNL     1     -10.219  10.427  66.621  1.00  0.00    -0.234 A  
HETATM   21  I   UNL     1     -10.041  10.756  64.541  1.00  0.00    -0.314 I  
HETATM   22  C   UNL     1     -11.134  10.859  68.807  1.00  0.00    -0.256 A  
HETATM   23  C   UNL     1      -9.348   9.469  67.169  1.00  0.00    -0.174 A  
BRANCH  18  24
HETATM   24  O   UNL     1     -11.922  12.055  66.736  1.00  0.00    -0.616 OA 
BRANCH  24  25
HETATM   25  C   UNL     1     -12.112  13.303  67.392  1.00  0.00    -0.278 C  
BRANCH  25  26
HETATM   26  C   UNL     1     -10.950  14.302  67.311  1.00  0.00    -0.297 C  
BRANCH  26  27
HETATM   27  N   UNL     1     -10.511  14.717  68.673  1.00  0.00    -0.237 NA 
BRANCH  27  28
HETATM   28  C   UNL     1      -9.053  14.871  68.819  1.00  0.00    -0.189 C  
HETATM   29  C   UNL     1      -8.201  13.836  68.091  1.00  0.00    -0.160 C  
ENDBRANCH  27  28
BRANCH  27  30
HETATM   30  C   UNL     1     -11.284  15.872  69.148  1.00  0.00    -0.334 C  
HETATM   31  C   UNL     1     -12.163  15.575  70.363  1.00  0.00    -0.443 C  
ENDBRANCH  27  30
ENDBRANCH  26  27
ENDBRANCH  25  26
ENDBRANCH  24  25
ENDBRANCH  18  24
ENDBRANCH  14  16
ENDBRANCH   6  14
ENDBRANCH   4   5
ENDBRANCH   3   4
ENDBRANCH   2   3
TORSDOF 11
ENDMDL
MODEL      139
REMARK 921   NORMALIZED FREE ENERGY PREDICTED BY IDOCK:   -4.24 KCAL/MOL
REMARK 922        TOTAL FREE ENERGY PREDICTED BY IDOCK:   -9.11 KCAL/MOL
REMARK 923 INTER-LIGAND FREE ENERGY PREDICTED BY IDOCK:   -7.74 KCAL/MOL
REMARK 924 INTRA-LIGAND FREE ENERGY PREDICTED BY IDOCK:   -1.38 KCAL/MOL
REMARK 927      BINDING AFFINITY PREDICTED BY RF-SCORE:    0.00 PKD
ROOT
HETATM    1  C   UNL     1     -12.083  14.653  64.688  1.00  0.00    -0.466 C  
HETATM    2  C   UNL     1     -10.662  15.107  64.979  1.00  0.00    -0.451 C  
ENDROOT
BRANCH   2   3
HETATM    3  C   UNL     1      -9.888  14.058  65.779  1.00  0.00    -0.280 C  
BRANCH   3   4
HETATM    4  C   UNL     1      -9.331  14.653  67.072  1.00  0.00    -0.244 C  
BRANCH   4   5
HETATM    5  C   UNL     1     -10.284  14.501  68.209  1.00  0.00    -0.234 A  
HETATM    6  C   UNL     1     -11.136  13.487  68.618  1.00  0.00    -0.299 A  
HETATM    7  C   UNL     1     -12.552  15.515  71.999  1.00  0.00    -0.481 A  
HETATM    8  C   UNL     1     -11.681  13.917  69.866  1.00  0.00    -0.358 A  
HETATM    9  C   UNL     1     -11.266  15.237  70.020  1.00  0.00    -0.287 A  
HETATM   10  C   UNL     1     -12.939  14.177  71.922  1.00  0.00    -0.441 A  
HETATM   11  C   UNL     1     -12.503  13.363  70.871  1.00  0.00    -0.439 A  
HETATM   12  C   UNL     1     -11.681  16.069  71.055  1.00  0.00    -0.458 A  
HETATM   13  O   UNL     1     -10.400  15.581  69.030  1.00  0.00    -0.214 OA 
BRANCH   6  14
HETATM   14  C   UNL     1     -11.352  12.260  67.872  1.00  0.00    -0.298 C  
HETATM   15  O   UNL     1     -12.319  12.125  67.127  1.00  0.00    -0.372 OA 
BRANCH  14  16
HETATM   16  C   UNL     1     -10.425  11.105  68.049  1.00  0.00    -0.217 A  
HETATM   17  I   UNL     1      -6.367  11.249  69.410  1.00  0.00    -0.127 I  
HETATM   18  C   UNL     1      -8.490   9.038  68.437  1.00  0.00    -0.129 A  
HETATM   19  C   UNL     1      -9.195  11.375  68.643  1.00  0.00    -0.149 A  
HETATM   20  C   UNL     1      -9.744   8.783  67.833  1.00  0.00    -0.157 A  
HETATM   21  I   UNL     1     -10.354   6.836  67.282  1.00  0.00    -0.424 I  
HETATM   22  C   UNL     1      -8.212  10.379  68.786  1.00  0.00    -0.128 A  
HETATM   23  C   UNL     1     -10.674   9.810  67.594  1.00  0.00    -0.334 A  
BRANCH  18  24
HETATM   24  O   UNL     1      -7.685   7.924  68.602  1.00  0.00    -0.108 OA 
BRANCH  24  25
HETATM   25  C   UNL     1      -7.488   7.524  69.953  1.00  0.00    -0.084 C  
BRANCH  25  26
HETATM   26  C   UNL     1      -6.594   6.298  70.180  1.00  0.00    -0.045 C  
BRANCH  26  27
HETATM   27  N   UNL     1      -7.400   5.046  70.176  1.00  0.00    -0.057 NA 
BRANCH  27  28
HETATM   28  C   UNL     1      -8.763   5.200  70.717  1.00  0.00    -0.129 C  
HETATM   29  C   UNL     1      -9.799   4.211  70.193  1.00  0.00    -0.242 C  
ENDBRANCH  27  28
BRANCH  27  30
HETATM   30  C   UNL     1      -7.350   4.390  68.863  1.00  0.00    -0.056 C  
HETATM   31  C   UNL     1      -6.103   3.533  68.643  1.00  0.00    -0.028 C  
ENDBRANCH  27  30
ENDBRANCH  26  27
ENDBRANCH  25  26
ENDBRANCH  24  25
ENDBRANCH  18  24
ENDBRANCH  14  16
ENDBRANCH   6  14
ENDBRANCH   4   5
ENDBRANCH   3   4
ENDBRANCH   2   3
TORSDOF 11
ENDMDL
MODEL      140
REMARK 921   NORMALIZED FREE ENERGY PREDICTED BY IDOCK:   -4.23 KCAL/MOL
REMARK 922        TOTAL FREE ENERGY PREDICTED BY IDOCK:   -9.10 KCAL/MOL
REMARK 923 INTER-LIGAND FREE ENERGY PREDICTED BY IDOCK:   -7.53 KCAL/MOL
REMARK 924 INTRA-LIGAND FREE ENERGY PREDICTED BY IDOCK:   -1.57 KCAL/MOL
REMARK 927      BINDING AFFINITY PREDICTED BY RF-SCORE:    0.00 PKD
ROOT
HETATM    1  C   UNL     1     -12.283   7.961  71.260  1.00  0.00    -0.314 C  
HETATM    2  C   UNL     1     -11.456   9.211  71.516  1.00  0.00    -0.437 C  
ENDROOT
BRANCH   2   3
HETATM    3  C   UNL     1     -12.282  10.484  71.322  1.00  0.00    -0.472 C  
BRANCH   3   4
HETATM    4  C   UNL     1     -12.526  10.761  69.839  1.00  0.00    -0.277 C  
BRANCH   4   5
HETATM    5  C   UNL     1     -12.082  12.130  69.450  1.00  0.00    -0.190 A  
HETATM    6  C   UNL     1     -11.639  12.695  68.263  1.00  0.00    -0.377 A  
HETATM    7  C   UNL     1     -11.142  16.547  69.831  1.00  0.00    -0.241 A  
HETATM    8  C   UNL     1     -11.496  14.090  68.527  1.00  0.00    -0.336 A  
HETATM    9  C   UNL     1     -11.677  14.233  69.900  1.00  0.00    -0.311 A  
HETATM   10  C   UNL     1     -11.017  16.466  68.444  1.00  0.00    -0.353 A  
HETATM   11  C   UNL     1     -11.203  15.250  67.776  1.00  0.00    -0.327 A  
HETATM   12  C   UNL     1     -11.502  15.428  70.590  1.00  0.00    -0.361 A  
HETATM   13  O   UNL     1     -12.057  13.051  70.453  1.00  0.00    -0.359 OA 
BRANCH   6  14
HETATM   14  C   UNL     1     -11.414  11.941  67.042  1.00  0.00    -0.316 C  
HETATM   15  O   UNL     1     -12.138  12.082  66.060  1.00  0.00    -0.561 OA 
BRANCH  14  16
HETATM   16  C   UNL     1     -10.324  10.925  66.981  1.00  0.00    -0.276 A  
HETATM   17  I   UNL     1     -10.675   6.726  67.753  1.00  0.00    -0.336 I  
HETATM   18  C   UNL     1      -8.382   8.829  66.938  1.00  0.00    -0.108 A  
HETATM   19  C   UNL     1     -10.701   9.593  67.130  1.00  0.00    -0.258 A  
HETATM   20  C   UNL     1      -8.017  10.188  66.791  1.00  0.00    -0.115 A  
HETATM   21  I   UNL     1      -6.028  10.785  66.397  1.00  0.00    -0.133 I  
HETATM   22  C   UNL     1      -9.749   8.558  67.170  1.00  0.00    -0.192 A  
HETATM   23  C   UNL     1      -8.965  11.223  66.865  1.00  0.00    -0.163 A  
BRANCH  18  24
HETATM   24  O   UNL     1      -7.333   7.930  66.843  1.00  0.00    -0.086 OA 
BRANCH  24  25
HETATM   25  C   UNL     1      -7.191   7.312  65.570  1.00  0.00    -0.066 C  
BRANCH  25  26
HETATM   26  C   UNL     1      -7.278   5.780  65.539  1.00  0.00    -0.074 C  
BRANCH  26  27
HETATM   27  N   UNL     1      -8.468   5.333  64.762  1.00  0.00    -0.148 NA 
BRANCH  27  28
HETATM   28  C   UNL     1      -8.348   5.523  63.305  1.00  0.00    -0.082 C  
HETATM   29  C   UNL     1      -6.951   5.329  62.726  1.00  0.00    -0.037 C  
ENDBRANCH  27  28
BRANCH  27  30
HETATM   30  C   UNL     1      -8.876   3.978  65.155  1.00  0.00    -0.127 C  
HETATM   31  C   UNL     1      -8.171   3.454  66.407  1.00  0.00    -0.097 C  
ENDBRANCH  27  30
ENDBRANCH  26  27
ENDBRANCH  25  26
ENDBRANCH  24  25
ENDBRANCH  18  24
ENDBRANCH  14  16
ENDBRANCH   6  14
ENDBRANCH   4   5
ENDBRANCH   3   4
ENDBRANCH   2   3
TORSDOF 11
ENDMDL
MODEL      141
REMARK 921   NORMALIZED FREE ENERGY PREDICTED BY IDOCK:   -4.21 KCAL/MOL
REMARK 922        TOTAL FREE ENERGY PREDICTED BY IDOCK:   -9.06 KCAL/MOL
REMARK 923 INTER-LIGAND FREE ENERGY PREDICTED BY IDOCK:   -7.75 KCAL/MOL
REMARK 924 INTRA-LIGAND FREE ENERGY PREDICTED BY IDOCK:   -1.31 KCAL/MOL
REMARK 927      BINDING AFFINITY PREDICTED BY RF-SCORE:    0.00 PKD
ROOT
HETATM    1  C   UNL     1      -9.210   9.833  64.825  1.00  0.00    -0.319 C  
HETATM    2  C   UNL     1      -8.006   9.051  65.326  1.00  0.00    -0.114 C  
ENDROOT
BRANCH   2   3
HETATM    3  C   UNL     1      -8.418   7.935  66.287  1.00  0.00    -0.139 C  
BRANCH   3   4
HETATM    4  C   UNL     1      -9.906   8.020  66.623  1.00  0.00    -0.322 C  
BRANCH   4   5
HETATM    5  C   UNL     1     -10.142   8.062  68.095  1.00  0.00    -0.197 A  
HETATM    6  C   UNL     1      -9.611   8.815  69.131  1.00  0.00    -0.162 A  
HETATM    7  C   UNL     1     -11.959   7.061  72.124  1.00  0.00    -0.299 A  
HETATM    8  C   UNL     1     -10.360   8.458  70.293  1.00  0.00    -0.212 A  
HETATM    9  C   UNL     1     -11.153   7.379  69.912  1.00  0.00    -0.190 A  
HETATM   10  C   UNL     1     -11.234   8.178  72.538  1.00  0.00    -0.459 A  
HETATM   11  C   UNL     1     -10.441   8.894  71.634  1.00  0.00    -0.408 A  
HETATM   12  C   UNL     1     -11.952   6.651  70.787  1.00  0.00    -0.412 A  
HETATM   13  O   UNL     1     -11.039   7.157  68.575  1.00  0.00    -0.081 OA 
BRANCH   6  14
HETATM   14  C   UNL     1      -8.527   9.767  68.968  1.00  0.00    -0.137 C  
HETATM   15  O   UNL     1      -7.405   9.543  69.416  1.00  0.00    -0.075 OA 
BRANCH  14  16
HETATM   16  C   UNL     1      -8.777  11.077  68.299  1.00  0.00    -0.144 A  
HETATM   17  I   UNL     1      -6.191  14.491  68.282  1.00  0.00    -0.167 I  
HETATM   18  C   UNL     1      -9.068  13.659  67.110  1.00  0.00    -0.239 A  
HETATM   19  C   UNL     1      -7.729  11.994  68.306  1.00  0.00    -0.127 A  
HETATM   20  C   UNL     1     -10.123  12.716  67.114  1.00  0.00    -0.223 A  
HETATM   21  I   UNL     1     -11.960  13.075  66.133  1.00  0.00    -0.356 I  
HETATM   22  C   UNL     1      -7.879  13.288  67.777  1.00  0.00    -0.157 A  
HETATM   23  C   UNL     1      -9.998  11.466  67.745  1.00  0.00    -0.192 A  
BRANCH  18  24
HETATM   24  O   UNL     1      -9.348  14.843  66.449  1.00  0.00    -0.269 OA 
BRANCH  24  25
HETATM   25  C   UNL     1     -10.100  15.785  67.205  1.00  0.00    -0.251 C  
BRANCH  25  26
HETATM   26  C   UNL     1      -9.320  16.967  67.795  1.00  0.00    -0.237 C  
BRANCH  26  27
HETATM   27  N   UNL     1      -9.118  18.032  66.772  1.00  0.00    -0.266 NA 
BRANCH  27  28
HETATM   28  C   UNL     1     -10.362  18.671  66.308  1.00  0.00    -0.444 C  
HETATM   29  C   UNL     1     -10.334  20.194  66.230  1.00  0.00    -0.512 C  
ENDBRANCH  27  28
BRANCH  27  30
HETATM   30  C   UNL     1      -8.081  18.981  67.197  1.00  0.00    -0.264 C  
HETATM   31  C   UNL     1      -7.890  19.057  68.711  1.00  0.00    -0.378 C  
ENDBRANCH  27  30
ENDBRANCH  26  27
ENDBRANCH  25  26
ENDBRANCH  24  25
ENDBRANCH  18  24
ENDBRANCH  14  16
ENDBRANCH   6  14
ENDBRANCH   4   5
ENDBRANCH   3   4
ENDBRANCH   2   3
TORSDOF 11
ENDMDL
MODEL      142
REMARK 921   NORMALIZED FREE ENERGY PREDICTED BY IDOCK:   -4.21 KCAL/MOL
REMARK 922        TOTAL FREE ENERGY PREDICTED BY IDOCK:   -9.06 KCAL/MOL
REMARK 923 INTER-LIGAND FREE ENERGY PREDICTED BY IDOCK:   -7.24 KCAL/MOL
REMARK 924 INTRA-LIGAND FREE ENERGY PREDICTED BY IDOCK:   -1.82 KCAL/MOL
REMARK 927      BINDING AFFINITY PREDICTED BY RF-SCORE:    0.00 PKD
ROOT
HETATM    1  C   UNL     1     -13.297  10.195  71.331  1.00  0.00    -0.413 C  
HETATM    2  C   UNL     1     -11.977   9.442  71.309  1.00  0.00    -0.430 C  
ENDROOT
BRANCH   2   3
HETATM    3  C   UNL     1     -11.917   8.377  72.405  1.00  0.00    -0.451 C  
BRANCH   3   4
HETATM    4  C   UNL     1     -10.474   7.971  72.700  1.00  0.00    -0.408 C  
BRANCH   4   5
HETATM    5  C   UNL     1      -9.814   7.362  71.509  1.00  0.00    -0.173 A  
HETATM    6  C   UNL     1      -8.721   7.715  70.733  1.00  0.00    -0.139 A  
HETATM    7  C   UNL     1      -8.971   4.398  68.186  1.00  0.00    -0.146 A  
HETATM    8  C   UNL     1      -8.530   6.636  69.818  1.00  0.00    -0.132 A  
HETATM    9  C   UNL     1      -9.636   5.806  69.982  1.00  0.00    -0.164 A  
HETATM   10  C   UNL     1      -7.814   5.162  68.030  1.00  0.00    -0.087 A  
HETATM   11  C   UNL     1      -7.573   6.274  68.845  1.00  0.00    -0.092 A  
HETATM   12  C   UNL     1      -9.900   4.693  69.190  1.00  0.00    -0.242 A  
HETATM   13  O   UNL     1     -10.398   6.232  71.023  1.00  0.00    -0.201 OA 
BRANCH   6  14
HETATM   14  C   UNL     1      -7.969   8.946  70.903  1.00  0.00    -0.148 C  
HETATM   15  O   UNL     1      -7.227   9.115  71.867  1.00  0.00    -0.324 OA 
BRANCH  14  16
HETATM   16  C   UNL     1      -8.137  10.064  69.930  1.00  0.00    -0.180 A  
HETATM   17  I   UNL     1      -5.283  13.123  69.011  1.00  0.00    -0.074 I  
HETATM   18  C   UNL     1      -8.261  12.283  68.134  1.00  0.00    -0.168 A  
HETATM   19  C   UNL     1      -7.018  10.857  69.689  1.00  0.00    -0.128 A  
HETATM   20  C   UNL     1      -9.389  11.469  68.394  1.00  0.00    -0.194 A  
HETATM   21  I   UNL     1     -11.227  11.734  67.385  1.00  0.00    -0.360 I  
HETATM   22  C   UNL     1      -7.081  11.986  68.853  1.00  0.00    -0.104 A  
HETATM   23  C   UNL     1      -9.342  10.410  69.317  1.00  0.00    -0.202 A  
BRANCH  18  24
HETATM   24  O   UNL     1      -8.468  13.285  67.202  1.00  0.00    -0.201 OA 
BRANCH  24  25
HETATM   25  C   UNL     1      -8.315  14.608  67.702  1.00  0.00    -0.177 C  
BRANCH  25  26
HETATM   26  C   UNL     1      -9.352  15.075  68.733  1.00  0.00    -0.200 C  
BRANCH  26  27
HETATM   27  N   UNL     1     -10.620  15.477  68.062  1.00  0.00    -0.263 NA 
BRANCH  27  28
HETATM   28  C   UNL     1     -11.757  15.671  68.981  1.00  0.00    -0.395 C  
HETATM   29  C   UNL     1     -11.521  15.242  70.425  1.00  0.00    -0.330 C  
ENDBRANCH  27  28
BRANCH  27  30
HETATM   30  C   UNL     1     -10.398  16.600  67.143  1.00  0.00    -0.300 C  
HETATM   31  C   UNL     1     -10.648  17.974  67.766  1.00  0.00    -0.409 C  
ENDBRANCH  27  30
ENDBRANCH  26  27
ENDBRANCH  25  26
ENDBRANCH  24  25
ENDBRANCH  18  24
ENDBRANCH  14  16
ENDBRANCH   6  14
ENDBRANCH   4   5
ENDBRANCH   3   4
ENDBRANCH   2   3
TORSDOF 11
ENDMDL
MODEL      143
REMARK 921   NORMALIZED FREE ENERGY PREDICTED BY IDOCK:   -4.18 KCAL/MOL
REMARK 922        TOTAL FREE ENERGY PREDICTED BY IDOCK:   -9.01 KCAL/MOL
REMARK 923 INTER-LIGAND FREE ENERGY PREDICTED BY IDOCK:   -6.56 KCAL/MOL
REMARK 924 INTRA-LIGAND FREE ENERGY PREDICTED BY IDOCK:   -2.46 KCAL/MOL
REMARK 927      BINDING AFFINITY PREDICTED BY RF-SCORE:    0.00 PKD
ROOT
HETATM    1  C   UNL     1      -6.780   9.423  68.327  1.00  0.00    -0.059 C  
HETATM    2  C   UNL     1      -7.277  10.384  69.395  1.00  0.00    -0.109 C  
ENDROOT
BRANCH   2   3
HETATM    3  C   UNL     1      -7.570  11.769  68.817  1.00  0.00    -0.104 C  
BRANCH   3   4
HETATM    4  C   UNL     1      -7.496  11.754  67.290  1.00  0.00    -0.151 C  
BRANCH   4   5
HETATM    5  C   UNL     1      -8.798  12.127  66.667  1.00  0.00    -0.182 A  
HETATM    6  C   UNL     1      -9.775  11.416  65.986  1.00  0.00    -0.253 A  
HETATM    7  C   UNL     1     -12.309  14.701  65.407  1.00  0.00    -0.195 A  
HETATM    8  C   UNL     1     -10.842  12.338  65.764  1.00  0.00    -0.313 A  
HETATM    9  C   UNL     1     -10.350  13.581  66.153  1.00  0.00    -0.296 A  
HETATM   10  C   UNL     1     -12.869  13.470  65.065  1.00  0.00    -0.330 A  
HETATM   11  C   UNL     1     -12.155  12.280  65.248  1.00  0.00    -0.361 A  
HETATM   12  C   UNL     1     -11.038  14.779  65.986  1.00  0.00    -0.330 A  
HETATM   13  O   UNL     1      -9.123  13.448  66.723  1.00  0.00    -0.242 OA 
BRANCH   6  14
HETATM   14  C   UNL     1      -9.657  10.012  65.634  1.00  0.00    -0.252 C  
HETATM   15  O   UNL     1      -9.367   9.660  64.493  1.00  0.00    -0.261 OA 
BRANCH  14  16
HETATM   16  C   UNL     1      -9.952   8.959  66.649  1.00  0.00    -0.346 A  
HETATM   17  I   UNL     1     -11.144   9.570  70.717  1.00  0.00    -0.463 I  
HETATM   18  C   UNL     1     -10.542   7.105  68.741  1.00  0.00    -0.196 A  
HETATM   19  C   UNL     1     -10.463   9.392  67.869  1.00  0.00    -0.296 A  
HETATM   20  C   UNL     1     -10.019   6.683  67.496  1.00  0.00    -0.135 A  
HETATM   21  I   UNL     1      -9.749   4.642  67.019  1.00  0.00    -0.217 I  
HETATM   22  C   UNL     1     -10.702   8.496  68.927  1.00  0.00    -0.073 A  
HETATM   23  C   UNL     1      -9.680   7.600  66.486  1.00  0.00    -0.251 A  
BRANCH  18  24
HETATM   24  O   UNL     1     -10.823   6.082  69.631  1.00  0.00    -0.298 OA 
BRANCH  24  25
HETATM   25  C   UNL     1     -10.166   6.186  70.888  1.00  0.00    -0.201 C  
BRANCH  25  26
HETATM   26  C   UNL     1      -9.051   5.169  71.164  1.00  0.00    -0.143 C  
BRANCH  26  27
HETATM   27  N   UNL     1      -7.791   5.859  71.560  1.00  0.00    -0.110 NA 
BRANCH  27  28
HETATM   28  C   UNL     1      -7.164   6.644  70.482  1.00  0.00    -0.073 C  
HETATM   29  C   UNL     1      -6.638   5.840  69.298  1.00  0.00    -0.054 C  
ENDBRANCH  27  28
BRANCH  27  30
HETATM   30  C   UNL     1      -7.969   6.603  72.814  1.00  0.00    -0.101 C  
HETATM   31  C   UNL     1      -7.618   8.087  72.712  1.00  0.00    -0.160 C  
ENDBRANCH  27  30
ENDBRANCH  26  27
ENDBRANCH  25  26
ENDBRANCH  24  25
ENDBRANCH  18  24
ENDBRANCH  14  16
ENDBRANCH   6  14
ENDBRANCH   4   5
ENDBRANCH   3   4
ENDBRANCH   2   3
TORSDOF 11
ENDMDL
MODEL      144
REMARK 921   NORMALIZED FREE ENERGY PREDICTED BY IDOCK:   -4.18 KCAL/MOL
REMARK 922        TOTAL FREE ENERGY PREDICTED BY IDOCK:   -9.01 KCAL/MOL
REMARK 923 INTER-LIGAND FREE ENERGY PREDICTED BY IDOCK:   -6.97 KCAL/MOL
REMARK 924 INTRA-LIGAND FREE ENERGY PREDICTED BY IDOCK:   -2.04 KCAL/MOL
REMARK 927      BINDING AFFINITY PREDICTED BY RF-SCORE:    0.00 PKD
ROOT
HETATM    1  C   UNL     1     -11.099   9.812  71.065  1.00  0.00    -0.431 C  
HETATM    2  C   UNL     1     -11.897   8.518  71.047  1.00  0.00    -0.290 C  
ENDROOT
BRANCH   2   3
HETATM    3  C   UNL     1     -12.121   7.974  72.458  1.00  0.00    -0.338 C  
BRANCH   3   4
HETATM    4  C   UNL     1     -10.795   7.599  73.120  1.00  0.00    -0.440 C  
BRANCH   4   5
HETATM    5  C   UNL     1     -10.458   6.161  72.914  1.00  0.00    -0.217 A  
HETATM    6  C   UNL     1      -9.359   5.498  72.389  1.00  0.00    -0.156 A  
HETATM    7  C   UNL     1     -10.891   1.651  73.024  1.00  0.00    -0.246 A  
HETATM    8  C   UNL     1      -9.608   4.108  72.599  1.00  0.00    -0.179 A  
HETATM    9  C   UNL     1     -10.920   4.027  73.057  1.00  0.00    -0.111 A  
HETATM   10  C   UNL     1      -9.553   1.683  72.630  1.00  0.00    -0.131 A  
HETATM   11  C   UNL     1      -8.894   2.901  72.426  1.00  0.00    -0.101 A  
HETATM   12  C   UNL     1     -11.599   2.831  73.271  1.00  0.00    -0.039 A  
HETATM   13  O   UNL     1     -11.425   5.271  73.272  1.00  0.00    -0.294 OA 
BRANCH   6  14
HETATM   14  C   UNL     1      -8.221   6.168  71.787  1.00  0.00    -0.114 C  
HETATM   15  O   UNL     1      -7.088   6.044  72.246  1.00  0.00    -0.080 OA 
BRANCH  14  16
HETATM   16  C   UNL     1      -8.420   7.080  70.623  1.00  0.00    -0.139 A  
HETATM   17  I   UNL     1     -10.654   6.258  67.063  1.00  0.00    -0.378 I  
HETATM   18  C   UNL     1      -8.907   8.662  68.293  1.00  0.00    -0.142 A  
HETATM   19  C   UNL     1      -9.306   6.654  69.638  1.00  0.00    -0.143 A  
HETATM   20  C   UNL     1      -8.008   9.078  69.303  1.00  0.00    -0.096 A  
HETATM   21  I   UNL     1      -7.044  10.958  69.250  1.00  0.00    -0.091 I  
HETATM   22  C   UNL     1      -9.510   7.394  68.460  1.00  0.00    -0.144 A  
HETATM   23  C   UNL     1      -7.728   8.276  70.424  1.00  0.00    -0.084 A  
BRANCH  18  24
HETATM   24  O   UNL     1      -9.074   9.561  67.255  1.00  0.00    -0.130 OA 
BRANCH  24  25
HETATM   25  C   UNL     1     -10.342  10.204  67.219  1.00  0.00    -0.237 C  
BRANCH  25  26
HETATM   26  C   UNL     1     -10.437  11.572  67.908  1.00  0.00    -0.184 C  
BRANCH  26  27
HETATM   27  N   UNL     1     -11.697  12.270  67.527  1.00  0.00    -0.459 NA 
BRANCH  27  28
HETATM   28  C   UNL     1     -11.842  13.618  68.106  1.00  0.00    -0.372 C  
HETATM   29  C   UNL     1     -12.190  13.666  69.590  1.00  0.00    -0.326 C  
ENDBRANCH  27  28
BRANCH  27  30
HETATM   30  C   UNL     1     -11.910  12.219  66.075  1.00  0.00    -0.341 C  
HETATM   31  C   UNL     1     -12.553  13.479  65.495  1.00  0.00    -0.531 C  
ENDBRANCH  27  30
ENDBRANCH  26  27
ENDBRANCH  25  26
ENDBRANCH  24  25
ENDBRANCH  18  24
ENDBRANCH  14  16
ENDBRANCH   6  14
ENDBRANCH   4   5
ENDBRANCH   3   4
ENDBRANCH   2   3
TORSDOF 11
ENDMDL
MODEL      145
REMARK 921   NORMALIZED FREE ENERGY PREDICTED BY IDOCK:   -4.17 KCAL/MOL
REMARK 922        TOTAL FREE ENERGY PREDICTED BY IDOCK:   -9.00 KCAL/MOL
REMARK 923 INTER-LIGAND FREE ENERGY PREDICTED BY IDOCK:   -7.12 KCAL/MOL
REMARK 924 INTRA-LIGAND FREE ENERGY PREDICTED BY IDOCK:   -1.88 KCAL/MOL
REMARK 927      BINDING AFFINITY PREDICTED BY RF-SCORE:    0.00 PKD
ROOT
HETATM    1  C   UNL     1     -12.997  10.658  71.700  1.00  0.00    -0.582 C  
HETATM    2  C   UNL     1     -11.902   9.635  71.443  1.00  0.00    -0.484 C  
ENDROOT
BRANCH   2   3
HETATM    3  C   UNL     1     -12.229   8.286  72.087  1.00  0.00    -0.418 C  
BRANCH   3   4
HETATM    4  C   UNL     1     -11.035   7.750  72.875  1.00  0.00    -0.467 C  
BRANCH   4   5
HETATM    5  C   UNL     1     -10.120   6.943  72.017  1.00  0.00    -0.185 A  
HETATM    6  C   UNL     1      -8.873   7.176  71.458  1.00  0.00    -0.127 A  
HETATM    7  C   UNL     1      -8.549   3.411  69.651  1.00  0.00    -0.110 A  
HETATM    8  C   UNL     1      -8.483   5.945  70.850  1.00  0.00    -0.127 A  
HETATM    9  C   UNL     1      -9.603   5.121  70.921  1.00  0.00    -0.175 A  
HETATM   10  C   UNL     1      -7.381   4.174  69.614  1.00  0.00    -0.050 A  
HETATM   11  C   UNL     1      -7.328   5.435  70.218  1.00  0.00    -0.067 A  
HETATM   12  C   UNL     1      -9.684   3.863  70.333  1.00  0.00    -0.245 A  
HETATM   13  O   UNL     1     -10.584   5.716  71.650  1.00  0.00    -0.227 OA 
BRANCH   6  14
HETATM   14  C   UNL     1      -8.173   8.446  71.542  1.00  0.00    -0.144 C  
HETATM   15  O   UNL     1      -7.660   8.825  72.592  1.00  0.00    -0.353 OA 
BRANCH  14  16
HETATM   16  C   UNL     1      -8.117   9.349  70.357  1.00  0.00    -0.197 A  
HETATM   17  I   UNL     1     -10.187   8.848  66.641  1.00  0.00    -0.094 I  
HETATM   18  C   UNL     1      -8.137  10.934  67.979  1.00  0.00    -0.119 A  
HETATM   19  C   UNL     1      -8.989   9.063  69.310  1.00  0.00    -0.144 A  
HETATM   20  C   UNL     1      -7.257  11.209  69.052  1.00  0.00    -0.118 A  
HETATM   21  I   UNL     1      -5.971  12.887  69.053  1.00  0.00    -0.105 I  
HETATM   22  C   UNL     1      -8.967   9.798  68.111  1.00  0.00    -0.119 A  
HETATM   23  C   UNL     1      -7.210  10.398  70.199  1.00  0.00    -0.093 A  
BRANCH  18  24
HETATM   24  O   UNL     1      -8.061  11.823  66.921  1.00  0.00    -0.163 OA 
BRANCH  24  25
HETATM   25  C   UNL     1      -9.254  12.557  66.671  1.00  0.00    -0.223 C  
BRANCH  25  26
HETATM   26  C   UNL     1      -9.763  13.445  67.814  1.00  0.00    -0.216 C  
BRANCH  26  27
HETATM   27  N   UNL     1     -11.236  13.649  67.710  1.00  0.00    -0.274 NA 
BRANCH  27  28
HETATM   28  C   UNL     1     -11.664  15.054  67.831  1.00  0.00    -0.289 C  
HETATM   29  C   UNL     1     -10.669  15.994  68.504  1.00  0.00    -0.287 C  
ENDBRANCH  27  28
BRANCH  27  30
HETATM   30  C   UNL     1     -11.782  12.957  66.536  1.00  0.00    -0.393 C  
HETATM   31  C   UNL     1     -12.664  13.837  65.650  1.00  0.00    -0.523 C  
ENDBRANCH  27  30
ENDBRANCH  26  27
ENDBRANCH  25  26
ENDBRANCH  24  25
ENDBRANCH  18  24
ENDBRANCH  14  16
ENDBRANCH   6  14
ENDBRANCH   4   5
ENDBRANCH   3   4
ENDBRANCH   2   3
TORSDOF 11
ENDMDL
MODEL      146
REMARK 921   NORMALIZED FREE ENERGY PREDICTED BY IDOCK:   -4.16 KCAL/MOL
REMARK 922        TOTAL FREE ENERGY PREDICTED BY IDOCK:   -8.99 KCAL/MOL
REMARK 923 INTER-LIGAND FREE ENERGY PREDICTED BY IDOCK:   -7.61 KCAL/MOL
REMARK 924 INTRA-LIGAND FREE ENERGY PREDICTED BY IDOCK:   -1.38 KCAL/MOL
REMARK 927      BINDING AFFINITY PREDICTED BY RF-SCORE:    0.00 PKD
ROOT
HETATM    1  C   UNL     1      -7.064  17.183  69.074  1.00  0.00    -0.232 C  
HETATM    2  C   UNL     1      -8.189  16.223  68.721  1.00  0.00    -0.227 C  
ENDROOT
BRANCH   2   3
HETATM    3  C   UNL     1      -7.736  15.172  67.707  1.00  0.00    -0.164 C  
BRANCH   3   4
HETATM    4  C   UNL     1      -8.340  13.804  68.025  1.00  0.00    -0.171 C  
BRANCH   4   5
HETATM    5  C   UNL     1      -9.179  13.293  66.904  1.00  0.00    -0.241 A  
HETATM    6  C   UNL     1      -9.404  12.033  66.370  1.00  0.00    -0.232 A  
HETATM    7  C   UNL     1     -12.129  13.328  63.463  1.00  0.00    -0.550 A  
HETATM    8  C   UNL     1     -10.424  12.205  65.386  1.00  0.00    -0.305 A  
HETATM    9  C   UNL     1     -10.600  13.581  65.265  1.00  0.00    -0.328 A  
HETATM   10  C   UNL     1     -12.036  11.942  63.593  1.00  0.00    -0.578 A  
HETATM   11  C   UNL     1     -11.199  11.366  64.556  1.00  0.00    -0.251 A  
HETATM   12  C   UNL     1     -11.426  14.182  64.320  1.00  0.00    -0.287 A  
HETATM   13  O   UNL     1      -9.865  14.237  66.202  1.00  0.00    -0.294 OA 
BRANCH   6  14
HETATM   14  C   UNL     1      -8.709  10.834  66.803  1.00  0.00    -0.143 C  
HETATM   15  O   UNL     1      -7.554  10.602  66.454  1.00  0.00    -0.125 OA 
BRANCH  14  16
HETATM   16  C   UNL     1      -9.416   9.820  67.638  1.00  0.00    -0.164 A  
HETATM   17  I   UNL     1     -10.043   5.691  66.689  1.00  0.00    -0.254 I  
HETATM   18  C   UNL     1     -10.744   7.735  69.071  1.00  0.00    -0.103 A  
HETATM   19  C   UNL     1      -9.372   8.502  67.193  1.00  0.00    -0.191 A  
HETATM   20  C   UNL     1     -10.780   9.081  69.507  1.00  0.00    -0.206 A  
HETATM   21  I   UNL     1     -11.704   9.654  71.320  1.00  0.00    -0.454 I  
HETATM   22  C   UNL     1     -10.070   7.477  67.856  1.00  0.00    -0.182 A  
HETATM   23  C   UNL     1     -10.171  10.115  68.774  1.00  0.00    -0.200 A  
BRANCH  18  24
HETATM   24  O   UNL     1     -11.392   6.837  69.902  1.00  0.00    -0.315 OA 
BRANCH  24  25
HETATM   25  C   UNL     1     -10.547   5.860  70.498  1.00  0.00    -0.275 C  
BRANCH  25  26
HETATM   26  C   UNL     1     -10.578   5.771  72.030  1.00  0.00    -0.226 C  
BRANCH  26  27
HETATM   27  N   UNL     1      -9.334   6.342  72.619  1.00  0.00    -0.142 NA 
BRANCH  27  28
HETATM   28  C   UNL     1      -9.529   7.622  73.324  1.00  0.00    -0.259 C  
HETATM   29  C   UNL     1      -8.303   8.174  74.043  1.00  0.00    -0.309 C  
ENDBRANCH  27  28
BRANCH  27  30
HETATM   30  C   UNL     1      -8.611   5.333  73.402  1.00  0.00    -0.116 C  
HETATM   31  C   UNL     1      -7.558   4.563  72.605  1.00  0.00    -0.085 C  
ENDBRANCH  27  30
ENDBRANCH  26  27
ENDBRANCH  25  26
ENDBRANCH  24  25
ENDBRANCH  18  24
ENDBRANCH  14  16
ENDBRANCH   6  14
ENDBRANCH   4   5
ENDBRANCH   3   4
ENDBRANCH   2   3
TORSDOF 11
ENDMDL
MODEL      147
REMARK 921   NORMALIZED FREE ENERGY PREDICTED BY IDOCK:   -4.16 KCAL/MOL
REMARK 922        TOTAL FREE ENERGY PREDICTED BY IDOCK:   -8.98 KCAL/MOL
REMARK 923 INTER-LIGAND FREE ENERGY PREDICTED BY IDOCK:   -7.56 KCAL/MOL
REMARK 924 INTRA-LIGAND FREE ENERGY PREDICTED BY IDOCK:   -1.42 KCAL/MOL
REMARK 927      BINDING AFFINITY PREDICTED BY RF-SCORE:    0.00 PKD
ROOT
HETATM    1  C   UNL     1      -5.879  15.348  69.898  1.00  0.00    -0.141 C  
HETATM    2  C   UNL     1      -7.010  14.378  69.599  1.00  0.00    -0.086 C  
ENDROOT
BRANCH   2   3
HETATM    3  C   UNL     1      -6.913  13.818  68.179  1.00  0.00    -0.120 C  
BRANCH   3   4
HETATM    4  C   UNL     1      -7.939  12.707  67.954  1.00  0.00    -0.156 C  
BRANCH   4   5
HETATM    5  C   UNL     1      -8.998  13.117  66.988  1.00  0.00    -0.228 A  
HETATM    6  C   UNL     1      -9.990  12.432  66.302  1.00  0.00    -0.259 A  
HETATM    7  C   UNL     1     -11.557  15.821  64.401  1.00  0.00    -0.240 A  
HETATM    8  C   UNL     1     -10.761  13.431  65.634  1.00  0.00    -0.283 A  
HETATM    9  C   UNL     1     -10.063  14.622  65.809  1.00  0.00    -0.340 A  
HETATM   10  C   UNL     1     -12.326  14.666  64.253  1.00  0.00    -0.375 A  
HETATM   11  C   UNL     1     -11.949  13.468  64.872  1.00  0.00    -0.410 A  
HETATM   12  C   UNL     1     -10.414  15.828  65.209  1.00  0.00    -0.427 A  
HETATM   13  O   UNL     1      -9.011  14.437  66.650  1.00  0.00    -0.252 OA 
BRANCH   6  14
HETATM   14  C   UNL     1     -10.148  10.989  66.335  1.00  0.00    -0.229 C  
HETATM   15  O   UNL     1     -10.167  10.323  65.303  1.00  0.00    -0.307 OA 
BRANCH  14  16
HETATM   16  C   UNL     1     -10.355  10.289  67.636  1.00  0.00    -0.264 A  
HETATM   17  I   UNL     1      -8.686   6.529  68.829  1.00  0.00    -0.120 I  
HETATM   18  C   UNL     1     -10.634   8.780  70.047  1.00  0.00    -0.223 A  
HETATM   19  C   UNL     1      -9.595   9.144  67.859  1.00  0.00    -0.168 A  
HETATM   20  C   UNL     1     -11.400   9.944  69.802  1.00  0.00    -0.193 A  
HETATM   21  I   UNL     1     -12.721  10.748  71.243  1.00  0.00    -0.461 I  
HETATM   22  C   UNL     1      -9.764   8.361  69.015  1.00  0.00    -0.171 A  
HETATM   23  C   UNL     1     -11.301  10.657  68.594  1.00  0.00    -0.345 A  
BRANCH  18  24
HETATM   24  O   UNL     1     -10.847   8.192  71.282  1.00  0.00    -0.229 OA 
BRANCH  24  25
HETATM   25  C   UNL     1      -9.795   8.378  72.221  1.00  0.00    -0.313 C  
BRANCH  25  26
HETATM   26  C   UNL     1      -9.703   7.351  73.358  1.00  0.00    -0.269 C  
BRANCH  26  27
HETATM   27  N   UNL     1      -9.950   5.973  72.848  1.00  0.00    -0.171 NA 
BRANCH  27  28
HETATM   28  C   UNL     1      -8.741   5.136  72.750  1.00  0.00    -0.119 C  
HETATM   29  C   UNL     1      -7.735   5.292  73.886  1.00  0.00    -0.098 C  
ENDBRANCH  27  28
BRANCH  27  30
HETATM   30  C   UNL     1     -11.060   5.336  73.568  1.00  0.00    -0.256 C  
HETATM   31  C   UNL     1     -11.098   3.813  73.432  1.00  0.00    -0.308 C  
ENDBRANCH  27  30
ENDBRANCH  26  27
ENDBRANCH  25  26
ENDBRANCH  24  25
ENDBRANCH  18  24
ENDBRANCH  14  16
ENDBRANCH   6  14
ENDBRANCH   4   5
ENDBRANCH   3   4
ENDBRANCH   2   3
TORSDOF 11
ENDMDL
MODEL      148
REMARK 921   NORMALIZED FREE ENERGY PREDICTED BY IDOCK:   -4.14 KCAL/MOL
REMARK 922        TOTAL FREE ENERGY PREDICTED BY IDOCK:   -8.96 KCAL/MOL
REMARK 923 INTER-LIGAND FREE ENERGY PREDICTED BY IDOCK:   -7.53 KCAL/MOL
REMARK 924 INTRA-LIGAND FREE ENERGY PREDICTED BY IDOCK:   -1.42 KCAL/MOL
REMARK 927      BINDING AFFINITY PREDICTED BY RF-SCORE:    0.00 PKD
ROOT
HETATM    1  C   UNL     1      -5.953   9.650  67.529  1.00  0.00    -0.051 C  
HETATM    2  C   UNL     1      -5.602   8.681  68.646  1.00  0.00    -0.037 C  
ENDROOT
BRANCH   2   3
HETATM    3  C   UNL     1      -5.703   9.343  70.021  1.00  0.00    -0.035 C  
BRANCH   3   4
HETATM    4  C   UNL     1      -7.012  10.118  70.163  1.00  0.00    -0.157 C  
BRANCH   4   5
HETATM    5  C   UNL     1      -8.121   9.249  70.652  1.00  0.00    -0.176 A  
HETATM    6  C   UNL     1      -9.177   8.600  70.031  1.00  0.00    -0.160 A  
HETATM    7  C   UNL     1     -10.680   6.867  73.536  1.00  0.00    -0.342 A  
HETATM    8  C   UNL     1      -9.806   7.819  71.047  1.00  0.00    -0.186 A  
HETATM    9  C   UNL     1      -9.203   8.206  72.242  1.00  0.00    -0.201 A  
HETATM   10  C   UNL     1     -11.269   6.399  72.360  1.00  0.00    -0.313 A  
HETATM   11  C   UNL     1     -10.835   6.855  71.110  1.00  0.00    -0.270 A  
HETATM   12  C   UNL     1      -9.611   7.768  73.498  1.00  0.00    -0.332 A  
HETATM   13  O   UNL     1      -8.167   9.051  71.999  1.00  0.00    -0.360 OA 
BRANCH   6  14
HETATM   14  C   UNL     1      -9.490   8.730  68.619  1.00  0.00    -0.141 C  
HETATM   15  O   UNL     1      -9.160   7.869  67.807  1.00  0.00    -0.134 OA 
BRANCH  14  16
HETATM   16  C   UNL     1     -10.171   9.958  68.114  1.00  0.00    -0.210 A  
HETATM   17  I   UNL     1     -12.455  12.760  70.411  1.00  0.00     0.075 I  
HETATM   18  C   UNL     1     -11.557  12.338  67.352  1.00  0.00    -0.355 A  
HETATM   19  C   UNL     1     -10.735  10.799  69.070  1.00  0.00    -0.265 A  
HETATM   20  C   UNL     1     -10.980  11.471  66.394  1.00  0.00    -0.284 A  
HETATM   21  I   UNL     1     -10.974  11.917  64.328  1.00  0.00    -0.491 I  
HETATM   22  C   UNL     1     -11.470  11.941  68.705  1.00  0.00    -0.290 A  
HETATM   23  C   UNL     1     -10.344  10.273  66.766  1.00  0.00    -0.288 A  
BRANCH  18  24
HETATM   24  O   UNL     1     -12.148  13.474  66.827  1.00  0.00    -0.389 OA 
BRANCH  24  25
HETATM   25  C   UNL     1     -11.258  14.563  66.608  1.00  0.00    -0.346 C  
BRANCH  25  26
HETATM   26  C   UNL     1     -10.195  14.806  67.688  1.00  0.00    -0.232 C  
BRANCH  26  27
HETATM   27  N   UNL     1      -9.692  16.208  67.629  1.00  0.00    -0.231 NA 
BRANCH  27  28
HETATM   28  C   UNL     1     -10.278  17.018  66.546  1.00  0.00    -0.320 C  
HETATM   29  C   UNL     1     -10.062  18.523  66.654  1.00  0.00    -0.414 C  
ENDBRANCH  27  28
BRANCH  27  30
HETATM   30  C   UNL     1      -9.753  16.845  68.950  1.00  0.00    -0.256 C  
HETATM   31  C   UNL     1     -10.900  16.347  69.830  1.00  0.00    -0.343 C  
ENDBRANCH  27  30
ENDBRANCH  26  27
ENDBRANCH  25  26
ENDBRANCH  24  25
ENDBRANCH  18  24
ENDBRANCH  14  16
ENDBRANCH   6  14
ENDBRANCH   4   5
ENDBRANCH   3   4
ENDBRANCH   2   3
TORSDOF 11
ENDMDL
MODEL      149
REMARK 921   NORMALIZED FREE ENERGY PREDICTED BY IDOCK:   -4.14 KCAL/MOL
REMARK 922        TOTAL FREE ENERGY PREDICTED BY IDOCK:   -8.95 KCAL/MOL
REMARK 923 INTER-LIGAND FREE ENERGY PREDICTED BY IDOCK:   -7.56 KCAL/MOL
REMARK 924 INTRA-LIGAND FREE ENERGY PREDICTED BY IDOCK:   -1.40 KCAL/MOL
REMARK 927      BINDING AFFINITY PREDICTED BY RF-SCORE:    0.00 PKD
ROOT
HETATM    1  C   UNL     1      -6.903  10.534  69.702  1.00  0.00    -0.117 C  
HETATM    2  C   UNL     1      -7.306   9.068  69.698  1.00  0.00    -0.064 C  
ENDROOT
BRANCH   2   3
HETATM    3  C   UNL     1      -7.393   8.510  68.277  1.00  0.00    -0.094 C  
BRANCH   3   4
HETATM    4  C   UNL     1      -8.842   8.217  67.889  1.00  0.00    -0.138 C  
BRANCH   4   5
HETATM    5  C   UNL     1      -9.309   9.101  66.783  1.00  0.00    -0.165 A  
HETATM    6  C   UNL     1     -10.128  10.219  66.728  1.00  0.00    -0.272 A  
HETATM    7  C   UNL     1      -9.747  10.774  62.593  1.00  0.00    -0.246 A  
HETATM    8  C   UNL     1     -10.070  10.677  65.377  1.00  0.00    -0.356 A  
HETATM    9  C   UNL     1      -9.377   9.693  64.677  1.00  0.00    -0.207 A  
HETATM   10  C   UNL     1     -10.389  11.817  63.261  1.00  0.00    -0.446 A  
HETATM   11  C   UNL     1     -10.547  11.790  64.651  1.00  0.00    -0.359 A  
HETATM   12  C   UNL     1      -9.202   9.694  63.297  1.00  0.00    -0.132 A  
HETATM   13  O   UNL     1      -8.895   8.753  65.533  1.00  0.00    -0.178 OA 
BRANCH   6  14
HETATM   14  C   UNL     1     -10.843  10.756  67.872  1.00  0.00    -0.264 C  
HETATM   15  O   UNL     1     -11.684  10.091  68.471  1.00  0.00    -0.020 OA 
BRANCH  14  16
HETATM   16  C   UNL     1     -10.611  12.164  68.305  1.00  0.00    -0.236 A  
HETATM   17  I   UNL     1      -6.995  14.421  67.885  1.00  0.00    -0.206 I  
HETATM   18  C   UNL     1      -9.955  14.837  69.074  1.00  0.00    -0.218 A  
HETATM   19  C   UNL     1      -9.399  12.742  67.935  1.00  0.00    -0.208 A  
HETATM   20  C   UNL     1     -11.179  14.233  69.444  1.00  0.00    -0.273 A  
HETATM   21  I   UNL     1     -12.688  15.289  70.483  1.00  0.00    -0.262 I  
HETATM   22  C   UNL     1      -9.040  14.034  68.356  1.00  0.00    -0.191 A  
HETATM   23  C   UNL     1     -11.480  12.901  69.111  1.00  0.00    -0.360 A  
BRANCH  18  24
HETATM   24  O   UNL     1      -9.808  16.153  69.478  1.00  0.00    -0.246 OA 
BRANCH  24  25
HETATM   25  C   UNL     1     -10.320  17.118  68.567  1.00  0.00    -0.364 C  
BRANCH  25  26
HETATM   26  C   UNL     1      -9.772  17.066  67.135  1.00  0.00    -0.259 C  
BRANCH  26  27
HETATM   27  N   UNL     1      -8.897  18.241  66.860  1.00  0.00    -0.267 NA 
BRANCH  27  28
HETATM   28  C   UNL     1      -7.662  17.918  66.123  1.00  0.00    -0.237 C  
HETATM   29  C   UNL     1      -6.362  18.359  66.785  1.00  0.00    -0.203 C  
ENDBRANCH  27  28
BRANCH  27  30
HETATM   30  C   UNL     1      -9.668  19.348  66.279  1.00  0.00    -0.386 C  
HETATM   31  C   UNL     1      -9.904  20.514  67.239  1.00  0.00    -0.581 C  
ENDBRANCH  27  30
ENDBRANCH  26  27
ENDBRANCH  25  26
ENDBRANCH  24  25
ENDBRANCH  18  24
ENDBRANCH  14  16
ENDBRANCH   6  14
ENDBRANCH   4   5
ENDBRANCH   3   4
ENDBRANCH   2   3
TORSDOF 11
ENDMDL
MODEL      150
REMARK 921   NORMALIZED FREE ENERGY PREDICTED BY IDOCK:   -4.14 KCAL/MOL
REMARK 922        TOTAL FREE ENERGY PREDICTED BY IDOCK:   -8.95 KCAL/MOL
REMARK 923 INTER-LIGAND FREE ENERGY PREDICTED BY IDOCK:   -7.07 KCAL/MOL
REMARK 924 INTRA-LIGAND FREE ENERGY PREDICTED BY IDOCK:   -1.89 KCAL/MOL
REMARK 927      BINDING AFFINITY PREDICTED BY RF-SCORE:    0.00 PKD
ROOT
HETATM    1  C   UNL     1     -13.397  10.559  71.647  1.00  0.00    -0.423 C  
HETATM    2  C   UNL     1     -12.052   9.902  71.384  1.00  0.00    -0.501 C  
ENDROOT
BRANCH   2   3
HETATM    3  C   UNL     1     -11.938   8.549  72.087  1.00  0.00    -0.451 C  
BRANCH   3   4
HETATM    4  C   UNL     1     -10.481   8.214  72.404  1.00  0.00    -0.389 C  
BRANCH   4   5
HETATM    5  C   UNL     1      -9.797   7.564  71.249  1.00  0.00    -0.179 A  
HETATM    6  C   UNL     1      -8.639   7.841  70.538  1.00  0.00    -0.132 A  
HETATM    7  C   UNL     1      -8.969   4.553  67.963  1.00  0.00    -0.136 A  
HETATM    8  C   UNL     1      -8.471   6.753  69.630  1.00  0.00    -0.133 A  
HETATM    9  C   UNL     1      -9.638   6.001  69.726  1.00  0.00    -0.150 A  
HETATM   10  C   UNL     1      -7.756   5.236  67.878  1.00  0.00    -0.088 A  
HETATM   11  C   UNL     1      -7.486   6.328  68.711  1.00  0.00    -0.088 A  
HETATM   12  C   UNL     1      -9.932   4.910  68.914  1.00  0.00    -0.220 A  
HETATM   13  O   UNL     1     -10.428   6.477  70.724  1.00  0.00    -0.210 OA 
BRANCH   6  14
HETATM   14  C   UNL     1      -7.816   9.017  70.759  1.00  0.00    -0.136 C  
HETATM   15  O   UNL     1      -7.046   9.091  71.713  1.00  0.00    -0.272 OA 
BRANCH  14  16
HETATM   16  C   UNL     1      -7.940  10.196  69.853  1.00  0.00    -0.149 A  
HETATM   17  I   UNL     1     -11.385  11.346  67.583  1.00  0.00    -0.252 I  
HETATM   18  C   UNL     1      -8.379  12.382  68.065  1.00  0.00    -0.170 A  
HETATM   19  C   UNL     1      -9.205  10.455  69.330  1.00  0.00    -0.177 A  
HETATM   20  C   UNL     1      -7.100  12.103  68.603  1.00  0.00    -0.103 A  
HETATM   21  I   UNL     1      -5.430  13.346  68.243  1.00  0.00    -0.122 I  
HETATM   22  C   UNL     1      -9.422  11.490  68.404  1.00  0.00    -0.195 A  
HETATM   23  C   UNL     1      -6.874  10.997  69.441  1.00  0.00    -0.119 A  
BRANCH  18  24
HETATM   24  O   UNL     1      -8.438  13.504  67.257  1.00  0.00    -0.187 OA 
BRANCH  24  25
HETATM   25  C   UNL     1      -9.308  14.529  67.721  1.00  0.00    -0.198 C  
BRANCH  25  26
HETATM   26  C   UNL     1      -8.927  15.202  69.047  1.00  0.00    -0.219 C  
BRANCH  26  27
HETATM   27  N   UNL     1     -10.085  15.951  69.612  1.00  0.00    -0.275 NA 
BRANCH  27  28
HETATM   28  C   UNL     1     -10.908  16.646  68.605  1.00  0.00    -0.344 C  
HETATM   29  C   UNL     1     -10.402  18.017  68.169  1.00  0.00    -0.398 C  
ENDBRANCH  27  28
BRANCH  27  30
HETATM   30  C   UNL     1     -10.856  15.111  70.537  1.00  0.00    -0.196 C  
HETATM   31  C   UNL     1     -12.364  15.358  70.491  1.00  0.00    -0.452 C  
ENDBRANCH  27  30
ENDBRANCH  26  27
ENDBRANCH  25  26
ENDBRANCH  24  25
ENDBRANCH  18  24
ENDBRANCH  14  16
ENDBRANCH   6  14
ENDBRANCH   4   5
ENDBRANCH   3   4
ENDBRANCH   2   3
TORSDOF 11
ENDMDL
MODEL      151
REMARK 921   NORMALIZED FREE ENERGY PREDICTED BY IDOCK:   -4.14 KCAL/MOL
REMARK 922        TOTAL FREE ENERGY PREDICTED BY IDOCK:   -8.95 KCAL/MOL
REMARK 923 INTER-LIGAND FREE ENERGY PREDICTED BY IDOCK:   -7.22 KCAL/MOL
REMARK 924 INTRA-LIGAND FREE ENERGY PREDICTED BY IDOCK:   -1.73 KCAL/MOL
REMARK 927      BINDING AFFINITY PREDICTED BY RF-SCORE:    0.00 PKD
ROOT
HETATM    1  C   UNL     1     -12.668   8.980  72.375  1.00  0.00    -0.433 C  
HETATM    2  C   UNL     1     -11.520   8.026  72.664  1.00  0.00    -0.465 C  
ENDROOT
BRANCH   2   3
HETATM    3  C   UNL     1     -11.743   6.661  72.011  1.00  0.00    -0.354 C  
BRANCH   3   4
HETATM    4  C   UNL     1     -11.773   6.779  70.487  1.00  0.00    -0.430 C  
BRANCH   4   5
HETATM    5  C   UNL     1     -10.565   6.173  69.860  1.00  0.00    -0.265 A  
HETATM    6  C   UNL     1      -9.222   6.520  69.827  1.00  0.00    -0.145 A  
HETATM    7  C   UNL     1      -8.025   3.223  67.538  1.00  0.00    -0.077 A  
HETATM    8  C   UNL     1      -8.559   5.446  69.162  1.00  0.00    -0.102 A  
HETATM    9  C   UNL     1      -9.572   4.625  68.674  1.00  0.00    -0.162 A  
HETATM   10  C   UNL     1      -6.974   3.977  68.061  1.00  0.00    -0.051 A  
HETATM   11  C   UNL     1      -7.223   5.082  68.884  1.00  0.00    -0.057 A  
HETATM   12  C   UNL     1      -9.354   3.520  67.857  1.00  0.00    -0.238 A  
HETATM   13  O   UNL     1     -10.783   5.052  69.118  1.00  0.00    -0.046 OA 
BRANCH   6  14
HETATM   14  C   UNL     1      -8.689   7.743  70.401  1.00  0.00    -0.139 C  
HETATM   15  O   UNL     1      -8.256   7.776  71.550  1.00  0.00    -0.099 OA 
BRANCH  14  16
HETATM   16  C   UNL     1      -8.715   9.011  69.615  1.00  0.00    -0.143 A  
HETATM   17  I   UNL     1     -11.830  11.950  69.576  1.00  0.00    -0.293 I  
HETATM   18  C   UNL     1      -8.970  11.472  68.185  1.00  0.00    -0.172 A  
HETATM   19  C   UNL     1      -9.768   9.885  69.871  1.00  0.00    -0.274 A  
HETATM   20  C   UNL     1      -7.908  10.570  67.936  1.00  0.00    -0.105 A  
HETATM   21  I   UNL     1      -6.346  11.015  66.584  1.00  0.00    -0.107 I  
HETATM   22  C   UNL     1      -9.937  11.070  69.134  1.00  0.00    -0.121 A  
HETATM   23  C   UNL     1      -7.812   9.336  68.602  1.00  0.00    -0.089 A  
BRANCH  18  24
HETATM   24  O   UNL     1      -8.925  12.643  67.449  1.00  0.00    -0.173 OA 
BRANCH  24  25
HETATM   25  C   UNL     1     -10.104  12.926  66.705  1.00  0.00    -0.245 C  
BRANCH  25  26
HETATM   26  C   UNL     1     -10.581  11.836  65.736  1.00  0.00    -0.268 C  
BRANCH  26  27
HETATM   27  N   UNL     1     -11.751  12.307  64.943  1.00  0.00    -0.358 NA 
BRANCH  27  28
HETATM   28  C   UNL     1     -12.302  13.601  65.385  1.00  0.00    -0.476 C  
HETATM   29  C   UNL     1     -12.246  14.729  64.360  1.00  0.00    -0.447 C  
ENDBRANCH  27  28
BRANCH  27  30
HETATM   30  C   UNL     1     -11.475  12.237  63.503  1.00  0.00    -0.476 C  
HETATM   31  C   UNL     1     -10.130  11.598  63.157  1.00  0.00    -0.409 C  
ENDBRANCH  27  30
ENDBRANCH  26  27
ENDBRANCH  25  26
ENDBRANCH  24  25
ENDBRANCH  18  24
ENDBRANCH  14  16
ENDBRANCH   6  14
ENDBRANCH   4   5
ENDBRANCH   3   4
ENDBRANCH   2   3
TORSDOF 11
ENDMDL
MODEL      152
REMARK 921   NORMALIZED FREE ENERGY PREDICTED BY IDOCK:   -4.13 KCAL/MOL
REMARK 922        TOTAL FREE ENERGY PREDICTED BY IDOCK:   -8.93 KCAL/MOL
REMARK 923 INTER-LIGAND FREE ENERGY PREDICTED BY IDOCK:   -7.39 KCAL/MOL
REMARK 924 INTRA-LIGAND FREE ENERGY PREDICTED BY IDOCK:   -1.54 KCAL/MOL
REMARK 927      BINDING AFFINITY PREDICTED BY RF-SCORE:    0.00 PKD
ROOT
HETATM    1  C   UNL     1      -9.756   7.457  66.241  1.00  0.00    -0.083 C  
HETATM    2  C   UNL     1      -8.646   8.001  65.356  1.00  0.00    -0.138 C  
ENDROOT
BRANCH   2   3
HETATM    3  C   UNL     1      -7.587   8.744  66.172  1.00  0.00    -0.094 C  
BRANCH   3   4
HETATM    4  C   UNL     1      -7.469  10.200  65.722  1.00  0.00    -0.131 C  
BRANCH   4   5
HETATM    5  C   UNL     1      -8.790  10.891  65.724  1.00  0.00    -0.191 A  
HETATM    6  C   UNL     1      -9.550  11.507  66.707  1.00  0.00    -0.203 A  
HETATM    7  C   UNL     1     -12.656  12.645  64.137  1.00  0.00    -0.442 A  
HETATM    8  C   UNL     1     -10.661  12.093  66.029  1.00  0.00    -0.308 A  
HETATM    9  C   UNL     1     -10.591  11.623  64.721  1.00  0.00    -0.304 A  
HETATM   10  C   UNL     1     -12.734  13.193  65.418  1.00  0.00    -0.422 A  
HETATM   11  C   UNL     1     -11.740  12.937  66.370  1.00  0.00    -0.454 A  
HETATM   12  C   UNL     1     -11.562  11.863  63.753  1.00  0.00    -0.555 A  
HETATM   13  O   UNL     1      -9.444  10.918  64.531  1.00  0.00    -0.217 OA 
BRANCH   6  14
HETATM   14  C   UNL     1      -9.195  11.520  68.115  1.00  0.00    -0.181 C  
HETATM   15  O   UNL     1      -8.441  12.372  68.578  1.00  0.00    -0.150 OA 
BRANCH  14  16
HETATM   16  C   UNL     1      -9.698  10.449  69.023  1.00  0.00    -0.216 A  
HETATM   17  I   UNL     1      -8.020   6.547  69.575  1.00  0.00    -0.120 I  
HETATM   18  C   UNL     1     -10.506   8.264  70.678  1.00  0.00    -0.203 A  
HETATM   19  C   UNL     1      -8.907   9.310  69.147  1.00  0.00    -0.141 A  
HETATM   20  C   UNL     1     -11.299   9.427  70.538  1.00  0.00    -0.274 A  
HETATM   21  I   UNL     1     -13.083   9.714  71.636  1.00  0.00    -0.540 I  
HETATM   22  C   UNL     1      -9.320   8.205  69.911  1.00  0.00    -0.159 A  
HETATM   23  C   UNL     1     -10.928  10.479  69.683  1.00  0.00    -0.333 A  
BRANCH  18  24
HETATM   24  O   UNL     1     -11.008   7.318  71.556  1.00  0.00    -0.232 OA 
BRANCH  24  25
HETATM   25  C   UNL     1     -10.096   6.891  72.560  1.00  0.00    -0.172 C  
BRANCH  25  26
HETATM   26  C   UNL     1     -10.631   5.884  73.587  1.00  0.00    -0.272 C  
BRANCH  26  27
HETATM   27  N   UNL     1      -9.955   4.565  73.437  1.00  0.00    -0.145 NA 
BRANCH  27  28
HETATM   28  C   UNL     1     -10.241   3.609  74.522  1.00  0.00    -0.194 C  
HETATM   29  C   UNL     1     -10.925   2.314  74.099  1.00  0.00    -0.206 C  
ENDBRANCH  27  28
BRANCH  27  30
HETATM   30  C   UNL     1     -10.160   4.018  72.090  1.00  0.00    -0.163 C  
HETATM   31  C   UNL     1      -8.943   3.286  71.523  1.00  0.00    -0.153 C  
ENDBRANCH  27  30
ENDBRANCH  26  27
ENDBRANCH  25  26
ENDBRANCH  24  25
ENDBRANCH  18  24
ENDBRANCH  14  16
ENDBRANCH   6  14
ENDBRANCH   4   5
ENDBRANCH   3   4
ENDBRANCH   2   3
TORSDOF 11
ENDMDL
MODEL      153
REMARK 921   NORMALIZED FREE ENERGY PREDICTED BY IDOCK:   -4.11 KCAL/MOL
REMARK 922        TOTAL FREE ENERGY PREDICTED BY IDOCK:   -8.89 KCAL/MOL
REMARK 923 INTER-LIGAND FREE ENERGY PREDICTED BY IDOCK:   -7.54 KCAL/MOL
REMARK 924 INTRA-LIGAND FREE ENERGY PREDICTED BY IDOCK:   -1.35 KCAL/MOL
REMARK 927      BINDING AFFINITY PREDICTED BY RF-SCORE:    0.00 PKD
ROOT
HETATM    1  C   UNL     1     -13.364  15.348  72.091  1.00  0.00    -0.541 C  
HETATM    2  C   UNL     1     -13.512  15.125  70.594  1.00  0.00    -0.243 C  
ENDROOT
BRANCH   2   3
HETATM    3  C   UNL     1     -12.153  14.963  69.911  1.00  0.00    -0.379 C  
BRANCH   3   4
HETATM    4  C   UNL     1     -11.765  13.489  69.802  1.00  0.00    -0.363 C  
BRANCH   4   5
HETATM    5  C   UNL     1     -11.518  13.083  68.389  1.00  0.00    -0.310 A  
HETATM    6  C   UNL     1     -10.506  12.378  67.755  1.00  0.00    -0.231 A  
HETATM    7  C   UNL     1     -12.225  12.583  63.940  1.00  0.00    -0.590 A  
HETATM    8  C   UNL     1     -10.933  12.217  66.402  1.00  0.00    -0.327 A  
HETATM    9  C   UNL     1     -12.076  13.002  66.274  1.00  0.00    -0.386 A  
HETATM   10  C   UNL     1     -11.123  11.732  64.033  1.00  0.00    -0.461 A  
HETATM   11  C   UNL     1     -10.475  11.529  65.257  1.00  0.00    -0.336 A  
HETATM   12  C   UNL     1     -12.743  13.220  65.073  1.00  0.00    -0.438 A  
HETATM   13  O   UNL     1     -12.443  13.505  67.483  1.00  0.00    -0.154 OA 
BRANCH   6  14
HETATM   14  C   UNL     1      -9.301  11.917  68.420  1.00  0.00    -0.184 C  
HETATM   15  O   UNL     1      -8.346  12.666  68.607  1.00  0.00    -0.093 OA 
BRANCH  14  16
HETATM   16  C   UNL     1      -9.177  10.490  68.838  1.00  0.00    -0.188 A  
HETATM   17  I   UNL     1      -7.836   7.212  66.430  1.00  0.00    -0.122 I  
HETATM   18  C   UNL     1      -8.884   7.710  69.430  1.00  0.00    -0.139 A  
HETATM   19  C   UNL     1      -8.580   9.621  67.929  1.00  0.00    -0.122 A  
HETATM   20  C   UNL     1      -9.490   8.607  70.340  1.00  0.00    -0.170 A  
HETATM   21  I   UNL     1     -10.115   8.006  72.268  1.00  0.00    -0.390 I  
HETATM   22  C   UNL     1      -8.483   8.241  68.183  1.00  0.00    -0.132 A  
HETATM   23  C   UNL     1      -9.682   9.964  70.028  1.00  0.00    -0.274 A  
BRANCH  18  24
HETATM   24  O   UNL     1      -8.769   6.407  69.884  1.00  0.00    -0.139 OA 
BRANCH  24  25
HETATM   25  C   UNL     1      -9.832   5.544  69.497  1.00  0.00    -0.189 C  
BRANCH  25  26
HETATM   26  C   UNL     1      -9.453   4.343  68.620  1.00  0.00    -0.155 C  
BRANCH  26  27
HETATM   27  N   UNL     1      -8.849   3.257  69.442  1.00  0.00    -0.084 NA 
BRANCH  27  28
HETATM   28  C   UNL     1      -7.398   3.086  69.249  1.00  0.00    -0.045 C  
HETATM   29  C   UNL     1      -6.808   3.776  68.024  1.00  0.00    -0.047 C  
ENDBRANCH  27  28
BRANCH  27  30
HETATM   30  C   UNL     1      -9.255   3.372  70.849  1.00  0.00    -0.130 C  
HETATM   31  C   UNL     1      -9.873   2.098  71.424  1.00  0.00    -0.181 C  
ENDBRANCH  27  30
ENDBRANCH  26  27
ENDBRANCH  25  26
ENDBRANCH  24  25
ENDBRANCH  18  24
ENDBRANCH  14  16
ENDBRANCH   6  14
ENDBRANCH   4   5
ENDBRANCH   3   4
ENDBRANCH   2   3
TORSDOF 11
ENDMDL
MODEL      154
REMARK 921   NORMALIZED FREE ENERGY PREDICTED BY IDOCK:   -4.09 KCAL/MOL
REMARK 922        TOTAL FREE ENERGY PREDICTED BY IDOCK:   -8.87 KCAL/MOL
REMARK 923 INTER-LIGAND FREE ENERGY PREDICTED BY IDOCK:   -7.76 KCAL/MOL
REMARK 924 INTRA-LIGAND FREE ENERGY PREDICTED BY IDOCK:   -1.11 KCAL/MOL
REMARK 927      BINDING AFFINITY PREDICTED BY RF-SCORE:    0.00 PKD
ROOT
HETATM    1  C   UNL     1     -12.060  14.406  64.997  1.00  0.00    -0.417 C  
HETATM    2  C   UNL     1     -10.888  14.795  65.884  1.00  0.00    -0.331 C  
ENDROOT
BRANCH   2   3
HETATM    3  C   UNL     1     -10.046  13.579  66.271  1.00  0.00    -0.298 C  
BRANCH   3   4
HETATM    4  C   UNL     1      -9.518  13.707  67.699  1.00  0.00    -0.221 C  
BRANCH   4   5
HETATM    5  C   UNL     1     -10.559  13.360  68.709  1.00  0.00    -0.210 A  
HETATM    6  C   UNL     1     -11.301  12.218  68.969  1.00  0.00    -0.333 A  
HETATM    7  C   UNL     1     -13.348  13.828  72.251  1.00  0.00    -0.617 A  
HETATM    8  C   UNL     1     -12.034  12.495  70.163  1.00  0.00    -0.377 A  
HETATM    9  C   UNL     1     -11.827  13.846  70.425  1.00  0.00    -0.265 A  
HETATM   10  C   UNL     1     -13.533  12.457  72.068  1.00  0.00    -0.460 A  
HETATM   11  C   UNL     1     -12.875  11.775  71.039  1.00  0.00    -0.309 A  
HETATM   12  C   UNL     1     -12.465  14.550  71.441  1.00  0.00    -0.423 A  
HETATM   13  O   UNL     1     -10.914  14.363  69.560  1.00  0.00    -0.246 OA 
BRANCH   6  14
HETATM   14  C   UNL     1     -11.261  11.022  68.148  1.00  0.00    -0.302 C  
HETATM   15  O   UNL     1     -11.709  11.014  67.004  1.00  0.00    -0.399 OA 
BRANCH  14  16
HETATM   16  C   UNL     1     -10.724   9.748  68.709  1.00  0.00    -0.243 A  
HETATM   17  I   UNL     1     -10.487   5.960  66.724  1.00  0.00    -0.266 I  
HETATM   18  C   UNL     1      -9.760   7.209  69.597  1.00  0.00    -0.158 A  
HETATM   19  C   UNL     1     -10.613   8.674  67.830  1.00  0.00    -0.249 A  
HETATM   20  C   UNL     1      -9.882   8.310  70.477  1.00  0.00    -0.183 A  
HETATM   21  I   UNL     1      -9.244   8.221  72.490  1.00  0.00    -0.255 I  
HETATM   22  C   UNL     1     -10.196   7.404  68.267  1.00  0.00    -0.183 A  
HETATM   23  C   UNL     1     -10.406   9.544  70.052  1.00  0.00    -0.284 A  
BRANCH  18  24
HETATM   24  O   UNL     1      -9.229   6.064  70.167  1.00  0.00    -0.151 OA 
BRANCH  24  25
HETATM   25  C   UNL     1      -7.918   5.732  69.727  1.00  0.00    -0.100 C  
BRANCH  25  26
HETATM   26  C   UNL     1      -7.723   4.318  69.162  1.00  0.00    -0.054 C  
BRANCH  26  27
HETATM   27  N   UNL     1      -7.900   3.292  70.228  1.00  0.00    -0.043 NA 
BRANCH  27  28
HETATM   28  C   UNL     1      -8.871   2.234  69.896  1.00  0.00    -0.079 C  
HETATM   29  C   UNL     1      -9.343   2.201  68.446  1.00  0.00    -0.250 C  
ENDBRANCH  27  28
BRANCH  27  30
HETATM   30  C   UNL     1      -6.603   2.788  70.695  1.00  0.00    -0.032 C  
HETATM   31  C   UNL     1      -6.673   2.018  72.014  1.00  0.00    -0.018 C  
ENDBRANCH  27  30
ENDBRANCH  26  27
ENDBRANCH  25  26
ENDBRANCH  24  25
ENDBRANCH  18  24
ENDBRANCH  14  16
ENDBRANCH   6  14
ENDBRANCH   4   5
ENDBRANCH   3   4
ENDBRANCH   2   3
TORSDOF 11
ENDMDL
MODEL      155
REMARK 921   NORMALIZED FREE ENERGY PREDICTED BY IDOCK:   -4.08 KCAL/MOL
REMARK 922        TOTAL FREE ENERGY PREDICTED BY IDOCK:   -8.85 KCAL/MOL
REMARK 923 INTER-LIGAND FREE ENERGY PREDICTED BY IDOCK:   -7.72 KCAL/MOL
REMARK 924 INTRA-LIGAND FREE ENERGY PREDICTED BY IDOCK:   -1.13 KCAL/MOL
REMARK 927      BINDING AFFINITY PREDICTED BY RF-SCORE:    0.00 PKD
ROOT
HETATM    1  C   UNL     1     -12.181  13.466  63.419  1.00  0.00    -0.419 C  
HETATM    2  C   UNL     1     -11.896  11.974  63.479  1.00  0.00    -0.587 C  
ENDROOT
BRANCH   2   3
HETATM    3  C   UNL     1     -10.665  11.669  64.335  1.00  0.00    -0.387 C  
BRANCH   3   4
HETATM    4  C   UNL     1     -11.062  11.360  65.778  1.00  0.00    -0.217 C  
BRANCH   4   5
HETATM    5  C   UNL     1     -10.665  12.455  66.709  1.00  0.00    -0.234 A  
HETATM    6  C   UNL     1      -9.739  12.554  67.737  1.00  0.00    -0.202 A  
HETATM    7  C   UNL     1     -10.568  16.564  68.620  1.00  0.00    -0.316 A  
HETATM    8  C   UNL     1      -9.759  13.921  68.148  1.00  0.00    -0.222 A  
HETATM    9  C   UNL     1     -10.830  14.499  67.472  1.00  0.00    -0.289 A  
HETATM   10  C   UNL     1      -9.447  16.048  69.270  1.00  0.00    -0.245 A  
HETATM   11  C   UNL     1      -9.022  14.735  69.036  1.00  0.00    -0.135 A  
HETATM   12  C   UNL     1     -11.273  15.801  67.682  1.00  0.00    -0.246 A  
HETATM   13  O   UNL     1     -11.361  13.619  66.583  1.00  0.00    -0.309 OA 
BRANCH   6  14
HETATM   14  C   UNL     1      -8.939  11.440  68.215  1.00  0.00    -0.175 C  
HETATM   15  O   UNL     1      -7.826  11.206  67.753  1.00  0.00    -0.109 OA 
BRANCH  14  16
HETATM   16  C   UNL     1      -9.489  10.514  69.247  1.00  0.00    -0.191 A  
HETATM   17  I   UNL     1      -7.674   6.920  70.707  1.00  0.00    -0.094 I  
HETATM   18  C   UNL     1     -10.371   8.606  71.183  1.00  0.00    -0.230 A  
HETATM   19  C   UNL     1      -8.656   9.482  69.670  1.00  0.00    -0.189 A  
HETATM   20  C   UNL     1     -11.205   9.659  70.739  1.00  0.00    -0.336 A  
HETATM   21  I   UNL     1     -13.124   9.998  71.557  1.00  0.00    -0.498 I  
HETATM   22  C   UNL     1      -9.098   8.503  70.578  1.00  0.00    -0.156 A  
HETATM   23  C   UNL     1     -10.791  10.566  69.748  1.00  0.00    -0.335 A  
BRANCH  18  24
HETATM   24  O   UNL     1     -10.924   7.798  72.161  1.00  0.00    -0.235 OA 
BRANCH  24  25
HETATM   25  C   UNL     1     -10.896   6.405  71.872  1.00  0.00    -0.240 C  
BRANCH  25  26
HETATM   26  C   UNL     1     -11.634   5.486  72.855  1.00  0.00    -0.218 C  
BRANCH  26  27
HETATM   27  N   UNL     1     -10.674   4.603  73.575  1.00  0.00    -0.235 NA 
BRANCH  27  28
HETATM   28  C   UNL     1     -10.019   3.595  72.721  1.00  0.00    -0.154 C  
HETATM   29  C   UNL     1     -10.569   2.177  72.832  1.00  0.00    -0.240 C  
ENDBRANCH  27  28
BRANCH  27  30
HETATM   30  C   UNL     1      -9.742   5.391  74.391  1.00  0.00    -0.181 C  
HETATM   31  C   UNL     1      -8.273   5.012  74.198  1.00  0.00    -0.100 C  
ENDBRANCH  27  30
ENDBRANCH  26  27
ENDBRANCH  25  26
ENDBRANCH  24  25
ENDBRANCH  18  24
ENDBRANCH  14  16
ENDBRANCH   6  14
ENDBRANCH   4   5
ENDBRANCH   3   4
ENDBRANCH   2   3
TORSDOF 11
ENDMDL
MODEL      156
REMARK 921   NORMALIZED FREE ENERGY PREDICTED BY IDOCK:   -4.07 KCAL/MOL
REMARK 922        TOTAL FREE ENERGY PREDICTED BY IDOCK:   -8.83 KCAL/MOL
REMARK 923 INTER-LIGAND FREE ENERGY PREDICTED BY IDOCK:   -7.85 KCAL/MOL
REMARK 924 INTRA-LIGAND FREE ENERGY PREDICTED BY IDOCK:   -0.98 KCAL/MOL
REMARK 927      BINDING AFFINITY PREDICTED BY RF-SCORE:    0.00 PKD
ROOT
HETATM    1  C   UNL     1      -5.192  15.430  70.379  1.00  0.00    -0.134 C  
HETATM    2  C   UNL     1      -6.422  15.515  69.488  1.00  0.00    -0.165 C  
ENDROOT
BRANCH   2   3
HETATM    3  C   UNL     1      -6.071  15.276  68.019  1.00  0.00    -0.157 C  
BRANCH   3   4
HETATM    4  C   UNL     1      -7.329  15.248  67.151  1.00  0.00    -0.178 C  
BRANCH   4   5
HETATM    5  C   UNL     1      -7.962  16.594  67.046  1.00  0.00    -0.196 A  
HETATM    6  C   UNL     1      -9.194  17.044  66.596  1.00  0.00    -0.277 A  
HETATM    7  C   UNL     1      -8.462  21.082  67.434  1.00  0.00    -0.009 A  
HETATM    8  C   UNL     1      -9.228  18.441  66.888  1.00  0.00    -0.287 A  
HETATM    9  C   UNL     1      -7.944  18.766  67.314  1.00  0.00    -0.239 A  
HETATM   10  C   UNL     1      -9.779  20.795  67.076  1.00  0.00    -0.391 A  
HETATM   11  C   UNL     1     -10.181  19.480  66.812  1.00  0.00    -0.543 A  
HETATM   12  C   UNL     1      -7.516  20.062  67.586  1.00  0.00    -0.327 A  
HETATM   13  O   UNL     1      -7.186  17.644  67.434  1.00  0.00    -0.176 OA 
BRANCH   6  14
HETATM   14  C   UNL     1     -10.194  16.187  65.984  1.00  0.00    -0.356 C  
HETATM   15  O   UNL     1     -10.661  16.438  64.876  1.00  0.00    -0.677 OA 
BRANCH  14  16
HETATM   16  C   UNL     1     -10.723  15.007  66.726  1.00  0.00    -0.308 A  
HETATM   17  I   UNL     1     -10.973  10.974  65.306  1.00  0.00     0.281 I  
HETATM   18  C   UNL     1     -11.708  12.627  67.965  1.00  0.00    -0.350 A  
HETATM   19  C   UNL     1     -10.572  13.764  66.117  1.00  0.00    -0.291 A  
HETATM   20  C   UNL     1     -11.855  13.899  68.568  1.00  0.00    -0.366 A  
HETATM   21  I   UNL     1     -12.696  14.143  70.492  1.00  0.00    -0.127 I  
HETATM   22  C   UNL     1     -11.104  12.594  66.688  1.00  0.00    -0.274 A  
HETATM   23  C   UNL     1     -11.418  15.075  67.935  1.00  0.00    -0.354 A  
BRANCH  18  24
HETATM   24  O   UNL     1     -12.191  11.568  68.714  1.00  0.00    -0.457 OA 
BRANCH  24  25
HETATM   25  C   UNL     1     -11.246  10.986  69.604  1.00  0.00    -0.278 C  
BRANCH  25  26
HETATM   26  C   UNL     1     -10.274   9.965  68.999  1.00  0.00    -0.200 C  
BRANCH  26  27
HETATM   27  N   UNL     1      -9.609   9.168  70.069  1.00  0.00    -0.184 NA 
BRANCH  27  28
HETATM   28  C   UNL     1     -10.401   9.032  71.305  1.00  0.00    -0.313 C  
HETATM   29  C   UNL     1     -11.281   7.790  71.393  1.00  0.00    -0.276 C  
ENDBRANCH  27  28
BRANCH  27  30
HETATM   30  C   UNL     1      -9.104   7.894  69.541  1.00  0.00    -0.149 C  
HETATM   31  C   UNL     1      -7.595   7.708  69.703  1.00  0.00    -0.093 C  
ENDBRANCH  27  30
ENDBRANCH  26  27
ENDBRANCH  25  26
ENDBRANCH  24  25
ENDBRANCH  18  24
ENDBRANCH  14  16
ENDBRANCH   6  14
ENDBRANCH   4   5
ENDBRANCH   3   4
ENDBRANCH   2   3
TORSDOF 11
ENDMDL
MODEL      157
REMARK 921   NORMALIZED FREE ENERGY PREDICTED BY IDOCK:   -4.05 KCAL/MOL
REMARK 922        TOTAL FREE ENERGY PREDICTED BY IDOCK:   -8.81 KCAL/MOL
REMARK 923 INTER-LIGAND FREE ENERGY PREDICTED BY IDOCK:   -7.43 KCAL/MOL
REMARK 924 INTRA-LIGAND FREE ENERGY PREDICTED BY IDOCK:   -1.38 KCAL/MOL
REMARK 927      BINDING AFFINITY PREDICTED BY RF-SCORE:    0.00 PKD
ROOT
HETATM    1  C   UNL     1      -9.824   7.826  66.494  1.00  0.00    -0.255 C  
HETATM    2  C   UNL     1     -10.963   6.965  67.017  1.00  0.00    -0.404 C  
ENDROOT
BRANCH   2   3
HETATM    3  C   UNL     1     -10.555   5.495  67.125  1.00  0.00    -0.313 C  
BRANCH   3   4
HETATM    4  C   UNL     1      -9.198   5.350  67.813  1.00  0.00    -0.115 C  
BRANCH   4   5
HETATM    5  C   UNL     1      -9.332   5.267  69.295  1.00  0.00    -0.123 A  
HETATM    6  C   UNL     1      -9.064   6.144  70.335  1.00  0.00    -0.158 A  
HETATM    7  C   UNL     1     -10.353   3.557  73.367  1.00  0.00    -0.239 A  
HETATM    8  C   UNL     1      -9.539   5.502  71.518  1.00  0.00    -0.188 A  
HETATM    9  C   UNL     1      -9.880   4.209  71.131  1.00  0.00    -0.174 A  
HETATM   10  C   UNL     1     -10.087   4.860  73.791  1.00  0.00    -0.212 A  
HETATM   11  C   UNL     1      -9.692   5.845  72.879  1.00  0.00    -0.164 A  
HETATM   12  C   UNL     1     -10.279   3.210  72.014  1.00  0.00    -0.108 A  
HETATM   13  O   UNL     1      -9.780   4.076  69.782  1.00  0.00    -0.204 OA 
BRANCH   6  14
HETATM   14  C   UNL     1      -8.442   7.444  70.157  1.00  0.00    -0.137 C  
HETATM   15  O   UNL     1      -7.222   7.581  70.191  1.00  0.00    -0.066 OA 
BRANCH  14  16
HETATM   16  C   UNL     1      -9.289   8.661  69.989  1.00  0.00    -0.165 A  
HETATM   17  I   UNL     1      -8.367  12.135  67.659  1.00  0.00    -0.200 I  
HETATM   18  C   UNL     1     -10.744  11.081  69.551  1.00  0.00    -0.183 A  
HETATM   19  C   UNL     1      -8.850   9.607  69.066  1.00  0.00    -0.147 A  
HETATM   20  C   UNL     1     -11.173  10.111  70.487  1.00  0.00    -0.336 A  
HETATM   21  I   UNL     1     -12.991  10.296  71.550  1.00  0.00    -0.524 I  
HETATM   22  C   UNL     1      -9.525  10.827  68.884  1.00  0.00    -0.181 A  
HETATM   23  C   UNL     1     -10.430   8.945  70.741  1.00  0.00    -0.283 A  
BRANCH  18  24
HETATM   24  O   UNL     1     -11.584  12.173  69.417  1.00  0.00    -0.282 OA 
BRANCH  24  25
HETATM   25  C   UNL     1     -11.727  12.657  68.088  1.00  0.00    -0.347 C  
BRANCH  25  26
HETATM   26  C   UNL     1     -11.886  14.175  67.925  1.00  0.00    -0.370 C  
BRANCH  26  27
HETATM   27  N   UNL     1     -10.659  14.888  68.380  1.00  0.00    -0.239 NA 
BRANCH  27  28
HETATM   28  C   UNL     1     -10.134  15.870  67.414  1.00  0.00    -0.252 C  
HETATM   29  C   UNL     1     -10.374  17.335  67.763  1.00  0.00    -0.356 C  
ENDBRANCH  27  28
BRANCH  27  30
HETATM   30  C   UNL     1     -10.831  15.420  69.738  1.00  0.00    -0.288 C  
HETATM   31  C   UNL     1     -12.278  15.411  70.231  1.00  0.00    -0.414 C  
ENDBRANCH  27  30
ENDBRANCH  26  27
ENDBRANCH  25  26
ENDBRANCH  24  25
ENDBRANCH  18  24
ENDBRANCH  14  16
ENDBRANCH   6  14
ENDBRANCH   4   5
ENDBRANCH   3   4
ENDBRANCH   2   3
TORSDOF 11
ENDMDL
MODEL      158
REMARK 921   NORMALIZED FREE ENERGY PREDICTED BY IDOCK:   -4.03 KCAL/MOL
REMARK 922        TOTAL FREE ENERGY PREDICTED BY IDOCK:   -8.77 KCAL/MOL
REMARK 923 INTER-LIGAND FREE ENERGY PREDICTED BY IDOCK:   -6.92 KCAL/MOL
REMARK 924 INTRA-LIGAND FREE ENERGY PREDICTED BY IDOCK:   -1.85 KCAL/MOL
REMARK 927      BINDING AFFINITY PREDICTED BY RF-SCORE:    0.00 PKD
ROOT
HETATM    1  C   UNL     1     -13.028  10.416  70.487  1.00  0.00    -0.280 C  
HETATM    2  C   UNL     1     -11.593  10.449  70.989  1.00  0.00    -0.384 C  
ENDROOT
BRANCH   2   3
HETATM    3  C   UNL     1     -11.190   9.122  71.634  1.00  0.00    -0.447 C  
BRANCH   3   4
HETATM    4  C   UNL     1     -12.071   7.977  71.132  1.00  0.00    -0.284 C  
BRANCH   4   5
HETATM    5  C   UNL     1     -11.260   6.829  70.637  1.00  0.00    -0.312 A  
HETATM    6  C   UNL     1     -10.651   6.534  69.427  1.00  0.00    -0.291 A  
HETATM    7  C   UNL     1      -9.033   2.881  70.686  1.00  0.00    -0.168 A  
HETATM    8  C   UNL     1      -9.913   5.332  69.645  1.00  0.00    -0.302 A  
HETATM    9  C   UNL     1     -10.287   4.888  70.910  1.00  0.00    -0.155 A  
HETATM   10  C   UNL     1      -8.578   3.317  69.442  1.00  0.00    -0.111 A  
HETATM   11  C   UNL     1      -8.998   4.544  68.913  1.00  0.00    -0.151 A  
HETATM   12  C   UNL     1      -9.884   3.675  71.462  1.00  0.00    -0.227 A  
HETATM   13  O   UNL     1     -11.082   5.807  71.520  1.00  0.00    -0.265 OA 
BRANCH   6  14
HETATM   14  C   UNL     1     -10.777   7.356  68.236  1.00  0.00    -0.099 C  
HETATM   15  O   UNL     1     -11.350   6.942  67.231  1.00  0.00    -0.263 OA 
BRANCH  14  16
HETATM   16  C   UNL     1     -10.151   8.709  68.191  1.00  0.00    -0.236 A  
HETATM   17  I   UNL     1     -11.369  12.028  65.774  1.00  0.00    -0.237 I  
HETATM   18  C   UNL     1      -9.092  11.351  67.943  1.00  0.00    -0.164 A  
HETATM   19  C   UNL     1     -10.807   9.678  67.436  1.00  0.00    -0.242 A  
HETATM   20  C   UNL     1      -8.438  10.354  68.703  1.00  0.00    -0.129 A  
HETATM   21  I   UNL     1      -6.695  10.756  69.829  1.00  0.00    -0.068 I  
HETATM   22  C   UNL     1     -10.266  10.964  67.258  1.00  0.00    -0.205 A  
HETATM   23  C   UNL     1      -8.931   9.040  68.783  1.00  0.00    -0.137 A  
BRANCH  18  24
HETATM   24  O   UNL     1      -8.482  12.593  67.963  1.00  0.00    -0.159 OA 
BRANCH  24  25
HETATM   25  C   UNL     1      -9.338  13.675  68.311  1.00  0.00    -0.204 C  
BRANCH  25  26
HETATM   26  C   UNL     1      -8.679  14.873  69.008  1.00  0.00    -0.177 C  
BRANCH  26  27
HETATM   27  N   UNL     1      -8.920  16.128  68.242  1.00  0.00    -0.185 NA 
BRANCH  27  28
HETATM   28  C   UNL     1     -10.154  16.842  68.619  1.00  0.00    -0.279 C  
HETATM   29  C   UNL     1     -10.827  16.367  69.902  1.00  0.00    -0.333 C  
ENDBRANCH  27  28
BRANCH  27  30
HETATM   30  C   UNL     1      -7.721  16.976  68.230  1.00  0.00    -0.209 C  
HETATM   31  C   UNL     1      -6.736  16.677  69.361  1.00  0.00    -0.218 C  
ENDBRANCH  27  30
ENDBRANCH  26  27
ENDBRANCH  25  26
ENDBRANCH  24  25
ENDBRANCH  18  24
ENDBRANCH  14  16
ENDBRANCH   6  14
ENDBRANCH   4   5
ENDBRANCH   3   4
ENDBRANCH   2   3
TORSDOF 11
ENDMDL
MODEL      159
REMARK 921   NORMALIZED FREE ENERGY PREDICTED BY IDOCK:   -4.02 KCAL/MOL
REMARK 922        TOTAL FREE ENERGY PREDICTED BY IDOCK:   -8.75 KCAL/MOL
REMARK 923 INTER-LIGAND FREE ENERGY PREDICTED BY IDOCK:   -7.36 KCAL/MOL
REMARK 924 INTRA-LIGAND FREE ENERGY PREDICTED BY IDOCK:   -1.39 KCAL/MOL
REMARK 927      BINDING AFFINITY PREDICTED BY RF-SCORE:    0.00 PKD
ROOT
HETATM    1  C   UNL     1      -9.137   1.507  67.653  1.00  0.00    -0.174 C  
HETATM    2  C   UNL     1      -9.517   2.835  68.290  1.00  0.00    -0.216 C  
ENDROOT
BRANCH   2   3
HETATM    3  C   UNL     1      -9.550   3.965  67.261  1.00  0.00    -0.222 C  
BRANCH   3   4
HETATM    4  C   UNL     1      -9.838   5.309  67.930  1.00  0.00    -0.189 C  
BRANCH   4   5
HETATM    5  C   UNL     1      -9.132   6.432  67.248  1.00  0.00    -0.117 A  
HETATM    6  C   UNL     1      -8.585   7.629  67.685  1.00  0.00    -0.116 A  
HETATM    7  C   UNL     1      -7.209   8.824  63.913  1.00  0.00    -0.096 A  
HETATM    8  C   UNL     1      -7.933   8.196  66.549  1.00  0.00    -0.101 A  
HETATM    9  C   UNL     1      -8.300   7.397  65.469  1.00  0.00    -0.135 A  
HETATM   10  C   UNL     1      -6.761   9.616  64.971  1.00  0.00    -0.096 A  
HETATM   11  C   UNL     1      -7.104   9.309  66.293  1.00  0.00    -0.087 A  
HETATM   12  C   UNL     1      -7.973   7.675  64.146  1.00  0.00    -0.105 A  
HETATM   13  O   UNL     1      -9.003   6.315  65.897  1.00  0.00    -0.156 OA 
BRANCH   6  14
HETATM   14  C   UNL     1      -8.686   8.115  69.050  1.00  0.00    -0.144 C  
HETATM   15  O   UNL     1      -7.889   7.764  69.916  1.00  0.00    -0.100 OA 
BRANCH  14  16
HETATM   16  C   UNL     1      -9.812   9.012  69.442  1.00  0.00    -0.183 A  
HETATM   17  I   UNL     1     -10.424  13.065  68.201  1.00  0.00    -0.272 I  
HETATM   18  C   UNL     1     -11.868  10.891  70.081  1.00  0.00    -0.353 A  
HETATM   19  C   UNL     1      -9.883  10.245  68.800  1.00  0.00    -0.184 A  
HETATM   20  C   UNL     1     -11.778   9.635  70.725  1.00  0.00    -0.314 A  
HETATM   21  I   UNL     1     -13.225   8.978  72.120  1.00  0.00    -0.536 I  
HETATM   22  C   UNL     1     -10.854  11.202  69.147  1.00  0.00    -0.238 A  
HETATM   23  C   UNL     1     -10.737   8.732  70.449  1.00  0.00    -0.254 A  
BRANCH  18  24
HETATM   24  O   UNL     1     -12.949  11.667  70.464  1.00  0.00    -0.038 OA 
BRANCH  24  25
HETATM   25  C   UNL     1     -12.630  12.750  71.329  1.00  0.00    -0.250 C  
BRANCH  25  26
HETATM   26  C   UNL     1     -13.747  13.770  71.589  1.00  0.00    -0.284 C  
BRANCH  26  27
HETATM   27  N   UNL     1     -13.180  15.129  71.814  1.00  0.00    -0.362 NA 
BRANCH  27  28
HETATM   28  C   UNL     1     -13.505  15.711  73.129  1.00  0.00    -0.525 C  
HETATM   29  C   UNL     1     -12.330  15.881  74.086  1.00  0.00    -0.746 C  
ENDBRANCH  27  28
BRANCH  27  30
HETATM   30  C   UNL     1     -11.750  15.166  71.482  1.00  0.00    -0.390 C  
HETATM   31  C   UNL     1     -11.388  16.185  70.401  1.00  0.00    -0.377 C  
ENDBRANCH  27  30
ENDBRANCH  26  27
ENDBRANCH  25  26
ENDBRANCH  24  25
ENDBRANCH  18  24
ENDBRANCH  14  16
ENDBRANCH   6  14
ENDBRANCH   4   5
ENDBRANCH   3   4
ENDBRANCH   2   3
TORSDOF 11
ENDMDL
MODEL      160
REMARK 921   NORMALIZED FREE ENERGY PREDICTED BY IDOCK:   -4.01 KCAL/MOL
REMARK 922        TOTAL FREE ENERGY PREDICTED BY IDOCK:   -8.74 KCAL/MOL
REMARK 923 INTER-LIGAND FREE ENERGY PREDICTED BY IDOCK:   -7.35 KCAL/MOL
REMARK 924 INTRA-LIGAND FREE ENERGY PREDICTED BY IDOCK:   -1.39 KCAL/MOL
REMARK 927      BINDING AFFINITY PREDICTED BY RF-SCORE:    0.00 PKD
ROOT
HETATM    1  C   UNL     1     -12.892  11.684  71.544  1.00  0.00    -0.469 C  
HETATM    2  C   UNL     1     -11.862  10.955  70.695  1.00  0.00    -0.453 C  
ENDROOT
BRANCH   2   3
HETATM    3  C   UNL     1     -11.679  11.623  69.332  1.00  0.00    -0.405 C  
BRANCH   3   4
HETATM    4  C   UNL     1     -11.504  10.582  68.228  1.00  0.00    -0.272 C  
BRANCH   4   5
HETATM    5  C   UNL     1     -10.234   9.816  68.383  1.00  0.00    -0.185 A  
HETATM    6  C   UNL     1      -8.987   9.892  67.780  1.00  0.00    -0.134 A  
HETATM    7  C   UNL     1      -7.292   6.775  70.006  1.00  0.00    -0.085 A  
HETATM    8  C   UNL     1      -8.162   8.956  68.474  1.00  0.00    -0.116 A  
HETATM    9  C   UNL     1      -9.021   8.249  69.312  1.00  0.00    -0.147 A  
HETATM   10  C   UNL     1      -6.381   7.496  69.234  1.00  0.00    -0.035 A  
HETATM   11  C   UNL     1      -6.797   8.595  68.473  1.00  0.00    -0.064 A  
HETATM   12  C   UNL     1      -8.636   7.155  70.081  1.00  0.00    -0.140 A  
HETATM   13  O   UNL     1     -10.269   8.788  69.275  1.00  0.00    -0.200 OA 
BRANCH   6  14
HETATM   14  C   UNL     1      -8.671  10.790  66.684  1.00  0.00    -0.147 C  
HETATM   15  O   UNL     1      -8.348  10.363  65.579  1.00  0.00    -0.157 OA 
BRANCH  14  16
HETATM   16  C   UNL     1      -8.673  12.266  66.902  1.00  0.00    -0.197 A  
HETATM   17  I   UNL     1     -11.087  15.163  64.871  1.00  0.00    -0.263 I  
HETATM   18  C   UNL     1      -8.820  15.109  67.152  1.00  0.00    -0.216 A  
HETATM   19  C   UNL     1      -9.647  12.997  66.228  1.00  0.00    -0.243 A  
HETATM   20  C   UNL     1      -7.835  14.350  67.827  1.00  0.00    -0.160 A  
HETATM   21  I   UNL     1      -6.468  15.227  69.180  1.00  0.00    -0.156 I  
HETATM   22  C   UNL     1      -9.694  14.401  66.296  1.00  0.00    -0.310 A  
HETATM   23  C   UNL     1      -7.730  12.958  67.663  1.00  0.00    -0.162 A  
BRANCH  18  24
HETATM   24  O   UNL     1      -8.792  16.467  67.416  1.00  0.00    -0.188 OA 
BRANCH  24  25
HETATM   25  C   UNL     1      -9.825  16.930  68.277  1.00  0.00    -0.266 C  
BRANCH  25  26
HETATM   26  C   UNL     1      -9.831  18.431  68.595  1.00  0.00    -0.376 C  
BRANCH  26  27
HETATM   27  N   UNL     1      -8.794  19.145  67.797  1.00  0.00    -0.295 NA 
BRANCH  27  28
HETATM   28  C   UNL     1      -9.337  20.018  66.741  1.00  0.00    -0.392 C  
HETATM   29  C   UNL     1     -10.468  19.425  65.908  1.00  0.00    -0.561 C  
ENDBRANCH  27  28
BRANCH  27  30
HETATM   30  C   UNL     1      -7.817  19.805  68.673  1.00  0.00    -0.249 C  
HETATM   31  C   UNL     1      -6.561  18.975  68.939  1.00  0.00    -0.306 C  
ENDBRANCH  27  30
ENDBRANCH  26  27
ENDBRANCH  25  26
ENDBRANCH  24  25
ENDBRANCH  18  24
ENDBRANCH  14  16
ENDBRANCH   6  14
ENDBRANCH   4   5
ENDBRANCH   3   4
ENDBRANCH   2   3
TORSDOF 11
ENDMDL
MODEL      161
REMARK 921   NORMALIZED FREE ENERGY PREDICTED BY IDOCK:   -3.98 KCAL/MOL
REMARK 922        TOTAL FREE ENERGY PREDICTED BY IDOCK:   -8.68 KCAL/MOL
REMARK 923 INTER-LIGAND FREE ENERGY PREDICTED BY IDOCK:   -6.89 KCAL/MOL
REMARK 924 INTRA-LIGAND FREE ENERGY PREDICTED BY IDOCK:   -1.79 KCAL/MOL
REMARK 927      BINDING AFFINITY PREDICTED BY RF-SCORE:    0.00 PKD
ROOT
HETATM    1  C   UNL     1      -5.388  13.735  70.495  1.00  0.00    -0.122 C  
HETATM    2  C   UNL     1      -6.240  14.942  70.136  1.00  0.00    -0.165 C  
ENDROOT
BRANCH   2   3
HETATM    3  C   UNL     1      -5.620  15.752  68.997  1.00  0.00    -0.104 C  
BRANCH   3   4
HETATM    4  C   UNL     1      -6.323  15.464  67.671  1.00  0.00    -0.177 C  
BRANCH   4   5
HETATM    5  C   UNL     1      -7.470  16.388  67.438  1.00  0.00    -0.149 A  
HETATM    6  C   UNL     1      -8.828  16.321  67.709  1.00  0.00    -0.188 A  
HETATM    7  C   UNL     1      -9.719  20.112  66.165  1.00  0.00    -0.481 A  
HETATM    8  C   UNL     1      -9.359  17.597  67.353  1.00  0.00    -0.247 A  
HETATM    9  C   UNL     1      -8.321  18.270  66.716  1.00  0.00    -0.255 A  
HETATM   10  C   UNL     1     -10.770  19.505  66.853  1.00  0.00    -0.576 A  
HETATM   11  C   UNL     1     -10.603  18.256  67.462  1.00  0.00    -0.432 A  
HETATM   12  C   UNL     1      -8.456  19.512  66.104  1.00  0.00    -0.329 A  
HETATM   13  O   UNL     1      -7.171  17.548  66.790  1.00  0.00    -0.179 OA 
BRANCH   6  14
HETATM   14  C   UNL     1      -9.486  15.151  68.264  1.00  0.00    -0.201 C  
HETATM   15  O   UNL     1     -10.072  15.197  69.342  1.00  0.00    -0.234 OA 
BRANCH  14  16
HETATM   16  C   UNL     1      -9.406  13.841  67.554  1.00  0.00    -0.222 A  
HETATM   17  I   UNL     1      -6.913  10.511  68.573  1.00  0.00    -0.077 I  
HETATM   18  C   UNL     1      -9.089  11.278  66.333  1.00  0.00    -0.192 A  
HETATM   19  C   UNL     1      -8.630  12.852  68.151  1.00  0.00    -0.188 A  
HETATM   20  C   UNL     1      -9.872  12.296  65.739  1.00  0.00    -0.244 A  
HETATM   21  I   UNL     1     -10.982  11.977  63.969  1.00  0.00    -0.589 I  
HETATM   22  C   UNL     1      -8.418  11.607  67.532  1.00  0.00    -0.150 A  
HETATM   23  C   UNL     1      -9.985  13.574  66.313  1.00  0.00    -0.302 A  
BRANCH  18  24
HETATM   24  O   UNL     1      -9.077  10.076  65.645  1.00  0.00    -0.163 OA 
BRANCH  24  25
HETATM   25  C   UNL     1      -9.777   9.015  66.283  1.00  0.00    -0.275 C  
BRANCH  25  26
HETATM   26  C   UNL     1      -8.928   7.842  66.789  1.00  0.00    -0.139 C  
BRANCH  26  27
HETATM   27  N   UNL     1      -8.892   6.742  65.785  1.00  0.00    -0.116 NA 
BRANCH  27  28
HETATM   28  C   UNL     1      -7.607   6.609  65.076  1.00  0.00    -0.099 C  
HETATM   29  C   UNL     1      -6.504   7.563  65.522  1.00  0.00    -0.041 C  
ENDBRANCH  27  28
BRANCH  27  30
HETATM   30  C   UNL     1      -9.388   5.485  66.361  1.00  0.00    -0.152 C  
HETATM   31  C   UNL     1      -8.285   4.554  66.866  1.00  0.00    -0.102 C  
ENDBRANCH  27  30
ENDBRANCH  26  27
ENDBRANCH  25  26
ENDBRANCH  24  25
ENDBRANCH  18  24
ENDBRANCH  14  16
ENDBRANCH   6  14
ENDBRANCH   4   5
ENDBRANCH   3   4
ENDBRANCH   2   3
TORSDOF 11
ENDMDL
MODEL      162
REMARK 921   NORMALIZED FREE ENERGY PREDICTED BY IDOCK:   -3.96 KCAL/MOL
REMARK 922        TOTAL FREE ENERGY PREDICTED BY IDOCK:   -8.66 KCAL/MOL
REMARK 923 INTER-LIGAND FREE ENERGY PREDICTED BY IDOCK:   -7.21 KCAL/MOL
REMARK 924 INTRA-LIGAND FREE ENERGY PREDICTED BY IDOCK:   -1.45 KCAL/MOL
REMARK 927      BINDING AFFINITY PREDICTED BY RF-SCORE:    0.00 PKD
ROOT
HETATM    1  C   UNL     1     -12.404  12.003  63.001  1.00  0.00    -0.157 C  
HETATM    2  C   UNL     1     -11.232  11.926  63.966  1.00  0.00    -0.470 C  
ENDROOT
BRANCH   2   3
HETATM    3  C   UNL     1     -11.392  10.773  64.957  1.00  0.00     0.605 C  
BRANCH   3   4
HETATM    4  C   UNL     1     -10.047  10.107  65.248  1.00  0.00    -0.344 C  
BRANCH   4   5
HETATM    5  C   UNL     1     -10.051   9.397  66.559  1.00  0.00    -0.262 A  
HETATM    6  C   UNL     1     -10.447   9.749  67.841  1.00  0.00    -0.288 A  
HETATM    7  C   UNL     1      -9.494   6.053  69.567  1.00  0.00    -0.161 A  
HETATM    8  C   UNL     1     -10.312   8.566  68.628  1.00  0.00    -0.224 A  
HETATM    9  C   UNL     1      -9.662   7.645  67.810  1.00  0.00    -0.148 A  
HETATM   10  C   UNL     1     -10.202   6.917  70.403  1.00  0.00    -0.209 A  
HETATM   11  C   UNL     1     -10.629   8.169  69.945  1.00  0.00    -0.239 A  
HETATM   12  C   UNL     1      -9.229   6.392  68.236  1.00  0.00    -0.112 A  
HETATM   13  O   UNL     1      -9.528   8.139  66.551  1.00  0.00    -0.192 OA 
BRANCH   6  14
HETATM   14  C   UNL     1     -10.913  11.074  68.209  1.00  0.00    -0.235 C  
HETATM   15  O   UNL     1     -12.037  11.251  68.673  1.00  0.00    -0.543 OA 
BRANCH  14  16
HETATM   16  C   UNL     1     -10.048  12.264  67.968  1.00  0.00    -0.206 A  
HETATM   17  I   UNL     1     -10.812  15.496  65.263  1.00  0.00    -0.336 I  
HETATM   18  C   UNL     1      -8.531  14.605  67.348  1.00  0.00    -0.204 A  
HETATM   19  C   UNL     1     -10.568  13.262  67.148  1.00  0.00    -0.259 A  
HETATM   20  C   UNL     1      -8.016  13.581  68.177  1.00  0.00    -0.149 A  
HETATM   21  I   UNL     1      -6.140  13.742  69.137  1.00  0.00    -0.113 I  
HETATM   22  C   UNL     1      -9.810  14.390  66.788  1.00  0.00    -0.264 A  
HETATM   23  C   UNL     1      -8.742  12.405  68.440  1.00  0.00    -0.132 A  
BRANCH  18  24
HETATM   24  O   UNL     1      -7.695  15.697  67.186  1.00  0.00    -0.186 OA 
BRANCH  24  25
HETATM   25  C   UNL     1      -7.917  16.761  68.104  1.00  0.00    -0.181 C  
BRANCH  25  26
HETATM   26  C   UNL     1      -8.648  17.995  67.558  1.00  0.00    -0.244 C  
BRANCH  26  27
HETATM   27  N   UNL     1     -10.102  17.935  67.880  1.00  0.00    -0.330 NA 
BRANCH  27  28
HETATM   28  C   UNL     1     -10.410  17.310  69.179  1.00  0.00    -0.290 C  
HETATM   29  C   UNL     1     -11.450  16.194  69.145  1.00  0.00    -0.311 C  
ENDBRANCH  27  28
BRANCH  27  30
HETATM   30  C   UNL     1     -10.740  19.242  67.680  1.00  0.00    -0.425 C  
HETATM   31  C   UNL     1     -10.107  20.082  66.571  1.00  0.00    -0.606 C  
ENDBRANCH  27  30
ENDBRANCH  26  27
ENDBRANCH  25  26
ENDBRANCH  24  25
ENDBRANCH  18  24
ENDBRANCH  14  16
ENDBRANCH   6  14
ENDBRANCH   4   5
ENDBRANCH   3   4
ENDBRANCH   2   3
TORSDOF 11
ENDMDL
MODEL      163
REMARK 921   NORMALIZED FREE ENERGY PREDICTED BY IDOCK:   -3.95 KCAL/MOL
REMARK 922        TOTAL FREE ENERGY PREDICTED BY IDOCK:   -8.63 KCAL/MOL
REMARK 923 INTER-LIGAND FREE ENERGY PREDICTED BY IDOCK:   -6.86 KCAL/MOL
REMARK 924 INTRA-LIGAND FREE ENERGY PREDICTED BY IDOCK:   -1.77 KCAL/MOL
REMARK 927      BINDING AFFINITY PREDICTED BY RF-SCORE:    0.00 PKD
ROOT
HETATM    1  C   UNL     1      -6.956   8.261  72.048  1.00  0.00    -0.094 C  
HETATM    2  C   UNL     1      -8.328   8.389  72.692  1.00  0.00    -0.206 C  
ENDROOT
BRANCH   2   3
HETATM    3  C   UNL     1      -8.333   7.844  74.121  1.00  0.00    -0.312 C  
BRANCH   3   4
HETATM    4  C   UNL     1      -9.475   6.849  74.326  1.00  0.00    -0.284 C  
BRANCH   4   5
HETATM    5  C   UNL     1      -9.424   5.734  73.338  1.00  0.00    -0.138 A  
HETATM    6  C   UNL     1     -10.147   5.430  72.195  1.00  0.00    -0.237 A  
HETATM    7  C   UNL     1      -8.014   1.936  71.305  1.00  0.00    -0.041 A  
HETATM    8  C   UNL     1      -9.512   4.285  71.626  1.00  0.00    -0.211 A  
HETATM    9  C   UNL     1      -8.576   3.869  72.569  1.00  0.00    -0.098 A  
HETATM   10  C   UNL     1      -8.891   2.350  70.302  1.00  0.00    -0.141 A  
HETATM   11  C   UNL     1      -9.637   3.526  70.441  1.00  0.00    -0.241 A  
HETATM   12  C   UNL     1      -7.819   2.707  72.456  1.00  0.00    -0.054 A  
HETATM   13  O   UNL     1      -8.505   4.761  73.592  1.00  0.00    -0.105 OA 
BRANCH   6  14
HETATM   14  C   UNL     1     -11.293   6.194  71.735  1.00  0.00    -0.291 C  
HETATM   15  O   UNL     1     -12.411   6.024  72.215  1.00  0.00    -0.252 OA 
BRANCH  14  16
HETATM   16  C   UNL     1     -11.142   7.166  70.613  1.00  0.00    -0.294 A  
HETATM   17  I   UNL     1      -9.581   6.363  66.706  1.00  0.00    -0.175 I  
HETATM   18  C   UNL     1     -10.754   8.867  68.350  1.00  0.00    -0.076 A  
HETATM   19  C   UNL     1     -10.745   6.647  69.384  1.00  0.00    -0.303 A  
HETATM   20  C   UNL     1     -11.154   9.377  69.607  1.00  0.00    -0.142 A  
HETATM   21  I   UNL     1     -11.629  11.417  69.897  1.00  0.00    -0.309 I  
HETATM   22  C   UNL     1     -10.493   7.480  68.279  1.00  0.00    -0.180 A  
HETATM   23  C   UNL     1     -11.295   8.548  70.734  1.00  0.00    -0.296 A  
BRANCH  18  24
HETATM   24  O   UNL     1     -10.660   9.810  67.341  1.00  0.00    -0.251 OA 
BRANCH  24  25
HETATM   25  C   UNL     1      -9.331  10.170  66.982  1.00  0.00    -0.154 C  
BRANCH  25  26
HETATM   26  C   UNL     1      -9.167  10.979  65.688  1.00  0.00    -0.210 C  
BRANCH  26  27
HETATM   27  N   UNL     1     -10.451  11.630  65.305  1.00  0.00    -0.263 NA 
BRANCH  27  28
HETATM   28  C   UNL     1     -10.645  12.974  65.880  1.00  0.00    -0.275 C  
HETATM   29  C   UNL     1     -12.092  13.441  65.996  1.00  0.00    -0.487 C  
ENDBRANCH  27  28
BRANCH  27  30
HETATM   30  C   UNL     1     -10.662  11.567  63.853  1.00  0.00    -0.395 C  
HETATM   31  C   UNL     1      -9.379  11.363  63.047  1.00  0.00    -0.344 C  
ENDBRANCH  27  30
ENDBRANCH  26  27
ENDBRANCH  25  26
ENDBRANCH  24  25
ENDBRANCH  18  24
ENDBRANCH  14  16
ENDBRANCH   6  14
ENDBRANCH   4   5
ENDBRANCH   3   4
ENDBRANCH   2   3
TORSDOF 11
ENDMDL
MODEL      164
REMARK 921   NORMALIZED FREE ENERGY PREDICTED BY IDOCK:   -3.94 KCAL/MOL
REMARK 922        TOTAL FREE ENERGY PREDICTED BY IDOCK:   -8.61 KCAL/MOL
REMARK 923 INTER-LIGAND FREE ENERGY PREDICTED BY IDOCK:   -7.39 KCAL/MOL
REMARK 924 INTRA-LIGAND FREE ENERGY PREDICTED BY IDOCK:   -1.23 KCAL/MOL
REMARK 927      BINDING AFFINITY PREDICTED BY RF-SCORE:    0.00 PKD
ROOT
HETATM    1  C   UNL     1      -8.214   9.754  70.411  1.00  0.00    -0.119 C  
HETATM    2  C   UNL     1      -9.373   8.974  71.012  1.00  0.00    -0.339 C  
ENDROOT
BRANCH   2   3
HETATM    3  C   UNL     1      -9.466   7.563  70.430  1.00  0.00    -0.161 C  
BRANCH   3   4
HETATM    4  C   UNL     1     -10.553   7.480  69.359  1.00  0.00    -0.225 C  
BRANCH   4   5
HETATM    5  C   UNL     1     -10.045   7.890  68.019  1.00  0.00    -0.192 A  
HETATM    6  C   UNL     1     -10.117   9.063  67.282  1.00  0.00    -0.297 A  
HETATM    7  C   UNL     1      -7.897   7.618  64.037  1.00  0.00    -0.127 A  
HETATM    8  C   UNL     1      -9.309   8.846  66.126  1.00  0.00    -0.301 A  
HETATM    9  C   UNL     1      -8.968   7.497  66.155  1.00  0.00    -0.153 A  
HETATM   10  C   UNL     1      -8.157   8.988  63.996  1.00  0.00    -0.158 A  
HETATM   11  C   UNL     1      -8.850   9.619  65.037  1.00  0.00    -0.221 A  
HETATM   12  C   UNL     1      -8.279   6.844  65.138  1.00  0.00    -0.115 A  
HETATM   13  O   UNL     1      -9.392   6.926  67.314  1.00  0.00    -0.130 OA 
BRANCH   6  14
HETATM   14  C   UNL     1     -10.871  10.233  67.695  1.00  0.00    -0.307 C  
HETATM   15  O   UNL     1     -11.887  10.133  68.378  1.00  0.00    -0.109 OA 
BRANCH  14  16
HETATM   16  C   UNL     1     -10.454  11.591  67.238  1.00  0.00    -0.246 A  
HETATM   17  I   UNL     1      -7.027  13.804  68.540  1.00  0.00    -0.138 I  
HETATM   18  C   UNL     1      -9.494  14.182  66.511  1.00  0.00    -0.285 A  
HETATM   19  C   UNL     1      -9.223  12.054  67.692  1.00  0.00    -0.182 A  
HETATM   20  C   UNL     1     -10.744  13.696  66.061  1.00  0.00    -0.280 A  
HETATM   21  I   UNL     1     -11.954  14.781  64.710  1.00  0.00    -0.206 I  
HETATM   22  C   UNL     1      -8.765  13.349  67.391  1.00  0.00    -0.209 A  
HETATM   23  C   UNL     1     -11.240  12.443  66.461  1.00  0.00    -0.368 A  
BRANCH  18  24
HETATM   24  O   UNL     1      -9.147  15.433  66.031  1.00  0.00    -0.322 OA 
BRANCH  24  25
HETATM   25  C   UNL     1      -9.412  16.510  66.922  1.00  0.00    -0.237 C  
BRANCH  25  26
HETATM   26  C   UNL     1      -8.193  17.278  67.450  1.00  0.00    -0.191 C  
BRANCH  26  27
HETATM   27  N   UNL     1      -8.459  18.744  67.470  1.00  0.00    -0.268 NA 
BRANCH  27  28
HETATM   28  C   UNL     1      -7.249  19.581  67.367  1.00  0.00    -0.215 C  
HETATM   29  C   UNL     1      -6.652  20.044  68.692  1.00  0.00    -0.341 C  
ENDBRANCH  27  28
BRANCH  27  30
HETATM   30  C   UNL     1      -9.515  19.101  66.514  1.00  0.00    -0.356 C  
HETATM   31  C   UNL     1     -10.770  19.684  67.163  1.00  0.00    -0.587 C  
ENDBRANCH  27  30
ENDBRANCH  26  27
ENDBRANCH  25  26
ENDBRANCH  24  25
ENDBRANCH  18  24
ENDBRANCH  14  16
ENDBRANCH   6  14
ENDBRANCH   4   5
ENDBRANCH   3   4
ENDBRANCH   2   3
TORSDOF 11
ENDMDL
MODEL      165
REMARK 921   NORMALIZED FREE ENERGY PREDICTED BY IDOCK:   -3.92 KCAL/MOL
REMARK 922        TOTAL FREE ENERGY PREDICTED BY IDOCK:   -8.58 KCAL/MOL
REMARK 923 INTER-LIGAND FREE ENERGY PREDICTED BY IDOCK:   -8.15 KCAL/MOL
REMARK 924 INTRA-LIGAND FREE ENERGY PREDICTED BY IDOCK:   -0.43 KCAL/MOL
REMARK 927      BINDING AFFINITY PREDICTED BY RF-SCORE:    0.00 PKD
ROOT
HETATM    1  C   UNL     1     -11.400  14.342  69.946  1.00  0.00    -0.273 C  
HETATM    2  C   UNL     1     -12.309  15.462  69.467  1.00  0.00    -0.207 C  
ENDROOT
BRANCH   2   3
HETATM    3  C   UNL     1     -11.537  16.512  68.666  1.00  0.00    -0.034 C  
BRANCH   3   4
HETATM    4  C   UNL     1     -10.208  16.851  69.341  1.00  0.00    -0.208 C  
BRANCH   4   5
HETATM    5  C   UNL     1      -9.350  17.711  68.477  1.00  0.00    -0.291 A  
HETATM    6  C   UNL     1      -9.227  17.875  67.106  1.00  0.00    -0.258 A  
HETATM    7  C   UNL     1      -6.273  20.837  67.335  1.00  0.00    -0.333 A  
HETATM    8  C   UNL     1      -8.313  18.956  66.924  1.00  0.00    -0.289 A  
HETATM    9  C   UNL     1      -7.806  19.235  68.191  1.00  0.00    -0.308 A  
HETATM   10  C   UNL     1      -6.798  20.640  66.057  1.00  0.00    -0.219 A  
HETATM   11  C   UNL     1      -7.824  19.714  65.837  1.00  0.00    -0.295 A  
HETATM   12  C   UNL     1      -6.789  20.151  68.440  1.00  0.00    -0.322 A  
HETATM   13  O   UNL     1      -8.454  18.499  69.133  1.00  0.00    -0.111 OA 
BRANCH   6  14
HETATM   14  C   UNL     1      -9.941  17.075  66.127  1.00  0.00    -0.298 C  
HETATM   15  O   UNL     1     -10.754  17.579  65.357  1.00  0.00    -0.612 OA 
BRANCH  14  16
HETATM   16  C   UNL     1      -9.742  15.597  66.082  1.00  0.00    -0.348 A  
HETATM   17  I   UNL     1      -6.665  13.353  68.042  1.00  0.00    -0.190 I  
HETATM   18  C   UNL     1      -9.177  12.796  66.112  1.00  0.00    -0.030 A  
HETATM   19  C   UNL     1      -8.759  15.071  66.916  1.00  0.00    -0.285 A  
HETATM   20  C   UNL     1     -10.170  13.348  65.269  1.00  0.00    -0.298 A  
HETATM   21  I   UNL     1     -11.413  12.145  64.054  1.00  0.00    -0.581 I  
HETATM   22  C   UNL     1      -8.431  13.704  66.897  1.00  0.00    -0.054 A  
HETATM   23  C   UNL     1     -10.412  14.731  65.215  1.00  0.00    -0.427 A  
BRANCH  18  24
HETATM   24  O   UNL     1      -9.059  11.418  66.049  1.00  0.00    -0.205 OA 
BRANCH  24  25
HETATM   25  C   UNL     1      -9.302  10.741  67.275  1.00  0.00    -0.151 C  
BRANCH  25  26
HETATM   26  C   UNL     1     -10.714  10.174  67.477  1.00  0.00    -0.290 C  
BRANCH  26  27
HETATM   27  N   UNL     1     -10.659   8.826  68.108  1.00  0.00    -0.188 NA 
BRANCH  27  28
HETATM   28  C   UNL     1     -10.162   7.760  67.219  1.00  0.00    -0.273 C  
HETATM   29  C   UNL     1     -11.058   6.532  67.095  1.00  0.00    -0.434 C  
ENDBRANCH  27  28
BRANCH  27  30
HETATM   30  C   UNL     1      -9.982   8.881  69.410  1.00  0.00    -0.192 C  
HETATM   31  C   UNL     1      -9.054   7.696  69.680  1.00  0.00    -0.147 C  
ENDBRANCH  27  30
ENDBRANCH  26  27
ENDBRANCH  25  26
ENDBRANCH  24  25
ENDBRANCH  18  24
ENDBRANCH  14  16
ENDBRANCH   6  14
ENDBRANCH   4   5
ENDBRANCH   3   4
ENDBRANCH   2   3
TORSDOF 11
ENDMDL
MODEL      166
REMARK 921   NORMALIZED FREE ENERGY PREDICTED BY IDOCK:   -3.90 KCAL/MOL
REMARK 922        TOTAL FREE ENERGY PREDICTED BY IDOCK:   -8.56 KCAL/MOL
REMARK 923 INTER-LIGAND FREE ENERGY PREDICTED BY IDOCK:   -7.28 KCAL/MOL
REMARK 924 INTRA-LIGAND FREE ENERGY PREDICTED BY IDOCK:   -1.28 KCAL/MOL
REMARK 927      BINDING AFFINITY PREDICTED BY RF-SCORE:    0.00 PKD
ROOT
HETATM    1  C   UNL     1     -11.801   6.722  70.803  1.00  0.00    -0.446 C  
HETATM    2  C   UNL     1     -10.850   5.975  69.882  1.00  0.00    -0.434 C  
ENDROOT
BRANCH   2   3
HETATM    3  C   UNL     1     -10.748   6.645  68.512  1.00  0.00    -0.308 C  
BRANCH   3   4
HETATM    4  C   UNL     1     -10.171   8.055  68.631  1.00  0.00    -0.225 C  
BRANCH   4   5
HETATM    5  C   UNL     1      -9.790   8.614  67.302  1.00  0.00    -0.197 A  
HETATM    6  C   UNL     1      -9.912   9.864  66.714  1.00  0.00    -0.272 A  
HETATM    7  C   UNL     1      -8.049   8.785  63.120  1.00  0.00    -0.176 A  
HETATM    8  C   UNL     1      -9.226   9.775  65.466  1.00  0.00    -0.270 A  
HETATM    9  C   UNL     1      -8.909   8.429  65.308  1.00  0.00    -0.069 A  
HETATM   10  C   UNL     1      -8.287  10.153  63.262  1.00  0.00    -0.170 A  
HETATM   11  C   UNL     1      -8.862  10.664  64.431  1.00  0.00    -0.185 A  
HETATM   12  C   UNL     1      -8.335   7.892  64.159  1.00  0.00     0.050 A  
HETATM   13  O   UNL     1      -9.227   7.731  66.430  1.00  0.00    -0.169 OA 
BRANCH   6  14
HETATM   14  C   UNL     1     -10.600  10.984  67.331  1.00  0.00    -0.237 C  
HETATM   15  O   UNL     1     -11.823  11.002  67.442  1.00  0.00    -0.523 OA 
BRANCH  14  16
HETATM   16  C   UNL     1      -9.828  12.176  67.788  1.00  0.00    -0.199 A  
HETATM   17  I   UNL     1     -11.424  15.912  69.142  1.00  0.00    -0.297 I  
HETATM   18  C   UNL     1      -8.540  14.565  68.680  1.00  0.00    -0.168 A  
HETATM   19  C   UNL     1     -10.562  13.231  68.322  1.00  0.00    -0.262 A  
HETATM   20  C   UNL     1      -7.810  13.484  68.132  1.00  0.00    -0.144 A  
HETATM   21  I   UNL     1      -5.699  13.480  68.044  1.00  0.00    -0.077 I  
HETATM   22  C   UNL     1      -9.947  14.435  68.710  1.00  0.00    -0.223 A  
HETATM   23  C   UNL     1      -8.448  12.330  67.645  1.00  0.00    -0.166 A  
BRANCH  18  24
HETATM   24  O   UNL     1      -7.768  15.629  69.114  1.00  0.00    -0.178 OA 
BRANCH  24  25
HETATM   25  C   UNL     1      -7.816  16.781  68.280  1.00  0.00    -0.194 C  
BRANCH  25  26
HETATM   26  C   UNL     1      -7.833  18.141  68.991  1.00  0.00    -0.092 C  
BRANCH  26  27
HETATM   27  N   UNL     1      -7.776  19.255  68.004  1.00  0.00    -0.278 NA 
BRANCH  27  28
HETATM   28  C   UNL     1      -6.641  19.178  67.067  1.00  0.00    -0.195 C  
HETATM   29  C   UNL     1      -6.982  19.393  65.596  1.00  0.00    -0.308 C  
ENDBRANCH  27  28
BRANCH  27  30
HETATM   30  C   UNL     1      -9.077  19.448  67.351  1.00  0.00    -0.299 C  
HETATM   31  C   UNL     1     -10.236  19.668  68.324  1.00  0.00    -0.567 C  
ENDBRANCH  27  30
ENDBRANCH  26  27
ENDBRANCH  25  26
ENDBRANCH  24  25
ENDBRANCH  18  24
ENDBRANCH  14  16
ENDBRANCH   6  14
ENDBRANCH   4   5
ENDBRANCH   3   4
ENDBRANCH   2   3
TORSDOF 11
ENDMDL
MODEL      167
REMARK 921   NORMALIZED FREE ENERGY PREDICTED BY IDOCK:   -3.88 KCAL/MOL
REMARK 922        TOTAL FREE ENERGY PREDICTED BY IDOCK:   -8.53 KCAL/MOL
REMARK 923 INTER-LIGAND FREE ENERGY PREDICTED BY IDOCK:   -7.29 KCAL/MOL
REMARK 924 INTRA-LIGAND FREE ENERGY PREDICTED BY IDOCK:   -1.24 KCAL/MOL
REMARK 927      BINDING AFFINITY PREDICTED BY RF-SCORE:    0.00 PKD
ROOT
HETATM    1  C   UNL     1      -9.640  16.446  68.907  1.00  0.00    -0.252 C  
HETATM    2  C   UNL     1     -10.874  16.470  69.795  1.00  0.00    -0.302 C  
ENDROOT
BRANCH   2   3
HETATM    3  C   UNL     1     -11.941  15.492  69.303  1.00  0.00    -0.338 C  
BRANCH   3   4
HETATM    4  C   UNL     1     -11.358  14.092  69.112  1.00  0.00    -0.323 C  
BRANCH   4   5
HETATM    5  C   UNL     1     -11.560  13.591  67.722  1.00  0.00    -0.339 A  
HETATM    6  C   UNL     1     -11.675  12.327  67.163  1.00  0.00    -0.396 A  
HETATM    7  C   UNL     1     -12.231  13.688  63.240  1.00  0.00    -0.096 A  
HETATM    8  C   UNL     1     -11.989  12.538  65.786  1.00  0.00    -0.482 A  
HETATM    9  C   UNL     1     -11.849  13.907  65.576  1.00  0.00    -0.362 A  
HETATM   10  C   UNL     1     -12.446  12.320  63.415  1.00  0.00    -0.592 A  
HETATM   11  C   UNL     1     -12.342  11.733  64.681  1.00  0.00     0.054 A  
HETATM   12  C   UNL     1     -11.949  14.519  64.330  1.00  0.00    -0.467 A  
HETATM   13  O   UNL     1     -11.615  14.546  66.752  1.00  0.00    -0.357 OA 
BRANCH   6  14
HETATM   14  C   UNL     1     -11.514  11.094  67.912  1.00  0.00    -0.284 C  
HETATM   15  O   UNL     1     -12.175  10.866  68.922  1.00  0.00    -0.494 OA 
BRANCH  14  16
HETATM   16  C   UNL     1     -10.484  10.097  67.497  1.00  0.00    -0.304 A  
HETATM   17  I   UNL     1      -9.429   6.486  69.544  1.00  0.00    -0.164 I  
HETATM   18  C   UNL     1      -8.553   8.080  66.892  1.00  0.00    -0.128 A  
HETATM   19  C   UNL     1     -10.414   8.923  68.242  1.00  0.00    -0.243 A  
HETATM   20  C   UNL     1      -8.637   9.280  66.147  1.00  0.00    -0.134 A  
HETATM   21  I   UNL     1      -7.437   9.637  64.444  1.00  0.00    -0.140 I  
HETATM   22  C   UNL     1      -9.430   7.949  67.992  1.00  0.00    -0.149 A  
HETATM   23  C   UNL     1      -9.552  10.295  66.478  1.00  0.00    -0.228 A  
BRANCH  18  24
HETATM   24  O   UNL     1      -7.600   7.181  66.442  1.00  0.00    -0.088 OA 
BRANCH  24  25
HETATM   25  C   UNL     1      -8.116   6.094  65.684  1.00  0.00    -0.128 C  
BRANCH  25  26
HETATM   26  C   UNL     1      -7.451   4.729  65.905  1.00  0.00    -0.078 C  
BRANCH  26  27
HETATM   27  N   UNL     1      -7.585   3.872  64.693  1.00  0.00    -0.076 NA 
BRANCH  27  28
HETATM   28  C   UNL     1      -8.398   2.659  64.895  1.00  0.00    -0.089 C  
HETATM   29  C   UNL     1      -8.778   2.350  66.339  1.00  0.00    -0.125 C  
ENDBRANCH  27  28
BRANCH  27  30
HETATM   30  C   UNL     1      -7.983   4.669  63.526  1.00  0.00    -0.087 C  
HETATM   31  C   UNL     1      -8.981   3.968  62.604  1.00  0.00    -0.104 C  
ENDBRANCH  27  30
ENDBRANCH  26  27
ENDBRANCH  25  26
ENDBRANCH  24  25
ENDBRANCH  18  24
ENDBRANCH  14  16
ENDBRANCH   6  14
ENDBRANCH   4   5
ENDBRANCH   3   4
ENDBRANCH   2   3
TORSDOF 11
ENDMDL
MODEL      168
REMARK 921   NORMALIZED FREE ENERGY PREDICTED BY IDOCK:   -3.87 KCAL/MOL
REMARK 922        TOTAL FREE ENERGY PREDICTED BY IDOCK:   -8.51 KCAL/MOL
REMARK 923 INTER-LIGAND FREE ENERGY PREDICTED BY IDOCK:   -6.99 KCAL/MOL
REMARK 924 INTRA-LIGAND FREE ENERGY PREDICTED BY IDOCK:   -1.53 KCAL/MOL
REMARK 927      BINDING AFFINITY PREDICTED BY RF-SCORE:    0.00 PKD
ROOT
HETATM    1  C   UNL     1     -13.066   9.110  72.054  1.00  0.00    -0.497 C  
HETATM    2  C   UNL     1     -12.695  10.562  71.798  1.00  0.00    -0.508 C  
ENDROOT
BRANCH   2   3
HETATM    3  C   UNL     1     -11.677  10.694  70.665  1.00  0.00    -0.454 C  
BRANCH   3   4
HETATM    4  C   UNL     1     -12.367  11.016  69.340  1.00  0.00    -0.222 C  
BRANCH   4   5
HETATM    5  C   UNL     1     -11.824  12.257  68.718  1.00  0.00    -0.306 A  
HETATM    6  C   UNL     1     -11.085  12.513  67.573  1.00  0.00    -0.311 A  
HETATM    7  C   UNL     1     -10.969  16.666  68.110  1.00  0.00    -0.327 A  
HETATM    8  C   UNL     1     -11.000  13.935  67.475  1.00  0.00    -0.288 A  
HETATM    9  C   UNL     1     -11.527  14.424  68.667  1.00  0.00    -0.287 A  
HETATM   10  C   UNL     1     -10.492  16.228  66.874  1.00  0.00    -0.302 A  
HETATM   11  C   UNL     1     -10.512  14.870  66.536  1.00  0.00    -0.297 A  
HETATM   12  C   UNL     1     -11.523  15.768  69.028  1.00  0.00    -0.394 A  
HETATM   13  O   UNL     1     -12.049  13.410  69.407  1.00  0.00    -0.309 OA 
BRANCH   6  14
HETATM   14  C   UNL     1     -10.561  11.479  66.699  1.00  0.00    -0.253 C  
HETATM   15  O   UNL     1     -10.871  11.425  65.512  1.00  0.00    -0.272 OA 
BRANCH  14  16
HETATM   16  C   UNL     1      -9.675  10.413  67.250  1.00  0.00    -0.195 A  
HETATM   17  I   UNL     1     -10.459   6.203  67.333  1.00  0.00    -0.446 I  
HETATM   18  C   UNL     1      -8.138   8.226  68.262  1.00  0.00    -0.124 A  
HETATM   19  C   UNL     1     -10.072   9.095  67.037  1.00  0.00    -0.316 A  
HETATM   20  C   UNL     1      -7.751   9.571  68.471  1.00  0.00    -0.081 A  
HETATM   21  I   UNL     1      -5.940  10.085  69.433  1.00  0.00    -0.042 I  
HETATM   22  C   UNL     1      -9.357   8.013  67.580  1.00  0.00    -0.147 A  
HETATM   23  C   UNL     1      -8.534  10.647  68.019  1.00  0.00    -0.119 A  
BRANCH  18  24
HETATM   24  O   UNL     1      -7.262   7.282  68.769  1.00  0.00    -0.084 OA 
BRANCH  24  25
HETATM   25  C   UNL     1      -6.393   6.696  67.808  1.00  0.00    -0.044 C  
BRANCH  25  26
HETATM   26  C   UNL     1      -6.739   5.273  67.348  1.00  0.00    -0.055 C  
BRANCH  26  27
HETATM   27  N   UNL     1      -6.570   5.137  65.874  1.00  0.00    -0.047 NA 
BRANCH  27  28
HETATM   28  C   UNL     1      -7.128   3.894  65.312  1.00  0.00    -0.063 C  
HETATM   29  C   UNL     1      -8.448   3.428  65.917  1.00  0.00    -0.110 C  
ENDBRANCH  27  28
BRANCH  27  30
HETATM   30  C   UNL     1      -7.006   6.355  65.179  1.00  0.00    -0.052 C  
HETATM   31  C   UNL     1      -6.047   6.825  64.086  1.00  0.00    -0.035 C  
ENDBRANCH  27  30
ENDBRANCH  26  27
ENDBRANCH  25  26
ENDBRANCH  24  25
ENDBRANCH  18  24
ENDBRANCH  14  16
ENDBRANCH   6  14
ENDBRANCH   4   5
ENDBRANCH   3   4
ENDBRANCH   2   3
TORSDOF 11
ENDMDL
MODEL      169
REMARK 921   NORMALIZED FREE ENERGY PREDICTED BY IDOCK:   -3.87 KCAL/MOL
REMARK 922        TOTAL FREE ENERGY PREDICTED BY IDOCK:   -8.50 KCAL/MOL
REMARK 923 INTER-LIGAND FREE ENERGY PREDICTED BY IDOCK:   -7.27 KCAL/MOL
REMARK 924 INTRA-LIGAND FREE ENERGY PREDICTED BY IDOCK:   -1.23 KCAL/MOL
REMARK 927      BINDING AFFINITY PREDICTED BY RF-SCORE:    0.00 PKD
ROOT
HETATM    1  C   UNL     1     -12.622  13.062  65.274  1.00  0.00    -0.516 C  
HETATM    2  C   UNL     1     -12.400  13.608  66.675  1.00  0.00    -0.381 C  
ENDROOT
BRANCH   2   3
HETATM    3  C   UNL     1     -11.607  12.629  67.543  1.00  0.00    -0.418 C  
BRANCH   3   4
HETATM    4  C   UNL     1     -10.856  13.362  68.653  1.00  0.00    -0.287 C  
BRANCH   4   5
HETATM    5  C   UNL     1     -10.065  14.511  68.124  1.00  0.00    -0.227 A  
HETATM    6  C   UNL     1      -8.714  14.723  67.898  1.00  0.00    -0.167 A  
HETATM    7  C   UNL     1      -9.182  18.595  66.369  1.00  0.00    -0.295 A  
HETATM    8  C   UNL     1      -8.623  15.993  67.251  1.00  0.00    -0.205 A  
HETATM    9  C   UNL     1      -9.904  16.535  67.311  1.00  0.00    -0.254 A  
HETATM   10  C   UNL     1      -7.899  18.068  66.227  1.00  0.00    -0.288 A  
HETATM   11  C   UNL     1      -7.606  16.767  66.651  1.00  0.00    -0.311 A  
HETATM   12  C   UNL     1     -10.225  17.824  66.895  1.00  0.00    -0.346 A  
HETATM   13  O   UNL     1     -10.781  15.628  67.815  1.00  0.00    -0.281 OA 
BRANCH   6  14
HETATM   14  C   UNL     1      -7.674  13.777  68.260  1.00  0.00    -0.138 C  
HETATM   15  O   UNL     1      -6.655  14.138  68.843  1.00  0.00    -0.088 OA 
BRANCH  14  16
HETATM   16  C   UNL     1      -7.799  12.343  67.869  1.00  0.00    -0.145 A  
HETATM   17  I   UNL     1      -9.733  10.786  64.380  1.00  0.00    -0.425 I  
HETATM   18  C   UNL     1      -8.163   9.661  66.951  1.00  0.00    -0.113 A  
HETATM   19  C   UNL     1      -8.345  12.080  66.616  1.00  0.00    -0.085 A  
HETATM   20  C   UNL     1      -7.613   9.946  68.223  1.00  0.00    -0.080 A  
HETATM   21  I   UNL     1      -6.890   8.429  69.504  1.00  0.00    -0.042 I  
HETATM   22  C   UNL     1      -8.583  10.766  66.176  1.00  0.00    -0.168 A  
HETATM   23  C   UNL     1      -7.482  11.264  68.696  1.00  0.00    -0.118 A  
BRANCH  18  24
HETATM   24  O   UNL     1      -8.226   8.316  66.632  1.00  0.00    -0.103 OA 
BRANCH  24  25
HETATM   25  C   UNL     1      -9.543   7.791  66.514  1.00  0.00    -0.201 C  
BRANCH  25  26
HETATM   26  C   UNL     1     -10.578   8.304  67.525  1.00  0.00    -0.221 C  
BRANCH  26  27
HETATM   27  N   UNL     1     -10.437   7.600  68.830  1.00  0.00    -0.212 NA 
BRANCH  27  28
HETATM   28  C   UNL     1     -11.080   8.289  69.964  1.00  0.00    -0.147 C  
HETATM   29  C   UNL     1     -10.932   9.806  69.985  1.00  0.00    -0.319 C  
ENDBRANCH  27  28
BRANCH  27  30
HETATM   30  C   UNL     1     -10.803   6.183  68.707  1.00  0.00    -0.336 C  
HETATM   31  C   UNL     1     -10.651   5.386  70.003  1.00  0.00    -0.354 C  
ENDBRANCH  27  30
ENDBRANCH  26  27
ENDBRANCH  25  26
ENDBRANCH  24  25
ENDBRANCH  18  24
ENDBRANCH  14  16
ENDBRANCH   6  14
ENDBRANCH   4   5
ENDBRANCH   3   4
ENDBRANCH   2   3
TORSDOF 11
ENDMDL
MODEL      170
REMARK 921   NORMALIZED FREE ENERGY PREDICTED BY IDOCK:   -3.85 KCAL/MOL
REMARK 922        TOTAL FREE ENERGY PREDICTED BY IDOCK:   -8.48 KCAL/MOL
REMARK 923 INTER-LIGAND FREE ENERGY PREDICTED BY IDOCK:   -7.99 KCAL/MOL
REMARK 924 INTRA-LIGAND FREE ENERGY PREDICTED BY IDOCK:   -0.48 KCAL/MOL
REMARK 927      BINDING AFFINITY PREDICTED BY RF-SCORE:    0.00 PKD
ROOT
HETATM    1  C   UNL     1      -6.928   8.315  73.456  1.00  0.00    -0.152 C  
HETATM    2  C   UNL     1      -8.234   8.028  72.734  1.00  0.00    -0.212 C  
ENDROOT
BRANCH   2   3
HETATM    3  C   UNL     1      -9.418   7.994  73.701  1.00  0.00    -0.149 C  
BRANCH   3   4
HETATM    4  C   UNL     1     -10.247   6.724  73.512  1.00  0.00    -0.320 C  
BRANCH   4   5
HETATM    5  C   UNL     1     -10.441   6.396  72.071  1.00  0.00    -0.208 A  
HETATM    6  C   UNL     1     -11.281   6.882  71.080  1.00  0.00    -0.314 A  
HETATM    7  C   UNL     1      -9.791   4.395  68.056  1.00  0.00    -0.135 A  
HETATM    8  C   UNL     1     -10.876   6.234  69.875  1.00  0.00    -0.399 A  
HETATM    9  C   UNL     1      -9.953   5.266  70.262  1.00  0.00    -0.240 A  
HETATM   10  C   UNL     1     -10.661   5.391  67.611  1.00  0.00    -0.188 A  
HETATM   11  C   UNL     1     -11.200   6.325  68.503  1.00  0.00    -0.305 A  
HETATM   12  C   UNL     1      -9.398   4.328  69.397  1.00  0.00    -0.236 A  
HETATM   13  O   UNL     1      -9.671   5.382  71.586  1.00  0.00    -0.151 OA 
BRANCH   6  14
HETATM   14  C   UNL     1     -12.322   7.867  71.313  1.00  0.00    -0.281 C  
HETATM   15  O   UNL     1     -13.364   7.574  71.894  1.00  0.00    -0.310 OA 
BRANCH  14  16
HETATM   16  C   UNL     1     -12.168   9.255  70.788  1.00  0.00    -0.192 A  
HETATM   17  I   UNL     1      -9.881  10.478  67.380  1.00  0.00    -0.238 I  
HETATM   18  C   UNL     1     -11.730  11.833  69.635  1.00  0.00    -0.344 A  
HETATM   19  C   UNL     1     -11.492   9.396  69.579  1.00  0.00     0.125 A  
HETATM   20  C   UNL     1     -12.412  11.671  70.864  1.00  0.00    -0.341 A  
HETATM   21  I   UNL     1     -13.283  13.299  71.893  1.00  0.00    -0.349 I  
HETATM   22  C   UNL     1     -11.219  10.662  69.031  1.00  0.00    -0.265 A  
HETATM   23  C   UNL     1     -12.582  10.408  71.457  1.00  0.00    -0.544 A  
BRANCH  18  24
HETATM   24  O   UNL     1     -11.645  13.139  69.184  1.00  0.00    -0.278 OA 
BRANCH  24  25
HETATM   25  C   UNL     1     -10.376  13.506  68.656  1.00  0.00    -0.214 C  
BRANCH  25  26
HETATM   26  C   UNL     1     -10.355  14.704  67.696  1.00  0.00    -0.233 C  
BRANCH  26  27
HETATM   27  N   UNL     1     -10.799  15.946  68.389  1.00  0.00    -0.300 NA 
BRANCH  27  28
HETATM   28  C   UNL     1     -10.300  16.081  69.770  1.00  0.00    -0.265 C  
HETATM   29  C   UNL     1     -11.369  16.184  70.853  1.00  0.00    -0.394 C  
ENDBRANCH  27  28
BRANCH  27  30
HETATM   30  C   UNL     1     -10.565  17.129  67.552  1.00  0.00    -0.323 C  
HETATM   31  C   UNL     1      -9.088  17.478  67.365  1.00  0.00    -0.237 C  
ENDBRANCH  27  30
ENDBRANCH  26  27
ENDBRANCH  25  26
ENDBRANCH  24  25
ENDBRANCH  18  24
ENDBRANCH  14  16
ENDBRANCH   6  14
ENDBRANCH   4   5
ENDBRANCH   3   4
ENDBRANCH   2   3
TORSDOF 11
ENDMDL
MODEL      171
REMARK 921   NORMALIZED FREE ENERGY PREDICTED BY IDOCK:   -3.84 KCAL/MOL
REMARK 922        TOTAL FREE ENERGY PREDICTED BY IDOCK:   -8.46 KCAL/MOL
REMARK 923 INTER-LIGAND FREE ENERGY PREDICTED BY IDOCK:   -8.11 KCAL/MOL
REMARK 924 INTRA-LIGAND FREE ENERGY PREDICTED BY IDOCK:   -0.35 KCAL/MOL
REMARK 927      BINDING AFFINITY PREDICTED BY RF-SCORE:    0.00 PKD
ROOT
HETATM    1  C   UNL     1     -10.478  12.444  64.666  1.00  0.00    -0.338 C  
HETATM    2  C   UNL     1     -10.054  12.274  66.116  1.00  0.00    -0.265 C  
ENDROOT
BRANCH   2   3
HETATM    3  C   UNL     1     -11.047  12.931  67.075  1.00  0.00    -0.309 C  
BRANCH   3   4
HETATM    4  C   UNL     1     -11.638  11.906  68.043  1.00  0.00    -0.401 C  
BRANCH   4   5
HETATM    5  C   UNL     1     -12.072  12.536  69.323  1.00  0.00    -0.161 A  
HETATM    6  C   UNL     1     -12.370  12.042  70.583  1.00  0.00    -0.394 A  
HETATM    7  C   UNL     1     -13.203  15.782  72.277  1.00  0.00    -0.522 A  
HETATM    8  C   UNL     1     -12.594  13.187  71.407  1.00  0.00    -0.352 A  
HETATM    9  C   UNL     1     -12.604  14.275  70.539  1.00  0.00    -0.353 A  
HETATM   10  C   UNL     1     -13.138  14.733  73.194  1.00  0.00    -0.598 A  
HETATM   11  C   UNL     1     -12.823  13.434  72.778  1.00  0.00     0.057 A  
HETATM   12  C   UNL     1     -12.911  15.577  70.924  1.00  0.00    -0.526 A  
HETATM   13  O   UNL     1     -12.263  13.884  69.283  1.00  0.00    -0.346 OA 
BRANCH   6  14
HETATM   14  C   UNL     1     -12.404  10.628  70.912  1.00  0.00    -0.401 C  
HETATM   15  O   UNL     1     -13.390  10.114  71.434  1.00  0.00    -0.367 OA 
BRANCH  14  16
HETATM   16  C   UNL     1     -11.201   9.777  70.675  1.00  0.00    -0.402 A  
HETATM   17  I   UNL     1      -9.855   8.214  66.921  1.00  0.00    -0.355 I  
HETATM   18  C   UNL     1      -8.962   8.132  70.010  1.00  0.00    -0.143 A  
HETATM   19  C   UNL     1     -10.878   9.506  69.348  1.00  0.00    -0.226 A  
HETATM   20  C   UNL     1      -9.307   8.415  71.352  1.00  0.00    -0.190 A  
HETATM   21  I   UNL     1      -8.130   7.761  72.981  1.00  0.00    -0.229 I  
HETATM   22  C   UNL     1      -9.814   8.651  69.009  1.00  0.00    -0.182 A  
HETATM   23  C   UNL     1     -10.439   9.181  71.681  1.00  0.00    -0.403 A  
BRANCH  18  24
HETATM   24  O   UNL     1      -7.821   7.364  69.851  1.00  0.00    -0.110 OA 
BRANCH  24  25
HETATM   25  C   UNL     1      -8.030   6.106  69.221  1.00  0.00    -0.108 C  
BRANCH  25  26
HETATM   26  C   UNL     1      -8.846   5.073  70.010  1.00  0.00    -0.102 C  
BRANCH  26  27
HETATM   27  N   UNL     1      -7.991   3.922  70.417  1.00  0.00    -0.050 NA 
BRANCH  27  28
HETATM   28  C   UNL     1      -6.543   4.175  70.311  1.00  0.00    -0.032 C  
HETATM   29  C   UNL     1      -5.639   3.115  70.933  1.00  0.00    -0.013 C  
ENDBRANCH  27  28
BRANCH  27  30
HETATM   30  C   UNL     1      -8.411   3.388  71.719  1.00  0.00    -0.066 C  
HETATM   31  C   UNL     1      -9.752   2.656  71.688  1.00  0.00    -0.226 C  
ENDBRANCH  27  30
ENDBRANCH  26  27
ENDBRANCH  25  26
ENDBRANCH  24  25
ENDBRANCH  18  24
ENDBRANCH  14  16
ENDBRANCH   6  14
ENDBRANCH   4   5
ENDBRANCH   3   4
ENDBRANCH   2   3
TORSDOF 11
ENDMDL
MODEL      172
REMARK 921   NORMALIZED FREE ENERGY PREDICTED BY IDOCK:   -3.84 KCAL/MOL
REMARK 922        TOTAL FREE ENERGY PREDICTED BY IDOCK:   -8.46 KCAL/MOL
REMARK 923 INTER-LIGAND FREE ENERGY PREDICTED BY IDOCK:   -7.06 KCAL/MOL
REMARK 924 INTRA-LIGAND FREE ENERGY PREDICTED BY IDOCK:   -1.39 KCAL/MOL
REMARK 927      BINDING AFFINITY PREDICTED BY RF-SCORE:    0.00 PKD
ROOT
HETATM    1  C   UNL     1      -8.519  17.919  68.523  1.00  0.00    -0.303 C  
HETATM    2  C   UNL     1      -9.691  18.555  67.791  1.00  0.00    -0.327 C  
ENDROOT
BRANCH   2   3
HETATM    3  C   UNL     1     -10.959  17.709  67.915  1.00  0.00    -0.115 C  
BRANCH   3   4
HETATM    4  C   UNL     1     -10.636  16.304  68.421  1.00  0.00    -0.301 C  
BRANCH   4   5
HETATM    5  C   UNL     1     -11.008  15.256  67.427  1.00  0.00    -0.321 A  
HETATM    6  C   UNL     1     -11.303  13.904  67.522  1.00  0.00    -0.342 A  
HETATM    7  C   UNL     1     -12.047  13.385  63.432  1.00  0.00    -0.437 A  
HETATM    8  C   UNL     1     -11.709  13.503  66.213  1.00  0.00    -0.401 A  
HETATM    9  C   UNL     1     -11.445  14.593  65.389  1.00  0.00    -0.352 A  
HETATM   10  C   UNL     1     -12.390  12.291  64.226  1.00  0.00    -0.519 A  
HETATM   11  C   UNL     1     -12.239  12.338  65.617  1.00  0.00    -0.203 A  
HETATM   12  C   UNL     1     -11.587  14.576  64.004  1.00  0.00    -0.006 A  
HETATM   13  O   UNL     1     -11.045  15.661  66.128  1.00  0.00    -0.257 OA 
BRANCH   6  14
HETATM   14  C   UNL     1     -11.209  13.139  68.752  1.00  0.00    -0.281 C  
HETATM   15  O   UNL     1     -11.622  13.587  69.818  1.00  0.00    -0.279 OA 
BRANCH  14  16
HETATM   16  C   UNL     1     -10.543  11.804  68.753  1.00  0.00    -0.234 A  
HETATM   17  I   UNL     1     -11.278   8.565  71.457  1.00  0.00    -0.431 I  
HETATM   18  C   UNL     1      -9.381   9.200  68.939  1.00  0.00    -0.146 A  
HETATM   19  C   UNL     1     -11.046  10.854  69.638  1.00  0.00    -0.328 A  
HETATM   20  C   UNL     1      -8.881  10.179  68.048  1.00  0.00    -0.125 A  
HETATM   21  I   UNL     1      -7.320   9.768  66.683  1.00  0.00    -0.098 I  
HETATM   22  C   UNL     1     -10.447   9.590  69.781  1.00  0.00    -0.231 A  
HETATM   23  C   UNL     1      -9.419  11.476  67.994  1.00  0.00    -0.181 A  
BRANCH  18  24
HETATM   24  O   UNL     1      -8.744   7.973  68.873  1.00  0.00    -0.130 OA 
BRANCH  24  25
HETATM   25  C   UNL     1      -9.535   6.917  68.342  1.00  0.00    -0.128 C  
BRANCH  25  26
HETATM   26  C   UNL     1      -9.602   5.627  69.171  1.00  0.00    -0.135 C  
BRANCH  26  27
HETATM   27  N   UNL     1      -8.483   5.571  70.154  1.00  0.00    -0.115 NA 
BRANCH  27  28
HETATM   28  C   UNL     1      -8.888   5.161  71.510  1.00  0.00    -0.133 C  
HETATM   29  C   UNL     1      -7.816   5.287  72.587  1.00  0.00    -0.099 C  
ENDBRANCH  27  28
BRANCH  27  30
HETATM   30  C   UNL     1      -7.346   4.813  69.616  1.00  0.00    -0.055 C  
HETATM   31  C   UNL     1      -7.618   3.318  69.447  1.00  0.00    -0.047 C  
ENDBRANCH  27  30
ENDBRANCH  26  27
ENDBRANCH  25  26
ENDBRANCH  24  25
ENDBRANCH  18  24
ENDBRANCH  14  16
ENDBRANCH   6  14
ENDBRANCH   4   5
ENDBRANCH   3   4
ENDBRANCH   2   3
TORSDOF 11
ENDMDL
MODEL      173
REMARK 921   NORMALIZED FREE ENERGY PREDICTED BY IDOCK:   -3.84 KCAL/MOL
REMARK 922        TOTAL FREE ENERGY PREDICTED BY IDOCK:   -8.45 KCAL/MOL
REMARK 923 INTER-LIGAND FREE ENERGY PREDICTED BY IDOCK:   -6.93 KCAL/MOL
REMARK 924 INTRA-LIGAND FREE ENERGY PREDICTED BY IDOCK:   -1.52 KCAL/MOL
REMARK 927      BINDING AFFINITY PREDICTED BY RF-SCORE:    0.00 PKD
ROOT
HETATM    1  C   UNL     1     -10.743   7.181  73.817  1.00  0.00    -0.191 C  
HETATM    2  C   UNL     1     -11.228   5.987  73.011  1.00  0.00    -0.232 C  
ENDROOT
BRANCH   2   3
HETATM    3  C   UNL     1     -12.357   6.373  72.054  1.00  0.00    -0.268 C  
BRANCH   3   4
HETATM    4  C   UNL     1     -12.002   7.633  71.265  1.00  0.00    -0.330 C  
BRANCH   4   5
HETATM    5  C   UNL     1     -11.080   7.338  70.132  1.00  0.00    -0.258 A  
HETATM    6  C   UNL     1      -9.913   7.924  69.665  1.00  0.00    -0.191 A  
HETATM    7  C   UNL     1      -9.340   5.205  66.531  1.00  0.00    -0.142 A  
HETATM    8  C   UNL     1      -9.445   7.077  68.616  1.00  0.00    -0.135 A  
HETATM    9  C   UNL     1     -10.463   6.153  68.399  1.00  0.00    -0.231 A  
HETATM   10  C   UNL     1      -8.265   6.067  66.753  1.00  0.00    -0.106 A  
HETATM   11  C   UNL     1      -8.297   6.999  67.797  1.00  0.00    -0.117 A  
HETATM   12  C   UNL     1     -10.458   5.214  67.372  1.00  0.00    -0.172 A  
HETATM   13  O   UNL     1     -11.440   6.295  69.333  1.00  0.00    -0.427 OA 
BRANCH   6  14
HETATM   14  C   UNL     1      -9.345   9.144  70.212  1.00  0.00    -0.220 C  
HETATM   15  O   UNL     1      -9.051   9.236  71.401  1.00  0.00    -0.299 OA 
BRANCH  14  16
HETATM   16  C   UNL     1      -9.165  10.341  69.340  1.00  0.00    -0.206 A  
HETATM   17  I   UNL     1      -5.484  12.332  68.432  1.00  0.00    -0.069 I  
HETATM   18  C   UNL     1      -8.608  12.633  67.728  1.00  0.00    -0.179 A  
HETATM   19  C   UNL     1      -7.855  10.729  69.072  1.00  0.00    -0.138 A  
HETATM   20  C   UNL     1      -9.932  12.225  68.013  1.00  0.00    -0.202 A  
HETATM   21  I   UNL     1     -11.614  13.189  67.171  1.00  0.00    -0.433 I  
HETATM   22  C   UNL     1      -7.568  11.889  68.330  1.00  0.00    -0.116 A  
HETATM   23  C   UNL     1     -10.207  11.129  68.849  1.00  0.00    -0.209 A  
BRANCH  18  24
HETATM   24  O   UNL     1      -8.503  13.730  66.890  1.00  0.00    -0.168 OA 
BRANCH  24  25
HETATM   25  C   UNL     1      -8.025  14.915  67.515  1.00  0.00    -0.178 C  
BRANCH  25  26
HETATM   26  C   UNL     1      -8.368  16.241  66.824  1.00  0.00    -0.253 C  
BRANCH  26  27
HETATM   27  N   UNL     1      -9.081  17.157  67.758  1.00  0.00    -0.231 NA 
BRANCH  27  28
HETATM   28  C   UNL     1      -8.259  18.276  68.255  1.00  0.00    -0.298 C  
HETATM   29  C   UNL     1      -9.031  19.459  68.829  1.00  0.00    -0.396 C  
ENDBRANCH  27  28
BRANCH  27  30
HETATM   30  C   UNL     1     -10.378  17.569  67.207  1.00  0.00    -0.337 C  
HETATM   31  C   UNL     1     -10.555  17.244  65.724  1.00  0.00    -0.198 C  
ENDBRANCH  27  30
ENDBRANCH  26  27
ENDBRANCH  25  26
ENDBRANCH  24  25
ENDBRANCH  18  24
ENDBRANCH  14  16
ENDBRANCH   6  14
ENDBRANCH   4   5
ENDBRANCH   3   4
ENDBRANCH   2   3
TORSDOF 11
ENDMDL
MODEL      174
REMARK 921   NORMALIZED FREE ENERGY PREDICTED BY IDOCK:   -3.83 KCAL/MOL
REMARK 922        TOTAL FREE ENERGY PREDICTED BY IDOCK:   -8.44 KCAL/MOL
REMARK 923 INTER-LIGAND FREE ENERGY PREDICTED BY IDOCK:   -6.81 KCAL/MOL
REMARK 924 INTRA-LIGAND FREE ENERGY PREDICTED BY IDOCK:   -1.63 KCAL/MOL
REMARK 927      BINDING AFFINITY PREDICTED BY RF-SCORE:    0.00 PKD
ROOT
HETATM    1  C   UNL     1      -7.953   9.350  70.180  1.00  0.00    -0.158 C  
HETATM    2  C   UNL     1      -8.255   7.861  70.142  1.00  0.00    -0.125 C  
ENDROOT
BRANCH   2   3
HETATM    3  C   UNL     1      -8.071   7.283  68.738  1.00  0.00    -0.124 C  
BRANCH   3   4
HETATM    4  C   UNL     1      -9.345   7.437  67.908  1.00  0.00    -0.138 C  
BRANCH   4   5
HETATM    5  C   UNL     1      -9.079   8.096  66.597  1.00  0.00    -0.165 A  
HETATM    6  C   UNL     1      -9.338   9.359  66.087  1.00  0.00    -0.262 A  
HETATM    7  C   UNL     1      -7.564   8.642  62.361  1.00  0.00    -0.111 A  
HETATM    8  C   UNL     1      -8.708   9.398  64.807  1.00  0.00    -0.227 A  
HETATM    9  C   UNL     1      -8.282   8.095  64.560  1.00  0.00    -0.115 A  
HETATM   10  C   UNL     1      -7.913   9.973  62.590  1.00  0.00    -0.141 A  
HETATM   11  C   UNL     1      -8.473  10.369  63.809  1.00  0.00    -0.162 A  
HETATM   12  C   UNL     1      -7.720   7.673  63.359  1.00  0.00    -0.130 A  
HETATM   13  O   UNL     1      -8.484   7.314  65.654  1.00  0.00    -0.139 OA 
BRANCH   6  14
HETATM   14  C   UNL     1     -10.091  10.379  66.795  1.00  0.00    -0.214 C  
HETATM   15  O   UNL     1     -11.237  10.174  67.187  1.00  0.00    -0.179 OA 
BRANCH  14  16
HETATM   16  C   UNL     1      -9.500  11.732  67.006  1.00  0.00    -0.191 A  
HETATM   17  I   UNL     1     -10.799  15.412  65.241  1.00  0.00    -0.378 I  
HETATM   18  C   UNL     1      -8.509  14.400  67.259  1.00  0.00    -0.212 A  
HETATM   19  C   UNL     1     -10.179  12.808  66.440  1.00  0.00    -0.263 A  
HETATM   20  C   UNL     1      -7.830  13.295  67.825  1.00  0.00    -0.157 A  
HETATM   21  I   UNL     1      -6.099  13.525  69.017  1.00  0.00    -0.106 I  
HETATM   22  C   UNL     1      -9.671  14.117  66.507  1.00  0.00    -0.295 A  
HETATM   23  C   UNL     1      -8.289  11.977  67.656  1.00  0.00    -0.160 A  
BRANCH  18  24
HETATM   24  O   UNL     1      -7.930  15.632  67.514  1.00  0.00    -0.139 OA 
BRANCH  24  25
HETATM   25  C   UNL     1      -8.362  16.258  68.715  1.00  0.00    -0.235 C  
BRANCH  25  26
HETATM   26  C   UNL     1      -9.664  17.067  68.635  1.00  0.00    -0.282 C  
BRANCH  26  27
HETATM   27  N   UNL     1      -9.452  18.339  67.889  1.00  0.00    -0.275 NA 
BRANCH  27  28
HETATM   28  C   UNL     1     -10.694  18.991  67.436  1.00  0.00    -0.473 C  
HETATM   29  C   UNL     1     -10.623  19.676  66.074  1.00  0.00    -0.584 C  
ENDBRANCH  27  28
BRANCH  27  30
HETATM   30  C   UNL     1      -8.540  19.232  68.616  1.00  0.00    -0.366 C  
HETATM   31  C   UNL     1      -7.328  19.682  67.801  1.00  0.00    -0.306 C  
ENDBRANCH  27  30
ENDBRANCH  26  27
ENDBRANCH  25  26
ENDBRANCH  24  25
ENDBRANCH  18  24
ENDBRANCH  14  16
ENDBRANCH   6  14
ENDBRANCH   4   5
ENDBRANCH   3   4
ENDBRANCH   2   3
TORSDOF 11
ENDMDL
MODEL      175
REMARK 921   NORMALIZED FREE ENERGY PREDICTED BY IDOCK:   -3.83 KCAL/MOL
REMARK 922        TOTAL FREE ENERGY PREDICTED BY IDOCK:   -8.43 KCAL/MOL
REMARK 923 INTER-LIGAND FREE ENERGY PREDICTED BY IDOCK:   -6.86 KCAL/MOL
REMARK 924 INTRA-LIGAND FREE ENERGY PREDICTED BY IDOCK:   -1.57 KCAL/MOL
REMARK 927      BINDING AFFINITY PREDICTED BY RF-SCORE:    0.00 PKD
ROOT
HETATM    1  C   UNL     1      -5.325  15.031  69.601  1.00  0.00    -0.090 C  
HETATM    2  C   UNL     1      -6.488  14.117  69.954  1.00  0.00    -0.119 C  
ENDROOT
BRANCH   2   3
HETATM    3  C   UNL     1      -7.648  14.275  68.970  1.00  0.00    -0.084 C  
BRANCH   3   4
HETATM    4  C   UNL     1      -7.427  13.427  67.718  1.00  0.00    -0.160 C  
BRANCH   4   5
HETATM    5  C   UNL     1      -8.684  13.255  66.935  1.00  0.00    -0.142 A  
HETATM    6  C   UNL     1      -9.448  12.155  66.573  1.00  0.00    -0.235 A  
HETATM    7  C   UNL     1     -12.370  14.364  64.541  1.00  0.00    -0.440 A  
HETATM    8  C   UNL     1     -10.609  12.682  65.932  1.00  0.00    -0.297 A  
HETATM    9  C   UNL     1     -10.368  14.045  65.782  1.00  0.00    -0.319 A  
HETATM   10  C   UNL     1     -12.686  13.018  64.725  1.00  0.00    -0.409 A  
HETATM   11  C   UNL     1     -11.824  12.168  65.428  1.00  0.00    -0.357 A  
HETATM   12  C   UNL     1     -11.207  14.915  65.092  1.00  0.00    -0.389 A  
HETATM   13  O   UNL     1      -9.216  14.395  66.412  1.00  0.00    -0.267 OA 
BRANCH   6  14
HETATM   14  C   UNL     1      -9.071  10.781  66.853  1.00  0.00    -0.149 C  
HETATM   15  O   UNL     1      -8.762  10.006  65.952  1.00  0.00    -0.134 OA 
BRANCH  14  16
HETATM   16  C   UNL     1      -9.115  10.264  68.252  1.00  0.00    -0.139 A  
HETATM   17  I   UNL     1     -12.456  10.367  70.929  1.00  0.00    -0.526 I  
HETATM   18  C   UNL     1      -9.403   9.356  70.946  1.00  0.00    -0.193 A  
HETATM   19  C   UNL     1     -10.355  10.275  68.885  1.00  0.00    -0.221 A  
HETATM   20  C   UNL     1      -8.150   9.356  70.288  1.00  0.00    -0.164 A  
HETATM   21  I   UNL     1      -6.407   8.566  71.184  1.00  0.00    -0.061 I  
HETATM   22  C   UNL     1     -10.499   9.886  70.229  1.00  0.00    -0.291 A  
HETATM   23  C   UNL     1      -7.999   9.851  68.981  1.00  0.00    -0.101 A  
BRANCH  18  24
HETATM   24  O   UNL     1      -9.387   8.838  72.230  1.00  0.00    -0.314 OA 
BRANCH  24  25
HETATM   25  C   UNL     1      -9.922   7.526  72.350  1.00  0.00    -0.184 C  
BRANCH  25  26
HETATM   26  C   UNL     1      -9.672   6.804  73.682  1.00  0.00    -0.220 C  
BRANCH  26  27
HETATM   27  N   UNL     1      -9.396   5.357  73.456  1.00  0.00    -0.134 NA 
BRANCH  27  28
HETATM   28  C   UNL     1      -7.966   4.999  73.499  1.00  0.00    -0.107 C  
HETATM   29  C   UNL     1      -7.477   4.093  72.374  1.00  0.00    -0.068 C  
ENDBRANCH  27  28
BRANCH  27  30
HETATM   30  C   UNL     1     -10.247   4.519  74.309  1.00  0.00    -0.232 C  
HETATM   31  C   UNL     1     -11.124   3.533  73.537  1.00  0.00    -0.317 C  
ENDBRANCH  27  30
ENDBRANCH  26  27
ENDBRANCH  25  26
ENDBRANCH  24  25
ENDBRANCH  18  24
ENDBRANCH  14  16
ENDBRANCH   6  14
ENDBRANCH   4   5
ENDBRANCH   3   4
ENDBRANCH   2   3
TORSDOF 11
ENDMDL
MODEL      176
REMARK 921   NORMALIZED FREE ENERGY PREDICTED BY IDOCK:   -3.82 KCAL/MOL
REMARK 922        TOTAL FREE ENERGY PREDICTED BY IDOCK:   -8.42 KCAL/MOL
REMARK 923 INTER-LIGAND FREE ENERGY PREDICTED BY IDOCK:   -6.73 KCAL/MOL
REMARK 924 INTRA-LIGAND FREE ENERGY PREDICTED BY IDOCK:   -1.69 KCAL/MOL
REMARK 927      BINDING AFFINITY PREDICTED BY RF-SCORE:    0.00 PKD
ROOT
HETATM    1  C   UNL     1     -10.674   5.364  70.656  1.00  0.00    -0.257 C  
HETATM    2  C   UNL     1     -10.531   4.853  72.080  1.00  0.00    -0.257 C  
ENDROOT
BRANCH   2   3
HETATM    3  C   UNL     1      -9.375   5.535  72.812  1.00  0.00    -0.146 C  
BRANCH   3   4
HETATM    4  C   UNL     1      -9.859   6.763  73.582  1.00  0.00    -0.270 C  
BRANCH   4   5
HETATM    5  C   UNL     1     -10.315   7.849  72.667  1.00  0.00    -0.308 A  
HETATM    6  C   UNL     1      -9.677   8.642  71.725  1.00  0.00    -0.361 A  
HETATM    7  C   UNL     1     -13.124  10.731  70.581  1.00  0.00    -0.204 A  
HETATM    8  C   UNL     1     -10.708   9.401  71.094  1.00  0.00    -0.417 A  
HETATM    9  C   UNL     1     -11.862   9.152  71.832  1.00  0.00    -0.369 A  
HETATM   10  C   UNL     1     -12.011  10.962  69.772  1.00  0.00    -0.423 A  
HETATM   11  C   UNL     1     -10.802  10.297  70.006  1.00  0.00    -0.364 A  
HETATM   12  C   UNL     1     -13.078   9.795  71.621  1.00  0.00    -0.516 A  
HETATM   13  O   UNL     1     -11.629   8.193  72.767  1.00  0.00    -0.411 OA 
BRANCH   6  14
HETATM   14  C   UNL     1      -8.245   8.620  71.484  1.00  0.00    -0.159 C  
HETATM   15  O   UNL     1      -7.440   8.799  72.394  1.00  0.00    -0.324 OA 
BRANCH  14  16
HETATM   16  C   UNL     1      -7.723   8.438  70.098  1.00  0.00    -0.083 A  
HETATM   17  I   UNL     1      -8.033   4.921  67.673  1.00  0.00    -0.093 I  
HETATM   18  C   UNL     1      -6.789   7.879  67.456  1.00  0.00    -0.070 A  
HETATM   19  C   UNL     1      -8.068   7.255  69.449  1.00  0.00    -0.130 A  
HETATM   20  C   UNL     1      -6.446   9.074  68.132  1.00  0.00    -0.060 A  
HETATM   21  I   UNL     1      -5.326  10.610  67.208  1.00  0.00    -0.049 I  
HETATM   22  C   UNL     1      -7.567   6.942  68.173  1.00  0.00    -0.108 A  
HETATM   23  C   UNL     1      -6.863   9.325  69.451  1.00  0.00    -0.049 A  
BRANCH  18  24
HETATM   24  O   UNL     1      -6.301   7.780  66.165  1.00  0.00    -0.044 OA 
BRANCH  24  25
HETATM   25  C   UNL     1      -7.298   7.652  65.158  1.00  0.00    -0.076 C  
BRANCH  25  26
HETATM   26  C   UNL     1      -8.598   8.437  65.378  1.00  0.00    -0.167 C  
BRANCH  26  27
HETATM   27  N   UNL     1      -8.749   9.508  64.354  1.00  0.00    -0.197 NA 
BRANCH  27  28
HETATM   28  C   UNL     1      -9.146  10.818  64.901  1.00  0.00    -0.198 C  
HETATM   29  C   UNL     1     -10.645  11.037  65.073  1.00  0.00    -0.315 C  
ENDBRANCH  27  28
BRANCH  27  30
HETATM   30  C   UNL     1      -7.579   9.560  63.468  1.00  0.00    -0.118 C  
HETATM   31  C   UNL     1      -7.665  10.637  62.386  1.00  0.00    -0.189 C  
ENDBRANCH  27  30
ENDBRANCH  26  27
ENDBRANCH  25  26
ENDBRANCH  24  25
ENDBRANCH  18  24
ENDBRANCH  14  16
ENDBRANCH   6  14
ENDBRANCH   4   5
ENDBRANCH   3   4
ENDBRANCH   2   3
TORSDOF 11
ENDMDL
MODEL      177
REMARK 921   NORMALIZED FREE ENERGY PREDICTED BY IDOCK:   -3.81 KCAL/MOL
REMARK 922        TOTAL FREE ENERGY PREDICTED BY IDOCK:   -8.40 KCAL/MOL
REMARK 923 INTER-LIGAND FREE ENERGY PREDICTED BY IDOCK:   -6.78 KCAL/MOL
REMARK 924 INTRA-LIGAND FREE ENERGY PREDICTED BY IDOCK:   -1.62 KCAL/MOL
REMARK 927      BINDING AFFINITY PREDICTED BY RF-SCORE:    0.00 PKD
ROOT
HETATM    1  C   UNL     1      -6.781   4.001  69.080  1.00  0.00    -0.045 C  
HETATM    2  C   UNL     1      -5.931   5.248  68.899  1.00  0.00    -0.021 C  
ENDROOT
BRANCH   2   3
HETATM    3  C   UNL     1      -6.629   6.284  68.018  1.00  0.00    -0.062 C  
BRANCH   3   4
HETATM    4  C   UNL     1      -7.038   7.512  68.831  1.00  0.00    -0.080 C  
BRANCH   4   5
HETATM    5  C   UNL     1      -8.343   7.310  69.523  1.00  0.00    -0.133 A  
HETATM    6  C   UNL     1      -9.666   7.356  69.110  1.00  0.00    -0.165 A  
HETATM    7  C   UNL     1     -11.274   6.381  72.854  1.00  0.00    -0.219 A  
HETATM    8  C   UNL     1     -10.440   6.937  70.235  1.00  0.00    -0.227 A  
HETATM    9  C   UNL     1      -9.542   6.856  71.296  1.00  0.00    -0.165 A  
HETATM   10  C   UNL     1     -12.199   6.384  71.809  1.00  0.00    -0.312 A  
HETATM   11  C   UNL     1     -11.797   6.647  70.495  1.00  0.00    -0.430 A  
HETATM   12  C   UNL     1      -9.912   6.594  72.612  1.00  0.00    -0.185 A  
HETATM   13  O   UNL     1      -8.271   7.057  70.859  1.00  0.00    -0.118 OA 
BRANCH   6  14
HETATM   14  C   UNL     1     -10.085   7.743  67.774  1.00  0.00    -0.189 C  
HETATM   15  O   UNL     1     -10.092   6.938  66.847  1.00  0.00    -0.192 OA 
BRANCH  14  16
HETATM   16  C   UNL     1     -10.458   9.159  67.489  1.00  0.00    -0.335 A  
HETATM   17  I   UNL     1      -9.970  11.252  63.785  1.00  0.00    -0.487 I  
HETATM   18  C   UNL     1     -11.081  11.846  66.744  1.00  0.00    -0.308 A  
HETATM   19  C   UNL     1     -10.340   9.584  66.169  1.00  0.00    -0.188 A  
HETATM   20  C   UNL     1     -11.192  11.398  68.081  1.00  0.00    -0.278 A  
HETATM   21  I   UNL     1     -11.950  12.629  69.624  1.00  0.00    -0.112 I  
HETATM   22  C   UNL     1     -10.587  10.918  65.799  1.00  0.00    -0.163 A  
HETATM   23  C   UNL     1     -10.835  10.091  68.457  1.00  0.00    -0.270 A  
BRANCH  18  24
HETATM   24  O   UNL     1     -11.469  13.159  66.535  1.00  0.00    -0.310 OA 
BRANCH  24  25
HETATM   25  C   UNL     1     -10.398  14.076  66.352  1.00  0.00    -0.289 C  
BRANCH  25  26
HETATM   26  C   UNL     1     -10.563  15.460  66.994  1.00  0.00    -0.309 C  
BRANCH  26  27
HETATM   27  N   UNL     1      -9.324  15.860  67.718  1.00  0.00    -0.206 NA 
BRANCH  27  28
HETATM   28  C   UNL     1      -8.933  14.943  68.804  1.00  0.00    -0.188 C  
HETATM   29  C   UNL     1      -7.640  15.294  69.533  1.00  0.00    -0.219 C  
ENDBRANCH  27  28
BRANCH  27  30
HETATM   30  C   UNL     1      -8.239  16.165  66.776  1.00  0.00    -0.269 C  
HETATM   31  C   UNL     1      -8.023  17.659  66.538  1.00  0.00    -0.302 C  
ENDBRANCH  27  30
ENDBRANCH  26  27
ENDBRANCH  25  26
ENDBRANCH  24  25
ENDBRANCH  18  24
ENDBRANCH  14  16
ENDBRANCH   6  14
ENDBRANCH   4   5
ENDBRANCH   3   4
ENDBRANCH   2   3
TORSDOF 11
ENDMDL
MODEL      178
REMARK 921   NORMALIZED FREE ENERGY PREDICTED BY IDOCK:   -3.80 KCAL/MOL
REMARK 922        TOTAL FREE ENERGY PREDICTED BY IDOCK:   -8.39 KCAL/MOL
REMARK 923 INTER-LIGAND FREE ENERGY PREDICTED BY IDOCK:   -6.89 KCAL/MOL
REMARK 924 INTRA-LIGAND FREE ENERGY PREDICTED BY IDOCK:   -1.49 KCAL/MOL
REMARK 927      BINDING AFFINITY PREDICTED BY RF-SCORE:    0.00 PKD
ROOT
HETATM    1  C   UNL     1      -6.854   8.092  71.742  1.00  0.00    -0.067 C  
HETATM    2  C   UNL     1      -8.074   8.561  72.518  1.00  0.00    -0.122 C  
ENDROOT
BRANCH   2   3
HETATM    3  C   UNL     1      -8.117   7.955  73.922  1.00  0.00    -0.269 C  
BRANCH   3   4
HETATM    4  C   UNL     1      -9.288   6.984  74.065  1.00  0.00    -0.273 C  
BRANCH   4   5
HETATM    5  C   UNL     1      -9.384   6.053  72.904  1.00  0.00    -0.147 A  
HETATM    6  C   UNL     1     -10.253   5.945  71.829  1.00  0.00    -0.248 A  
HETATM    7  C   UNL     1      -8.312   2.664  70.092  1.00  0.00    -0.074 A  
HETATM    8  C   UNL     1      -9.716   4.916  70.997  1.00  0.00    -0.252 A  
HETATM    9  C   UNL     1      -8.674   4.351  71.727  1.00  0.00    -0.115 A  
HETATM   10  C   UNL     1      -9.303   3.239  69.296  1.00  0.00    -0.233 A  
HETATM   11  C   UNL     1     -10.005   4.370  69.728  1.00  0.00    -0.224 A  
HETATM   12  C   UNL     1      -7.958   3.229  71.322  1.00  0.00    -0.059 A  
HETATM   13  O   UNL     1      -8.457   5.056  72.869  1.00  0.00    -0.114 OA 
BRANCH   6  14
HETATM   14  C   UNL     1     -11.435   6.770  71.658  1.00  0.00    -0.282 C  
HETATM   15  O   UNL     1     -12.519   6.445  72.137  1.00  0.00    -0.291 OA 
BRANCH  14  16
HETATM   16  C   UNL     1     -11.367   8.011  70.833  1.00  0.00    -0.291 A  
HETATM   17  I   UNL     1      -9.244   8.539  67.150  1.00  0.00    -0.220 I  
HETATM   18  C   UNL     1     -11.094  10.283  69.120  1.00  0.00    -0.235 A  
HETATM   19  C   UNL     1     -10.735   7.908  69.597  1.00  0.00    -0.218 A  
HETATM   20  C   UNL     1     -11.732  10.370  70.380  1.00  0.00    -0.331 A  
HETATM   21  I   UNL     1     -12.653  12.148  71.056  1.00  0.00     0.072 I  
HETATM   22  C   UNL     1     -10.542   9.030  68.771  1.00  0.00    -0.169 A  
HETATM   23  C   UNL     1     -11.820   9.265  71.245  1.00  0.00    -0.415 A  
BRANCH  18  24
HETATM   24  O   UNL     1     -11.088  11.457  68.388  1.00  0.00    -0.205 OA 
BRANCH  24  25
HETATM   25  C   UNL     1      -9.840  12.139  68.363  1.00  0.00    -0.200 C  
BRANCH  25  26
HETATM   26  C   UNL     1      -9.641  13.163  67.237  1.00  0.00    -0.233 C  
BRANCH  26  27
HETATM   27  N   UNL     1     -10.615  14.284  67.363  1.00  0.00    -0.274 NA 
BRANCH  27  28
HETATM   28  C   UNL     1     -12.014  13.905  67.095  1.00  0.00    -0.420 C  
HETATM   29  C   UNL     1     -12.550  14.283  65.718  1.00  0.00    -0.405 C  
ENDBRANCH  27  28
BRANCH  27  30
HETATM   30  C   UNL     1     -10.424  15.009  68.625  1.00  0.00    -0.238 C  
HETATM   31  C   UNL     1     -11.249  16.291  68.737  1.00  0.00    -0.343 C  
ENDBRANCH  27  30
ENDBRANCH  26  27
ENDBRANCH  25  26
ENDBRANCH  24  25
ENDBRANCH  18  24
ENDBRANCH  14  16
ENDBRANCH   6  14
ENDBRANCH   4   5
ENDBRANCH   3   4
ENDBRANCH   2   3
TORSDOF 11
ENDMDL
MODEL      179
REMARK 921   NORMALIZED FREE ENERGY PREDICTED BY IDOCK:   -3.77 KCAL/MOL
REMARK 922        TOTAL FREE ENERGY PREDICTED BY IDOCK:   -8.34 KCAL/MOL
REMARK 923 INTER-LIGAND FREE ENERGY PREDICTED BY IDOCK:   -6.51 KCAL/MOL
REMARK 924 INTRA-LIGAND FREE ENERGY PREDICTED BY IDOCK:   -1.83 KCAL/MOL
REMARK 927      BINDING AFFINITY PREDICTED BY RF-SCORE:    0.00 PKD
ROOT
HETATM    1  C   UNL     1      -5.746   9.108  68.073  1.00  0.00    -0.038 C  
HETATM    2  C   UNL     1      -5.944   7.679  68.553  1.00  0.00    -0.031 C  
ENDROOT
BRANCH   2   3
HETATM    3  C   UNL     1      -5.792   7.568  70.070  1.00  0.00    -0.024 C  
BRANCH   3   4
HETATM    4  C   UNL     1      -6.872   8.374  70.792  1.00  0.00    -0.041 C  
BRANCH   4   5
HETATM    5  C   UNL     1      -7.916   7.493  71.391  1.00  0.00    -0.095 A  
HETATM    6  C   UNL     1      -8.986   6.782  70.870  1.00  0.00    -0.150 A  
HETATM    7  C   UNL     1     -10.196   5.165  74.540  1.00  0.00    -0.303 A  
HETATM    8  C   UNL     1      -9.520   6.030  71.960  1.00  0.00    -0.161 A  
HETATM    9  C   UNL     1      -8.854   6.490  73.093  1.00  0.00    -0.128 A  
HETATM   10  C   UNL     1     -10.844   4.626  73.428  1.00  0.00    -0.349 A  
HETATM   11  C   UNL     1     -10.509   5.037  72.133  1.00  0.00    -0.274 A  
HETATM   12  C   UNL     1      -9.163   6.097  74.392  1.00  0.00    -0.168 A  
HETATM   13  O   UNL     1      -7.867   7.356  72.745  1.00  0.00    -0.088 OA 
BRANCH   6  14
HETATM   14  C   UNL     1      -9.395   6.838  69.478  1.00  0.00    -0.146 C  
HETATM   15  O   UNL     1      -9.243   5.878  68.727  1.00  0.00    -0.115 OA 
BRANCH  14  16
HETATM   16  C   UNL     1      -9.957   8.100  68.914  1.00  0.00    -0.198 A  
HETATM   17  I   UNL     1     -12.798  10.709  70.775  1.00  0.00    -0.194 I  
HETATM   18  C   UNL     1     -11.163  10.528  68.011  1.00  0.00    -0.294 A  
HETATM   19  C   UNL     1     -10.758   8.862  69.760  1.00  0.00    -0.230 A  
HETATM   20  C   UNL     1     -10.348   9.740  67.165  1.00  0.00    -0.248 A  
HETATM   21  I   UNL     1      -9.841  10.346  65.204  1.00  0.00    -0.350 I  
HETATM   22  C   UNL     1     -11.404  10.027  69.310  1.00  0.00    -0.117 A  
HETATM   23  C   UNL     1      -9.798   8.519  67.592  1.00  0.00    -0.222 A  
BRANCH  18  24
HETATM   24  O   UNL     1     -11.630  11.701  67.443  1.00  0.00    -0.471 OA 
BRANCH  24  25
HETATM   25  C   UNL     1     -11.116  12.893  68.024  1.00  0.00    -0.253 C  
BRANCH  25  26
HETATM   26  C   UNL     1     -11.977  14.154  67.875  1.00  0.00    -0.343 C  
BRANCH  26  27
HETATM   27  N   UNL     1     -11.121  15.359  67.682  1.00  0.00    -0.313 NA 
BRANCH  27  28
HETATM   28  C   UNL     1     -10.266  15.687  68.837  1.00  0.00    -0.214 C  
HETATM   29  C   UNL     1     -10.963  16.382  70.001  1.00  0.00    -0.322 C  
ENDBRANCH  27  28
BRANCH  27  30
HETATM   30  C   UNL     1     -10.401  15.295  66.404  1.00  0.00    -0.289 C  
HETATM   31  C   UNL     1      -8.927  15.690  66.500  1.00  0.00    -0.343 C  
ENDBRANCH  27  30
ENDBRANCH  26  27
ENDBRANCH  25  26
ENDBRANCH  24  25
ENDBRANCH  18  24
ENDBRANCH  14  16
ENDBRANCH   6  14
ENDBRANCH   4   5
ENDBRANCH   3   4
ENDBRANCH   2   3
TORSDOF 11
ENDMDL
MODEL      180
REMARK 921   NORMALIZED FREE ENERGY PREDICTED BY IDOCK:   -3.72 KCAL/MOL
REMARK 922        TOTAL FREE ENERGY PREDICTED BY IDOCK:   -8.27 KCAL/MOL
REMARK 923 INTER-LIGAND FREE ENERGY PREDICTED BY IDOCK:   -6.64 KCAL/MOL
REMARK 924 INTRA-LIGAND FREE ENERGY PREDICTED BY IDOCK:   -1.62 KCAL/MOL
REMARK 927      BINDING AFFINITY PREDICTED BY RF-SCORE:    0.00 PKD
ROOT
HETATM    1  C   UNL     1     -13.298   9.318  72.083  1.00  0.00    -0.537 C  
HETATM    2  C   UNL     1     -13.049  10.738  71.599  1.00  0.00    -0.551 C  
ENDROOT
BRANCH   2   3
HETATM    3  C   UNL     1     -11.780  10.830  70.751  1.00  0.00    -0.400 C  
BRANCH   3   4
HETATM    4  C   UNL     1     -12.118  10.928  69.264  1.00  0.00    -0.332 C  
BRANCH   4   5
HETATM    5  C   UNL     1     -11.356  12.019  68.591  1.00  0.00    -0.277 A  
HETATM    6  C   UNL     1     -10.040  12.155  68.174  1.00  0.00    -0.206 A  
HETATM    7  C   UNL     1     -10.534  16.002  66.591  1.00  0.00    -0.304 A  
HETATM    8  C   UNL     1      -9.981  13.400  67.478  1.00  0.00    -0.230 A  
HETATM    9  C   UNL     1     -11.214  14.009  67.693  1.00  0.00    -0.297 A  
HETATM   10  C   UNL     1      -9.309  15.406  66.292  1.00  0.00    -0.351 A  
HETATM   11  C   UNL     1      -9.022  14.103  66.717  1.00  0.00    -0.229 A  
HETATM   12  C   UNL     1     -11.529  15.300  67.281  1.00  0.00    -0.227 A  
HETATM   13  O   UNL     1     -12.054  13.162  68.345  1.00  0.00    -0.318 OA 
BRANCH   6  14
HETATM   14  C   UNL     1      -9.005  11.167  68.423  1.00  0.00    -0.165 C  
HETATM   15  O   UNL     1      -8.050  11.411  69.156  1.00  0.00    -0.057 OA 
BRANCH  14  16
HETATM   16  C   UNL     1      -9.054   9.845  67.735  1.00  0.00    -0.138 A  
HETATM   17  I   UNL     1      -8.230   9.061  63.606  1.00  0.00    -0.129 I  
HETATM   18  C   UNL     1      -9.104   7.417  66.228  1.00  0.00    -0.156 A  
HETATM   19  C   UNL     1      -8.605   9.807  66.418  1.00  0.00    -0.132 A  
HETATM   20  C   UNL     1      -9.559   7.474  67.567  1.00  0.00    -0.142 A  
HETATM   21  I   UNL     1     -10.192   5.753  68.617  1.00  0.00    -0.286 I  
HETATM   22  C   UNL     1      -8.680   8.633  65.647  1.00  0.00    -0.182 A  
HETATM   23  C   UNL     1      -9.583   8.679  68.291  1.00  0.00    -0.160 A  
BRANCH  18  24
HETATM   24  O   UNL     1      -9.145   6.159  65.653  1.00  0.00    -0.107 OA 
BRANCH  24  25
HETATM   25  C   UNL     1      -7.875   5.617  65.313  1.00  0.00    -0.100 C  
BRANCH  25  26
HETATM   26  C   UNL     1      -7.695   4.108  65.527  1.00  0.00    -0.086 C  
BRANCH  26  27
HETATM   27  N   UNL     1      -9.016   3.425  65.621  1.00  0.00    -0.136 NA 
BRANCH  27  28
HETATM   28  C   UNL     1      -9.530   2.921  64.334  1.00  0.00    -0.145 C  
HETATM   29  C   UNL     1      -8.480   2.390  63.364  1.00  0.00    -0.085 C  
ENDBRANCH  27  28
BRANCH  27  30
HETATM   30  C   UNL     1      -9.018   2.426  66.697  1.00  0.00    -0.119 C  
HETATM   31  C   UNL     1      -7.753   2.433  67.555  1.00  0.00    -0.061 C  
ENDBRANCH  27  30
ENDBRANCH  26  27
ENDBRANCH  25  26
ENDBRANCH  24  25
ENDBRANCH  18  24
ENDBRANCH  14  16
ENDBRANCH   6  14
ENDBRANCH   4   5
ENDBRANCH   3   4
ENDBRANCH   2   3
TORSDOF 11
ENDMDL
MODEL      181
REMARK 921   NORMALIZED FREE ENERGY PREDICTED BY IDOCK:   -3.70 KCAL/MOL
REMARK 922        TOTAL FREE ENERGY PREDICTED BY IDOCK:   -8.23 KCAL/MOL
REMARK 923 INTER-LIGAND FREE ENERGY PREDICTED BY IDOCK:   -6.47 KCAL/MOL
REMARK 924 INTRA-LIGAND FREE ENERGY PREDICTED BY IDOCK:   -1.76 KCAL/MOL
REMARK 927      BINDING AFFINITY PREDICTED BY RF-SCORE:    0.00 PKD
ROOT
HETATM    1  C   UNL     1     -11.135   5.056  73.297  1.00  0.00    -0.406 C  
HETATM    2  C   UNL     1     -10.018   5.976  72.834  1.00  0.00    -0.187 C  
ENDROOT
BRANCH   2   3
HETATM    3  C   UNL     1     -10.304   6.558  71.449  1.00  0.00    -0.234 C  
BRANCH   3   4
HETATM    4  C   UNL     1     -10.499   5.449  70.415  1.00  0.00    -0.345 C  
BRANCH   4   5
HETATM    5  C   UNL     1      -9.434   5.467  69.373  1.00  0.00    -0.133 A  
HETATM    6  C   UNL     1      -9.331   6.040  68.114  1.00  0.00    -0.115 A  
HETATM    7  C   UNL     1      -5.438   4.677  67.385  1.00  0.00    -0.013 A  
HETATM    8  C   UNL     1      -7.993   5.793  67.682  1.00  0.00    -0.102 A  
HETATM    9  C   UNL     1      -7.450   4.926  68.626  1.00  0.00    -0.069 A  
HETATM   10  C   UNL     1      -5.915   5.594  66.449  1.00  0.00    -0.022 A  
HETATM   11  C   UNL     1      -7.183   6.170  66.590  1.00  0.00    -0.074 A  
HETATM   12  C   UNL     1      -6.192   4.340  68.514  1.00  0.00    -0.032 A  
HETATM   13  O   UNL     1      -8.312   4.750  69.661  1.00  0.00    -0.077 OA 
BRANCH   6  14
HETATM   14  C   UNL     1     -10.415   6.748  67.456  1.00  0.00    -0.239 C  
HETATM   15  O   UNL     1     -11.284   6.149  66.828  1.00  0.00    -0.279 OA 
BRANCH  14  16
HETATM   16  C   UNL     1     -10.456   8.239  67.481  1.00  0.00    -0.325 A  
HETATM   17  I   UNL     1     -12.070  10.718  70.578  1.00  0.00    -0.503 I  
HETATM   18  C   UNL     1     -10.650  11.081  67.715  1.00  0.00    -0.211 A  
HETATM   19  C   UNL     1     -10.899   8.835  68.659  1.00  0.00    -0.018 A  
HETATM   20  C   UNL     1     -10.205  10.458  66.525  1.00  0.00    -0.229 A  
HETATM   21  I   UNL     1      -9.521  11.568  64.861  1.00  0.00     0.055 I  
HETATM   22  C   UNL     1     -11.055  10.228  68.767  1.00  0.00    -0.228 A  
HETATM   23  C   UNL     1     -10.160   9.060  66.391  1.00  0.00    -0.351 A  
BRANCH  18  24
HETATM   24  O   UNL     1     -10.638  12.465  67.688  1.00  0.00    -0.210 OA 
BRANCH  24  25
HETATM   25  C   UNL     1     -11.919  13.070  67.553  1.00  0.00    -0.306 C  
BRANCH  25  26
HETATM   26  C   UNL     1     -11.954  14.456  66.895  1.00  0.00    -0.399 C  
BRANCH  26  27
HETATM   27  N   UNL     1     -10.584  15.033  66.801  1.00  0.00    -0.295 NA 
BRANCH  27  28
HETATM   28  C   UNL     1     -10.230  15.541  65.463  1.00  0.00    -0.386 C  
HETATM   29  C   UNL     1     -11.348  15.505  64.425  1.00  0.00    -0.260 C  
ENDBRANCH  27  28
BRANCH  27  30
HETATM   30  C   UNL     1     -10.339  15.991  67.886  1.00  0.00    -0.269 C  
HETATM   31  C   UNL     1      -9.072  15.706  68.694  1.00  0.00    -0.205 C  
ENDBRANCH  27  30
ENDBRANCH  26  27
ENDBRANCH  25  26
ENDBRANCH  24  25
ENDBRANCH  18  24
ENDBRANCH  14  16
ENDBRANCH   6  14
ENDBRANCH   4   5
ENDBRANCH   3   4
ENDBRANCH   2   3
TORSDOF 11
ENDMDL
MODEL      182
REMARK 921   NORMALIZED FREE ENERGY PREDICTED BY IDOCK:   -3.70 KCAL/MOL
REMARK 922        TOTAL FREE ENERGY PREDICTED BY IDOCK:   -8.23 KCAL/MOL
REMARK 923 INTER-LIGAND FREE ENERGY PREDICTED BY IDOCK:   -6.80 KCAL/MOL
REMARK 924 INTRA-LIGAND FREE ENERGY PREDICTED BY IDOCK:   -1.43 KCAL/MOL
REMARK 927      BINDING AFFINITY PREDICTED BY RF-SCORE:    0.00 PKD
ROOT
HETATM    1  C   UNL     1     -12.695  15.243  71.199  1.00  0.00    -0.476 C  
HETATM    2  C   UNL     1     -11.466  15.831  70.525  1.00  0.00    -0.401 C  
ENDROOT
BRANCH   2   3
HETATM    3  C   UNL     1     -11.271  15.268  69.116  1.00  0.00    -0.285 C  
BRANCH   3   4
HETATM    4  C   UNL     1     -11.773  13.827  69.025  1.00  0.00    -0.372 C  
BRANCH   4   5
HETATM    5  C   UNL     1     -11.335  13.165  67.763  1.00  0.00    -0.290 A  
HETATM    6  C   UNL     1     -10.208  12.444  67.398  1.00  0.00    -0.215 A  
HETATM    7  C   UNL     1     -11.483  11.696  63.478  1.00  0.00    -0.427 A  
HETATM    8  C   UNL     1     -10.463  11.969  66.076  1.00  0.00    -0.284 A  
HETATM    9  C   UNL     1     -11.637  12.598  65.672  1.00  0.00    -0.377 A  
HETATM   10  C   UNL     1     -10.341  10.992  63.860  1.00  0.00    -0.436 A  
HETATM   11  C   UNL     1      -9.826  11.107  65.156  1.00  0.00    -0.307 A  
HETATM   12  C   UNL     1     -12.174  12.500  64.391  1.00  0.00    -0.528 A  
HETATM   13  O   UNL     1     -12.177  13.301  66.702  1.00  0.00    -0.370 OA 
BRANCH   6  14
HETATM   14  C   UNL     1      -9.058  12.247  68.262  1.00  0.00    -0.187 C  
HETATM   15  O   UNL     1      -8.269  13.159  68.496  1.00  0.00    -0.145 OA 
BRANCH  14  16
HETATM   16  C   UNL     1      -8.776  10.899  68.836  1.00  0.00    -0.144 A  
HETATM   17  I   UNL     1     -11.481   8.435  71.061  1.00  0.00    -0.279 I  
HETATM   18  C   UNL     1      -8.438   8.324  70.026  1.00  0.00    -0.123 A  
HETATM   19  C   UNL     1      -9.854  10.220  69.397  1.00  0.00    -0.247 A  
HETATM   20  C   UNL     1      -7.354   9.029  69.453  1.00  0.00    -0.075 A  
HETATM   21  I   UNL     1      -5.417   8.195  69.307  1.00  0.00    -0.031 I  
HETATM   22  C   UNL     1      -9.690   8.979  70.038  1.00  0.00    -0.185 A  
HETATM   23  C   UNL     1      -7.510  10.318  68.915  1.00  0.00    -0.094 A  
BRANCH  18  24
HETATM   24  O   UNL     1      -8.123   7.068  70.515  1.00  0.00    -0.111 OA 
BRANCH  24  25
HETATM   25  C   UNL     1      -8.530   5.985  69.688  1.00  0.00    -0.126 C  
BRANCH  25  26
HETATM   26  C   UNL     1      -7.917   4.614  70.002  1.00  0.00    -0.064 C  
BRANCH  26  27
HETATM   27  N   UNL     1      -6.683   4.389  69.197  1.00  0.00    -0.044 NA 
BRANCH  27  28
HETATM   28  C   UNL     1      -5.617   3.663  69.910  1.00  0.00    -0.017 C  
HETATM   29  C   UNL     1      -5.990   3.125  71.287  1.00  0.00    -0.014 C  
ENDBRANCH  27  28
BRANCH  27  30
HETATM   30  C   UNL     1      -7.009   3.827  67.879  1.00  0.00    -0.051 C  
HETATM   31  C   UNL     1      -8.339   3.076  67.835  1.00  0.00    -0.094 C  
ENDBRANCH  27  30
ENDBRANCH  26  27
ENDBRANCH  25  26
ENDBRANCH  24  25
ENDBRANCH  18  24
ENDBRANCH  14  16
ENDBRANCH   6  14
ENDBRANCH   4   5
ENDBRANCH   3   4
ENDBRANCH   2   3
TORSDOF 11
ENDMDL
MODEL      183
REMARK 921   NORMALIZED FREE ENERGY PREDICTED BY IDOCK:   -3.70 KCAL/MOL
REMARK 922        TOTAL FREE ENERGY PREDICTED BY IDOCK:   -8.22 KCAL/MOL
REMARK 923 INTER-LIGAND FREE ENERGY PREDICTED BY IDOCK:   -6.68 KCAL/MOL
REMARK 924 INTRA-LIGAND FREE ENERGY PREDICTED BY IDOCK:   -1.54 KCAL/MOL
REMARK 927      BINDING AFFINITY PREDICTED BY RF-SCORE:    0.00 PKD
ROOT
HETATM    1  C   UNL     1     -11.329   5.035  73.283  1.00  0.00    -0.393 C  
HETATM    2  C   UNL     1     -10.247   6.068  73.017  1.00  0.00    -0.210 C  
ENDROOT
BRANCH   2   3
HETATM    3  C   UNL     1     -10.478   6.798  71.693  1.00  0.00    -0.231 C  
BRANCH   3   4
HETATM    4  C   UNL     1     -11.280   5.934  70.721  1.00  0.00    -0.281 C  
BRANCH   4   5
HETATM    5  C   UNL     1     -10.401   5.253  69.727  1.00  0.00    -0.299 A  
HETATM    6  C   UNL     1      -9.991   5.559  68.439  1.00  0.00    -0.210 A  
HETATM    7  C   UNL     1      -7.595   2.154  67.976  1.00  0.00    -0.055 A  
HETATM    8  C   UNL     1      -9.040   4.555  68.084  1.00  0.00    -0.155 A  
HETATM    9  C   UNL     1      -9.093   3.612  69.107  1.00  0.00    -0.137 A  
HETATM   10  C   UNL     1      -7.459   3.100  66.960  1.00  0.00    -0.074 A  
HETATM   11  C   UNL     1      -8.163   4.309  67.005  1.00  0.00    -0.101 A  
HETATM   12  C   UNL     1      -8.403   2.404  69.091  1.00  0.00    -0.078 A  
HETATM   13  O   UNL     1      -9.897   4.048  70.113  1.00  0.00    -0.210 OA 
BRANCH   6  14
HETATM   14  C   UNL     1     -10.470   6.706  67.687  1.00  0.00    -0.227 C  
HETATM   15  O   UNL     1     -11.354   6.593  66.842  1.00  0.00    -0.333 OA 
BRANCH  14  16
HETATM   16  C   UNL     1      -9.845   8.045  67.888  1.00  0.00    -0.204 A  
HETATM   17  I   UNL     1     -11.663  11.492  69.666  1.00  0.00    -0.414 I  
HETATM   18  C   UNL     1      -8.843  10.682  68.348  1.00  0.00    -0.145 A  
HETATM   19  C   UNL     1     -10.578   8.975  68.621  1.00  0.00    -0.194 A  
HETATM   20  C   UNL     1      -8.114   9.725  67.603  1.00  0.00    -0.113 A  
HETATM   21  I   UNL     1      -6.166  10.109  66.876  1.00  0.00    -0.072 I  
HETATM   22  C   UNL     1     -10.123  10.293  68.804  1.00  0.00    -0.187 A  
HETATM   23  C   UNL     1      -8.629   8.446  67.333  1.00  0.00    -0.124 A  
BRANCH  18  24
HETATM   24  O   UNL     1      -8.201  11.895  68.526  1.00  0.00    -0.154 OA 
BRANCH  24  25
HETATM   25  C   UNL     1      -8.764  12.982  67.802  1.00  0.00    -0.188 C  
BRANCH  25  26
HETATM   26  C   UNL     1      -9.320  12.661  66.408  1.00  0.00    -0.198 C  
BRANCH  26  27
HETATM   27  N   UNL     1     -10.161  13.782  65.902  1.00  0.00    -0.307 NA 
BRANCH  27  28
HETATM   28  C   UNL     1     -11.569  13.422  65.659  1.00  0.00    -0.327 C  
HETATM   29  C   UNL     1     -12.087  13.689  64.250  1.00  0.00    -0.480 C  
ENDBRANCH  27  28
BRANCH  27  30
HETATM   30  C   UNL     1      -9.986  14.985  66.726  1.00  0.00    -0.248 C  
HETATM   31  C   UNL     1      -9.468  16.199  65.953  1.00  0.00    -0.337 C  
ENDBRANCH  27  30
ENDBRANCH  26  27
ENDBRANCH  25  26
ENDBRANCH  24  25
ENDBRANCH  18  24
ENDBRANCH  14  16
ENDBRANCH   6  14
ENDBRANCH   4   5
ENDBRANCH   3   4
ENDBRANCH   2   3
TORSDOF 11
ENDMDL
MODEL      184
REMARK 921   NORMALIZED FREE ENERGY PREDICTED BY IDOCK:   -3.70 KCAL/MOL
REMARK 922        TOTAL FREE ENERGY PREDICTED BY IDOCK:   -8.22 KCAL/MOL
REMARK 923 INTER-LIGAND FREE ENERGY PREDICTED BY IDOCK:   -6.84 KCAL/MOL
REMARK 924 INTRA-LIGAND FREE ENERGY PREDICTED BY IDOCK:   -1.38 KCAL/MOL
REMARK 927      BINDING AFFINITY PREDICTED BY RF-SCORE:    0.00 PKD
ROOT
HETATM    1  C   UNL     1      -8.209   3.742  66.863  1.00  0.00    -0.096 C  
HETATM    2  C   UNL     1      -6.868   3.922  67.556  1.00  0.00    -0.054 C  
ENDROOT
BRANCH   2   3
HETATM    3  C   UNL     1      -7.023   4.598  68.919  1.00  0.00    -0.052 C  
BRANCH   3   4
HETATM    4  C   UNL     1      -8.474   5.007  69.168  1.00  0.00    -0.088 C  
BRANCH   4   5
HETATM    5  C   UNL     1      -8.999   4.442  70.444  1.00  0.00    -0.092 A  
HETATM    6  C   UNL     1      -9.129   4.938  71.733  1.00  0.00    -0.166 A  
HETATM    7  C   UNL     1     -10.892   1.479  73.304  1.00  0.00    -0.232 A  
HETATM    8  C   UNL     1      -9.832   3.936  72.466  1.00  0.00    -0.216 A  
HETATM    9  C   UNL     1      -9.903   2.833  71.620  1.00  0.00    -0.141 A  
HETATM   10  C   UNL     1     -10.904   2.577  74.165  1.00  0.00    -0.226 A  
HETATM   11  C   UNL     1     -10.390   3.813  73.758  1.00  0.00    -0.240 A  
HETATM   12  C   UNL     1     -10.410   1.593  71.995  1.00  0.00    -0.185 A  
HETATM   13  O   UNL     1      -9.422   3.149  70.388  1.00  0.00    -0.155 OA 
BRANCH   6  14
HETATM   14  C   UNL     1      -8.635   6.238  72.153  1.00  0.00    -0.126 C  
HETATM   15  O   UNL     1      -7.770   6.345  73.018  1.00  0.00    -0.098 OA 
BRANCH  14  16
HETATM   16  C   UNL     1      -9.223   7.482  71.578  1.00  0.00    -0.149 A  
HETATM   17  I   UNL     1     -13.266   8.840  71.976  1.00  0.00    -0.510 I  
HETATM   18  C   UNL     1     -10.546   9.800  70.554  1.00  0.00    -0.312 A  
HETATM   19  C   UNL     1     -10.526   7.794  71.960  1.00  0.00    -0.277 A  
HETATM   20  C   UNL     1      -9.224   9.466  70.175  1.00  0.00    -0.234 A  
HETATM   21  I   UNL     1      -8.061  10.712  68.926  1.00  0.00    -0.110 I  
HETATM   22  C   UNL     1     -11.208   8.898  71.418  1.00  0.00    -0.312 A  
HETATM   23  C   UNL     1      -8.592   8.298  70.638  1.00  0.00    -0.139 A  
BRANCH  18  24
HETATM   24  O   UNL     1     -11.026  10.980  70.013  1.00  0.00    -0.216 OA 
BRANCH  24  25
HETATM   25  C   UNL     1     -11.986  10.814  68.977  1.00  0.00    -0.186 C  
BRANCH  25  26
HETATM   26  C   UNL     1     -11.514  11.123  67.550  1.00  0.00    -0.216 C  
BRANCH  26  27
HETATM   27  N   UNL     1     -12.069  12.424  67.079  1.00  0.00    -0.529 NA 
BRANCH  27  28
HETATM   28  C   UNL     1     -11.966  13.518  68.061  1.00  0.00    -0.337 C  
HETATM   29  C   UNL     1     -10.581  14.137  68.219  1.00  0.00    -0.254 C  
ENDBRANCH  27  28
BRANCH  27  30
HETATM   30  C   UNL     1     -11.552  12.766  65.748  1.00  0.00    -0.376 C  
HETATM   31  C   UNL     1     -12.592  12.664  64.632  1.00  0.00    -0.517 C  
ENDBRANCH  27  30
ENDBRANCH  26  27
ENDBRANCH  25  26
ENDBRANCH  24  25
ENDBRANCH  18  24
ENDBRANCH  14  16
ENDBRANCH   6  14
ENDBRANCH   4   5
ENDBRANCH   3   4
ENDBRANCH   2   3
TORSDOF 11
ENDMDL
MODEL      185
REMARK 921   NORMALIZED FREE ENERGY PREDICTED BY IDOCK:   -3.69 KCAL/MOL
REMARK 922        TOTAL FREE ENERGY PREDICTED BY IDOCK:   -8.21 KCAL/MOL
REMARK 923 INTER-LIGAND FREE ENERGY PREDICTED BY IDOCK:   -6.48 KCAL/MOL
REMARK 924 INTRA-LIGAND FREE ENERGY PREDICTED BY IDOCK:   -1.73 KCAL/MOL
REMARK 927      BINDING AFFINITY PREDICTED BY RF-SCORE:    0.00 PKD
ROOT
HETATM    1  C   UNL     1      -5.475  13.441  67.614  1.00  0.00    -0.033 C  
HETATM    2  C   UNL     1      -6.876  13.213  68.157  1.00  0.00    -0.111 C  
ENDROOT
BRANCH   2   3
HETATM    3  C   UNL     1      -7.116  11.741  68.499  1.00  0.00    -0.091 C  
BRANCH   3   4
HETATM    4  C   UNL     1      -7.419  10.927  67.241  1.00  0.00    -0.104 C  
BRANCH   4   5
HETATM    5  C   UNL     1      -8.728  11.304  66.637  1.00  0.00    -0.174 A  
HETATM    6  C   UNL     1     -10.035  11.303  67.100  1.00  0.00    -0.219 A  
HETATM    7  C   UNL     1     -11.696  12.839  63.574  1.00  0.00    -0.597 A  
HETATM    8  C   UNL     1     -10.814  11.910  66.069  1.00  0.00    -0.342 A  
HETATM    9  C   UNL     1      -9.951  12.055  64.985  1.00  0.00    -0.233 A  
HETATM   10  C   UNL     1     -12.581  12.774  64.651  1.00  0.00    -0.491 A  
HETATM   11  C   UNL     1     -12.153  12.325  65.905  1.00  0.00    -0.261 A  
HETATM   12  C   UNL     1     -10.347  12.501  63.728  1.00  0.00    -0.418 A  
HETATM   13  O   UNL     1      -8.684  11.712  65.339  1.00  0.00     0.050 OA 
BRANCH   6  14
HETATM   14  C   UNL     1     -10.434  10.786  68.397  1.00  0.00    -0.183 C  
HETATM   15  O   UNL     1     -11.082  11.469  69.187  1.00  0.00    -0.233 OA 
BRANCH  14  16
HETATM   16  C   UNL     1     -10.005   9.423  68.823  1.00  0.00    -0.191 A  
HETATM   17  I   UNL     1      -7.420   8.444  72.095  1.00  0.00    -0.039 I  
HETATM   18  C   UNL     1      -9.052   6.907  69.789  1.00  0.00    -0.144 A  
HETATM   19  C   UNL     1      -9.276   9.336  70.006  1.00  0.00    -0.231 A  
HETATM   20  C   UNL     1      -9.792   7.014  68.587  1.00  0.00    -0.148 A  
HETATM   21  I   UNL     1     -10.373   5.319  67.467  1.00  0.00    -0.080 I  
HETATM   22  C   UNL     1      -8.752   8.113  70.461  1.00  0.00    -0.135 A  
HETATM   23  C   UNL     1     -10.215   8.257  68.085  1.00  0.00    -0.255 A  
BRANCH  18  24
HETATM   24  O   UNL     1      -8.708   5.616  70.148  1.00  0.00    -0.132 OA 
BRANCH  24  25
HETATM   25  C   UNL     1      -9.229   5.185  71.400  1.00  0.00    -0.146 C  
BRANCH  25  26
HETATM   26  C   UNL     1     -10.752   5.024  71.488  1.00  0.00    -0.043 C  
BRANCH  26  27
HETATM   27  N   UNL     1     -11.242   5.364  72.854  1.00  0.00    -0.300 NA 
BRANCH  27  28
HETATM   28  C   UNL     1     -10.892   4.374  73.888  1.00  0.00    -0.268 C  
HETATM   29  C   UNL     1     -10.878   2.919  73.433  1.00  0.00    -0.300 C  
ENDBRANCH  27  28
BRANCH  27  30
HETATM   30  C   UNL     1     -10.895   6.746  73.209  1.00  0.00    -0.272 C  
HETATM   31  C   UNL     1     -11.801   7.799  72.572  1.00  0.00    -0.354 C  
ENDBRANCH  27  30
ENDBRANCH  26  27
ENDBRANCH  25  26
ENDBRANCH  24  25
ENDBRANCH  18  24
ENDBRANCH  14  16
ENDBRANCH   6  14
ENDBRANCH   4   5
ENDBRANCH   3   4
ENDBRANCH   2   3
TORSDOF 11
ENDMDL
MODEL      186
REMARK 921   NORMALIZED FREE ENERGY PREDICTED BY IDOCK:   -3.68 KCAL/MOL
REMARK 922        TOTAL FREE ENERGY PREDICTED BY IDOCK:   -8.19 KCAL/MOL
REMARK 923 INTER-LIGAND FREE ENERGY PREDICTED BY IDOCK:   -6.91 KCAL/MOL
REMARK 924 INTRA-LIGAND FREE ENERGY PREDICTED BY IDOCK:   -1.28 KCAL/MOL
REMARK 927      BINDING AFFINITY PREDICTED BY RF-SCORE:    0.00 PKD
ROOT
HETATM    1  C   UNL     1     -12.981   9.119  72.081  1.00  0.00    -0.498 C  
HETATM    2  C   UNL     1     -12.487  10.529  71.798  1.00  0.00    -0.362 C  
ENDROOT
BRANCH   2   3
HETATM    3  C   UNL     1     -11.690  10.596  70.495  1.00  0.00    -0.451 C  
BRANCH   3   4
HETATM    4  C   UNL     1     -12.535  11.176  69.362  1.00  0.00    -0.085 C  
BRANCH   4   5
HETATM    5  C   UNL     1     -11.953  12.439  68.825  1.00  0.00    -0.229 A  
HETATM    6  C   UNL     1     -11.487  12.828  67.578  1.00  0.00    -0.390 A  
HETATM    7  C   UNL     1     -10.512  16.736  68.731  1.00  0.00    -0.338 A  
HETATM    8  C   UNL     1     -11.180  14.217  67.693  1.00  0.00    -0.321 A  
HETATM    9  C   UNL     1     -11.301  14.516  69.048  1.00  0.00    -0.272 A  
HETATM   10  C   UNL     1     -10.440  16.502  67.357  1.00  0.00    -0.310 A  
HETATM   11  C   UNL     1     -10.783  15.255  66.822  1.00  0.00    -0.313 A  
HETATM   12  C   UNL     1     -10.971  15.747  69.608  1.00  0.00    -0.306 A  
HETATM   13  O   UNL     1     -11.793  13.447  69.727  1.00  0.00    -0.303 OA 
BRANCH   6  14
HETATM   14  C   UNL     1     -11.386  11.935  66.437  1.00  0.00    -0.339 C  
HETATM   15  O   UNL     1     -12.164  12.017  65.490  1.00  0.00    -0.483 OA 
BRANCH  14  16
HETATM   16  C   UNL     1     -10.362  10.851  66.424  1.00  0.00    -0.306 A  
HETATM   17  I   UNL     1     -10.283   7.359  68.903  1.00  0.00    -0.207 I  
HETATM   18  C   UNL     1      -8.506   8.683  66.573  1.00  0.00    -0.113 A  
HETATM   19  C   UNL     1     -10.619   9.738  67.220  1.00  0.00    -0.320 A  
HETATM   20  C   UNL     1      -8.260   9.823  65.772  1.00  0.00    -0.122 A  
HETATM   21  I   UNL     1      -6.568   9.973  64.514  1.00  0.00    -0.057 I  
HETATM   22  C   UNL     1      -9.687   8.692  67.348  1.00  0.00    -0.175 A  
HETATM   23  C   UNL     1      -9.148  10.913  65.739  1.00  0.00    -0.214 A  
BRANCH  18  24
HETATM   24  O   UNL     1      -7.536   7.698  66.498  1.00  0.00    -0.092 OA 
BRANCH  24  25
HETATM   25  C   UNL     1      -7.034   7.257  67.753  1.00  0.00    -0.076 C  
BRANCH  25  26
HETATM   26  C   UNL     1      -5.747   7.928  68.250  1.00  0.00    -0.033 C  
BRANCH  26  27
HETATM   27  N   UNL     1      -5.767   8.082  69.732  1.00  0.00    -0.023 NA 
BRANCH  27  28
HETATM   28  C   UNL     1      -6.201   9.411  70.198  1.00  0.00    -0.055 C  
HETATM   29  C   UNL     1      -7.515   9.445  70.970  1.00  0.00    -0.041 C  
ENDBRANCH  27  28
BRANCH  27  30
HETATM   30  C   UNL     1      -6.478   6.965  70.368  1.00  0.00    -0.047 C  
HETATM   31  C   UNL     1      -5.702   6.300  71.505  1.00  0.00    -0.027 C  
ENDBRANCH  27  30
ENDBRANCH  26  27
ENDBRANCH  25  26
ENDBRANCH  24  25
ENDBRANCH  18  24
ENDBRANCH  14  16
ENDBRANCH   6  14
ENDBRANCH   4   5
ENDBRANCH   3   4
ENDBRANCH   2   3
TORSDOF 11
ENDMDL
MODEL      187
REMARK 921   NORMALIZED FREE ENERGY PREDICTED BY IDOCK:   -3.66 KCAL/MOL
REMARK 922        TOTAL FREE ENERGY PREDICTED BY IDOCK:   -8.17 KCAL/MOL
REMARK 923 INTER-LIGAND FREE ENERGY PREDICTED BY IDOCK:   -7.02 KCAL/MOL
REMARK 924 INTRA-LIGAND FREE ENERGY PREDICTED BY IDOCK:   -1.15 KCAL/MOL
REMARK 927      BINDING AFFINITY PREDICTED BY RF-SCORE:    0.00 PKD
ROOT
HETATM    1  C   UNL     1     -11.333   6.144  69.867  1.00  0.00    -0.454 C  
HETATM    2  C   UNL     1     -10.042   5.398  70.165  1.00  0.00    -0.322 C  
ENDROOT
BRANCH   2   3
HETATM    3  C   UNL     1      -8.862   6.356  70.328  1.00  0.00    -0.151 C  
BRANCH   3   4
HETATM    4  C   UNL     1      -9.326   7.718  70.844  1.00  0.00    -0.157 C  
BRANCH   4   5
HETATM    5  C   UNL     1      -8.599   8.839  70.182  1.00  0.00    -0.146 A  
HETATM    6  C   UNL     1      -9.004   9.964  69.479  1.00  0.00    -0.224 A  
HETATM    7  C   UNL     1      -5.131  11.415  68.809  1.00  0.00    -0.040 A  
HETATM    8  C   UNL     1      -7.814  10.710  69.221  1.00  0.00    -0.140 A  
HETATM    9  C   UNL     1      -6.763   9.887  69.616  1.00  0.00    -0.061 A  
HETATM   10  C   UNL     1      -6.151  12.301  68.459  1.00  0.00    -0.055 A  
HETATM   11  C   UNL     1      -7.494  11.970  68.670  1.00  0.00    -0.113 A  
HETATM   12  C   UNL     1      -5.419  10.190  69.422  1.00  0.00    -0.038 A  
HETATM   13  O   UNL     1      -7.239   8.766  70.221  1.00  0.00    -0.042 OA 
BRANCH   6  14
HETATM   14  C   UNL     1     -10.386  10.252  69.139  1.00  0.00    -0.223 C  
HETATM   15  O   UNL     1     -11.231   9.363  69.085  1.00  0.00    -0.082 OA 
BRANCH  14  16
HETATM   16  C   UNL     1     -10.794  11.643  68.785  1.00  0.00    -0.262 A  
HETATM   17  I   UNL     1     -12.837  14.444  71.299  1.00  0.00    -0.464 I  
HETATM   18  C   UNL     1     -11.675  14.318  68.303  1.00  0.00    -0.342 A  
HETATM   19  C   UNL     1     -11.319  12.422  69.812  1.00  0.00    -0.125 A  
HETATM   20  C   UNL     1     -11.141  13.510  67.271  1.00  0.00    -0.286 A  
HETATM   21  I   UNL     1     -10.825  14.245  65.314  1.00  0.00    -0.453 I  
HETATM   22  C   UNL     1     -11.810  13.719  69.576  1.00  0.00    -0.339 A  
HETATM   23  C   UNL     1     -10.757  12.177  67.496  1.00  0.00    -0.265 A  
BRANCH  18  24
HETATM   24  O   UNL     1     -12.007  15.606  67.922  1.00  0.00    -0.103 OA 
BRANCH  24  25
HETATM   25  C   UNL     1     -11.272  16.632  68.578  1.00  0.00    -0.239 C  
BRANCH  25  26
HETATM   26  C   UNL     1     -10.209  17.355  67.740  1.00  0.00    -0.345 C  
BRANCH  26  27
HETATM   27  N   UNL     1      -9.156  17.945  68.615  1.00  0.00    -0.282 NA 
BRANCH  27  28
HETATM   28  C   UNL     1      -7.874  17.219  68.595  1.00  0.00    -0.272 C  
HETATM   29  C   UNL     1      -7.870  15.863  69.292  1.00  0.00    -0.226 C  
ENDBRANCH  27  28
BRANCH  27  30
HETATM   30  C   UNL     1      -9.028  19.390  68.384  1.00  0.00    -0.354 C  
HETATM   31  C   UNL     1      -9.004  19.785  66.908  1.00  0.00    -0.414 C  
ENDBRANCH  27  30
ENDBRANCH  26  27
ENDBRANCH  25  26
ENDBRANCH  24  25
ENDBRANCH  18  24
ENDBRANCH  14  16
ENDBRANCH   6  14
ENDBRANCH   4   5
ENDBRANCH   3   4
ENDBRANCH   2   3
TORSDOF 11
ENDMDL
MODEL      188
REMARK 921   NORMALIZED FREE ENERGY PREDICTED BY IDOCK:   -3.66 KCAL/MOL
REMARK 922        TOTAL FREE ENERGY PREDICTED BY IDOCK:   -8.16 KCAL/MOL
REMARK 923 INTER-LIGAND FREE ENERGY PREDICTED BY IDOCK:   -6.88 KCAL/MOL
REMARK 924 INTRA-LIGAND FREE ENERGY PREDICTED BY IDOCK:   -1.29 KCAL/MOL
REMARK 927      BINDING AFFINITY PREDICTED BY RF-SCORE:    0.00 PKD
ROOT
HETATM    1  C   UNL     1      -7.980   9.425  70.464  1.00  0.00    -0.199 C  
HETATM    2  C   UNL     1      -8.971   8.756  71.403  1.00  0.00    -0.307 C  
ENDROOT
BRANCH   2   3
HETATM    3  C   UNL     1      -9.732   7.626  70.709  1.00  0.00    -0.173 C  
BRANCH   3   4
HETATM    4  C   UNL     1     -10.796   8.180  69.762  1.00  0.00    -0.190 C  
BRANCH   4   5
HETATM    5  C   UNL     1     -10.274   8.346  68.375  1.00  0.00    -0.206 A  
HETATM    6  C   UNL     1     -10.256   9.401  67.476  1.00  0.00    -0.288 A  
HETATM    7  C   UNL     1      -8.210   7.316  64.474  1.00  0.00    -0.013 A  
HETATM    8  C   UNL     1      -9.484   8.950  66.363  1.00  0.00    -0.283 A  
HETATM    9  C   UNL     1      -9.259   7.595  66.588  1.00  0.00    -0.170 A  
HETATM   10  C   UNL     1      -8.353   8.683  64.234  1.00  0.00    -0.138 A  
HETATM   11  C   UNL     1      -8.976   9.514  65.172  1.00  0.00    -0.253 A  
HETATM   12  C   UNL     1      -8.641   6.745  65.676  1.00  0.00    -0.126 A  
HETATM   13  O   UNL     1      -9.714   7.237  67.818  1.00  0.00    -0.136 OA 
BRANCH   6  14
HETATM   14  C   UNL     1     -10.902  10.679  67.714  1.00  0.00    -0.286 C  
HETATM   15  O   UNL     1     -12.069  10.747  68.092  1.00  0.00    -0.493 OA 
BRANCH  14  16
HETATM   16  C   UNL     1     -10.170  11.950  67.442  1.00  0.00    -0.214 A  
HETATM   17  I   UNL     1     -11.379  15.103  64.807  1.00  0.00    -0.182 I  
HETATM   18  C   UNL     1      -8.921  14.431  66.769  1.00  0.00    -0.233 A  
HETATM   19  C   UNL     1     -10.825  12.895  66.657  1.00  0.00    -0.288 A  
HETATM   20  C   UNL     1      -8.269  13.458  67.562  1.00  0.00    -0.185 A  
HETATM   21  I   UNL     1      -6.371  13.798  68.429  1.00  0.00    -0.151 I  
HETATM   22  C   UNL     1     -10.200  14.094  66.270  1.00  0.00    -0.295 A  
HETATM   23  C   UNL     1      -8.862  12.216  67.849  1.00  0.00    -0.177 A  
BRANCH  18  24
HETATM   24  O   UNL     1      -8.205  15.599  66.575  1.00  0.00    -0.264 OA 
BRANCH  24  25
HETATM   25  C   UNL     1      -8.849  16.779  67.043  1.00  0.00    -0.207 C  
BRANCH  25  26
HETATM   26  C   UNL     1      -8.351  18.108  66.460  1.00  0.00    -0.265 C  
BRANCH  26  27
HETATM   27  N   UNL     1      -6.912  18.321  66.783  1.00  0.00    -0.189 NA 
BRANCH  27  28
HETATM   28  C   UNL     1      -6.002  18.167  65.633  1.00  0.00    -0.217 C  
HETATM   29  C   UNL     1      -5.130  19.376  65.312  1.00  0.00    -0.182 C  
ENDBRANCH  27  28
BRANCH  27  30
HETATM   30  C   UNL     1      -6.719  19.569  67.533  1.00  0.00    -0.210 C  
HETATM   31  C   UNL     1      -7.779  20.635  67.250  1.00  0.00    -0.359 C  
ENDBRANCH  27  30
ENDBRANCH  26  27
ENDBRANCH  25  26
ENDBRANCH  24  25
ENDBRANCH  18  24
ENDBRANCH  14  16
ENDBRANCH   6  14
ENDBRANCH   4   5
ENDBRANCH   3   4
ENDBRANCH   2   3
TORSDOF 11
ENDMDL
MODEL      189
REMARK 921   NORMALIZED FREE ENERGY PREDICTED BY IDOCK:   -3.66 KCAL/MOL
REMARK 922        TOTAL FREE ENERGY PREDICTED BY IDOCK:   -8.16 KCAL/MOL
REMARK 923 INTER-LIGAND FREE ENERGY PREDICTED BY IDOCK:   -6.34 KCAL/MOL
REMARK 924 INTRA-LIGAND FREE ENERGY PREDICTED BY IDOCK:   -1.82 KCAL/MOL
REMARK 927      BINDING AFFINITY PREDICTED BY RF-SCORE:    0.00 PKD
ROOT
HETATM    1  C   UNL     1      -5.774  13.123  70.532  1.00  0.00    -0.176 C  
HETATM    2  C   UNL     1      -5.183  11.734  70.351  1.00  0.00    -0.107 C  
ENDROOT
BRANCH   2   3
HETATM    3  C   UNL     1      -5.491  11.166  68.965  1.00  0.00    -0.040 C  
BRANCH   3   4
HETATM    4  C   UNL     1      -6.689  10.218  69.011  1.00  0.00    -0.055 C  
BRANCH   4   5
HETATM    5  C   UNL     1      -7.308  10.039  67.667  1.00  0.00    -0.089 A  
HETATM    6  C   UNL     1      -8.352  10.660  66.999  1.00  0.00    -0.126 A  
HETATM    7  C   UNL     1      -7.979   8.390  63.499  1.00  0.00    -0.159 A  
HETATM    8  C   UNL     1      -8.356  10.107  65.683  1.00  0.00    -0.153 A  
HETATM    9  C   UNL     1      -7.442   9.058  65.715  1.00  0.00    -0.090 A  
HETATM   10  C   UNL     1      -8.857   9.470  63.398  1.00  0.00    -0.236 A  
HETATM   11  C   UNL     1      -9.047  10.344  64.474  1.00  0.00    -0.263 A  
HETATM   12  C   UNL     1      -7.230   8.176  64.661  1.00  0.00    -0.083 A  
HETATM   13  O   UNL     1      -6.789   9.034  66.908  1.00  0.00    -0.075 OA 
BRANCH   6  14
HETATM   14  C   UNL     1      -9.203  11.675  67.594  1.00  0.00    -0.178 C  
HETATM   15  O   UNL     1      -9.999  11.400  68.489  1.00  0.00    -0.190 OA 
BRANCH  14  16
HETATM   16  C   UNL     1      -9.169  13.075  67.079  1.00  0.00    -0.232 A  
HETATM   17  I   UNL     1      -6.340  16.124  68.101  1.00  0.00    -0.172 I  
HETATM   18  C   UNL     1      -8.937  15.794  66.232  1.00  0.00    -0.345 A  
HETATM   19  C   UNL     1      -8.070  13.849  67.441  1.00  0.00    -0.190 A  
HETATM   20  C   UNL     1     -10.048  14.994  65.877  1.00  0.00    -0.320 A  
HETATM   21  I   UNL     1     -11.569  15.689  64.584  1.00  0.00     0.151 I  
HETATM   22  C   UNL     1      -7.972  15.205  67.080  1.00  0.00    -0.188 A  
HETATM   23  C   UNL     1     -10.188  13.673  66.337  1.00  0.00    -0.292 A  
BRANCH  18  24
HETATM   24  O   UNL     1      -8.945  17.072  65.701  1.00  0.00    -0.492 OA 
BRANCH  24  25
HETATM   25  C   UNL     1      -9.344  18.093  66.608  1.00  0.00    -0.297 C  
BRANCH  25  26
HETATM   26  C   UNL     1      -9.050  19.539  66.184  1.00  0.00    -0.310 C  
BRANCH  26  27
HETATM   27  N   UNL     1      -8.282  20.255  67.241  1.00  0.00    -0.335 NA 
BRANCH  27  28
HETATM   28  C   UNL     1      -8.246  19.560  68.541  1.00  0.00    -0.338 C  
HETATM   29  C   UNL     1      -6.995  19.793  69.381  1.00  0.00    -0.336 C  
ENDBRANCH  27  28
BRANCH  27  30
HETATM   30  C   UNL     1      -6.962  20.666  66.747  1.00  0.00    -0.282 C  
HETATM   31  C   UNL     1      -6.688  20.268  65.297  1.00  0.00    -0.339 C  
ENDBRANCH  27  30
ENDBRANCH  26  27
ENDBRANCH  25  26
ENDBRANCH  24  25
ENDBRANCH  18  24
ENDBRANCH  14  16
ENDBRANCH   6  14
ENDBRANCH   4   5
ENDBRANCH   3   4
ENDBRANCH   2   3
TORSDOF 11
ENDMDL
MODEL      190
REMARK 921   NORMALIZED FREE ENERGY PREDICTED BY IDOCK:   -3.65 KCAL/MOL
REMARK 922        TOTAL FREE ENERGY PREDICTED BY IDOCK:   -8.15 KCAL/MOL
REMARK 923 INTER-LIGAND FREE ENERGY PREDICTED BY IDOCK:   -6.37 KCAL/MOL
REMARK 924 INTRA-LIGAND FREE ENERGY PREDICTED BY IDOCK:   -1.78 KCAL/MOL
REMARK 927      BINDING AFFINITY PREDICTED BY RF-SCORE:    0.00 PKD
ROOT
HETATM    1  C   UNL     1     -11.055  14.539  68.134  1.00  0.00    -0.280 C  
HETATM    2  C   UNL     1     -11.780  13.256  67.761  1.00  0.00    -0.398 C  
ENDROOT
BRANCH   2   3
HETATM    3  C   UNL     1     -11.050  12.497  66.652  1.00  0.00    -0.327 C  
BRANCH   3   4
HETATM    4  C   UNL     1     -11.234  10.988  66.804  1.00  0.00    -0.163 C  
BRANCH   4   5
HETATM    5  C   UNL     1     -10.174  10.224  66.086  1.00  0.00    -0.217 A  
HETATM    6  C   UNL     1      -9.733   8.910  66.141  1.00  0.00    -0.338 A  
HETATM    7  C   UNL     1      -6.824   9.355  63.159  1.00  0.00    -0.099 A  
HETATM    8  C   UNL     1      -8.769   8.780  65.096  1.00  0.00    -0.202 A  
HETATM    9  C   UNL     1      -8.561  10.070  64.616  1.00  0.00    -0.181 A  
HETATM   10  C   UNL     1      -7.045   8.037  63.561  1.00  0.00    -0.082 A  
HETATM   11  C   UNL     1      -8.021   7.732  64.517  1.00  0.00    -0.135 A  
HETATM   12  C   UNL     1      -7.601  10.403  63.665  1.00  0.00    -0.034 A  
HETATM   13  O   UNL     1      -9.430  10.939  65.198  1.00  0.00    -0.204 OA 
BRANCH   6  14
HETATM   14  C   UNL     1     -10.226   7.929  67.091  1.00  0.00    -0.290 C  
HETATM   15  O   UNL     1     -10.810   6.915  66.720  1.00  0.00    -0.321 OA 
BRANCH  14  16
HETATM   16  C   UNL     1     -10.085   8.172  68.556  1.00  0.00    -0.220 A  
HETATM   17  I   UNL     1      -6.473   8.025  70.852  1.00  0.00    -0.041 I  
HETATM   18  C   UNL     1      -9.602   8.581  71.343  1.00  0.00    -0.215 A  
HETATM   19  C   UNL     1      -8.789   8.213  69.063  1.00  0.00    -0.144 A  
HETATM   20  C   UNL     1     -10.913   8.534  70.812  1.00  0.00    -0.247 A  
HETATM   21  I   UNL     1     -12.624   8.890  72.000  1.00  0.00    -0.475 I  
HETATM   22  C   UNL     1      -8.540   8.355  70.439  1.00  0.00    -0.136 A  
HETATM   23  C   UNL     1     -11.152   8.280  69.450  1.00  0.00     0.088 A  
BRANCH  18  24
HETATM   24  O   UNL     1      -9.534   8.839  72.701  1.00  0.00    -0.269 OA 
BRANCH  24  25
HETATM   25  C   UNL     1      -9.072   7.751  73.493  1.00  0.00    -0.283 C  
BRANCH  25  26
HETATM   26  C   UNL     1     -10.143   6.787  74.022  1.00  0.00    -0.359 C  
BRANCH  26  27
HETATM   27  N   UNL     1      -9.795   5.376  73.692  1.00  0.00    -0.157 NA 
BRANCH  27  28
HETATM   28  C   UNL     1     -10.691   4.744  72.706  1.00  0.00    -0.217 C  
HETATM   29  C   UNL     1     -10.226   4.805  71.255  1.00  0.00    -0.229 C  
ENDBRANCH  27  28
BRANCH  27  30
HETATM   30  C   UNL     1      -8.368   5.247  73.370  1.00  0.00    -0.114 C  
HETATM   31  C   UNL     1      -7.740   3.934  73.840  1.00  0.00    -0.079 C  
ENDBRANCH  27  30
ENDBRANCH  26  27
ENDBRANCH  25  26
ENDBRANCH  24  25
ENDBRANCH  18  24
ENDBRANCH  14  16
ENDBRANCH   6  14
ENDBRANCH   4   5
ENDBRANCH   3   4
ENDBRANCH   2   3
TORSDOF 11
ENDMDL
MODEL      191
REMARK 921   NORMALIZED FREE ENERGY PREDICTED BY IDOCK:   -3.65 KCAL/MOL
REMARK 922        TOTAL FREE ENERGY PREDICTED BY IDOCK:   -8.15 KCAL/MOL
REMARK 923 INTER-LIGAND FREE ENERGY PREDICTED BY IDOCK:   -6.80 KCAL/MOL
REMARK 924 INTRA-LIGAND FREE ENERGY PREDICTED BY IDOCK:   -1.35 KCAL/MOL
REMARK 927      BINDING AFFINITY PREDICTED BY RF-SCORE:    0.00 PKD
ROOT
HETATM    1  C   UNL     1     -11.597   6.520  70.157  1.00  0.00    -0.466 C  
HETATM    2  C   UNL     1     -10.391   6.399  69.241  1.00  0.00    -0.248 C  
ENDROOT
BRANCH   2   3
HETATM    3  C   UNL     1     -10.806   6.293  67.772  1.00  0.00    -0.424 C  
BRANCH   3   4
HETATM    4  C   UNL     1     -10.475   7.578  67.013  1.00  0.00    -0.409 C  
BRANCH   4   5
HETATM    5  C   UNL     1      -9.208   7.454  66.237  1.00  0.00    -0.135 A  
HETATM    6  C   UNL     1      -8.532   8.290  65.362  1.00  0.00    -0.189 A  
HETATM    7  C   UNL     1      -5.344   5.655  64.694  1.00  0.00    -0.013 A  
HETATM    8  C   UNL     1      -7.303   7.628  65.062  1.00  0.00    -0.073 A  
HETATM    9  C   UNL     1      -7.415   6.359  65.624  1.00  0.00    -0.082 A  
HETATM   10  C   UNL     1      -5.158   6.934  64.169  1.00  0.00    -0.027 A  
HETATM   11  C   UNL     1      -6.120   7.934  64.355  1.00  0.00    -0.052 A  
HETATM   12  C   UNL     1      -6.474   5.347  65.459  1.00  0.00    -0.040 A  
HETATM   13  O   UNL     1      -8.556   6.264  66.357  1.00  0.00    -0.123 OA 
BRANCH   6  14
HETATM   14  C   UNL     1      -9.041   9.574  64.913  1.00  0.00    -0.223 C  
HETATM   15  O   UNL     1      -9.464   9.731  63.770  1.00  0.00    -0.223 OA 
BRANCH  14  16
HETATM   16  C   UNL     1      -9.000  10.754  65.824  1.00  0.00    -0.203 A  
HETATM   17  I   UNL     1     -12.008  13.771  66.262  1.00  0.00    -0.493 I  
HETATM   18  C   UNL     1      -9.112  13.081  67.478  1.00  0.00    -0.191 A  
HETATM   19  C   UNL     1     -10.157  11.524  65.903  1.00  0.00    -0.271 A  
HETATM   20  C   UNL     1      -7.944  12.289  67.383  1.00  0.00    -0.171 A  
HETATM   21  I   UNL     1      -6.223  12.673  68.548  1.00  0.00    -0.097 I  
HETATM   22  C   UNL     1     -10.206  12.704  66.668  1.00  0.00    -0.236 A  
HETATM   23  C   UNL     1      -7.871  11.174  66.529  1.00  0.00    -0.151 A  
BRANCH  18  24
HETATM   24  O   UNL     1      -9.024  14.144  68.361  1.00  0.00    -0.183 OA 
BRANCH  24  25
HETATM   25  C   UNL     1      -8.510  15.346  67.799  1.00  0.00    -0.150 C  
BRANCH  25  26
HETATM   26  C   UNL     1      -8.844  16.646  68.542  1.00  0.00    -0.235 C  
BRANCH  26  27
HETATM   27  N   UNL     1     -10.318  16.856  68.606  1.00  0.00    -0.309 NA 
BRANCH  27  28
HETATM   28  C   UNL     1     -10.901  16.666  69.946  1.00  0.00    -0.202 C  
HETATM   29  C   UNL     1     -11.952  15.568  70.061  1.00  0.00    -0.385 C  
ENDBRANCH  27  28
BRANCH  27  30
HETATM   30  C   UNL     1     -10.699  18.121  67.963  1.00  0.00    -0.277 C  
HETATM   31  C   UNL     1     -10.145  19.364  68.659  1.00  0.00    -0.515 C  
ENDBRANCH  27  30
ENDBRANCH  26  27
ENDBRANCH  25  26
ENDBRANCH  24  25
ENDBRANCH  18  24
ENDBRANCH  14  16
ENDBRANCH   6  14
ENDBRANCH   4   5
ENDBRANCH   3   4
ENDBRANCH   2   3
TORSDOF 11
ENDMDL
MODEL      192
REMARK 921   NORMALIZED FREE ENERGY PREDICTED BY IDOCK:   -3.63 KCAL/MOL
REMARK 922        TOTAL FREE ENERGY PREDICTED BY IDOCK:   -8.11 KCAL/MOL
REMARK 923 INTER-LIGAND FREE ENERGY PREDICTED BY IDOCK:   -6.93 KCAL/MOL
REMARK 924 INTRA-LIGAND FREE ENERGY PREDICTED BY IDOCK:   -1.19 KCAL/MOL
REMARK 927      BINDING AFFINITY PREDICTED BY RF-SCORE:    0.00 PKD
ROOT
HETATM    1  C   UNL     1      -9.886   3.774  64.785  1.00  0.00    -0.191 C  
HETATM    2  C   UNL     1      -9.092   3.381  66.021  1.00  0.00    -0.153 C  
ENDROOT
BRANCH   2   3
HETATM    3  C   UNL     1      -9.758   3.884  67.302  1.00  0.00    -0.178 C  
BRANCH   3   4
HETATM    4  C   UNL     1     -10.386   5.262  67.092  1.00  0.00    -0.268 C  
BRANCH   4   5
HETATM    5  C   UNL     1     -10.396   6.065  68.349  1.00  0.00    -0.207 A  
HETATM    6  C   UNL     1      -9.592   7.078  68.847  1.00  0.00    -0.140 A  
HETATM    7  C   UNL     1     -11.774   7.596  72.386  1.00  0.00    -0.366 A  
HETATM    8  C   UNL     1     -10.220   7.515  70.053  1.00  0.00    -0.215 A  
HETATM    9  C   UNL     1     -11.246   6.605  70.291  1.00  0.00    -0.353 A  
HETATM   10  C   UNL     1     -10.801   8.570  72.157  1.00  0.00    -0.427 A  
HETATM   11  C   UNL     1     -10.026   8.551  70.992  1.00  0.00    -0.255 A  
HETATM   12  C   UNL     1     -12.034   6.601  71.438  1.00  0.00    -0.405 A  
HETATM   13  O   UNL     1     -11.369   5.744  69.247  1.00  0.00    -0.225 OA 
BRANCH   6  14
HETATM   14  C   UNL     1      -8.384   7.549  68.194  1.00  0.00    -0.125 C  
HETATM   15  O   UNL     1      -7.428   6.803  68.000  1.00  0.00    -0.094 OA 
BRANCH  14  16
HETATM   16  C   UNL     1      -8.259   8.982  67.797  1.00  0.00    -0.109 A  
HETATM   17  I   UNL     1      -9.835  10.820  64.264  1.00  0.00    -0.412 I  
HETATM   18  C   UNL     1      -8.120  11.674  66.848  1.00  0.00    -0.164 A  
HETATM   19  C   UNL     1      -8.977   9.386  66.675  1.00  0.00    -0.170 A  
HETATM   20  C   UNL     1      -7.395  11.245  67.984  1.00  0.00    -0.092 A  
HETATM   21  I   UNL     1      -6.249  12.577  69.159  1.00  0.00    -0.103 I  
HETATM   22  C   UNL     1      -8.871  10.692  66.163  1.00  0.00    -0.168 A  
HETATM   23  C   UNL     1      -7.422   9.908  68.420  1.00  0.00    -0.082 A  
BRANCH  18  24
HETATM   24  O   UNL     1      -7.988  13.018  66.546  1.00  0.00     0.287 OA 
BRANCH  24  25
HETATM   25  C   UNL     1      -8.916  13.872  67.204  1.00  0.00    -0.235 C  
BRANCH  25  26
HETATM   26  C   UNL     1     -10.269  13.252  67.581  1.00  0.00    -0.228 C  
BRANCH  26  27
HETATM   27  N   UNL     1     -11.390  14.159  67.206  1.00  0.00    -0.316 NA 
BRANCH  27  28
HETATM   28  C   UNL     1     -11.016  15.582  67.120  1.00  0.00    -0.295 C  
HETATM   29  C   UNL     1     -11.140  16.377  68.416  1.00  0.00    -0.351 C  
ENDBRANCH  27  28
BRANCH  27  30
HETATM   30  C   UNL     1     -12.101  13.656  66.023  1.00  0.00    -0.441 C  
HETATM   31  C   UNL     1     -11.872  14.487  64.760  1.00  0.00    -0.446 C  
ENDBRANCH  27  30
ENDBRANCH  26  27
ENDBRANCH  25  26
ENDBRANCH  24  25
ENDBRANCH  18  24
ENDBRANCH  14  16
ENDBRANCH   6  14
ENDBRANCH   4   5
ENDBRANCH   3   4
ENDBRANCH   2   3
TORSDOF 11
ENDMDL
MODEL      193
REMARK 921   NORMALIZED FREE ENERGY PREDICTED BY IDOCK:   -3.62 KCAL/MOL
REMARK 922        TOTAL FREE ENERGY PREDICTED BY IDOCK:   -8.10 KCAL/MOL
REMARK 923 INTER-LIGAND FREE ENERGY PREDICTED BY IDOCK:   -6.33 KCAL/MOL
REMARK 924 INTRA-LIGAND FREE ENERGY PREDICTED BY IDOCK:   -1.77 KCAL/MOL
REMARK 927      BINDING AFFINITY PREDICTED BY RF-SCORE:    0.00 PKD
ROOT
HETATM    1  C   UNL     1      -5.744  11.914  70.417  1.00  0.00    -0.163 C  
HETATM    2  C   UNL     1      -6.274  10.492  70.336  1.00  0.00    -0.128 C  
ENDROOT
BRANCH   2   3
HETATM    3  C   UNL     1      -5.776   9.775  69.080  1.00  0.00    -0.035 C  
BRANCH   3   4
HETATM    4  C   UNL     1      -6.516   8.454  68.871  1.00  0.00    -0.049 C  
BRANCH   4   5
HETATM    5  C   UNL     1      -6.935   8.270  67.452  1.00  0.00    -0.075 A  
HETATM    6  C   UNL     1      -8.023   8.703  66.709  1.00  0.00    -0.094 A  
HETATM    7  C   UNL     1      -6.774   6.925  63.127  1.00  0.00    -0.043 A  
HETATM    8  C   UNL     1      -7.764   8.293  65.366  1.00  0.00    -0.103 A  
HETATM    9  C   UNL     1      -6.637   7.479  65.435  1.00  0.00    -0.045 A  
HETATM   10  C   UNL     1      -7.866   7.784  62.997  1.00  0.00    -0.136 A  
HETATM   11  C   UNL     1      -8.364   8.484  64.102  1.00  0.00    -0.102 A  
HETATM   12  C   UNL     1      -6.117   6.773  64.353  1.00  0.00    -0.035 A  
HETATM   13  O   UNL     1      -6.121   7.487  66.692  1.00  0.00    -0.041 OA 
BRANCH   6  14
HETATM   14  C   UNL     1      -9.145   9.437  67.267  1.00  0.00    -0.133 C  
HETATM   15  O   UNL     1      -9.890   8.931  68.102  1.00  0.00    -0.157 OA 
BRANCH  14  16
HETATM   16  C   UNL     1      -9.452  10.814  66.782  1.00  0.00    -0.198 A  
HETATM   17  I   UNL     1      -7.457  14.437  67.895  1.00  0.00    -0.223 I  
HETATM   18  C   UNL     1      -9.887  13.526  65.995  1.00  0.00    -0.265 A  
HETATM   19  C   UNL     1      -8.576  11.825  67.170  1.00  0.00    -0.168 A  
HETATM   20  C   UNL     1     -10.768  12.488  65.612  1.00  0.00    -0.266 A  
HETATM   21  I   UNL     1     -12.408  12.819  64.320  1.00  0.00    -0.446 I  
HETATM   22  C   UNL     1      -8.811  13.171  66.839  1.00  0.00    -0.179 A  
HETATM   23  C   UNL     1     -10.583  11.162  66.043  1.00  0.00    -0.298 A  
BRANCH  18  24
HETATM   24  O   UNL     1     -10.206  14.776  65.491  1.00  0.00    -0.324 OA 
BRANCH  24  25
HETATM   25  C   UNL     1     -10.691  15.703  66.455  1.00  0.00    -0.291 C  
BRANCH  25  26
HETATM   26  C   UNL     1     -10.275  17.168  66.265  1.00  0.00    -0.334 C  
BRANCH  26  27
HETATM   27  N   UNL     1     -10.457  17.937  67.528  1.00  0.00    -0.383 NA 
BRANCH  27  28
HETATM   28  C   UNL     1      -9.360  17.777  68.500  1.00  0.00    -0.295 C  
HETATM   29  C   UNL     1      -8.274  18.847  68.453  1.00  0.00    -0.377 C  
ENDBRANCH  27  28
BRANCH  27  30
HETATM   30  C   UNL     1     -10.806  19.336  67.248  1.00  0.00    -0.449 C  
HETATM   31  C   UNL     1     -10.771  19.700  65.764  1.00  0.00    -0.493 C  
ENDBRANCH  27  30
ENDBRANCH  26  27
ENDBRANCH  25  26
ENDBRANCH  24  25
ENDBRANCH  18  24
ENDBRANCH  14  16
ENDBRANCH   6  14
ENDBRANCH   4   5
ENDBRANCH   3   4
ENDBRANCH   2   3
TORSDOF 11
ENDMDL
MODEL      194
REMARK 921   NORMALIZED FREE ENERGY PREDICTED BY IDOCK:   -3.59 KCAL/MOL
REMARK 922        TOTAL FREE ENERGY PREDICTED BY IDOCK:   -8.05 KCAL/MOL
REMARK 923 INTER-LIGAND FREE ENERGY PREDICTED BY IDOCK:   -6.53 KCAL/MOL
REMARK 924 INTRA-LIGAND FREE ENERGY PREDICTED BY IDOCK:   -1.52 KCAL/MOL
REMARK 927      BINDING AFFINITY PREDICTED BY RF-SCORE:    0.00 PKD
ROOT
HETATM    1  C   UNL     1      -5.319  15.131  69.779  1.00  0.00    -0.098 C  
HETATM    2  C   UNL     1      -5.616  13.644  69.900  1.00  0.00    -0.109 C  
ENDROOT
BRANCH   2   3
HETATM    3  C   UNL     1      -6.923  13.271  69.200  1.00  0.00    -0.031 C  
BRANCH   3   4
HETATM    4  C   UNL     1      -6.965  13.829  67.778  1.00  0.00    -0.178 C  
BRANCH   4   5
HETATM    5  C   UNL     1      -8.251  13.511  67.094  1.00  0.00    -0.112 A  
HETATM    6  C   UNL     1      -8.777  12.361  66.523  1.00  0.00    -0.059 A  
HETATM    7  C   UNL     1     -12.423  14.108  65.425  1.00  0.00    -0.488 A  
HETATM    8  C   UNL     1     -10.116  12.689  66.153  1.00  0.00    -0.268 A  
HETATM    9  C   UNL     1     -10.234  14.062  66.350  1.00  0.00    -0.291 A  
HETATM   10  C   UNL     1     -12.375  12.722  65.272  1.00  0.00    -0.546 A  
HETATM   11  C   UNL     1     -11.236  11.998  65.642  1.00  0.00    -0.377 A  
HETATM   12  C   UNL     1     -11.353  14.808  65.995  1.00  0.00    -0.332 A  
HETATM   13  O   UNL     1      -9.114  14.554  66.944  1.00  0.00    -0.232 OA 
BRANCH   6  14
HETATM   14  C   UNL     1      -8.044  11.115  66.392  1.00  0.00    -0.159 C  
HETATM   15  O   UNL     1      -7.199  10.958  65.515  1.00  0.00    -0.033 OA 
BRANCH  14  16
HETATM   16  C   UNL     1      -8.355   9.967  67.293  1.00  0.00    -0.121 A  
HETATM   17  I   UNL     1      -6.555   9.113  71.085  1.00  0.00    -0.005 I  
HETATM   18  C   UNL     1      -8.785   7.838  69.150  1.00  0.00    -0.139 A  
HETATM   19  C   UNL     1      -7.746   9.971  68.545  1.00  0.00    -0.089 A  
HETATM   20  C   UNL     1      -9.393   7.848  67.872  1.00  0.00    -0.141 A  
HETATM   21  I   UNL     1     -10.773   6.366  67.268  1.00  0.00    -0.449 I  
HETATM   22  C   UNL     1      -7.903   8.901  69.445  1.00  0.00    -0.098 A  
HETATM   23  C   UNL     1      -9.140   8.869  66.939  1.00  0.00    -0.163 A  
BRANCH  18  24
HETATM   24  O   UNL     1      -9.134   6.765  69.952  1.00  0.00    -0.144 OA 
BRANCH  24  25
HETATM   25  C   UNL     1     -10.299   6.964  70.743  1.00  0.00    -0.203 C  
BRANCH  25  26
HETATM   26  C   UNL     1     -10.091   7.613  72.117  1.00  0.00    -0.196 C  
BRANCH  26  27
HETATM   27  N   UNL     1     -10.640   6.749  73.200  1.00  0.00    -0.264 NA 
BRANCH  27  28
HETATM   28  C   UNL     1     -11.100   5.425  72.745  1.00  0.00    -0.294 C  
HETATM   29  C   UNL     1     -10.963   4.293  73.757  1.00  0.00    -0.344 C  
ENDBRANCH  27  28
BRANCH  27  30
HETATM   30  C   UNL     1      -9.728   6.701  74.350  1.00  0.00    -0.303 C  
HETATM   31  C   UNL     1      -8.621   7.755  74.311  1.00  0.00    -0.268 C  
ENDBRANCH  27  30
ENDBRANCH  26  27
ENDBRANCH  25  26
ENDBRANCH  24  25
ENDBRANCH  18  24
ENDBRANCH  14  16
ENDBRANCH   6  14
ENDBRANCH   4   5
ENDBRANCH   3   4
ENDBRANCH   2   3
TORSDOF 11
ENDMDL
MODEL      195
REMARK 921   NORMALIZED FREE ENERGY PREDICTED BY IDOCK:   -3.59 KCAL/MOL
REMARK 922        TOTAL FREE ENERGY PREDICTED BY IDOCK:   -8.05 KCAL/MOL
REMARK 923 INTER-LIGAND FREE ENERGY PREDICTED BY IDOCK:   -7.01 KCAL/MOL
REMARK 924 INTRA-LIGAND FREE ENERGY PREDICTED BY IDOCK:   -1.04 KCAL/MOL
REMARK 927      BINDING AFFINITY PREDICTED BY RF-SCORE:    0.00 PKD
ROOT
HETATM    1  C   UNL     1     -12.302  12.613  63.989  1.00  0.00    -0.528 C  
HETATM    2  C   UNL     1     -12.597  13.109  65.396  1.00  0.00    -0.512 C  
ENDROOT
BRANCH   2   3
HETATM    3  C   UNL     1     -11.521  12.665  66.388  1.00  0.00    -0.409 C  
BRANCH   3   4
HETATM    4  C   UNL     1     -10.123  13.005  65.871  1.00  0.00    -0.291 C  
BRANCH   4   5
HETATM    5  C   UNL     1      -9.517  14.145  66.619  1.00  0.00    -0.289 A  
HETATM    6  C   UNL     1      -8.296  14.341  67.246  1.00  0.00    -0.222 A  
HETATM    7  C   UNL     1      -9.104  18.272  68.445  1.00  0.00    -0.331 A  
HETATM    8  C   UNL     1      -8.287  15.706  67.663  1.00  0.00    -0.168 A  
HETATM    9  C   UNL     1      -9.577  16.176  67.429  1.00  0.00    -0.229 A  
HETATM   10  C   UNL     1      -7.783  17.868  68.638  1.00  0.00    -0.293 A  
HETATM   11  C   UNL     1      -7.356  16.595  68.241  1.00  0.00    -0.179 A  
HETATM   12  C   UNL     1     -10.028  17.436  67.809  1.00  0.00    -0.301 A  
HETATM   13  O   UNL     1     -10.312  15.239  66.774  1.00  0.00    -0.268 OA 
BRANCH   6  14
HETATM   14  C   UNL     1      -7.281  13.310  67.383  1.00  0.00    -0.108 C  
HETATM   15  O   UNL     1      -6.084  13.577  67.316  1.00  0.00    -0.327 OA 
BRANCH  14  16
HETATM   16  C   UNL     1      -7.683  11.883  67.549  1.00  0.00    -0.151 A  
HETATM   17  I   UNL     1      -7.630   8.831  64.544  1.00  0.00    -0.132 I  
HETATM   18  C   UNL     1      -8.419   9.124  67.648  1.00  0.00    -0.116 A  
HETATM   19  C   UNL     1      -7.445  11.037  66.469  1.00  0.00    -0.145 A  
HETATM   20  C   UNL     1      -8.657   9.999  68.734  1.00  0.00    -0.131 A  
HETATM   21  I   UNL     1      -9.453   9.325  70.572  1.00  0.00    -0.277 I  
HETATM   22  C   UNL     1      -7.856   9.692  66.483  1.00  0.00    -0.108 A  
HETATM   23  C   UNL     1      -8.342  11.368  68.666  1.00  0.00    -0.136 A  
BRANCH  18  24
HETATM   24  O   UNL     1      -8.785   7.808  67.871  1.00  0.00    -0.125 OA 
BRANCH  24  25
HETATM   25  C   UNL     1     -10.010   7.417  67.262  1.00  0.00    -0.198 C  
BRANCH  25  26
HETATM   26  C   UNL     1     -10.603   6.076  67.716  1.00  0.00    -0.267 C  
BRANCH  26  27
HETATM   27  N   UNL     1      -9.847   4.936  67.125  1.00  0.00    -0.175 NA 
BRANCH  27  28
HETATM   28  C   UNL     1      -9.240   5.225  65.814  1.00  0.00    -0.151 C  
HETATM   29  C   UNL     1      -9.759   4.393  64.646  1.00  0.00    -0.109 C  
ENDBRANCH  27  28
BRANCH  27  30
HETATM   30  C   UNL     1      -8.914   4.361  68.102  1.00  0.00    -0.119 C  
HETATM   31  C   UNL     1      -9.330   4.568  69.558  1.00  0.00    -0.221 C  
ENDBRANCH  27  30
ENDBRANCH  26  27
ENDBRANCH  25  26
ENDBRANCH  24  25
ENDBRANCH  18  24
ENDBRANCH  14  16
ENDBRANCH   6  14
ENDBRANCH   4   5
ENDBRANCH   3   4
ENDBRANCH   2   3
TORSDOF 11
ENDMDL
MODEL      196
REMARK 921   NORMALIZED FREE ENERGY PREDICTED BY IDOCK:   -3.59 KCAL/MOL
REMARK 922        TOTAL FREE ENERGY PREDICTED BY IDOCK:   -8.05 KCAL/MOL
REMARK 923 INTER-LIGAND FREE ENERGY PREDICTED BY IDOCK:   -7.07 KCAL/MOL
REMARK 924 INTRA-LIGAND FREE ENERGY PREDICTED BY IDOCK:   -0.98 KCAL/MOL
REMARK 927      BINDING AFFINITY PREDICTED BY RF-SCORE:    0.00 PKD
ROOT
HETATM    1  C   UNL     1     -14.406   8.353  72.296  1.00  0.00    -0.465 C  
HETATM    2  C   UNL     1     -13.191   9.249  72.124  1.00  0.00    -0.535 C  
ENDROOT
BRANCH   2   3
HETATM    3  C   UNL     1     -13.528  10.512  71.329  1.00  0.00    -0.150 C  
BRANCH   3   4
HETATM    4  C   UNL     1     -12.850  11.740  71.933  1.00  0.00    -0.338 C  
BRANCH   4   5
HETATM    5  C   UNL     1     -12.272  12.628  70.884  1.00  0.00    -0.185 A  
HETATM    6  C   UNL     1     -11.702  12.401  69.641  1.00  0.00    -0.377 A  
HETATM    7  C   UNL     1     -11.018  16.444  68.783  1.00  0.00    -0.344 A  
HETATM    8  C   UNL     1     -11.470  13.692  69.077  1.00  0.00    -0.346 A  
HETATM    9  C   UNL     1     -11.737  14.599  70.099  1.00  0.00    -0.297 A  
HETATM   10  C   UNL     1     -10.800  15.579  67.710  1.00  0.00    -0.309 A  
HETATM   11  C   UNL     1     -11.033  14.205  67.836  1.00  0.00    -0.264 A  
HETATM   12  C   UNL     1     -11.518  15.970  70.001  1.00  0.00    -0.334 A  
HETATM   13  O   UNL     1     -12.247  13.957  71.182  1.00  0.00    -0.344 OA 
BRANCH   6  14
HETATM   14  C   UNL     1     -11.450  11.079  69.095  1.00  0.00    -0.301 C  
HETATM   15  O   UNL     1     -12.259  10.527  68.354  1.00  0.00    -0.251 OA 
BRANCH  14  16
HETATM   16  C   UNL     1     -10.217  10.333  69.482  1.00  0.00    -0.261 A  
HETATM   17  I   UNL     1      -6.700   9.768  67.104  1.00  0.00    -0.076 I  
HETATM   18  C   UNL     1      -7.780   8.941  70.018  1.00  0.00    -0.078 A  
HETATM   19  C   UNL     1      -9.141  10.403  68.602  1.00  0.00    -0.157 A  
HETATM   20  C   UNL     1      -8.885   8.878  70.900  1.00  0.00    -0.219 A  
HETATM   21  I   UNL     1      -8.794   7.862  72.751  1.00  0.00    -0.327 I  
HETATM   22  C   UNL     1      -7.958   9.676  68.825  1.00  0.00    -0.089 A  
HETATM   23  C   UNL     1     -10.102   9.520  70.611  1.00  0.00    -0.353 A  
BRANCH  18  24
HETATM   24  O   UNL     1      -6.655   8.255  70.444  1.00  0.00    -0.036 OA 
BRANCH  24  25
HETATM   25  C   UNL     1      -6.460   6.988  69.828  1.00  0.00    -0.043 C  
BRANCH  25  26
HETATM   26  C   UNL     1      -7.686   6.067  69.752  1.00  0.00    -0.096 C  
BRANCH  26  27
HETATM   27  N   UNL     1      -7.310   4.658  70.058  1.00  0.00    -0.053 NA 
BRANCH  27  28
HETATM   28  C   UNL     1      -6.484   4.500  71.268  1.00  0.00    -0.019 C  
HETATM   29  C   UNL     1      -7.248   4.213  72.557  1.00  0.00    -0.066 C  
ENDBRANCH  27  28
BRANCH  27  30
HETATM   30  C   UNL     1      -8.485   3.779  70.017  1.00  0.00    -0.059 C  
HETATM   31  C   UNL     1      -9.806   4.514  69.789  1.00  0.00    -0.295 C  
ENDBRANCH  27  30
ENDBRANCH  26  27
ENDBRANCH  25  26
ENDBRANCH  24  25
ENDBRANCH  18  24
ENDBRANCH  14  16
ENDBRANCH   6  14
ENDBRANCH   4   5
ENDBRANCH   3   4
ENDBRANCH   2   3
TORSDOF 11
ENDMDL
MODEL      197
REMARK 921   NORMALIZED FREE ENERGY PREDICTED BY IDOCK:   -3.59 KCAL/MOL
REMARK 922        TOTAL FREE ENERGY PREDICTED BY IDOCK:   -8.05 KCAL/MOL
REMARK 923 INTER-LIGAND FREE ENERGY PREDICTED BY IDOCK:   -6.60 KCAL/MOL
REMARK 924 INTRA-LIGAND FREE ENERGY PREDICTED BY IDOCK:   -1.45 KCAL/MOL
REMARK 927      BINDING AFFINITY PREDICTED BY RF-SCORE:    0.00 PKD
ROOT
HETATM    1  C   UNL     1     -11.047   6.219  67.613  1.00  0.00    -0.368 C  
HETATM    2  C   UNL     1     -10.004   5.625  66.680  1.00  0.00    -0.211 C  
ENDROOT
BRANCH   2   3
HETATM    3  C   UNL     1      -9.061   6.697  66.133  1.00  0.00    -0.143 C  
BRANCH   3   4
HETATM    4  C   UNL     1      -9.471   8.089  66.615  1.00  0.00    -0.273 C  
BRANCH   4   5
HETATM    5  C   UNL     1      -8.493   8.649  67.591  1.00  0.00    -0.125 A  
HETATM    6  C   UNL     1      -7.744   9.815  67.639  1.00  0.00    -0.094 A  
HETATM    7  C   UNL     1      -5.962   8.979  71.337  1.00  0.00    -0.062 A  
HETATM    8  C   UNL     1      -7.101   9.812  68.913  1.00  0.00    -0.067 A  
HETATM    9  C   UNL     1      -7.356   8.557  69.458  1.00  0.00    -0.065 A  
HETATM   10  C   UNL     1      -5.734  10.271  70.863  1.00  0.00    -0.086 A  
HETATM   11  C   UNL     1      -6.305  10.707  69.661  1.00  0.00    -0.085 A  
HETATM   12  C   UNL     1      -6.805   8.098  70.651  1.00  0.00    -0.037 A  
HETATM   13  O   UNL     1      -8.219   7.864  68.670  1.00  0.00    -0.124 OA 
BRANCH   6  14
HETATM   14  C   UNL     1      -7.702  10.794  66.567  1.00  0.00    -0.145 C  
HETATM   15  O   UNL     1      -6.986  10.635  65.582  1.00  0.00    -0.136 OA 
BRANCH  14  16
HETATM   16  C   UNL     1      -8.490  12.056  66.676  1.00  0.00    -0.117 A  
HETATM   17  I   UNL     1      -7.528  15.495  69.040  1.00  0.00    -0.215 I  
HETATM   18  C   UNL     1      -9.856  14.540  67.038  1.00  0.00    -0.249 A  
HETATM   19  C   UNL     1      -7.909  13.098  67.394  1.00  0.00    -0.169 A  
HETATM   20  C   UNL     1     -10.433  13.469  66.315  1.00  0.00    -0.290 A  
HETATM   21  I   UNL     1     -12.293  13.649  65.326  1.00  0.00    -0.512 I  
HETATM   22  C   UNL     1      -8.594  14.303  67.629  1.00  0.00    -0.183 A  
HETATM   23  C   UNL     1      -9.784  12.229  66.181  1.00  0.00    -0.256 A  
BRANCH  18  24
HETATM   24  O   UNL     1     -10.620  15.693  67.079  1.00  0.00    -0.302 OA 
BRANCH  24  25
HETATM   25  C   UNL     1     -10.146  16.754  66.259  1.00  0.00    -0.326 C  
BRANCH  25  26
HETATM   26  C   UNL     1     -10.406  18.179  66.764  1.00  0.00    -0.365 C  
BRANCH  26  27
HETATM   27  N   UNL     1      -9.125  18.871  67.080  1.00  0.00    -0.287 NA 
BRANCH  27  28
HETATM   28  C   UNL     1      -8.723  19.886  66.089  1.00  0.00    -0.307 C  
HETATM   29  C   UNL     1      -7.287  19.786  65.586  1.00  0.00    -0.294 C  
ENDBRANCH  27  28
BRANCH  27  30
HETATM   30  C   UNL     1      -9.115  19.355  68.466  1.00  0.00    -0.375 C  
HETATM   31  C   UNL     1      -7.716  19.515  69.060  1.00  0.00    -0.332 C  
ENDBRANCH  27  30
ENDBRANCH  26  27
ENDBRANCH  25  26
ENDBRANCH  24  25
ENDBRANCH  18  24
ENDBRANCH  14  16
ENDBRANCH   6  14
ENDBRANCH   4   5
ENDBRANCH   3   4
ENDBRANCH   2   3
TORSDOF 11
ENDMDL
MODEL      198
REMARK 921   NORMALIZED FREE ENERGY PREDICTED BY IDOCK:   -3.59 KCAL/MOL
REMARK 922        TOTAL FREE ENERGY PREDICTED BY IDOCK:   -8.04 KCAL/MOL
REMARK 923 INTER-LIGAND FREE ENERGY PREDICTED BY IDOCK:   -6.96 KCAL/MOL
REMARK 924 INTRA-LIGAND FREE ENERGY PREDICTED BY IDOCK:   -1.08 KCAL/MOL
REMARK 927      BINDING AFFINITY PREDICTED BY RF-SCORE:    0.00 PKD
ROOT
HETATM    1  C   UNL     1      -8.353   4.891  70.668  1.00  0.00    -0.102 C  
HETATM    2  C   UNL     1      -9.814   5.292  70.790  1.00  0.00    -0.261 C  
ENDROOT
BRANCH   2   3
HETATM    3  C   UNL     1     -10.193   6.360  69.763  1.00  0.00    -0.226 C  
BRANCH   3   4
HETATM    4  C   UNL     1      -9.009   7.278  69.461  1.00  0.00    -0.144 C  
BRANCH   4   5
HETATM    5  C   UNL     1      -8.932   7.627  68.014  1.00  0.00    -0.126 A  
HETATM    6  C   UNL     1      -9.419   8.678  67.251  1.00  0.00    -0.198 A  
HETATM    7  C   UNL     1      -7.785   7.326  63.639  1.00  0.00    -0.120 A  
HETATM    8  C   UNL     1      -8.883   8.490  65.942  1.00  0.00    -0.219 A  
HETATM    9  C   UNL     1      -8.271   7.239  65.964  1.00  0.00    -0.138 A  
HETATM   10  C   UNL     1      -8.326   8.611  63.585  1.00  0.00    -0.115 A  
HETATM   11  C   UNL     1      -8.867   9.211  64.728  1.00  0.00    -0.200 A  
HETATM   12  C   UNL     1      -7.724   6.619  64.845  1.00  0.00    -0.109 A  
HETATM   13  O   UNL     1      -8.279   6.730  67.224  1.00  0.00    -0.119 OA 
BRANCH   6  14
HETATM   14  C   UNL     1     -10.280   9.725  67.773  1.00  0.00    -0.208 C  
HETATM   15  O   UNL     1     -11.222   9.468  68.518  1.00  0.00    -0.055 OA 
BRANCH  14  16
HETATM   16  C   UNL     1     -10.070  11.142  67.355  1.00  0.00    -0.213 A  
HETATM   17  I   UNL     1     -12.520  13.428  64.689  1.00  0.00    -0.268 I  
HETATM   18  C   UNL     1      -9.840  13.832  66.420  1.00  0.00    -0.298 A  
HETATM   19  C   UNL     1     -11.077  11.726  66.592  1.00  0.00    -0.364 A  
HETATM   20  C   UNL     1      -8.825  13.222  67.194  1.00  0.00    -0.222 A  
HETATM   21  I   UNL     1      -7.112  14.277  67.840  1.00  0.00    -0.212 I  
HETATM   22  C   UNL     1     -10.950  13.028  66.076  1.00  0.00    -0.275 A  
HETATM   23  C   UNL     1      -8.914  11.882  67.610  1.00  0.00    -0.169 A  
BRANCH  18  24
HETATM   24  O   UNL     1      -9.603  15.155  66.088  1.00  0.00    -0.272 OA 
BRANCH  24  25
HETATM   25  C   UNL     1     -10.515  16.086  66.659  1.00  0.00    -0.304 C  
BRANCH  25  26
HETATM   26  C   UNL     1     -10.519  17.497  66.058  1.00  0.00    -0.274 C  
BRANCH  26  27
HETATM   27  N   UNL     1     -10.388  18.529  67.125  1.00  0.00    -0.381 NA 
BRANCH  27  28
HETATM   28  C   UNL     1      -9.856  18.017  68.401  1.00  0.00    -0.366 C  
HETATM   29  C   UNL     1      -8.382  18.303  68.666  1.00  0.00    -0.305 C  
ENDBRANCH  27  28
BRANCH  27  30
HETATM   30  C   UNL     1      -9.691  19.721  66.624  1.00  0.00    -0.407 C  
HETATM   31  C   UNL     1      -9.864  20.958  67.505  1.00  0.00    -0.295 C  
ENDBRANCH  27  30
ENDBRANCH  26  27
ENDBRANCH  25  26
ENDBRANCH  24  25
ENDBRANCH  18  24
ENDBRANCH  14  16
ENDBRANCH   6  14
ENDBRANCH   4   5
ENDBRANCH   3   4
ENDBRANCH   2   3
TORSDOF 11
ENDMDL
MODEL      199
REMARK 921   NORMALIZED FREE ENERGY PREDICTED BY IDOCK:   -3.58 KCAL/MOL
REMARK 922        TOTAL FREE ENERGY PREDICTED BY IDOCK:   -8.02 KCAL/MOL
REMARK 923 INTER-LIGAND FREE ENERGY PREDICTED BY IDOCK:   -6.53 KCAL/MOL
REMARK 924 INTRA-LIGAND FREE ENERGY PREDICTED BY IDOCK:   -1.49 KCAL/MOL
REMARK 927      BINDING AFFINITY PREDICTED BY RF-SCORE:    0.00 PKD
ROOT
HETATM    1  C   UNL     1      -7.905   5.598  72.031  1.00  0.00    -0.106 C  
HETATM    2  C   UNL     1      -7.629   5.314  70.563  1.00  0.00    -0.072 C  
ENDROOT
BRANCH   2   3
HETATM    3  C   UNL     1      -8.922   5.248  69.749  1.00  0.00    -0.138 C  
BRANCH   3   4
HETATM    4  C   UNL     1      -8.776   4.297  68.561  1.00  0.00    -0.121 C  
BRANCH   4   5
HETATM    5  C   UNL     1      -8.364   5.015  67.321  1.00  0.00    -0.106 A  
HETATM    6  C   UNL     1      -8.916   6.052  66.584  1.00  0.00    -0.129 A  
HETATM    7  C   UNL     1      -5.842   6.184  63.742  1.00  0.00    -0.022 A  
HETATM    8  C   UNL     1      -7.957   6.365  65.574  1.00  0.00    -0.116 A  
HETATM    9  C   UNL     1      -6.988   5.369  65.658  1.00  0.00    -0.066 A  
HETATM   10  C   UNL     1      -6.751   7.239  63.661  1.00  0.00    -0.052 A  
HETATM   11  C   UNL     1      -7.805   7.351  64.575  1.00  0.00    -0.129 A  
HETATM   12  C   UNL     1      -5.929   5.234  64.765  1.00  0.00    -0.022 A  
HETATM   13  O   UNL     1      -7.221   4.568  66.731  1.00  0.00    -0.076 OA 
BRANCH   6  14
HETATM   14  C   UNL     1     -10.208   6.650  66.870  1.00  0.00    -0.220 C  
HETATM   15  O   UNL     1     -11.256   6.051  66.643  1.00  0.00    -0.207 OA 
BRANCH  14  16
HETATM   16  C   UNL     1     -10.286   8.045  67.393  1.00  0.00    -0.354 A  
HETATM   17  I   UNL     1     -11.338   9.247  71.367  1.00  0.00    -0.443 I  
HETATM   18  C   UNL     1     -10.512  10.633  68.585  1.00  0.00    -0.191 A  
HETATM   19  C   UNL     1     -10.508   8.190  68.760  1.00  0.00    -0.198 A  
HETATM   20  C   UNL     1     -10.289  10.467  67.197  1.00  0.00    -0.238 A  
HETATM   21  I   UNL     1      -9.973  12.107  65.902  1.00  0.00    -0.251 I  
HETATM   22  C   UNL     1     -10.680   9.456  69.349  1.00  0.00    -0.217 A  
HETATM   23  C   UNL     1     -10.231   9.194  66.603  1.00  0.00    -0.328 A  
BRANCH  18  24
HETATM   24  O   UNL     1     -10.545  11.948  69.016  1.00  0.00    -0.196 OA 
BRANCH  24  25
HETATM   25  C   UNL     1     -11.850  12.491  69.177  1.00  0.00    -0.296 C  
BRANCH  25  26
HETATM   26  C   UNL     1     -12.165  13.121  70.540  1.00  0.00    -0.328 C  
BRANCH  26  27
HETATM   27  N   UNL     1     -12.269  14.604  70.426  1.00  0.00    -0.308 NA 
BRANCH  27  28
HETATM   28  C   UNL     1     -12.054  15.124  69.064  1.00  0.00    -0.209 C  
HETATM   29  C   UNL     1     -11.053  16.267  68.942  1.00  0.00    -0.345 C  
ENDBRANCH  27  28
BRANCH  27  30
HETATM   30  C   UNL     1     -13.494  15.097  71.068  1.00  0.00    -0.431 C  
HETATM   31  C   UNL     1     -13.880  14.340  72.338  1.00  0.00    -0.619 C  
ENDBRANCH  27  30
ENDBRANCH  26  27
ENDBRANCH  25  26
ENDBRANCH  24  25
ENDBRANCH  18  24
ENDBRANCH  14  16
ENDBRANCH   6  14
ENDBRANCH   4   5
ENDBRANCH   3   4
ENDBRANCH   2   3
TORSDOF 11
ENDMDL
MODEL      200
REMARK 921   NORMALIZED FREE ENERGY PREDICTED BY IDOCK:   -3.52 KCAL/MOL
REMARK 922        TOTAL FREE ENERGY PREDICTED BY IDOCK:   -7.94 KCAL/MOL
REMARK 923 INTER-LIGAND FREE ENERGY PREDICTED BY IDOCK:   -5.99 KCAL/MOL
REMARK 924 INTRA-LIGAND FREE ENERGY PREDICTED BY IDOCK:   -1.95 KCAL/MOL
REMARK 927      BINDING AFFINITY PREDICTED BY RF-SCORE:    0.00 PKD
ROOT
HETATM    1  C   UNL     1     -10.315  10.099  69.956  1.00  0.00    -0.301 C  
HETATM    2  C   UNL     1      -8.860   9.932  69.546  1.00  0.00    -0.208 C  
ENDROOT
BRANCH   2   3
HETATM    3  C   UNL     1      -8.269  11.240  69.019  1.00  0.00    -0.026 C  
BRANCH   3   4
HETATM    4  C   UNL     1      -7.946  11.135  67.528  1.00  0.00    -0.118 C  
BRANCH   4   5
HETATM    5  C   UNL     1      -9.101  11.548  66.680  1.00  0.00    -0.190 A  
HETATM    6  C   UNL     1      -9.715  11.001  65.563  1.00  0.00    -0.274 A  
HETATM    7  C   UNL     1     -12.635  13.987  65.230  1.00  0.00    -0.495 A  
HETATM    8  C   UNL     1     -10.857  11.820  65.308  1.00  0.00    -0.343 A  
HETATM    9  C   UNL     1     -10.738  12.907  66.170  1.00  0.00    -0.272 A  
HETATM   10  C   UNL     1     -12.833  12.887  64.395  1.00  0.00    -0.235 A  
HETATM   11  C   UNL     1     -11.962  11.792  64.430  1.00  0.00    -0.240 A  
HETATM   12  C   UNL     1     -11.589  14.007  66.159  1.00  0.00    -0.374 A  
HETATM   13  O   UNL     1      -9.690  12.728  67.017  1.00  0.00    -0.214 OA 
BRANCH   6  14
HETATM   14  C   UNL     1      -9.234   9.819  64.871  1.00  0.00    -0.257 C  
HETATM   15  O   UNL     1      -9.252   9.742  63.645  1.00  0.00    -0.259 OA 
BRANCH  14  16
HETATM   16  C   UNL     1      -8.760   8.638  65.650  1.00  0.00    -0.214 A  
HETATM   17  I   UNL     1     -10.898   6.559  68.724  1.00  0.00    -0.343 I  
HETATM   18  C   UNL     1      -8.039   6.391  67.260  1.00  0.00    -0.113 A  
HETATM   19  C   UNL     1      -9.684   8.037  66.500  1.00  0.00    -0.297 A  
HETATM   20  C   UNL     1      -7.112   7.016  66.393  1.00  0.00    -0.074 A  
HETATM   21  I   UNL     1      -5.154   6.270  66.109  1.00  0.00    -0.014 I  
HETATM   22  C   UNL     1      -9.326   6.968  67.341  1.00  0.00    -0.126 A  
HETATM   23  C   UNL     1      -7.451   8.153  65.640  1.00  0.00    -0.081 A  
BRANCH  18  24
HETATM   24  O   UNL     1      -7.552   5.283  67.933  1.00  0.00    -0.082 OA 
BRANCH  24  25
HETATM   25  C   UNL     1      -7.140   5.531  69.272  1.00  0.00    -0.064 C  
BRANCH  25  26
HETATM   26  C   UNL     1      -7.729   4.612  70.350  1.00  0.00    -0.054 C  
BRANCH  26  27
HETATM   27  N   UNL     1      -8.343   5.410  71.449  1.00  0.00    -0.120 NA 
BRANCH  27  28
HETATM   28  C   UNL     1      -9.173   4.623  72.379  1.00  0.00    -0.125 C  
HETATM   29  C   UNL     1     -10.594   5.135  72.591  1.00  0.00    -0.280 C  
ENDBRANCH  27  28
BRANCH  27  30
HETATM   30  C   UNL     1      -7.340   6.253  72.112  1.00  0.00    -0.093 C  
HETATM   31  C   UNL     1      -7.778   7.704  72.308  1.00  0.00    -0.106 C  
ENDBRANCH  27  30
ENDBRANCH  26  27
ENDBRANCH  25  26
ENDBRANCH  24  25
ENDBRANCH  18  24
ENDBRANCH  14  16
ENDBRANCH   6  14
ENDBRANCH   4   5
ENDBRANCH   3   4
ENDBRANCH   2   3
TORSDOF 11
ENDMDL
MODEL      201
REMARK 921   NORMALIZED FREE ENERGY PREDICTED BY IDOCK:   -3.48 KCAL/MOL
REMARK 922        TOTAL FREE ENERGY PREDICTED BY IDOCK:   -7.86 KCAL/MOL
REMARK 923 INTER-LIGAND FREE ENERGY PREDICTED BY IDOCK:   -5.53 KCAL/MOL
REMARK 924 INTRA-LIGAND FREE ENERGY PREDICTED BY IDOCK:   -2.33 KCAL/MOL
REMARK 927      BINDING AFFINITY PREDICTED BY RF-SCORE:    0.00 PKD
ROOT
HETATM    1  C   UNL     1      -7.772   9.333  70.802  1.00  0.00    -0.164 C  
HETATM    2  C   UNL     1      -6.867   9.763  69.659  1.00  0.00    -0.072 C  
ENDROOT
BRANCH   2   3
HETATM    3  C   UNL     1      -6.185   8.565  68.998  1.00  0.00    -0.044 C  
BRANCH   3   4
HETATM    4  C   UNL     1      -6.455   8.539  67.494  1.00  0.00    -0.058 C  
BRANCH   4   5
HETATM    5  C   UNL     1      -7.275   7.359  67.097  1.00  0.00    -0.089 A  
HETATM    6  C   UNL     1      -8.625   7.055  67.182  1.00  0.00    -0.121 A  
HETATM    7  C   UNL     1      -8.293   3.301  65.354  1.00  0.00    -0.099 A  
HETATM    8  C   UNL     1      -8.788   5.812  66.499  1.00  0.00    -0.126 A  
HETATM    9  C   UNL     1      -7.499   5.366  66.222  1.00  0.00    -0.087 A  
HETATM   10  C   UNL     1      -9.604   3.735  65.550  1.00  0.00    -0.170 A  
HETATM   11  C   UNL     1      -9.868   4.991  66.109  1.00  0.00    -0.214 A  
HETATM   12  C   UNL     1      -7.206   4.124  65.665  1.00  0.00    -0.072 A  
HETATM   13  O   UNL     1      -6.585   6.314  66.561  1.00  0.00    -0.045 OA 
BRANCH   6  14
HETATM   14  C   UNL     1      -9.606   7.903  67.836  1.00  0.00    -0.147 C  
HETATM   15  O   UNL     1     -10.190   7.539  68.854  1.00  0.00    -0.197 OA 
BRANCH  14  16
HETATM   16  C   UNL     1      -9.971   9.221  67.240  1.00  0.00    -0.264 A  
HETATM   17  I   UNL     1     -11.686  12.578  69.273  1.00  0.00    -0.265 I  
HETATM   18  C   UNL     1     -10.753  11.801  66.295  1.00  0.00    -0.270 A  
HETATM   19  C   UNL     1     -10.381  10.216  68.123  1.00  0.00    -0.217 A  
HETATM   20  C   UNL     1     -10.337  10.778  65.411  1.00  0.00    -0.247 A  
HETATM   21  I   UNL     1     -10.129  11.098  63.332  1.00  0.00    -0.335 I  
HETATM   22  C   UNL     1     -10.824  11.470  67.666  1.00  0.00    -0.227 A  
HETATM   23  C   UNL     1     -10.002   9.492  65.871  1.00  0.00    -0.342 A  
BRANCH  18  24
HETATM   24  O   UNL     1     -11.050  13.010  65.687  1.00  0.00    -0.274 OA 
BRANCH  24  25
HETATM   25  C   UNL     1      -9.959  13.919  65.602  1.00  0.00    -0.276 C  
BRANCH  25  26
HETATM   26  C   UNL     1      -9.664  14.754  66.855  1.00  0.00    -0.240 C  
BRANCH  26  27
HETATM   27  N   UNL     1      -8.211  14.719  67.185  1.00  0.00    -0.212 NA 
BRANCH  27  28
HETATM   28  C   UNL     1      -7.644  16.025  67.567  1.00  0.00    -0.155 C  
HETATM   29  C   UNL     1      -8.657  17.117  67.891  1.00  0.00    -0.214 C  
ENDBRANCH  27  28
BRANCH  27  30
HETATM   30  C   UNL     1      -7.912  13.638  68.134  1.00  0.00    -0.148 C  
HETATM   31  C   UNL     1      -7.253  12.415  67.496  1.00  0.00    -0.145 C  
ENDBRANCH  27  30
ENDBRANCH  26  27
ENDBRANCH  25  26
ENDBRANCH  24  25
ENDBRANCH  18  24
ENDBRANCH  14  16
ENDBRANCH   6  14
ENDBRANCH   4   5
ENDBRANCH   3   4
ENDBRANCH   2   3
TORSDOF 11
ENDMDL
MODEL      202
REMARK 921   NORMALIZED FREE ENERGY PREDICTED BY IDOCK:   -3.47 KCAL/MOL
REMARK 922        TOTAL FREE ENERGY PREDICTED BY IDOCK:   -7.86 KCAL/MOL
REMARK 923 INTER-LIGAND FREE ENERGY PREDICTED BY IDOCK:   -6.49 KCAL/MOL
REMARK 924 INTRA-LIGAND FREE ENERGY PREDICTED BY IDOCK:   -1.37 KCAL/MOL
REMARK 927      BINDING AFFINITY PREDICTED BY RF-SCORE:    0.00 PKD
ROOT
HETATM    1  C   UNL     1     -11.003   6.209  67.021  1.00  0.00    -0.414 C  
HETATM    2  C   UNL     1      -9.737   6.020  67.841  1.00  0.00    -0.123 C  
ENDROOT
BRANCH   2   3
HETATM    3  C   UNL     1      -9.477   7.214  68.760  1.00  0.00    -0.141 C  
BRANCH   3   4
HETATM    4  C   UNL     1      -8.268   8.020  68.286  1.00  0.00    -0.123 C  
BRANCH   4   5
HETATM    5  C   UNL     1      -8.353   8.346  66.833  1.00  0.00    -0.106 A  
HETATM    6  C   UNL     1      -8.996   9.337  66.108  1.00  0.00    -0.202 A  
HETATM    7  C   UNL     1      -7.590   8.057  62.375  1.00  0.00    -0.113 A  
HETATM    8  C   UNL     1      -8.568   9.170  64.756  1.00  0.00    -0.209 A  
HETATM    9  C   UNL     1      -7.853   7.975  64.736  1.00  0.00    -0.131 A  
HETATM   10  C   UNL     1      -8.242   9.291  62.356  1.00  0.00    -0.158 A  
HETATM   11  C   UNL     1      -8.724   9.866  63.538  1.00  0.00    -0.223 A  
HETATM   12  C   UNL     1      -7.359   7.382  63.578  1.00  0.00    -0.087 A  
HETATM   13  O   UNL     1      -7.702   7.491  65.997  1.00  0.00    -0.088 OA 
BRANCH   6  14
HETATM   14  C   UNL     1      -9.892  10.319  66.694  1.00  0.00    -0.204 C  
HETATM   15  O   UNL     1     -11.012  10.008  67.090  1.00  0.00    -0.226 OA 
BRANCH  14  16
HETATM   16  C   UNL     1      -9.484  11.752  66.770  1.00  0.00    -0.202 A  
HETATM   17  I   UNL     1      -6.246  13.387  69.047  1.00  0.00    -0.109 I  
HETATM   18  C   UNL     1      -8.552  14.437  67.067  1.00  0.00    -0.203 A  
HETATM   19  C   UNL     1      -8.308  12.032  67.462  1.00  0.00    -0.166 A  
HETATM   20  C   UNL     1      -9.746  14.133  66.370  1.00  0.00    -0.298 A  
HETATM   21  I   UNL     1     -10.878  15.615  65.375  1.00  0.00    -0.294 I  
HETATM   22  C   UNL     1      -7.871  13.353  67.665  1.00  0.00    -0.173 A  
HETATM   23  C   UNL     1     -10.232  12.818  66.269  1.00  0.00    -0.264 A  
BRANCH  18  24
HETATM   24  O   UNL     1      -8.209  15.778  67.078  1.00  0.00    -0.185 OA 
BRANCH  24  25
HETATM   25  C   UNL     1      -8.395  16.431  68.328  1.00  0.00    -0.189 C  
BRANCH  25  26
HETATM   26  C   UNL     1      -7.580  17.710  68.559  1.00  0.00    -0.272 C  
BRANCH  26  27
HETATM   27  N   UNL     1      -8.026  18.797  67.642  1.00  0.00    -0.248 NA 
BRANCH  27  28
HETATM   28  C   UNL     1      -9.490  18.918  67.513  1.00  0.00    -0.302 C  
HETATM   29  C   UNL     1     -10.226  19.406  68.757  1.00  0.00    -0.417 C  
ENDBRANCH  27  28
BRANCH  27  30
HETATM   30  C   UNL     1      -7.348  20.061  67.953  1.00  0.00    -0.297 C  
HETATM   31  C   UNL     1      -6.939  20.868  66.721  1.00  0.00    -0.320 C  
ENDBRANCH  27  30
ENDBRANCH  26  27
ENDBRANCH  25  26
ENDBRANCH  24  25
ENDBRANCH  18  24
ENDBRANCH  14  16
ENDBRANCH   6  14
ENDBRANCH   4   5
ENDBRANCH   3   4
ENDBRANCH   2   3
TORSDOF 11
ENDMDL
MODEL      203
REMARK 921   NORMALIZED FREE ENERGY PREDICTED BY IDOCK:   -3.47 KCAL/MOL
REMARK 922        TOTAL FREE ENERGY PREDICTED BY IDOCK:   -7.85 KCAL/MOL
REMARK 923 INTER-LIGAND FREE ENERGY PREDICTED BY IDOCK:   -6.58 KCAL/MOL
REMARK 924 INTRA-LIGAND FREE ENERGY PREDICTED BY IDOCK:   -1.27 KCAL/MOL
REMARK 927      BINDING AFFINITY PREDICTED BY RF-SCORE:    0.00 PKD
ROOT
HETATM    1  C   UNL     1      -6.662   9.552  70.138  1.00  0.00    -0.078 C  
HETATM    2  C   UNL     1      -6.937  10.076  68.738  1.00  0.00    -0.062 C  
ENDROOT
BRANCH   2   3
HETATM    3  C   UNL     1      -5.976   9.475  67.712  1.00  0.00    -0.052 C  
BRANCH   3   4
HETATM    4  C   UNL     1      -6.545   9.580  66.297  1.00  0.00    -0.071 C  
BRANCH   4   5
HETATM    5  C   UNL     1      -6.924   8.246  65.750  1.00  0.00    -0.067 A  
HETATM    6  C   UNL     1      -8.036   7.430  65.893  1.00  0.00    -0.118 A  
HETATM    7  C   UNL     1      -6.635   4.418  63.341  1.00  0.00    -0.034 A  
HETATM    8  C   UNL     1      -7.834   6.338  64.996  1.00  0.00    -0.111 A  
HETATM    9  C   UNL     1      -6.532   6.476  64.525  1.00  0.00    -0.041 A  
HETATM   10  C   UNL     1      -7.966   4.271  63.734  1.00  0.00    -0.089 A  
HETATM   11  C   UNL     1      -8.583   5.227  64.549  1.00  0.00    -0.109 A  
HETATM   12  C   UNL     1      -5.893   5.545  63.711  1.00  0.00    -0.021 A  
HETATM   13  O   UNL     1      -5.991   7.645  64.961  1.00  0.00    -0.037 OA 
BRANCH   6  14
HETATM   14  C   UNL     1      -9.145   7.721  66.785  1.00  0.00    -0.154 C  
HETATM   15  O   UNL     1      -9.604   6.865  67.536  1.00  0.00    -0.126 OA 
BRANCH  14  16
HETATM   16  C   UNL     1      -9.793   9.064  66.758  1.00  0.00    -0.300 A  
HETATM   17  I   UNL     1     -11.809  11.013  69.995  1.00  0.00    -0.485 I  
HETATM   18  C   UNL     1     -11.104  11.598  66.912  1.00  0.00    -0.308 A  
HETATM   19  C   UNL     1     -10.262   9.557  67.972  1.00  0.00    -0.244 A  
HETATM   20  C   UNL     1     -10.624  11.080  65.686  1.00  0.00    -0.197 A  
HETATM   21  I   UNL     1     -10.711  12.182  63.885  1.00  0.00    -0.585 I  
HETATM   22  C   UNL     1     -10.961  10.775  68.052  1.00  0.00    -0.283 A  
HETATM   23  C   UNL     1     -10.026   9.811  65.602  1.00  0.00    -0.352 A  
BRANCH  18  24
HETATM   24  O   UNL     1     -11.668  12.860  66.830  1.00  0.00    -0.346 OA 
BRANCH  24  25
HETATM   25  C   UNL     1     -10.771  13.933  67.085  1.00  0.00    -0.282 C  
BRANCH  25  26
HETATM   26  C   UNL     1     -10.494  14.259  68.559  1.00  0.00    -0.253 C  
BRANCH  26  27
HETATM   27  N   UNL     1     -11.443  15.293  69.060  1.00  0.00    -0.303 NA 
BRANCH  27  28
HETATM   28  C   UNL     1     -11.526  15.379  70.529  1.00  0.00    -0.327 C  
HETATM   29  C   UNL     1     -12.933  15.482  71.107  1.00  0.00    -0.560 C  
ENDBRANCH  27  28
BRANCH  27  30
HETATM   30  C   UNL     1     -11.213  16.584  68.398  1.00  0.00    -0.280 C  
HETATM   31  C   UNL     1      -9.840  17.193  68.683  1.00  0.00    -0.300 C  
ENDBRANCH  27  30
ENDBRANCH  26  27
ENDBRANCH  25  26
ENDBRANCH  24  25
ENDBRANCH  18  24
ENDBRANCH  14  16
ENDBRANCH   6  14
ENDBRANCH   4   5
ENDBRANCH   3   4
ENDBRANCH   2   3
TORSDOF 11
ENDMDL
MODEL      204
REMARK 921   NORMALIZED FREE ENERGY PREDICTED BY IDOCK:   -3.39 KCAL/MOL
REMARK 922        TOTAL FREE ENERGY PREDICTED BY IDOCK:   -7.72 KCAL/MOL
REMARK 923 INTER-LIGAND FREE ENERGY PREDICTED BY IDOCK:   -6.94 KCAL/MOL
REMARK 924 INTRA-LIGAND FREE ENERGY PREDICTED BY IDOCK:   -0.78 KCAL/MOL
REMARK 927      BINDING AFFINITY PREDICTED BY RF-SCORE:    0.00 PKD
ROOT
HETATM    1  C   UNL     1     -12.402  13.500  66.826  1.00  0.00    -0.326 C  
HETATM    2  C   UNL     1     -12.024  14.604  67.799  1.00  0.00    -0.302 C  
ENDROOT
BRANCH   2   3
HETATM    3  C   UNL     1     -11.378  14.043  69.066  1.00  0.00    -0.319 C  
BRANCH   3   4
HETATM    4  C   UNL     1     -10.717  15.152  69.885  1.00  0.00    -0.274 C  
BRANCH   4   5
HETATM    5  C   UNL     1     -10.154  16.223  69.015  1.00  0.00    -0.259 A  
HETATM    6  C   UNL     1      -8.892  16.477  68.499  1.00  0.00    -0.228 A  
HETATM    7  C   UNL     1     -10.014  19.932  66.414  1.00  0.00    -0.593 A  
HETATM    8  C   UNL     1      -9.045  17.597  67.628  1.00  0.00    -0.241 A  
HETATM    9  C   UNL     1     -10.344  18.055  67.833  1.00  0.00    -0.392 A  
HETATM   10  C   UNL     1      -8.727  19.474  66.126  1.00  0.00    -0.332 A  
HETATM   11  C   UNL     1      -8.234  18.304  66.714  1.00  0.00    -0.269 A  
HETATM   12  C   UNL     1     -10.863  19.212  67.261  1.00  0.00    -0.529 A  
HETATM   13  O   UNL     1     -11.022  17.208  68.652  1.00  0.00    -0.295 OA 
BRANCH   6  14
HETATM   14  C   UNL     1      -7.713  15.692  68.821  1.00  0.00    -0.165 C  
HETATM   15  O   UNL     1      -6.713  16.209  69.311  1.00  0.00    -0.173 OA 
BRANCH  14  16
HETATM   16  C   UNL     1      -7.674  14.236  68.499  1.00  0.00    -0.137 A  
HETATM   17  I   UNL     1      -9.814  12.234  65.375  1.00  0.00    -0.030 I  
HETATM   18  C   UNL     1      -7.755  11.485  67.729  1.00  0.00    -0.124 A  
HETATM   19  C   UNL     1      -8.341  13.831  67.346  1.00  0.00    -0.201 A  
HETATM   20  C   UNL     1      -7.084  11.913  68.899  1.00  0.00    -0.110 A  
HETATM   21  I   UNL     1      -5.973  10.586  70.112  1.00  0.00    -0.125 I  
HETATM   22  C   UNL     1      -8.438  12.475  66.988  1.00  0.00    -0.161 A  
HETATM   23  C   UNL     1      -7.089  13.259  69.306  1.00  0.00     0.074 A  
BRANCH  18  24
HETATM   24  O   UNL     1      -7.659  10.129  67.466  1.00  0.00    -0.090 OA 
BRANCH  24  25
HETATM   25  C   UNL     1      -8.869   9.401  67.635  1.00  0.00    -0.115 C  
BRANCH  25  26
HETATM   26  C   UNL     1      -8.915   8.410  68.805  1.00  0.00    -0.140 C  
BRANCH  26  27
HETATM   27  N   UNL     1      -9.283   7.046  68.330  1.00  0.00    -0.130 NA 
BRANCH  27  28
HETATM   28  C   UNL     1      -9.165   5.994  69.356  1.00  0.00    -0.132 C  
HETATM   29  C   UNL     1      -9.868   6.279  70.679  1.00  0.00    -0.213 C  
ENDBRANCH  27  28
BRANCH  27  30
HETATM   30  C   UNL     1     -10.577   7.061  67.637  1.00  0.00    -0.257 C  
HETATM   31  C   UNL     1     -10.800   5.867  66.708  1.00  0.00    -0.347 C  
ENDBRANCH  27  30
ENDBRANCH  26  27
ENDBRANCH  25  26
ENDBRANCH  24  25
ENDBRANCH  18  24
ENDBRANCH  14  16
ENDBRANCH   6  14
ENDBRANCH   4   5
ENDBRANCH   3   4
ENDBRANCH   2   3
TORSDOF 11
ENDMDL
MODEL      205
REMARK 921   NORMALIZED FREE ENERGY PREDICTED BY IDOCK:   -3.38 KCAL/MOL
REMARK 922        TOTAL FREE ENERGY PREDICTED BY IDOCK:   -7.70 KCAL/MOL
REMARK 923 INTER-LIGAND FREE ENERGY PREDICTED BY IDOCK:   -6.85 KCAL/MOL
REMARK 924 INTRA-LIGAND FREE ENERGY PREDICTED BY IDOCK:   -0.85 KCAL/MOL
REMARK 927      BINDING AFFINITY PREDICTED BY RF-SCORE:    0.00 PKD
ROOT
HETATM    1  C   UNL     1     -11.064  14.631  70.101  1.00  0.00    -0.175 C  
HETATM    2  C   UNL     1     -11.910  15.700  69.428  1.00  0.00    -0.391 C  
ENDROOT
BRANCH   2   3
HETATM    3  C   UNL     1     -11.051  16.670  68.616  1.00  0.00    -0.294 C  
BRANCH   3   4
HETATM    4  C   UNL     1      -9.662  16.826  69.234  1.00  0.00    -0.139 C  
BRANCH   4   5
HETATM    5  C   UNL     1      -8.705  17.477  68.294  1.00  0.00    -0.270 A  
HETATM    6  C   UNL     1      -8.541  17.446  66.917  1.00  0.00    -0.270 A  
HETATM    7  C   UNL     1      -5.304  20.104  66.855  1.00  0.00    -0.172 A  
HETATM    8  C   UNL     1      -7.518  18.398  66.627  1.00  0.00    -0.253 A  
HETATM    9  C   UNL     1      -7.008  18.788  67.862  1.00  0.00    -0.221 A  
HETATM   10  C   UNL     1      -5.822  19.794  65.598  1.00  0.00    -0.198 A  
HETATM   11  C   UNL     1      -6.935  18.954  65.467  1.00  0.00    -0.218 A  
HETATM   12  C   UNL     1      -5.906  19.623  68.023  1.00  0.00    -0.230 A  
HETATM   13  O   UNL     1      -7.744  18.251  68.870  1.00  0.00    -0.280 OA 
BRANCH   6  14
HETATM   14  C   UNL     1      -9.316  16.599  66.028  1.00  0.00    -0.235 C  
HETATM   15  O   UNL     1     -10.034  17.077  65.153  1.00  0.00    -0.310 OA 
BRANCH  14  16
HETATM   16  C   UNL     1      -9.301  15.118  66.205  1.00  0.00    -0.348 A  
HETATM   17  I   UNL     1     -12.078  12.303  64.559  1.00  0.00    -0.358 I  
HETATM   18  C   UNL     1      -9.464  12.274  66.432  1.00  0.00    -0.237 A  
HETATM   19  C   UNL     1     -10.221  14.389  65.456  1.00  0.00    -0.386 A  
HETATM   20  C   UNL     1      -8.538  13.032  67.188  1.00  0.00    -0.195 A  
HETATM   21  I   UNL     1      -7.105  12.126  68.450  1.00  0.00    -0.109 I  
HETATM   22  C   UNL     1     -10.351  12.996  65.602  1.00  0.00    -0.285 A  
HETATM   23  C   UNL     1      -8.493  14.435  67.115  1.00  0.00    -0.229 A  
BRANCH  18  24
HETATM   24  O   UNL     1      -9.383  10.905  66.616  1.00  0.00    -0.166 OA 
BRANCH  24  25
HETATM   25  C   UNL     1      -8.755  10.196  65.554  1.00  0.00    -0.158 C  
BRANCH  25  26
HETATM   26  C   UNL     1      -7.711   9.145  65.956  1.00  0.00    -0.095 C  
BRANCH  26  27
HETATM   27  N   UNL     1      -7.341   8.294  64.790  1.00  0.00    -0.085 NA 
BRANCH  27  28
HETATM   28  C   UNL     1      -7.952   6.952  64.800  1.00  0.00    -0.119 C  
HETATM   29  C   UNL     1      -8.792   6.617  66.028  1.00  0.00    -0.151 C  
ENDBRANCH  27  28
BRANCH  27  30
HETATM   30  C   UNL     1      -7.520   9.022  63.528  1.00  0.00    -0.103 C  
HETATM   31  C   UNL     1      -8.098   8.172  62.396  1.00  0.00    -0.167 C  
ENDBRANCH  27  30
ENDBRANCH  26  27
ENDBRANCH  25  26
ENDBRANCH  24  25
ENDBRANCH  18  24
ENDBRANCH  14  16
ENDBRANCH   6  14
ENDBRANCH   4   5
ENDBRANCH   3   4
ENDBRANCH   2   3
TORSDOF 11
ENDMDL
MODEL      206
REMARK 921   NORMALIZED FREE ENERGY PREDICTED BY IDOCK:   -3.37 KCAL/MOL
REMARK 922        TOTAL FREE ENERGY PREDICTED BY IDOCK:   -7.69 KCAL/MOL
REMARK 923 INTER-LIGAND FREE ENERGY PREDICTED BY IDOCK:   -5.11 KCAL/MOL
REMARK 924 INTRA-LIGAND FREE ENERGY PREDICTED BY IDOCK:   -2.58 KCAL/MOL
REMARK 927      BINDING AFFINITY PREDICTED BY RF-SCORE:    0.00 PKD
ROOT
HETATM    1  C   UNL     1      -8.608   6.224  70.832  1.00  0.00    -0.135 C  
HETATM    2  C   UNL     1      -9.971   6.815  70.507  1.00  0.00    -0.197 C  
ENDROOT
BRANCH   2   3
HETATM    3  C   UNL     1     -10.579   6.178  69.257  1.00  0.00    -0.348 C  
BRANCH   3   4
HETATM    4  C   UNL     1      -9.780   4.949  68.822  1.00  0.00    -0.232 C  
BRANCH   4   5
HETATM    5  C   UNL     1      -9.457   4.984  67.367  1.00  0.00    -0.137 A  
HETATM    6  C   UNL     1      -8.457   5.589  66.620  1.00  0.00    -0.112 A  
HETATM    7  C   UNL     1      -9.768   4.088  62.935  1.00  0.00    -0.147 A  
HETATM    8  C   UNL     1      -8.634   5.121  65.283  1.00  0.00    -0.148 A  
HETATM    9  C   UNL     1      -9.840   4.425  65.286  1.00  0.00    -0.199 A  
HETATM   10  C   UNL     1      -8.524   4.719  62.894  1.00  0.00    -0.116 A  
HETATM   11  C   UNL     1      -7.939   5.229  64.058  1.00  0.00    -0.112 A  
HETATM   12  C   UNL     1     -10.444   3.905  64.146  1.00  0.00    -0.246 A  
HETATM   13  O   UNL     1     -10.323   4.321  66.553  1.00  0.00    -0.146 OA 
BRANCH   6  14
HETATM   14  C   UNL     1      -7.460   6.486  67.177  1.00  0.00    -0.088 C  
HETATM   15  O   UNL     1      -6.486   6.059  67.791  1.00  0.00    -0.042 OA 
BRANCH  14  16
HETATM   16  C   UNL     1      -7.638   7.963  67.064  1.00  0.00    -0.100 A  
HETATM   17  I   UNL     1      -6.491  10.919  69.944  1.00  0.00    -0.071 I  
HETATM   18  C   UNL     1      -7.900  10.809  67.055  1.00  0.00    -0.121 A  
HETATM   19  C   UNL     1      -7.057   8.742  68.061  1.00  0.00    -0.079 A  
HETATM   20  C   UNL     1      -8.487  10.002  66.051  1.00  0.00    -0.131 A  
HETATM   21  I   UNL     1      -9.495  10.827  64.387  1.00  0.00    -0.348 I  
HETATM   22  C   UNL     1      -7.228  10.137  68.101  1.00  0.00    -0.081 A  
HETATM   23  C   UNL     1      -8.402   8.599  66.085  1.00  0.00    -0.127 A  
BRANCH  18  24
HETATM   24  O   UNL     1      -8.073  12.171  66.881  1.00  0.00    -0.168 OA 
BRANCH  24  25
HETATM   25  C   UNL     1      -8.863  12.805  67.880  1.00  0.00    -0.186 C  
BRANCH  25  26
HETATM   26  C   UNL     1     -10.359  12.467  67.887  1.00  0.00    -0.210 C  
BRANCH  26  27
HETATM   27  N   UNL     1     -10.799  12.033  69.243  1.00  0.00    -0.138 NA 
BRANCH  27  28
HETATM   28  C   UNL     1     -12.141  12.507  69.626  1.00  0.00    -0.207 C  
HETATM   29  C   UNL     1     -12.182  13.546  70.742  1.00  0.00    -0.417 C  
ENDBRANCH  27  28
BRANCH  27  30
HETATM   30  C   UNL     1     -10.601  10.590  69.425  1.00  0.00    -0.240 C  
HETATM   31  C   UNL     1     -11.262   9.730  68.346  1.00  0.00    -0.076 C  
ENDBRANCH  27  30
ENDBRANCH  26  27
ENDBRANCH  25  26
ENDBRANCH  24  25
ENDBRANCH  18  24
ENDBRANCH  14  16
ENDBRANCH   6  14
ENDBRANCH   4   5
ENDBRANCH   3   4
ENDBRANCH   2   3
TORSDOF 11
ENDMDL
MODEL      207
REMARK 921   NORMALIZED FREE ENERGY PREDICTED BY IDOCK:   -3.36 KCAL/MOL
REMARK 922        TOTAL FREE ENERGY PREDICTED BY IDOCK:   -7.66 KCAL/MOL
REMARK 923 INTER-LIGAND FREE ENERGY PREDICTED BY IDOCK:   -6.52 KCAL/MOL
REMARK 924 INTRA-LIGAND FREE ENERGY PREDICTED BY IDOCK:   -1.14 KCAL/MOL
REMARK 927      BINDING AFFINITY PREDICTED BY RF-SCORE:    0.00 PKD
ROOT
HETATM    1  C   UNL     1      -7.171   2.561  65.353  1.00  0.00    -0.062 C  
HETATM    2  C   UNL     1      -8.259   2.880  66.365  1.00  0.00    -0.088 C  
ENDROOT
BRANCH   2   3
HETATM    3  C   UNL     1      -9.473   3.532  65.701  1.00  0.00    -0.142 C  
BRANCH   3   4
HETATM    4  C   UNL     1      -9.708   4.940  66.247  1.00  0.00    -0.200 C  
BRANCH   4   5
HETATM    5  C   UNL     1      -8.725   5.919  65.699  1.00  0.00    -0.146 A  
HETATM    6  C   UNL     1      -8.000   6.964  66.252  1.00  0.00    -0.108 A  
HETATM    7  C   UNL     1      -6.027   7.987  62.702  1.00  0.00    -0.073 A  
HETATM    8  C   UNL     1      -7.134   7.427  65.217  1.00  0.00    -0.064 A  
HETATM    9  C   UNL     1      -7.537   6.757  64.065  1.00  0.00    -0.108 A  
HETATM   10  C   UNL     1      -5.544   8.634  63.840  1.00  0.00    -0.065 A  
HETATM   11  C   UNL     1      -6.077   8.357  65.104  1.00  0.00    -0.049 A  
HETATM   12  C   UNL     1      -7.023   7.010  62.796  1.00  0.00    -0.057 A  
HETATM   13  O   UNL     1      -8.482   5.827  64.363  1.00  0.00    -0.114 OA 
BRANCH   6  14
HETATM   14  C   UNL     1      -8.146   7.412  67.626  1.00  0.00    -0.114 C  
HETATM   15  O   UNL     1      -7.430   6.974  68.522  1.00  0.00    -0.097 OA 
BRANCH  14  16
HETATM   16  C   UNL     1      -9.223   8.379  67.986  1.00  0.00    -0.143 A  
HETATM   17  I   UNL     1     -10.584  11.703  65.652  1.00  0.00    -0.316 I  
HETATM   18  C   UNL     1     -11.237  10.342  68.493  1.00  0.00    -0.251 A  
HETATM   19  C   UNL     1      -9.596   9.296  67.007  1.00  0.00    -0.223 A  
HETATM   20  C   UNL     1     -10.844   9.405  69.477  1.00  0.00    -0.213 A  
HETATM   21  I   UNL     1     -11.796   9.283  71.361  1.00  0.00    -0.498 I  
HETATM   22  C   UNL     1     -10.543  10.304  67.262  1.00  0.00    -0.267 A  
HETATM   23  C   UNL     1      -9.817   8.473  69.246  1.00  0.00    -0.185 A  
BRANCH  18  24
HETATM   24  O   UNL     1     -12.261  11.193  68.874  1.00  0.00    -0.522 OA 
BRANCH  24  25
HETATM   25  C   UNL     1     -11.866  12.255  69.733  1.00  0.00    -0.318 C  
BRANCH  25  26
HETATM   26  C   UNL     1     -11.200  13.465  69.064  1.00  0.00    -0.275 C  
BRANCH  26  27
HETATM   27  N   UNL     1     -11.701  14.739  69.655  1.00  0.00    -0.295 NA 
BRANCH  27  28
HETATM   28  C   UNL     1     -12.253  14.600  71.015  1.00  0.00    -0.332 C  
HETATM   29  C   UNL     1     -13.511  15.413  71.303  1.00  0.00    -0.598 C  
ENDBRANCH  27  28
BRANCH  27  30
HETATM   30  C   UNL     1     -10.705  15.809  69.522  1.00  0.00    -0.278 C  
HETATM   31  C   UNL     1     -10.947  16.741  68.334  1.00  0.00    -0.325 C  
ENDBRANCH  27  30
ENDBRANCH  26  27
ENDBRANCH  25  26
ENDBRANCH  24  25
ENDBRANCH  18  24
ENDBRANCH  14  16
ENDBRANCH   6  14
ENDBRANCH   4   5
ENDBRANCH   3   4
ENDBRANCH   2   3
TORSDOF 11
ENDMDL
MODEL      208
REMARK 921   NORMALIZED FREE ENERGY PREDICTED BY IDOCK:   -3.35 KCAL/MOL
REMARK 922        TOTAL FREE ENERGY PREDICTED BY IDOCK:   -7.64 KCAL/MOL
REMARK 923 INTER-LIGAND FREE ENERGY PREDICTED BY IDOCK:   -6.91 KCAL/MOL
REMARK 924 INTRA-LIGAND FREE ENERGY PREDICTED BY IDOCK:   -0.74 KCAL/MOL
REMARK 927      BINDING AFFINITY PREDICTED BY RF-SCORE:    0.00 PKD
ROOT
HETATM    1  C   UNL     1      -9.207   2.421  66.888  1.00  0.00    -0.086 C  
HETATM    2  C   UNL     1      -8.133   3.383  66.407  1.00  0.00    -0.092 C  
ENDROOT
BRANCH   2   3
HETATM    3  C   UNL     1      -8.219   4.730  67.126  1.00  0.00    -0.106 C  
BRANCH   3   4
HETATM    4  C   UNL     1      -9.658   5.045  67.534  1.00  0.00    -0.169 C  
BRANCH   4   5
HETATM    5  C   UNL     1      -9.724   5.710  68.867  1.00  0.00    -0.138 A  
HETATM    6  C   UNL     1      -9.281   6.930  69.354  1.00  0.00    -0.147 A  
HETATM    7  C   UNL     1     -10.757   6.357  73.233  1.00  0.00    -0.288 A  
HETATM    8  C   UNL     1      -9.778   7.019  70.690  1.00  0.00    -0.174 A  
HETATM    9  C   UNL     1     -10.317   5.767  70.973  1.00  0.00    -0.230 A  
HETATM   10  C   UNL     1     -10.289   7.646  72.976  1.00  0.00    -0.393 A  
HETATM   11  C   UNL     1      -9.809   7.996  71.709  1.00  0.00    -0.240 A  
HETATM   12  C   UNL     1     -10.804   5.391  72.221  1.00  0.00    -0.286 A  
HETATM   13  O   UNL     1     -10.307   4.985  69.861  1.00  0.00    -0.279 OA 
BRANCH   6  14
HETATM   14  C   UNL     1      -8.493   7.874  68.581  1.00  0.00    -0.128 C  
HETATM   15  O   UNL     1      -7.271   7.776  68.504  1.00  0.00    -0.081 OA 
BRANCH  14  16
HETATM   16  C   UNL     1      -9.157   9.028  67.908  1.00  0.00    -0.141 A  
HETATM   17  I   UNL     1     -11.806  11.875  69.704  1.00  0.00    -0.278 I  
HETATM   18  C   UNL     1     -10.537  11.276  66.810  1.00  0.00    -0.260 A  
HETATM   19  C   UNL     1      -9.864   9.907  68.725  1.00  0.00    -0.177 A  
HETATM   20  C   UNL     1      -9.817  10.371  65.995  1.00  0.00    -0.232 A  
HETATM   21  I   UNL     1      -9.584  10.667  63.915  1.00  0.00    -0.382 I  
HETATM   22  C   UNL     1     -10.595  10.983  68.191  1.00  0.00    -0.191 A  
HETATM   23  C   UNL     1      -9.182   9.236  66.528  1.00  0.00    -0.206 A  
BRANCH  18  24
HETATM   24  O   UNL     1     -11.106  12.342  66.135  1.00  0.00    -0.277 OA 
BRANCH  24  25
HETATM   25  C   UNL     1     -10.176  13.290  65.623  1.00  0.00    -0.289 C  
BRANCH  25  26
HETATM   26  C   UNL     1      -9.311  14.026  66.654  1.00  0.00    -0.277 C  
BRANCH  26  27
HETATM   27  N   UNL     1      -9.922  15.335  67.020  1.00  0.00    -0.232 NA 
BRANCH  27  28
HETATM   28  C   UNL     1      -9.522  15.841  68.346  1.00  0.00    -0.196 C  
HETATM   29  C   UNL     1     -10.565  15.702  69.449  1.00  0.00    -0.253 C  
ENDBRANCH  27  28
BRANCH  27  30
HETATM   30  C   UNL     1      -9.765  16.312  65.936  1.00  0.00    -0.321 C  
HETATM   31  C   UNL     1     -10.058  17.754  66.350  1.00  0.00    -0.357 C  
ENDBRANCH  27  30
ENDBRANCH  26  27
ENDBRANCH  25  26
ENDBRANCH  24  25
ENDBRANCH  18  24
ENDBRANCH  14  16
ENDBRANCH   6  14
ENDBRANCH   4   5
ENDBRANCH   3   4
ENDBRANCH   2   3
TORSDOF 11
ENDMDL
MODEL      209
REMARK 921   NORMALIZED FREE ENERGY PREDICTED BY IDOCK:   -3.34 KCAL/MOL
REMARK 922        TOTAL FREE ENERGY PREDICTED BY IDOCK:   -7.63 KCAL/MOL
REMARK 923 INTER-LIGAND FREE ENERGY PREDICTED BY IDOCK:   -6.95 KCAL/MOL
REMARK 924 INTRA-LIGAND FREE ENERGY PREDICTED BY IDOCK:   -0.68 KCAL/MOL
REMARK 927      BINDING AFFINITY PREDICTED BY RF-SCORE:    0.00 PKD
ROOT
HETATM    1  C   UNL     1      -6.294   9.992  63.593  1.00  0.00    -0.131 C  
HETATM    2  C   UNL     1      -5.697  10.327  64.950  1.00  0.00    -0.131 C  
ENDROOT
BRANCH   2   3
HETATM    3  C   UNL     1      -6.362   9.528  66.072  1.00  0.00    -0.069 C  
BRANCH   3   4
HETATM    4  C   UNL     1      -7.879   9.488  65.894  1.00  0.00    -0.100 C  
BRANCH   4   5
HETATM    5  C   UNL     1      -8.531   8.586  66.886  1.00  0.00    -0.113 A  
HETATM    6  C   UNL     1      -9.134   8.789  68.118  1.00  0.00    -0.142 A  
HETATM    7  C   UNL     1     -10.152   4.770  68.717  1.00  0.00    -0.128 A  
HETATM    8  C   UNL     1      -9.680   7.525  68.497  1.00  0.00    -0.159 A  
HETATM    9  C   UNL     1      -9.199   6.614  67.561  1.00  0.00    -0.114 A  
HETATM   10  C   UNL     1     -10.712   5.653  69.641  1.00  0.00    -0.398 A  
HETATM   11  C   UNL     1     -10.496   7.032  69.538  1.00  0.00    -0.235 A  
HETATM   12  C   UNL     1      -9.399   5.239  67.635  1.00  0.00    -0.128 A  
HETATM   13  O   UNL     1      -8.526   7.261  66.572  1.00  0.00    -0.115 OA 
BRANCH   6  14
HETATM   14  C   UNL     1      -9.173  10.071  68.799  1.00  0.00    -0.159 C  
HETATM   15  O   UNL     1      -9.172  10.145  70.025  1.00  0.00    -0.166 OA 
BRANCH  14  16
HETATM   16  C   UNL     1      -9.279  11.333  68.011  1.00  0.00    -0.160 A  
HETATM   17  I   UNL     1      -6.500  14.592  67.987  1.00  0.00    -0.172 I  
HETATM   18  C   UNL     1      -9.301  13.821  66.605  1.00  0.00    -0.264 A  
HETATM   19  C   UNL     1      -8.183  12.190  68.051  1.00  0.00    -0.158 A  
HETATM   20  C   UNL     1     -10.407  12.939  66.579  1.00  0.00    -0.264 A  
HETATM   21  I   UNL     1     -12.119  13.314  65.398  1.00  0.00    -0.552 I  
HETATM   22  C   UNL     1      -8.203  13.443  67.412  1.00  0.00    -0.183 A  
HETATM   23  C   UNL     1     -10.417  11.740  67.313  1.00  0.00    -0.242 A  
BRANCH  18  24
HETATM   24  O   UNL     1      -9.445  14.960  65.832  1.00  0.00    -0.307 OA 
BRANCH  24  25
HETATM   25  C   UNL     1     -10.163  16.018  66.456  1.00  0.00    -0.293 C  
BRANCH  25  26
HETATM   26  C   UNL     1      -9.692  16.432  67.857  1.00  0.00    -0.235 C  
BRANCH  26  27
HETATM   27  N   UNL     1      -9.614  17.915  67.972  1.00  0.00    -0.280 NA 
BRANCH  27  28
HETATM   28  C   UNL     1      -8.311  18.486  67.584  1.00  0.00    -0.255 C  
HETATM   29  C   UNL     1      -7.234  18.470  68.664  1.00  0.00    -0.306 C  
ENDBRANCH  27  28
BRANCH  27  30
HETATM   30  C   UNL     1     -10.764  18.556  67.322  1.00  0.00    -0.374 C  
HETATM   31  C   UNL     1     -10.396  19.758  66.451  1.00  0.00    -0.619 C  
ENDBRANCH  27  30
ENDBRANCH  26  27
ENDBRANCH  25  26
ENDBRANCH  24  25
ENDBRANCH  18  24
ENDBRANCH  14  16
ENDBRANCH   6  14
ENDBRANCH   4   5
ENDBRANCH   3   4
ENDBRANCH   2   3
TORSDOF 11
ENDMDL
MODEL      210
REMARK 921   NORMALIZED FREE ENERGY PREDICTED BY IDOCK:   -3.32 KCAL/MOL
REMARK 922        TOTAL FREE ENERGY PREDICTED BY IDOCK:   -7.61 KCAL/MOL
REMARK 923 INTER-LIGAND FREE ENERGY PREDICTED BY IDOCK:   -6.41 KCAL/MOL
REMARK 924 INTRA-LIGAND FREE ENERGY PREDICTED BY IDOCK:   -1.20 KCAL/MOL
REMARK 927      BINDING AFFINITY PREDICTED BY RF-SCORE:    0.00 PKD
ROOT
HETATM    1  C   UNL     1     -13.933  15.306  72.393  1.00  0.00    -0.642 C  
HETATM    2  C   UNL     1     -13.755  15.180  70.889  1.00  0.00    -0.352 C  
ENDROOT
BRANCH   2   3
HETATM    3  C   UNL     1     -12.312  15.462  70.466  1.00  0.00    -0.452 C  
BRANCH   3   4
HETATM    4  C   UNL     1     -11.570  14.166  70.143  1.00  0.00    -0.292 C  
BRANCH   4   5
HETATM    5  C   UNL     1     -11.370  13.991  68.676  1.00  0.00    -0.276 A  
HETATM    6  C   UNL     1     -10.270  13.694  67.885  1.00  0.00    -0.250 A  
HETATM    7  C   UNL     1     -12.380  13.719  64.266  1.00  0.00    -0.384 A  
HETATM    8  C   UNL     1     -10.776  13.538  66.559  1.00  0.00    -0.287 A  
HETATM    9  C   UNL     1     -12.107  13.941  66.616  1.00  0.00    -0.448 A  
HETATM   10  C   UNL     1     -11.071  13.244  64.170  1.00  0.00    -0.393 A  
HETATM   11  C   UNL     1     -10.262  13.135  65.307  1.00  0.00    -0.299 A  
HETATM   12  C   UNL     1     -12.936  14.056  65.504  1.00  0.00    -0.353 A  
HETATM   13  O   UNL     1     -12.473  14.190  67.902  1.00  0.00    -0.108 OA 
BRANCH   6  14
HETATM   14  C   UNL     1      -8.917  13.566  68.396  1.00  0.00    -0.146 C  
HETATM   15  O   UNL     1      -8.281  14.544  68.779  1.00  0.00    -0.151 OA 
BRANCH  14  16
HETATM   16  C   UNL     1      -8.245  12.234  68.405  1.00  0.00    -0.146 A  
HETATM   17  I   UNL     1      -8.460   9.222  65.367  1.00  0.00    -0.208 I  
HETATM   18  C   UNL     1      -7.063   9.638  68.234  1.00  0.00    -0.078 A  
HETATM   19  C   UNL     1      -8.341  11.476  67.241  1.00  0.00    -0.154 A  
HETATM   20  C   UNL     1      -6.978  10.421  69.409  1.00  0.00    -0.091 A  
HETATM   21  I   UNL     1      -5.863   9.804  71.096  1.00  0.00     0.049 I  
HETATM   22  C   UNL     1      -7.815  10.174  67.164  1.00  0.00    -0.099 A  
HETATM   23  C   UNL     1      -7.604  11.675  69.512  1.00  0.00     0.344 A  
BRANCH  18  24
HETATM   24  O   UNL     1      -6.396   8.426  68.292  1.00  0.00    -0.049 OA 
BRANCH  24  25
HETATM   25  C   UNL     1      -7.237   7.286  68.415  1.00  0.00    -0.091 C  
BRANCH  25  26
HETATM   26  C   UNL     1      -7.848   7.032  69.799  1.00  0.00    -0.115 C  
BRANCH  26  27
HETATM   27  N   UNL     1      -9.332   6.933  69.713  1.00  0.00    -0.147 NA 
BRANCH  27  28
HETATM   28  C   UNL     1      -9.912   5.825  70.493  1.00  0.00    -0.195 C  
HETATM   29  C   UNL     1     -11.352   6.025  70.956  1.00  0.00    -0.299 C  
ENDBRANCH  27  28
BRANCH  27  30
HETATM   30  C   UNL     1      -9.963   8.234  69.964  1.00  0.00    -0.188 C  
HETATM   31  C   UNL     1     -10.745   8.788  68.773  1.00  0.00    -0.111 C  
ENDBRANCH  27  30
ENDBRANCH  26  27
ENDBRANCH  25  26
ENDBRANCH  24  25
ENDBRANCH  18  24
ENDBRANCH  14  16
ENDBRANCH   6  14
ENDBRANCH   4   5
ENDBRANCH   3   4
ENDBRANCH   2   3
TORSDOF 11
ENDMDL
MODEL      211
REMARK 921   NORMALIZED FREE ENERGY PREDICTED BY IDOCK:   -3.32 KCAL/MOL
REMARK 922        TOTAL FREE ENERGY PREDICTED BY IDOCK:   -7.61 KCAL/MOL
REMARK 923 INTER-LIGAND FREE ENERGY PREDICTED BY IDOCK:   -6.90 KCAL/MOL
REMARK 924 INTRA-LIGAND FREE ENERGY PREDICTED BY IDOCK:   -0.71 KCAL/MOL
REMARK 927      BINDING AFFINITY PREDICTED BY RF-SCORE:    0.00 PKD
ROOT
HETATM    1  C   UNL     1     -12.027  12.680  63.508  1.00  0.00    -0.630 C  
HETATM    2  C   UNL     1     -12.608  12.714  64.913  1.00  0.00    -0.525 C  
ENDROOT
BRANCH   2   3
HETATM    3  C   UNL     1     -11.568  12.325  65.964  1.00  0.00    -0.451 C  
BRANCH   3   4
HETATM    4  C   UNL     1     -10.177  12.823  65.572  1.00  0.00    -0.293 C  
BRANCH   4   5
HETATM    5  C   UNL     1      -9.775  14.024  66.359  1.00  0.00    -0.296 A  
HETATM    6  C   UNL     1      -8.679  14.330  67.152  1.00  0.00    -0.243 A  
HETATM    7  C   UNL     1      -9.945  18.214  68.078  1.00  0.00    -0.353 A  
HETATM    8  C   UNL     1      -8.834  15.701  67.517  1.00  0.00    -0.190 A  
HETATM    9  C   UNL     1     -10.105  16.064  67.079  1.00  0.00    -0.271 A  
HETATM   10  C   UNL     1      -8.642  17.919  68.477  1.00  0.00    -0.298 A  
HETATM   11  C   UNL     1      -8.068  16.675  68.194  1.00  0.00    -0.186 A  
HETATM   12  C   UNL     1     -10.700  17.294  67.343  1.00  0.00    -0.247 A  
HETATM   13  O   UNL     1     -10.663  15.056  66.356  1.00  0.00    -0.308 OA 
BRANCH   6  14
HETATM   14  C   UNL     1      -7.624  13.386  67.474  1.00  0.00    -0.169 C  
HETATM   15  O   UNL     1      -6.508  13.766  67.818  1.00  0.00    -0.150 OA 
BRANCH  14  16
HETATM   16  C   UNL     1      -7.863  11.920  67.331  1.00  0.00    -0.158 A  
HETATM   17  I   UNL     1      -9.815   9.345  70.141  1.00  0.00    -0.325 I  
HETATM   18  C   UNL     1      -8.403   9.115  67.261  1.00  0.00    -0.121 A  
HETATM   19  C   UNL     1      -8.648  11.315  68.309  1.00  0.00    -0.153 A  
HETATM   20  C   UNL     1      -7.605   9.746  66.278  1.00  0.00    -0.100 A  
HETATM   21  I   UNL     1      -6.850   8.705  64.601  1.00  0.00    -0.074 I  
HETATM   22  C   UNL     1      -8.872   9.927  68.318  1.00  0.00    -0.119 A  
HETATM   23  C   UNL     1      -7.296  11.116  66.341  1.00  0.00    -0.099 A  
BRANCH  18  24
HETATM   24  O   UNL     1      -8.614   7.762  67.059  1.00  0.00    -0.124 OA 
BRANCH  24  25
HETATM   25  C   UNL     1      -7.690   6.908  67.722  1.00  0.00    -0.112 C  
BRANCH  25  26
HETATM   26  C   UNL     1      -7.791   5.410  67.401  1.00  0.00    -0.101 C  
BRANCH  26  27
HETATM   27  N   UNL     1      -8.741   4.733  68.329  1.00  0.00    -0.101 NA 
BRANCH  27  28
HETATM   28  C   UNL     1      -8.579   5.111  69.744  1.00  0.00    -0.096 C  
HETATM   29  C   UNL     1      -9.466   4.362  70.734  1.00  0.00    -0.243 C  
ENDBRANCH  27  28
BRANCH  27  30
HETATM   30  C   UNL     1     -10.121   4.836  67.837  1.00  0.00    -0.056 C  
HETATM   31  C   UNL     1     -10.260   4.641  66.327  1.00  0.00    -0.306 C  
ENDBRANCH  27  30
ENDBRANCH  26  27
ENDBRANCH  25  26
ENDBRANCH  24  25
ENDBRANCH  18  24
ENDBRANCH  14  16
ENDBRANCH   6  14
ENDBRANCH   4   5
ENDBRANCH   3   4
ENDBRANCH   2   3
TORSDOF 11
ENDMDL
MODEL      212
REMARK 921   NORMALIZED FREE ENERGY PREDICTED BY IDOCK:   -3.32 KCAL/MOL
REMARK 922        TOTAL FREE ENERGY PREDICTED BY IDOCK:   -7.60 KCAL/MOL
REMARK 923 INTER-LIGAND FREE ENERGY PREDICTED BY IDOCK:   -6.38 KCAL/MOL
REMARK 924 INTRA-LIGAND FREE ENERGY PREDICTED BY IDOCK:   -1.22 KCAL/MOL
REMARK 927      BINDING AFFINITY PREDICTED BY RF-SCORE:    0.00 PKD
ROOT
HETATM    1  C   UNL     1     -12.738  12.399  64.176  1.00  0.00    -0.446 C  
HETATM    2  C   UNL     1     -12.458  13.101  65.495  1.00  0.00    -0.516 C  
ENDROOT
BRANCH   2   3
HETATM    3  C   UNL     1     -11.898  12.135  66.541  1.00  0.00    -0.322 C  
BRANCH   3   4
HETATM    4  C   UNL     1     -11.486  12.877  67.811  1.00  0.00    -0.369 C  
BRANCH   4   5
HETATM    5  C   UNL     1     -10.550  14.001  67.519  1.00  0.00    -0.260 A  
HETATM    6  C   UNL     1      -9.181  14.172  67.660  1.00  0.00    -0.193 A  
HETATM    7  C   UNL     1      -9.114  18.055  66.091  1.00  0.00    -0.124 A  
HETATM    8  C   UNL     1      -8.885  15.438  67.070  1.00  0.00    -0.252 A  
HETATM    9  C   UNL     1     -10.119  16.019  66.792  1.00  0.00    -0.268 A  
HETATM   10  C   UNL     1      -7.854  17.489  66.290  1.00  0.00    -0.322 A  
HETATM   11  C   UNL     1      -7.723  16.180  66.766  1.00  0.00    -0.288 A  
HETATM   12  C   UNL     1     -10.280  17.317  66.316  1.00  0.00    -0.347 A  
HETATM   13  O   UNL     1     -11.125  15.139  67.040  1.00  0.00    -0.329 OA 
BRANCH   6  14
HETATM   14  C   UNL     1      -8.302  13.195  68.278  1.00  0.00    -0.152 C  
HETATM   15  O   UNL     1      -7.786  13.400  69.373  1.00  0.00     0.279 OA 
BRANCH  14  16
HETATM   16  C   UNL     1      -7.958  11.936  67.555  1.00  0.00    -0.155 A  
HETATM   17  I   UNL     1      -9.502  10.635  63.778  1.00  0.00    -0.389 I  
HETATM   18  C   UNL     1      -7.452   9.580  66.020  1.00  0.00    -0.100 A  
HETATM   19  C   UNL     1      -8.475  11.791  66.270  1.00  0.00    -0.022 A  
HETATM   20  C   UNL     1      -6.938   9.743  67.327  1.00  0.00    -0.084 A  
HETATM   21  I   UNL     1      -5.644   8.327  68.216  1.00  0.00    -0.035 I  
HETATM   22  C   UNL     1      -8.282  10.612  65.527  1.00  0.00    -0.141 A  
HETATM   23  C   UNL     1      -7.230  10.879  68.103  1.00  0.00    -0.083 A  
BRANCH  18  24
HETATM   24  O   UNL     1      -7.075   8.407  65.388  1.00  0.00    -0.078 OA 
BRANCH  24  25
HETATM   25  C   UNL     1      -8.131   7.481  65.168  1.00  0.00    -0.130 C  
BRANCH  25  26
HETATM   26  C   UNL     1      -8.603   6.677  66.387  1.00  0.00    -0.130 C  
BRANCH  26  27
HETATM   27  N   UNL     1     -10.032   6.282  66.241  1.00  0.00    -0.043 NA 
BRANCH  27  28
HETATM   28  C   UNL     1     -10.263   4.826  66.260  1.00  0.00    -0.282 C  
HETATM   29  C   UNL     1     -10.090   4.111  64.923  1.00  0.00    -0.213 C  
ENDBRANCH  27  28
BRANCH  27  30
HETATM   30  C   UNL     1     -10.885   7.034  67.170  1.00  0.00    -0.357 C  
HETATM   31  C   UNL     1     -10.113   7.941  68.128  1.00  0.00    -0.228 C  
ENDBRANCH  27  30
ENDBRANCH  26  27
ENDBRANCH  25  26
ENDBRANCH  24  25
ENDBRANCH  18  24
ENDBRANCH  14  16
ENDBRANCH   6  14
ENDBRANCH   4   5
ENDBRANCH   3   4
ENDBRANCH   2   3
TORSDOF 11
ENDMDL
MODEL      213
REMARK 921   NORMALIZED FREE ENERGY PREDICTED BY IDOCK:   -3.32 KCAL/MOL
REMARK 922        TOTAL FREE ENERGY PREDICTED BY IDOCK:   -7.60 KCAL/MOL
REMARK 923 INTER-LIGAND FREE ENERGY PREDICTED BY IDOCK:   -6.43 KCAL/MOL
REMARK 924 INTRA-LIGAND FREE ENERGY PREDICTED BY IDOCK:   -1.17 KCAL/MOL
REMARK 927      BINDING AFFINITY PREDICTED BY RF-SCORE:    0.00 PKD
ROOT
HETATM    1  C   UNL     1     -10.303   4.855  66.657  1.00  0.00    -0.285 C  
HETATM    2  C   UNL     1      -9.646   4.765  68.026  1.00  0.00    -0.199 C  
ENDROOT
BRANCH   2   3
HETATM    3  C   UNL     1      -9.971   5.986  68.888  1.00  0.00    -0.192 C  
BRANCH   3   4
HETATM    4  C   UNL     1      -8.784   6.947  68.949  1.00  0.00    -0.130 C  
BRANCH   4   5
HETATM    5  C   UNL     1      -8.299   7.318  67.589  1.00  0.00    -0.117 A  
HETATM    6  C   UNL     1      -8.725   8.227  66.632  1.00  0.00    -0.150 A  
HETATM    7  C   UNL     1      -5.689   7.346  63.883  1.00  0.00    -0.037 A  
HETATM    8  C   UNL     1      -7.745   8.187  65.594  1.00  0.00    -0.090 A  
HETATM    9  C   UNL     1      -6.907   7.122  65.912  1.00  0.00    -0.057 A  
HETATM   10  C   UNL     1      -6.460   8.462  63.556  1.00  0.00    -0.081 A  
HETATM   11  C   UNL     1      -7.482   8.902  64.405  1.00  0.00    -0.106 A  
HETATM   12  C   UNL     1      -5.882   6.664  65.089  1.00  0.00    -0.030 A  
HETATM   13  O   UNL     1      -7.227   6.614  67.131  1.00  0.00    -0.077 OA 
BRANCH   6  14
HETATM   14  C   UNL     1      -9.929   9.029  66.757  1.00  0.00    -0.263 C  
HETATM   15  O   UNL     1     -11.005   8.525  67.069  1.00  0.00    -0.095 OA 
BRANCH  14  16
HETATM   16  C   UNL     1      -9.892  10.487  66.443  1.00  0.00    -0.260 A  
HETATM   17  I   UNL     1      -7.336  13.434  68.211  1.00  0.00    -0.155 I  
HETATM   18  C   UNL     1      -9.672  13.302  66.005  1.00  0.00    -0.219 A  
HETATM   19  C   UNL     1      -8.877  11.230  67.040  1.00  0.00    -0.153 A  
HETATM   20  C   UNL     1     -10.699  12.532  65.409  1.00  0.00    -0.280 A  
HETATM   21  I   UNL     1     -12.081  13.361  64.042  1.00  0.00    -0.357 I  
HETATM   22  C   UNL     1      -8.793  12.625  66.880  1.00  0.00    -0.201 A  
HETATM   23  C   UNL     1     -10.838  11.157  65.666  1.00  0.00    -0.206 A  
BRANCH  18  24
HETATM   24  O   UNL     1      -9.670  14.641  65.654  1.00  0.00    -0.328 OA 
BRANCH  24  25
HETATM   25  C   UNL     1     -10.231  15.514  66.627  1.00  0.00    -0.276 C  
BRANCH  25  26
HETATM   26  C   UNL     1      -9.318  16.630  67.152  1.00  0.00    -0.228 C  
BRANCH  26  27
HETATM   27  N   UNL     1      -9.859  17.207  68.415  1.00  0.00    -0.281 NA 
BRANCH  27  28
HETATM   28  C   UNL     1     -10.082  18.663  68.370  1.00  0.00    -0.383 C  
HETATM   29  C   UNL     1     -10.773  19.189  67.116  1.00  0.00    -0.567 C  
ENDBRANCH  27  28
BRANCH  27  30
HETATM   30  C   UNL     1     -11.018  16.441  68.890  1.00  0.00    -0.332 C  
HETATM   31  C   UNL     1     -10.904  15.975  70.342  1.00  0.00    -0.295 C  
ENDBRANCH  27  30
ENDBRANCH  26  27
ENDBRANCH  25  26
ENDBRANCH  24  25
ENDBRANCH  18  24
ENDBRANCH  14  16
ENDBRANCH   6  14
ENDBRANCH   4   5
ENDBRANCH   3   4
ENDBRANCH   2   3
TORSDOF 11
ENDMDL
MODEL      214
REMARK 921   NORMALIZED FREE ENERGY PREDICTED BY IDOCK:   -3.30 KCAL/MOL
REMARK 922        TOTAL FREE ENERGY PREDICTED BY IDOCK:   -7.57 KCAL/MOL
REMARK 923 INTER-LIGAND FREE ENERGY PREDICTED BY IDOCK:   -6.73 KCAL/MOL
REMARK 924 INTRA-LIGAND FREE ENERGY PREDICTED BY IDOCK:   -0.84 KCAL/MOL
REMARK 927      BINDING AFFINITY PREDICTED BY RF-SCORE:    0.00 PKD
ROOT
HETATM    1  C   UNL     1     -13.485  15.375  72.344  1.00  0.00    -0.591 C  
HETATM    2  C   UNL     1     -13.393  15.131  70.846  1.00  0.00    -0.463 C  
ENDROOT
BRANCH   2   3
HETATM    3  C   UNL     1     -11.954  15.250  70.342  1.00  0.00    -0.374 C  
BRANCH   3   4
HETATM    4  C   UNL     1     -11.384  13.880  69.976  1.00  0.00    -0.127 C  
BRANCH   4   5
HETATM    5  C   UNL     1     -11.240  13.714  68.502  1.00  0.00    -0.280 A  
HETATM    6  C   UNL     1     -10.207  13.292  67.679  1.00  0.00    -0.228 A  
HETATM    7  C   UNL     1     -12.370  13.679  64.112  1.00  0.00    -0.385 A  
HETATM    8  C   UNL     1     -10.756  13.234  66.363  1.00  0.00    -0.291 A  
HETATM    9  C   UNL     1     -12.020  13.810  66.460  1.00  0.00    -0.434 A  
HETATM   10  C   UNL     1     -11.138  13.037  63.976  1.00  0.00    -0.433 A  
HETATM   11  C   UNL     1     -10.327  12.796  65.091  1.00  0.00    -0.314 A  
HETATM   12  C   UNL     1     -12.850  14.059  65.371  1.00  0.00    -0.442 A  
HETATM   13  O   UNL     1     -12.322  14.076  67.758  1.00  0.00    -0.249 OA 
BRANCH   6  14
HETATM   14  C   UNL     1      -8.872  12.974  68.154  1.00  0.00    -0.194 C  
HETATM   15  O   UNL     1      -8.102  13.851  68.538  1.00  0.00    -0.140 OA 
BRANCH  14  16
HETATM   16  C   UNL     1      -8.385  11.564  68.126  1.00  0.00    -0.152 A  
HETATM   17  I   UNL     1      -8.071   9.020  64.695  1.00  0.00    -0.176 I  
HETATM   18  C   UNL     1      -7.504   8.859  67.857  1.00  0.00    -0.092 A  
HETATM   19  C   UNL     1      -8.233  10.979  66.872  1.00  0.00    -0.140 A  
HETATM   20  C   UNL     1      -7.667   9.468  69.123  1.00  0.00    -0.081 A  
HETATM   21  I   UNL     1      -7.151   8.485  70.922  1.00  0.00    -0.089 I  
HETATM   22  C   UNL     1      -7.857   9.631  66.727  1.00  0.00    -0.102 A  
HETATM   23  C   UNL     1      -8.150  10.781  69.258  1.00  0.00    -0.102 A  
BRANCH  18  24
HETATM   24  O   UNL     1      -7.022   7.562  67.892  1.00  0.00    -0.071 OA 
BRANCH  24  25
HETATM   25  C   UNL     1      -8.012   6.561  68.097  1.00  0.00    -0.110 C  
BRANCH  25  26
HETATM   26  C   UNL     1      -8.612   5.925  66.836  1.00  0.00    -0.111 C  
BRANCH  26  27
HETATM   27  N   UNL     1      -8.187   4.502  66.707  1.00  0.00    -0.102 NA 
BRANCH  27  28
HETATM   28  C   UNL     1      -6.909   4.314  65.996  1.00  0.00    -0.057 C  
HETATM   29  C   UNL     1      -6.972   3.454  64.739  1.00  0.00    -0.056 C  
ENDBRANCH  27  28
BRANCH  27  30
HETATM   30  C   UNL     1      -8.258   3.811  68.001  1.00  0.00    -0.087 C  
HETATM   31  C   UNL     1      -9.374   2.770  68.090  1.00  0.00    -0.258 C  
ENDBRANCH  27  30
ENDBRANCH  26  27
ENDBRANCH  25  26
ENDBRANCH  24  25
ENDBRANCH  18  24
ENDBRANCH  14  16
ENDBRANCH   6  14
ENDBRANCH   4   5
ENDBRANCH   3   4
ENDBRANCH   2   3
TORSDOF 11
ENDMDL
MODEL      215
REMARK 921   NORMALIZED FREE ENERGY PREDICTED BY IDOCK:   -3.30 KCAL/MOL
REMARK 922        TOTAL FREE ENERGY PREDICTED BY IDOCK:   -7.57 KCAL/MOL
REMARK 923 INTER-LIGAND FREE ENERGY PREDICTED BY IDOCK:   -5.58 KCAL/MOL
REMARK 924 INTRA-LIGAND FREE ENERGY PREDICTED BY IDOCK:   -1.99 KCAL/MOL
REMARK 927      BINDING AFFINITY PREDICTED BY RF-SCORE:    0.00 PKD
ROOT
HETATM    1  C   UNL     1      -9.693   3.470  71.193  1.00  0.00    -0.237 C  
HETATM    2  C   UNL     1      -8.654   2.961  70.207  1.00  0.00    -0.109 C  
ENDROOT
BRANCH   2   3
HETATM    3  C   UNL     1      -9.305   2.338  68.972  1.00  0.00    -0.198 C  
BRANCH   3   4
HETATM    4  C   UNL     1      -8.258   1.986  67.916  1.00  0.00    -0.074 C  
BRANCH   4   5
HETATM    5  C   UNL     1      -8.465   2.749  66.652  1.00  0.00    -0.102 A  
HETATM    6  C   UNL     1      -8.086   4.011  66.219  1.00  0.00    -0.098 A  
HETATM    7  C   UNL     1      -9.816   3.652  62.421  1.00  0.00    -0.115 A  
HETATM    8  C   UNL     1      -8.487   4.089  64.851  1.00  0.00    -0.113 A  
HETATM    9  C   UNL     1      -9.248   2.947  64.619  1.00  0.00    -0.144 A  
HETATM   10  C   UNL     1      -9.008   4.778  62.585  1.00  0.00    -0.108 A  
HETATM   11  C   UNL     1      -8.329   5.004  63.788  1.00  0.00    -0.132 A  
HETATM   12  C   UNL     1      -9.933   2.694  63.434  1.00  0.00    -0.129 A  
HETATM   13  O   UNL     1      -9.213   2.125  65.700  1.00  0.00    -0.108 OA 
BRANCH   6  14
HETATM   14  C   UNL     1      -7.402   4.982  67.055  1.00  0.00    -0.082 C  
HETATM   15  O   UNL     1      -6.237   4.816  67.407  1.00  0.00    -0.036 OA 
BRANCH  14  16
HETATM   16  C   UNL     1      -8.132   6.182  67.556  1.00  0.00    -0.109 A  
HETATM   17  I   UNL     1      -7.446  10.261  66.445  1.00  0.00    -0.129 I  
HETATM   18  C   UNL     1      -9.390   8.605  68.400  1.00  0.00    -0.138 A  
HETATM   19  C   UNL     1      -7.834   7.397  66.945  1.00  0.00    -0.115 A  
HETATM   20  C   UNL     1      -9.677   7.362  69.012  1.00  0.00    -0.160 A  
HETATM   21  I   UNL     1     -11.153   7.159  70.512  1.00  0.00    -0.328 I  
HETATM   22  C   UNL     1      -8.402   8.604  67.390  1.00  0.00    -0.116 A  
HETATM   23  C   UNL     1      -9.020   6.179  68.633  1.00  0.00    -0.126 A  
BRANCH  18  24
HETATM   24  O   UNL     1     -10.119   9.677  68.887  1.00  0.00    -0.174 OA 
BRANCH  24  25
HETATM   25  C   UNL     1     -11.051  10.232  67.967  1.00  0.00    -0.274 C  
BRANCH  25  26
HETATM   26  C   UNL     1     -11.830  11.466  68.442  1.00  0.00    -0.274 C  
BRANCH  26  27
HETATM   27  N   UNL     1     -12.004  12.442  67.330  1.00  0.00    -0.537 NA 
BRANCH  27  28
HETATM   28  C   UNL     1     -11.884  13.853  67.737  1.00  0.00    -0.380 C  
HETATM   29  C   UNL     1     -10.902  14.133  68.870  1.00  0.00    -0.276 C  
ENDBRANCH  27  28
BRANCH  27  30
HETATM   30  C   UNL     1     -11.171  12.081  66.176  1.00  0.00    -0.343 C  
HETATM   31  C   UNL     1     -10.966  13.219  65.175  1.00  0.00    -0.314 C  
ENDBRANCH  27  30
ENDBRANCH  26  27
ENDBRANCH  25  26
ENDBRANCH  24  25
ENDBRANCH  18  24
ENDBRANCH  14  16
ENDBRANCH   6  14
ENDBRANCH   4   5
ENDBRANCH   3   4
ENDBRANCH   2   3
TORSDOF 11
ENDMDL
MODEL      216
REMARK 921   NORMALIZED FREE ENERGY PREDICTED BY IDOCK:   -3.30 KCAL/MOL
REMARK 922        TOTAL FREE ENERGY PREDICTED BY IDOCK:   -7.57 KCAL/MOL
REMARK 923 INTER-LIGAND FREE ENERGY PREDICTED BY IDOCK:   -6.24 KCAL/MOL
REMARK 924 INTRA-LIGAND FREE ENERGY PREDICTED BY IDOCK:   -1.33 KCAL/MOL
REMARK 927      BINDING AFFINITY PREDICTED BY RF-SCORE:    0.00 PKD
ROOT
HETATM    1  C   UNL     1      -8.254   7.371  71.970  1.00  0.00    -0.111 C  
HETATM    2  C   UNL     1      -7.595   7.602  70.620  1.00  0.00    -0.080 C  
ENDROOT
BRANCH   2   3
HETATM    3  C   UNL     1      -7.313   6.284  69.897  1.00  0.00    -0.079 C  
BRANCH   3   4
HETATM    4  C   UNL     1      -6.745   6.533  68.500  1.00  0.00    -0.068 C  
BRANCH   4   5
HETATM    5  C   UNL     1      -7.447   5.724  67.463  1.00  0.00    -0.078 A  
HETATM    6  C   UNL     1      -8.776   5.585  67.091  1.00  0.00    -0.107 A  
HETATM    7  C   UNL     1      -8.026   2.868  63.992  1.00  0.00    -0.082 A  
HETATM    8  C   UNL     1      -8.770   4.751  65.932  1.00  0.00    -0.124 A  
HETATM    9  C   UNL     1      -7.461   4.294  65.808  1.00  0.00    -0.081 A  
HETATM   10  C   UNL     1      -9.335   3.350  64.036  1.00  0.00    -0.129 A  
HETATM   11  C   UNL     1      -9.719   4.299  64.990  1.00  0.00    -0.194 A  
HETATM   12  C   UNL     1      -7.049   3.353  64.868  1.00  0.00    -0.061 A  
HETATM   13  O   UNL     1      -6.656   4.903  66.718  1.00  0.00    -0.047 OA 
BRANCH   6  14
HETATM   14  C   UNL     1      -9.882   6.217  67.787  1.00  0.00    -0.121 C  
HETATM   15  O   UNL     1     -10.675   5.562  68.459  1.00  0.00    -0.186 OA 
BRANCH  14  16
HETATM   16  C   UNL     1     -10.114   7.684  67.646  1.00  0.00    -0.249 A  
HETATM   17  I   UNL     1      -9.101  10.137  64.285  1.00  0.00    -0.341 I  
HETATM   18  C   UNL     1     -10.451  10.484  67.183  1.00  0.00    -0.249 A  
HETATM   19  C   UNL     1      -9.834   8.246  66.403  1.00  0.00    -0.283 A  
HETATM   20  C   UNL     1     -10.728   9.896  68.440  1.00  0.00    -0.232 A  
HETATM   21  I   UNL     1     -11.538  11.004  70.048  1.00  0.00    -0.397 I  
HETATM   22  C   UNL     1      -9.939   9.630  66.180  1.00  0.00    -0.276 A  
HETATM   23  C   UNL     1     -10.513   8.529  68.683  1.00  0.00    -0.200 A  
BRANCH  18  24
HETATM   24  O   UNL     1     -10.714  11.840  67.104  1.00  0.00    -0.221 OA 
BRANCH  24  25
HETATM   25  C   UNL     1     -12.076  12.172  66.864  1.00  0.00     0.121 C  
BRANCH  25  26
HETATM   26  C   UNL     1     -12.338  13.423  66.014  1.00  0.00    -0.413 C  
BRANCH  26  27
HETATM   27  N   UNL     1     -11.288  13.580  64.968  1.00  0.00    -0.312 NA 
BRANCH  27  28
HETATM   28  C   UNL     1     -11.704  13.146  63.622  1.00  0.00    -0.449 C  
HETATM   29  C   UNL     1     -12.875  12.170  63.574  1.00  0.00    -0.453 C  
ENDBRANCH  27  28
BRANCH  27  30
HETATM   30  C   UNL     1     -10.704  14.927  65.006  1.00  0.00    -0.431 C  
HETATM   31  C   UNL     1     -10.639  15.538  66.406  1.00  0.00    -0.312 C  
ENDBRANCH  27  30
ENDBRANCH  26  27
ENDBRANCH  25  26
ENDBRANCH  24  25
ENDBRANCH  18  24
ENDBRANCH  14  16
ENDBRANCH   6  14
ENDBRANCH   4   5
ENDBRANCH   3   4
ENDBRANCH   2   3
TORSDOF 11
ENDMDL
MODEL      217
REMARK 921   NORMALIZED FREE ENERGY PREDICTED BY IDOCK:   -3.28 KCAL/MOL
REMARK 922        TOTAL FREE ENERGY PREDICTED BY IDOCK:   -7.54 KCAL/MOL
REMARK 923 INTER-LIGAND FREE ENERGY PREDICTED BY IDOCK:   -5.50 KCAL/MOL
REMARK 924 INTRA-LIGAND FREE ENERGY PREDICTED BY IDOCK:   -2.03 KCAL/MOL
REMARK 927      BINDING AFFINITY PREDICTED BY RF-SCORE:    0.00 PKD
ROOT
HETATM    1  C   UNL     1      -9.503   4.525  66.274  1.00  0.00    -0.174 C  
HETATM    2  C   UNL     1      -8.354   3.639  66.727  1.00  0.00    -0.104 C  
ENDROOT
BRANCH   2   3
HETATM    3  C   UNL     1      -7.749   4.127  68.044  1.00  0.00    -0.071 C  
BRANCH   3   4
HETATM    4  C   UNL     1      -8.281   5.512  68.413  1.00  0.00    -0.099 C  
BRANCH   4   5
HETATM    5  C   UNL     1      -8.687   5.587  69.846  1.00  0.00    -0.123 A  
HETATM    6  C   UNL     1      -8.422   6.479  70.874  1.00  0.00    -0.134 A  
HETATM    7  C   UNL     1     -10.749   4.481  73.728  1.00  0.00    -0.348 A  
HETATM    8  C   UNL     1      -9.224   6.052  71.975  1.00  0.00    -0.151 A  
HETATM    9  C   UNL     1      -9.763   4.826  71.593  1.00  0.00    -0.169 A  
HETATM   10  C   UNL     1     -10.286   5.734  74.132  1.00  0.00    -0.295 A  
HETATM   11  C   UNL     1      -9.535   6.535  73.265  1.00  0.00    -0.157 A  
HETATM   12  C   UNL     1     -10.515   4.010  72.431  1.00  0.00    -0.156 A  
HETATM   13  O   UNL     1      -9.459   4.559  70.295  1.00  0.00    -0.136 OA 
BRANCH   6  14
HETATM   14  C   UNL     1      -7.513   7.605  70.755  1.00  0.00    -0.071 C  
HETATM   15  O   UNL     1      -6.406   7.594  71.288  1.00  0.00    -0.035 OA 
BRANCH  14  16
HETATM   16  C   UNL     1      -7.938   8.834  70.025  1.00  0.00    -0.108 A  
HETATM   17  I   UNL     1     -11.785  10.712  70.170  1.00  0.00    -0.459 I  
HETATM   18  C   UNL     1      -8.955  11.158  68.708  1.00  0.00    -0.131 A  
HETATM   19  C   UNL     1      -9.194   9.345  70.338  1.00  0.00    -0.305 A  
HETATM   20  C   UNL     1      -7.681  10.623  68.401  1.00  0.00    -0.106 A  
HETATM   21  I   UNL     1      -6.362  11.562  67.042  1.00  0.00    -0.096 I  
HETATM   22  C   UNL     1      -9.730  10.452  69.656  1.00  0.00    -0.124 A  
HETATM   23  C   UNL     1      -7.203   9.450  69.011  1.00  0.00    -0.071 A  
BRANCH  18  24
HETATM   24  O   UNL     1      -9.281  12.315  68.022  1.00  0.00    -0.182 OA 
BRANCH  24  25
HETATM   25  C   UNL     1      -9.835  12.106  66.729  1.00  0.00    -0.206 C  
BRANCH  25  26
HETATM   26  C   UNL     1     -10.683  10.841  66.543  1.00  0.00    -0.181 C  
BRANCH  26  27
HETATM   27  N   UNL     1     -10.142   9.998  65.440  1.00  0.00    -0.296 NA 
BRANCH  27  28
HETATM   28  C   UNL     1      -9.227  10.708  64.527  1.00  0.00    -0.231 C  
HETATM   29  C   UNL     1      -8.404   9.824  63.597  1.00  0.00    -0.169 C  
ENDBRANCH  27  28
BRANCH  27  30
HETATM   30  C   UNL     1      -9.605   8.733  65.957  1.00  0.00    -0.226 C  
HETATM   31  C   UNL     1     -10.526   8.028  66.954  1.00  0.00    -0.387 C  
ENDBRANCH  27  30
ENDBRANCH  26  27
ENDBRANCH  25  26
ENDBRANCH  24  25
ENDBRANCH  18  24
ENDBRANCH  14  16
ENDBRANCH   6  14
ENDBRANCH   4   5
ENDBRANCH   3   4
ENDBRANCH   2   3
TORSDOF 11
ENDMDL
MODEL      218
REMARK 921   NORMALIZED FREE ENERGY PREDICTED BY IDOCK:   -3.20 KCAL/MOL
REMARK 922        TOTAL FREE ENERGY PREDICTED BY IDOCK:   -7.40 KCAL/MOL
REMARK 923 INTER-LIGAND FREE ENERGY PREDICTED BY IDOCK:   -5.54 KCAL/MOL
REMARK 924 INTRA-LIGAND FREE ENERGY PREDICTED BY IDOCK:   -1.85 KCAL/MOL
REMARK 927      BINDING AFFINITY PREDICTED BY RF-SCORE:    0.00 PKD
ROOT
HETATM    1  C   UNL     1     -10.983   9.937  69.316  1.00  0.00    -0.244 C  
HETATM    2  C   UNL     1      -9.500   9.700  69.081  1.00  0.00    -0.172 C  
ENDROOT
BRANCH   2   3
HETATM    3  C   UNL     1      -8.725  11.015  68.993  1.00  0.00    -0.072 C  
BRANCH   3   4
HETATM    4  C   UNL     1      -8.057  11.170  67.628  1.00  0.00    -0.117 C  
BRANCH   4   5
HETATM    5  C   UNL     1      -9.054  11.410  66.545  1.00  0.00    -0.186 A  
HETATM    6  C   UNL     1      -9.186  10.952  65.243  1.00  0.00    -0.236 A  
HETATM    7  C   UNL     1     -12.746  13.018  64.467  1.00  0.00    -0.318 A  
HETATM    8  C   UNL     1     -10.438  11.457  64.779  1.00  0.00    -0.366 A  
HETATM    9  C   UNL     1     -10.874  12.338  65.764  1.00  0.00    -0.278 A  
HETATM   10  C   UNL     1     -12.384  12.098  63.482  1.00  0.00    -0.682 A  
HETATM   11  C   UNL     1     -11.242  11.302  63.628  1.00  0.00    -0.221 A  
HETATM   12  C   UNL     1     -12.006  13.139  65.648  1.00  0.00    -0.462 A  
HETATM   13  O   UNL     1     -10.050  12.289  66.843  1.00  0.00    -0.208 OA 
BRANCH   6  14
HETATM   14  C   UNL     1      -8.206  10.113  64.576  1.00  0.00    -0.162 C  
HETATM   15  O   UNL     1      -7.484  10.555  63.686  1.00  0.00    -0.070 OA 
BRANCH  14  16
HETATM   16  C   UNL     1      -8.101   8.666  64.923  1.00  0.00    -0.146 A  
HETATM   17  I   UNL     1     -10.744   6.426  67.441  1.00  0.00    -0.454 I  
HETATM   18  C   UNL     1      -8.072   5.923  65.723  1.00  0.00    -0.121 A  
HETATM   19  C   UNL     1      -9.157   8.116  65.644  1.00  0.00    -0.092 A  
HETATM   20  C   UNL     1      -7.006   6.498  64.993  1.00  0.00    -0.051 A  
HETATM   21  I   UNL     1      -5.360   5.359  64.313  1.00  0.00    -0.013 I  
HETATM   22  C   UNL     1      -9.129   6.784  66.094  1.00  0.00    -0.109 A  
HETATM   23  C   UNL     1      -6.996   7.860  64.644  1.00  0.00    -0.067 A  
BRANCH  18  24
HETATM   24  O   UNL     1      -7.933   4.571  65.990  1.00  0.00    -0.098 OA 
BRANCH  24  25
HETATM   25  C   UNL     1      -7.560   4.262  67.327  1.00  0.00    -0.077 C  
BRANCH  25  26
HETATM   26  C   UNL     1      -7.413   2.773  67.670  1.00  0.00    -0.057 C  
BRANCH  26  27
HETATM   27  N   UNL     1      -7.814   2.513  69.081  1.00  0.00    -0.045 NA 
BRANCH  27  28
HETATM   28  C   UNL     1      -6.830   2.961  70.083  1.00  0.00    -0.034 C  
HETATM   29  C   UNL     1      -5.663   2.012  70.335  1.00  0.00    -0.017 C  
ENDBRANCH  27  28
BRANCH  27  30
HETATM   30  C   UNL     1      -9.182   2.982  69.336  1.00  0.00    -0.144 C  
HETATM   31  C   UNL     1      -9.314   3.874  70.570  1.00  0.00    -0.224 C  
ENDBRANCH  27  30
ENDBRANCH  26  27
ENDBRANCH  25  26
ENDBRANCH  24  25
ENDBRANCH  18  24
ENDBRANCH  14  16
ENDBRANCH   6  14
ENDBRANCH   4   5
ENDBRANCH   3   4
ENDBRANCH   2   3
TORSDOF 11
ENDMDL
MODEL      219
REMARK 921   NORMALIZED FREE ENERGY PREDICTED BY IDOCK:   -3.18 KCAL/MOL
REMARK 922        TOTAL FREE ENERGY PREDICTED BY IDOCK:   -7.36 KCAL/MOL
REMARK 923 INTER-LIGAND FREE ENERGY PREDICTED BY IDOCK:   -5.30 KCAL/MOL
REMARK 924 INTRA-LIGAND FREE ENERGY PREDICTED BY IDOCK:   -2.06 KCAL/MOL
REMARK 927      BINDING AFFINITY PREDICTED BY RF-SCORE:    0.00 PKD
ROOT
HETATM    1  C   UNL     1      -6.097  12.856  69.474  1.00  0.00    -0.117 C  
HETATM    2  C   UNL     1      -7.229  12.684  68.474  1.00  0.00    -0.113 C  
ENDROOT
BRANCH   2   3
HETATM    3  C   UNL     1      -6.911  11.601  67.443  1.00  0.00    -0.117 C  
BRANCH   3   4
HETATM    4  C   UNL     1      -8.183  10.889  66.982  1.00  0.00    -0.134 C  
BRANCH   4   5
HETATM    5  C   UNL     1      -9.031  10.467  68.134  1.00  0.00    -0.132 A  
HETATM    6  C   UNL     1      -8.813   9.664  69.243  1.00  0.00    -0.164 A  
HETATM    7  C   UNL     1     -12.647  10.179  70.851  1.00  0.00    -0.454 A  
HETATM    8  C   UNL     1      -9.995   9.770  70.037  1.00  0.00    -0.299 A  
HETATM    9  C   UNL     1     -10.909  10.471  69.256  1.00  0.00    -0.243 A  
HETATM   10  C   UNL     1     -11.747   9.530  71.697  1.00  0.00    -0.460 A  
HETATM   11  C   UNL     1     -10.417   9.329  71.311  1.00  0.00    -0.408 A  
HETATM   12  C   UNL     1     -12.236  10.688  69.614  1.00  0.00    -0.277 A  
HETATM   13  O   UNL     1     -10.317  10.914  68.116  1.00  0.00    -0.167 OA 
BRANCH   6  14
HETATM   14  C   UNL     1      -7.588   8.921  69.477  1.00  0.00    -0.080 C  
HETATM   15  O   UNL     1      -6.645   9.416  70.090  1.00  0.00    -0.048 OA 
BRANCH  14  16
HETATM   16  C   UNL     1      -7.428   7.548  68.916  1.00  0.00    -0.096 A  
HETATM   17  I   UNL     1      -8.173   3.842  70.930  1.00  0.00    -0.099 I  
HETATM   18  C   UNL     1      -7.172   4.840  68.040  1.00  0.00    -0.066 A  
HETATM   19  C   UNL     1      -7.868   6.492  69.709  1.00  0.00    -0.115 A  
HETATM   20  C   UNL     1      -6.727   5.925  67.249  1.00  0.00    -0.061 A  
HETATM   21  I   UNL     1      -5.956   5.657  65.300  1.00  0.00    -0.023 I  
HETATM   22  C   UNL     1      -7.694   5.153  69.316  1.00  0.00    -0.076 A  
HETATM   23  C   UNL     1      -6.805   7.254  67.702  1.00  0.00    -0.074 A  
BRANCH  18  24
HETATM   24  O   UNL     1      -7.025   3.594  67.455  1.00  0.00    -0.053 OA 
BRANCH  24  25
HETATM   25  C   UNL     1      -8.189   3.099  66.805  1.00  0.00    -0.089 C  
BRANCH  25  26
HETATM   26  C   UNL     1      -9.522   3.749  67.199  1.00  0.00    -0.202 C  
BRANCH  26  27
HETATM   27  N   UNL     1     -10.095   4.516  66.057  1.00  0.00    -0.246 NA 
BRANCH  27  28
HETATM   28  C   UNL     1     -10.126   5.976  66.262  1.00  0.00    -0.011 C  
HETATM   29  C   UNL     1     -10.863   6.454  67.508  1.00  0.00    -0.438 C  
ENDBRANCH  27  28
BRANCH  27  30
HETATM   30  C   UNL     1      -9.486   4.104  64.786  1.00  0.00    -0.170 C  
HETATM   31  C   UNL     1     -10.497   3.708  63.711  1.00  0.00    -0.272 C  
ENDBRANCH  27  30
ENDBRANCH  26  27
ENDBRANCH  25  26
ENDBRANCH  24  25
ENDBRANCH  18  24
ENDBRANCH  14  16
ENDBRANCH   6  14
ENDBRANCH   4   5
ENDBRANCH   3   4
ENDBRANCH   2   3
TORSDOF 11
ENDMDL
MODEL      220
REMARK 921   NORMALIZED FREE ENERGY PREDICTED BY IDOCK:   -3.17 KCAL/MOL
REMARK 922        TOTAL FREE ENERGY PREDICTED BY IDOCK:   -7.35 KCAL/MOL
REMARK 923 INTER-LIGAND FREE ENERGY PREDICTED BY IDOCK:   -5.86 KCAL/MOL
REMARK 924 INTRA-LIGAND FREE ENERGY PREDICTED BY IDOCK:   -1.49 KCAL/MOL
REMARK 927      BINDING AFFINITY PREDICTED BY RF-SCORE:    0.00 PKD
ROOT
HETATM    1  C   UNL     1     -10.640   3.634  63.964  1.00  0.00    -0.272 C  
HETATM    2  C   UNL     1      -9.484   2.959  64.685  1.00  0.00    -0.149 C  
ENDROOT
BRANCH   2   3
HETATM    3  C   UNL     1      -8.958   3.819  65.835  1.00  0.00    -0.135 C  
BRANCH   3   4
HETATM    4  C   UNL     1     -10.014   4.819  66.302  1.00  0.00    -0.264 C  
BRANCH   4   5
HETATM    5  C   UNL     1      -9.732   5.324  67.677  1.00  0.00    -0.142 A  
HETATM    6  C   UNL     1      -8.880   6.291  68.188  1.00  0.00    -0.113 A  
HETATM    7  C   UNL     1     -10.060   5.776  72.175  1.00  0.00    -0.219 A  
HETATM    8  C   UNL     1      -9.185   6.381  69.580  1.00  0.00    -0.144 A  
HETATM    9  C   UNL     1     -10.059   5.329  69.840  1.00  0.00    -0.263 A  
HETATM   10  C   UNL     1      -9.238   6.881  71.952  1.00  0.00    -0.144 A  
HETATM   11  C   UNL     1      -8.803   7.204  70.662  1.00  0.00    -0.149 A  
HETATM   12  C   UNL     1     -10.511   4.986  71.111  1.00  0.00    -0.205 A  
HETATM   13  O   UNL     1     -10.410   4.707  68.684  1.00  0.00    -0.011 OA 
BRANCH   6  14
HETATM   14  C   UNL     1      -7.918   7.028  67.388  1.00  0.00    -0.112 C  
HETATM   15  O   UNL     1      -6.914   6.485  66.932  1.00  0.00    -0.064 OA 
BRANCH  14  16
HETATM   16  C   UNL     1      -8.103   8.490  67.155  1.00  0.00    -0.104 A  
HETATM   17  I   UNL     1      -6.619  11.690  69.585  1.00  0.00     0.105 I  
HETATM   18  C   UNL     1      -8.355  11.325  66.902  1.00  0.00    -0.155 A  
HETATM   19  C   UNL     1      -7.407   9.351  67.999  1.00  0.00    -0.079 A  
HETATM   20  C   UNL     1      -9.057  10.435  66.056  1.00  0.00    -0.162 A  
HETATM   21  I   UNL     1     -10.250  11.112  64.448  1.00  0.00    -0.433 I  
HETATM   22  C   UNL     1      -7.568  10.746  67.923  1.00  0.00    -0.091 A  
HETATM   23  C   UNL     1      -8.974   9.040  66.214  1.00  0.00    -0.199 A  
BRANCH  18  24
HETATM   24  O   UNL     1      -8.543  12.667  66.620  1.00  0.00    -0.148 OA 
BRANCH  24  25
HETATM   25  C   UNL     1      -9.333  13.373  67.569  1.00  0.00    -0.218 C  
BRANCH  25  26
HETATM   26  C   UNL     1     -10.843  13.103  67.539  1.00  0.00    -0.255 C  
BRANCH  26  27
HETATM   27  N   UNL     1     -11.601  14.362  67.296  1.00  0.00    -0.362 NA 
BRANCH  27  28
HETATM   28  C   UNL     1     -10.792  15.589  67.409  1.00  0.00    -0.312 C  
HETATM   29  C   UNL     1     -11.201  16.551  68.520  1.00  0.00    -0.296 C  
ENDBRANCH  27  28
BRANCH  27  30
HETATM   30  C   UNL     1     -12.383  14.276  66.056  1.00  0.00    -0.395 C  
HETATM   31  C   UNL     1     -11.677  14.860  64.832  1.00  0.00    -0.371 C  
ENDBRANCH  27  30
ENDBRANCH  26  27
ENDBRANCH  25  26
ENDBRANCH  24  25
ENDBRANCH  18  24
ENDBRANCH  14  16
ENDBRANCH   6  14
ENDBRANCH   4   5
ENDBRANCH   3   4
ENDBRANCH   2   3
TORSDOF 11
ENDMDL
MODEL      221
REMARK 921   NORMALIZED FREE ENERGY PREDICTED BY IDOCK:   -3.16 KCAL/MOL
REMARK 922        TOTAL FREE ENERGY PREDICTED BY IDOCK:   -7.34 KCAL/MOL
REMARK 923 INTER-LIGAND FREE ENERGY PREDICTED BY IDOCK:   -5.80 KCAL/MOL
REMARK 924 INTRA-LIGAND FREE ENERGY PREDICTED BY IDOCK:   -1.54 KCAL/MOL
REMARK 927      BINDING AFFINITY PREDICTED BY RF-SCORE:    0.00 PKD
ROOT
HETATM    1  C   UNL     1     -12.967  10.596  71.106  1.00  0.00    -0.483 C  
HETATM    2  C   UNL     1     -11.904  10.219  70.086  1.00  0.00    -0.343 C  
ENDROOT
BRANCH   2   3
HETATM    3  C   UNL     1     -11.114  11.441  69.617  1.00  0.00    -0.241 C  
BRANCH   3   4
HETATM    4  C   UNL     1     -11.977  12.351  68.742  1.00  0.00    -0.276 C  
BRANCH   4   5
HETATM    5  C   UNL     1     -11.182  13.461  68.142  1.00  0.00    -0.273 A  
HETATM    6  C   UNL     1     -10.384  13.569  67.014  1.00  0.00    -0.252 A  
HETATM    7  C   UNL     1      -9.444  17.610  67.593  1.00  0.00    -0.258 A  
HETATM    8  C   UNL     1     -10.013  14.945  66.931  1.00  0.00    -0.245 A  
HETATM    9  C   UNL     1     -10.454  15.524  68.118  1.00  0.00    -0.259 A  
HETATM   10  C   UNL     1      -9.041  17.093  66.362  1.00  0.00    -0.285 A  
HETATM   11  C   UNL     1      -9.328  15.769  66.011  1.00  0.00    -0.384 A  
HETATM   12  C   UNL     1     -10.186  16.837  68.492  1.00  0.00    -0.298 A  
HETATM   13  O   UNL     1     -11.183  14.631  68.838  1.00  0.00    -0.242 OA 
BRANCH   6  14
HETATM   14  C   UNL     1     -10.063  12.456  66.139  1.00  0.00    -0.248 C  
HETATM   15  O   UNL     1     -10.778  12.163  65.185  1.00  0.00    -0.273 OA 
BRANCH  14  16
HETATM   16  C   UNL     1      -8.876  11.598  66.425  1.00  0.00    -0.182 A  
HETATM   17  I   UNL     1      -5.909  12.240  69.447  1.00  0.00    -0.123 I  
HETATM   18  C   UNL     1      -6.540  10.107  67.124  1.00  0.00    -0.069 A  
HETATM   19  C   UNL     1      -8.125  11.924  67.552  1.00  0.00    -0.156 A  
HETATM   20  C   UNL     1      -7.313   9.793  65.981  1.00  0.00    -0.102 A  
HETATM   21  I   UNL     1      -6.891   8.118  64.762  1.00  0.00    -0.070 I  
HETATM   22  C   UNL     1      -6.942  11.236  67.874  1.00  0.00    -0.073 A  
HETATM   23  C   UNL     1      -8.431  10.558  65.608  1.00  0.00    -0.179 A  
BRANCH  18  24
HETATM   24  O   UNL     1      -5.470   9.260  67.355  1.00  0.00    -0.037 OA 
BRANCH  24  25
HETATM   25  C   UNL     1      -5.597   8.440  68.511  1.00  0.00    -0.037 C  
BRANCH  25  26
HETATM   26  C   UNL     1      -6.270   7.075  68.312  1.00  0.00    -0.035 C  
BRANCH  26  27
HETATM   27  N   UNL     1      -6.459   6.383  69.617  1.00  0.00    -0.041 NA 
BRANCH  27  28
HETATM   28  C   UNL     1      -7.037   7.231  70.676  1.00  0.00    -0.065 C  
HETATM   29  C   UNL     1      -8.478   6.915  71.063  1.00  0.00    -0.131 C  
ENDBRANCH  27  28
BRANCH  27  30
HETATM   30  C   UNL     1      -7.149   5.099  69.438  1.00  0.00    -0.056 C  
HETATM   31  C   UNL     1      -7.964   5.005  68.148  1.00  0.00    -0.087 C  
ENDBRANCH  27  30
ENDBRANCH  26  27
ENDBRANCH  25  26
ENDBRANCH  24  25
ENDBRANCH  18  24
ENDBRANCH  14  16
ENDBRANCH   6  14
ENDBRANCH   4   5
ENDBRANCH   3   4
ENDBRANCH   2   3
TORSDOF 11
ENDMDL
MODEL      222
REMARK 921   NORMALIZED FREE ENERGY PREDICTED BY IDOCK:   -3.15 KCAL/MOL
REMARK 922        TOTAL FREE ENERGY PREDICTED BY IDOCK:   -7.32 KCAL/MOL
REMARK 923 INTER-LIGAND FREE ENERGY PREDICTED BY IDOCK:   -5.55 KCAL/MOL
REMARK 924 INTRA-LIGAND FREE ENERGY PREDICTED BY IDOCK:   -1.78 KCAL/MOL
REMARK 927      BINDING AFFINITY PREDICTED BY RF-SCORE:    0.00 PKD
ROOT
HETATM    1  C   UNL     1      -8.661   5.749  70.765  1.00  0.00    -0.129 C  
HETATM    2  C   UNL     1     -10.073   6.245  70.501  1.00  0.00    -0.230 C  
ENDROOT
BRANCH   2   3
HETATM    3  C   UNL     1     -10.547   5.877  69.095  1.00  0.00    -0.369 C  
BRANCH   3   4
HETATM    4  C   UNL     1      -9.804   4.650  68.567  1.00  0.00    -0.181 C  
BRANCH   4   5
HETATM    5  C   UNL     1      -9.494   4.770  67.114  1.00  0.00    -0.149 A  
HETATM    6  C   UNL     1      -8.500   5.415  66.394  1.00  0.00    -0.114 A  
HETATM    7  C   UNL     1      -9.850   4.139  62.640  1.00  0.00    -0.138 A  
HETATM    8  C   UNL     1      -8.691   5.028  65.034  1.00  0.00    -0.151 A  
HETATM    9  C   UNL     1      -9.899   4.336  65.008  1.00  0.00    -0.190 A  
HETATM   10  C   UNL     1      -8.605   4.768  62.624  1.00  0.00    -0.114 A  
HETATM   11  C   UNL     1      -8.007   5.207  63.811  1.00  0.00    -0.102 A  
HETATM   12  C   UNL     1     -10.516   3.887  63.845  1.00  0.00    -0.227 A  
HETATM   13  O   UNL     1     -10.371   4.158  66.270  1.00  0.00    -0.123 OA 
BRANCH   6  14
HETATM   14  C   UNL     1      -7.495   6.275  66.994  1.00  0.00    -0.084 C  
HETATM   15  O   UNL     1      -6.529   5.811  67.593  1.00  0.00    -0.043 OA 
BRANCH  14  16
HETATM   16  C   UNL     1      -7.654   7.758  66.945  1.00  0.00    -0.099 A  
HETATM   17  I   UNL     1      -5.858  10.627  69.569  1.00  0.00    -0.063 I  
HETATM   18  C   UNL     1      -7.840  10.608  67.036  1.00  0.00    -0.117 A  
HETATM   19  C   UNL     1      -6.859   8.503  67.811  1.00  0.00    -0.067 A  
HETATM   20  C   UNL     1      -8.643   9.835  66.164  1.00  0.00    -0.127 A  
HETATM   21  I   UNL     1      -9.954  10.717  64.761  1.00  0.00    -0.401 I  
HETATM   22  C   UNL     1      -6.982   9.900  67.908  1.00  0.00    -0.081 A  
HETATM   23  C   UNL     1      -8.589   8.431  66.156  1.00  0.00    -0.157 A  
BRANCH  18  24
HETATM   24  O   UNL     1      -8.010  11.977  66.924  1.00  0.00    -0.162 OA 
BRANCH  24  25
HETATM   25  C   UNL     1      -8.700  12.584  68.011  1.00  0.00    -0.186 C  
BRANCH  25  26
HETATM   26  C   UNL     1      -9.980  13.356  67.663  1.00  0.00    -0.229 C  
BRANCH  26  27
HETATM   27  N   UNL     1      -9.676  14.512  66.774  1.00  0.00    -0.250 NA 
BRANCH  27  28
HETATM   28  C   UNL     1     -10.450  14.531  65.519  1.00  0.00    -0.356 C  
HETATM   29  C   UNL     1     -10.796  15.914  64.976  1.00  0.00    -0.444 C  
ENDBRANCH  27  28
BRANCH  27  30
HETATM   30  C   UNL     1      -9.717  15.776  67.519  1.00  0.00    -0.226 C  
HETATM   31  C   UNL     1     -10.622  15.743  68.751  1.00  0.00    -0.239 C  
ENDBRANCH  27  30
ENDBRANCH  26  27
ENDBRANCH  25  26
ENDBRANCH  24  25
ENDBRANCH  18  24
ENDBRANCH  14  16
ENDBRANCH   6  14
ENDBRANCH   4   5
ENDBRANCH   3   4
ENDBRANCH   2   3
TORSDOF 11
ENDMDL
MODEL      223
REMARK 921   NORMALIZED FREE ENERGY PREDICTED BY IDOCK:   -3.05 KCAL/MOL
REMARK 922        TOTAL FREE ENERGY PREDICTED BY IDOCK:   -7.16 KCAL/MOL
REMARK 923 INTER-LIGAND FREE ENERGY PREDICTED BY IDOCK:   -5.95 KCAL/MOL
REMARK 924 INTRA-LIGAND FREE ENERGY PREDICTED BY IDOCK:   -1.22 KCAL/MOL
REMARK 927      BINDING AFFINITY PREDICTED BY RF-SCORE:    0.00 PKD
ROOT
HETATM    1  C   UNL     1      -8.116   5.646  72.731  1.00  0.00    -0.105 C  
HETATM    2  C   UNL     1      -8.176   5.589  71.213  1.00  0.00    -0.125 C  
ENDROOT
BRANCH   2   3
HETATM    3  C   UNL     1      -9.618   5.540  70.707  1.00  0.00    -0.220 C  
BRANCH   3   4
HETATM    4  C   UNL     1      -9.836   4.342  69.782  1.00  0.00    -0.284 C  
BRANCH   4   5
HETATM    5  C   UNL     1      -9.111   4.500  68.489  1.00  0.00    -0.121 A  
HETATM    6  C   UNL     1      -9.230   5.377  67.422  1.00  0.00    -0.112 A  
HETATM    7  C   UNL     1      -6.061   3.744  65.223  1.00  0.00    -0.024 A  
HETATM    8  C   UNL     1      -8.142   5.077  66.548  1.00  0.00    -0.108 A  
HETATM    9  C   UNL     1      -7.564   3.916  67.056  1.00  0.00    -0.080 A  
HETATM   10  C   UNL     1      -6.564   4.941  64.712  1.00  0.00    -0.043 A  
HETATM   11  C   UNL     1      -7.594   5.625  65.368  1.00  0.00    -0.083 A  
HETATM   12  C   UNL     1      -6.538   3.217  66.428  1.00  0.00    -0.040 A  
HETATM   13  O   UNL     1      -8.134   3.583  68.244  1.00  0.00    -0.073 OA 
BRANCH   6  14
HETATM   14  C   UNL     1     -10.273   6.382  67.313  1.00  0.00    -0.187 C  
HETATM   15  O   UNL     1     -11.386   6.105  66.875  1.00  0.00    -0.199 OA 
BRANCH  14  16
HETATM   16  C   UNL     1      -9.986   7.800  67.677  1.00  0.00    -0.230 A  
HETATM   17  I   UNL     1     -11.944  10.130  70.690  1.00  0.00    -0.430 I  
HETATM   18  C   UNL     1      -9.606  10.506  68.514  1.00  0.00    -0.163 A  
HETATM   19  C   UNL     1     -10.651   8.308  68.789  1.00  0.00    -0.152 A  
HETATM   20  C   UNL     1      -8.941   9.974  67.384  1.00  0.00    -0.131 A  
HETATM   21  I   UNL     1      -7.510  11.082  66.293  1.00  0.00     0.076 I  
HETATM   22  C   UNL     1     -10.519   9.654  69.176  1.00  0.00    -0.214 A  
HETATM   23  C   UNL     1      -9.167   8.659  66.942  1.00  0.00    -0.198 A  
BRANCH  18  24
HETATM   24  O   UNL     1      -9.278  11.815  68.820  1.00  0.00    -0.124 OA 
BRANCH  24  25
HETATM   25  C   UNL     1     -10.053  12.799  68.146  1.00  0.00    -0.239 C  
BRANCH  25  26
HETATM   26  C   UNL     1     -11.438  13.099  68.733  1.00  0.00    -0.307 C  
BRANCH  26  27
HETATM   27  N   UNL     1     -12.034  14.307  68.095  1.00  0.00    -0.333 NA 
BRANCH  27  28
HETATM   28  C   UNL     1     -11.863  15.549  68.870  1.00  0.00    -0.338 C  
HETATM   29  C   UNL     1     -12.279  15.477  70.335  1.00  0.00    -0.443 C  
ENDBRANCH  27  28
BRANCH  27  30
HETATM   30  C   UNL     1     -11.620  14.419  66.690  1.00  0.00    -0.384 C  
HETATM   31  C   UNL     1     -12.664  13.917  65.693  1.00  0.00    -0.534 C  
ENDBRANCH  27  30
ENDBRANCH  26  27
ENDBRANCH  25  26
ENDBRANCH  24  25
ENDBRANCH  18  24
ENDBRANCH  14  16
ENDBRANCH   6  14
ENDBRANCH   4   5
ENDBRANCH   3   4
ENDBRANCH   2   3
TORSDOF 11
ENDMDL
MODEL      224
REMARK 921   NORMALIZED FREE ENERGY PREDICTED BY IDOCK:   -3.04 KCAL/MOL
REMARK 922        TOTAL FREE ENERGY PREDICTED BY IDOCK:   -7.14 KCAL/MOL
REMARK 923 INTER-LIGAND FREE ENERGY PREDICTED BY IDOCK:   -5.42 KCAL/MOL
REMARK 924 INTRA-LIGAND FREE ENERGY PREDICTED BY IDOCK:   -1.72 KCAL/MOL
REMARK 927      BINDING AFFINITY PREDICTED BY RF-SCORE:    0.00 PKD
ROOT
HETATM    1  C   UNL     1     -10.094   6.338  70.524  1.00  0.00    -0.230 C  
HETATM    2  C   UNL     1     -11.276   6.418  69.571  1.00  0.00    -0.477 C  
ENDROOT
BRANCH   2   3
HETATM    3  C   UNL     1     -10.858   6.128  68.129  1.00  0.00    -0.389 C  
BRANCH   3   4
HETATM    4  C   UNL     1     -10.048   4.835  68.040  1.00  0.00    -0.112 C  
BRANCH   4   5
HETATM    5  C   UNL     1      -9.583   4.566  66.649  1.00  0.00    -0.190 A  
HETATM    6  C   UNL     1      -8.453   4.924  65.928  1.00  0.00    -0.119 A  
HETATM    7  C   UNL     1      -9.562   2.888  62.439  1.00  0.00    -0.092 A  
HETATM    8  C   UNL     1      -8.552   4.232  64.683  1.00  0.00    -0.125 A  
HETATM    9  C   UNL     1      -9.823   3.665  64.670  1.00  0.00    -0.181 A  
HETATM   10  C   UNL     1      -8.257   3.381  62.431  1.00  0.00    -0.072 A  
HETATM   11  C   UNL     1      -7.733   4.043  63.548  1.00  0.00    -0.070 A  
HETATM   12  C   UNL     1     -10.369   3.000  63.576  1.00  0.00    -0.202 A  
HETATM   13  O   UNL     1     -10.436   3.846  65.869  1.00  0.00     0.069 OA 
BRANCH   6  14
HETATM   14  C   UNL     1      -7.420   5.812  66.429  1.00  0.00    -0.086 C  
HETATM   15  O   UNL     1      -6.341   5.379  66.828  1.00  0.00    -0.037 OA 
BRANCH  14  16
HETATM   16  C   UNL     1      -7.678   7.278  66.529  1.00  0.00    -0.093 A  
HETATM   17  I   UNL     1      -6.617  10.277  63.660  1.00  0.00     0.109 I  
HETATM   18  C   UNL     1      -8.058  10.110  66.531  1.00  0.00    -0.121 A  
HETATM   19  C   UNL     1      -7.373   8.045  65.407  1.00  0.00    -0.069 A  
HETATM   20  C   UNL     1      -8.360   9.315  67.662  1.00  0.00    -0.116 A  
HETATM   21  I   UNL     1      -9.239  10.124  69.406  1.00  0.00    -0.138 I  
HETATM   22  C   UNL     1      -7.500   9.445  65.416  1.00  0.00    -0.099 A  
HETATM   23  C   UNL     1      -8.123   7.930  67.680  1.00  0.00    -0.124 A  
BRANCH  18  24
HETATM   24  O   UNL     1      -8.346  11.457  66.672  1.00  0.00    -0.164 OA 
BRANCH  24  25
HETATM   25  C   UNL     1      -9.415  11.927  65.859  1.00  0.00    -0.214 C  
BRANCH  25  26
HETATM   26  C   UNL     1     -10.597  12.577  66.591  1.00  0.00    -0.237 C  
BRANCH  26  27
HETATM   27  N   UNL     1     -11.393  13.426  65.661  1.00  0.00    -0.296 NA 
BRANCH  27  28
HETATM   28  C   UNL     1     -12.142  12.670  64.640  1.00  0.00    -0.420 C  
HETATM   29  C   UNL     1     -12.017  13.186  63.211  1.00  0.00    -0.445 C  
ENDBRANCH  27  28
BRANCH  27  30
HETATM   30  C   UNL     1     -12.208  14.398  66.401  1.00  0.00    -0.340 C  
HETATM   31  C   UNL     1     -11.483  15.048  67.579  1.00  0.00    -0.339 C  
ENDBRANCH  27  30
ENDBRANCH  26  27
ENDBRANCH  25  26
ENDBRANCH  24  25
ENDBRANCH  18  24
ENDBRANCH  14  16
ENDBRANCH   6  14
ENDBRANCH   4   5
ENDBRANCH   3   4
ENDBRANCH   2   3
TORSDOF 11
ENDMDL
MODEL      225
REMARK 921   NORMALIZED FREE ENERGY PREDICTED BY IDOCK:   -3.00 KCAL/MOL
REMARK 922        TOTAL FREE ENERGY PREDICTED BY IDOCK:   -7.08 KCAL/MOL
REMARK 923 INTER-LIGAND FREE ENERGY PREDICTED BY IDOCK:   -6.42 KCAL/MOL
REMARK 924 INTRA-LIGAND FREE ENERGY PREDICTED BY IDOCK:   -0.66 KCAL/MOL
REMARK 927      BINDING AFFINITY PREDICTED BY RF-SCORE:    0.00 PKD
ROOT
HETATM    1  C   UNL     1      -5.157  11.020  70.630  1.00  0.00    -0.093 C  
HETATM    2  C   UNL     1      -6.004   9.872  70.105  1.00  0.00    -0.058 C  
ENDROOT
BRANCH   2   3
HETATM    3  C   UNL     1      -5.892   8.634  70.996  1.00  0.00    -0.036 C  
BRANCH   3   4
HETATM    4  C   UNL     1      -7.044   8.573  71.999  1.00  0.00    -0.104 C  
BRANCH   4   5
HETATM    5  C   UNL     1      -7.860   7.337  71.832  1.00  0.00    -0.091 A  
HETATM    6  C   UNL     1      -8.546   6.776  70.766  1.00  0.00    -0.141 A  
HETATM    7  C   UNL     1      -9.864   3.409  72.882  1.00  0.00    -0.201 A  
HETATM    8  C   UNL     1      -9.016   5.510  71.229  1.00  0.00    -0.153 A  
HETATM    9  C   UNL     1      -8.747   5.487  72.594  1.00  0.00    -0.123 A  
HETATM   10  C   UNL     1     -10.097   3.357  71.507  1.00  0.00    -0.061 A  
HETATM   11  C   UNL     1      -9.669   4.391  70.667  1.00  0.00    -0.283 A  
HETATM   12  C   UNL     1      -9.157   4.473  73.454  1.00  0.00    -0.116 A  
HETATM   13  O   UNL     1      -8.025   6.581  72.954  1.00  0.00    -0.105 OA 
BRANCH   6  14
HETATM   14  C   UNL     1      -8.685   7.412  69.468  1.00  0.00    -0.137 C  
HETATM   15  O   UNL     1      -7.971   7.097  68.520  1.00  0.00    -0.119 OA 
BRANCH  14  16
HETATM   16  C   UNL     1      -9.669   8.517  69.279  1.00  0.00    -0.173 A  
HETATM   17  I   UNL     1     -12.932   9.525  71.864  1.00  0.00    -0.536 I  
HETATM   18  C   UNL     1     -11.660  10.559  69.097  1.00  0.00    -0.224 A  
HETATM   19  C   UNL     1     -10.560   8.748  70.325  1.00  0.00    -0.239 A  
HETATM   20  C   UNL     1     -10.750  10.308  68.044  1.00  0.00    -0.255 A  
HETATM   21  I   UNL     1     -10.689  11.499  66.299  1.00  0.00    -0.278 I  
HETATM   22  C   UNL     1     -11.581   9.710  70.224  1.00  0.00    -0.198 A  
HETATM   23  C   UNL     1      -9.805   9.270  68.112  1.00  0.00    -0.185 A  
BRANCH  18  24
HETATM   24  O   UNL     1     -12.529  11.614  68.878  1.00  0.00    -0.266 OA 
BRANCH  24  25
HETATM   25  C   UNL     1     -11.900  12.878  68.701  1.00  0.00    -0.312 C  
BRANCH  25  26
HETATM   26  C   UNL     1     -11.462  13.610  69.977  1.00  0.00    -0.090 C  
BRANCH  26  27
HETATM   27  N   UNL     1     -12.427  14.691  70.325  1.00  0.00    -0.348 NA 
BRANCH  27  28
HETATM   28  C   UNL     1     -13.598  14.234  71.095  1.00  0.00    -0.238 C  
HETATM   29  C   UNL     1     -13.411  14.170  72.607  1.00  0.00    -0.638 C  
ENDBRANCH  27  28
BRANCH  27  30
HETATM   30  C   UNL     1     -11.736  15.844  70.917  1.00  0.00    -0.420 C  
HETATM   31  C   UNL     1     -10.943  16.678  69.910  1.00  0.00    -0.194 C  
ENDBRANCH  27  30
ENDBRANCH  26  27
ENDBRANCH  25  26
ENDBRANCH  24  25
ENDBRANCH  18  24
ENDBRANCH  14  16
ENDBRANCH   6  14
ENDBRANCH   4   5
ENDBRANCH   3   4
ENDBRANCH   2   3
TORSDOF 11
ENDMDL
MODEL      226
REMARK 921   NORMALIZED FREE ENERGY PREDICTED BY IDOCK:   -2.99 KCAL/MOL
REMARK 922        TOTAL FREE ENERGY PREDICTED BY IDOCK:   -7.06 KCAL/MOL
REMARK 923 INTER-LIGAND FREE ENERGY PREDICTED BY IDOCK:   -7.21 KCAL/MOL
REMARK 924 INTRA-LIGAND FREE ENERGY PREDICTED BY IDOCK:    0.15 KCAL/MOL
REMARK 927      BINDING AFFINITY PREDICTED BY RF-SCORE:    0.00 PKD
ROOT
HETATM    1  C   UNL     1     -10.975   6.381  66.886  1.00  0.00    -0.413 C  
HETATM    2  C   UNL     1     -10.519   5.683  68.156  1.00  0.00    -0.260 C  
ENDROOT
BRANCH   2   3
HETATM    3  C   UNL     1     -11.134   6.321  69.403  1.00  0.00    -0.477 C  
BRANCH   3   4
HETATM    4  C   UNL     1     -10.065   7.009  70.252  1.00  0.00    -0.198 C  
BRANCH   4   5
HETATM    5  C   UNL     1      -9.040   7.690  69.411  1.00  0.00    -0.142 A  
HETATM    6  C   UNL     1      -8.928   8.966  68.880  1.00  0.00    -0.137 A  
HETATM    7  C   UNL     1      -5.212   8.302  67.063  1.00  0.00    -0.036 A  
HETATM    8  C   UNL     1      -7.636   9.023  68.275  1.00  0.00    -0.091 A  
HETATM    9  C   UNL     1      -7.145   7.721  68.318  1.00  0.00    -0.084 A  
HETATM   10  C   UNL     1      -5.631   9.632  67.054  1.00  0.00    -0.047 A  
HETATM   11  C   UNL     1      -6.832  10.011  67.666  1.00  0.00    -0.084 A  
HETATM   12  C   UNL     1      -5.954   7.316  67.722  1.00  0.00    -0.034 A  
HETATM   13  O   UNL     1      -7.984   6.921  69.028  1.00  0.00    -0.112 OA 
BRANCH   6  14
HETATM   14  C   UNL     1      -9.961   9.981  68.985  1.00  0.00    -0.196 C  
HETATM   15  O   UNL     1     -10.916   9.846  69.745  1.00  0.00    -0.241 OA 
BRANCH  14  16
HETATM   16  C   UNL     1      -9.910  11.193  68.116  1.00  0.00    -0.188 A  
HETATM   17  I   UNL     1      -7.400  14.625  68.631  1.00  0.00    -0.153 I  
HETATM   18  C   UNL     1      -9.670  13.600  66.596  1.00  0.00    -0.284 A  
HETATM   19  C   UNL     1      -8.911  12.122  68.395  1.00  0.00    -0.146 A  
HETATM   20  C   UNL     1     -10.680  12.646  66.328  1.00  0.00    -0.256 A  
HETATM   21  I   UNL     1     -12.018  12.846  64.704  1.00  0.00    -0.550 I  
HETATM   22  C   UNL     1      -8.819  13.337  67.693  1.00  0.00    -0.200 A  
HETATM   23  C   UNL     1     -10.831  11.487  67.109  1.00  0.00    -0.314 A  
BRANCH  18  24
HETATM   24  O   UNL     1      -9.654  14.687  65.738  1.00  0.00    -0.303 OA 
BRANCH  24  25
HETATM   25  C   UNL     1     -10.580  15.717  66.063  1.00  0.00    -0.326 C  
BRANCH  25  26
HETATM   26  C   UNL     1     -10.291  16.521  67.338  1.00  0.00    -0.290 C  
BRANCH  26  27
HETATM   27  N   UNL     1      -9.745  17.866  67.004  1.00  0.00    -0.287 NA 
BRANCH  27  28
HETATM   28  C   UNL     1      -8.287  17.892  66.786  1.00  0.00    -0.252 C  
HETATM   29  C   UNL     1      -7.477  18.659  67.826  1.00  0.00    -0.241 C  
ENDBRANCH  27  28
BRANCH  27  30
HETATM   30  C   UNL     1     -10.520  18.498  65.928  1.00  0.00    -0.347 C  
HETATM   31  C   UNL     1     -10.527  20.025  65.981  1.00  0.00    -0.523 C  
ENDBRANCH  27  30
ENDBRANCH  26  27
ENDBRANCH  25  26
ENDBRANCH  24  25
ENDBRANCH  18  24
ENDBRANCH  14  16
ENDBRANCH   6  14
ENDBRANCH   4   5
ENDBRANCH   3   4
ENDBRANCH   2   3
TORSDOF 11
ENDMDL
MODEL      227
REMARK 921   NORMALIZED FREE ENERGY PREDICTED BY IDOCK:   -2.97 KCAL/MOL
REMARK 922        TOTAL FREE ENERGY PREDICTED BY IDOCK:   -7.03 KCAL/MOL
REMARK 923 INTER-LIGAND FREE ENERGY PREDICTED BY IDOCK:   -4.98 KCAL/MOL
REMARK 924 INTRA-LIGAND FREE ENERGY PREDICTED BY IDOCK:   -2.05 KCAL/MOL
REMARK 927      BINDING AFFINITY PREDICTED BY RF-SCORE:    0.00 PKD
ROOT
HETATM    1  C   UNL     1     -11.093   6.144  71.436  1.00  0.00    -0.346 C  
HETATM    2  C   UNL     1     -11.632   6.655  70.110  1.00  0.00    -0.446 C  
ENDROOT
BRANCH   2   3
HETATM    3  C   UNL     1     -10.560   6.635  69.019  1.00  0.00    -0.273 C  
BRANCH   3   4
HETATM    4  C   UNL     1      -9.954   5.240  68.870  1.00  0.00    -0.250 C  
BRANCH   4   5
HETATM    5  C   UNL     1      -9.546   4.959  67.464  1.00  0.00    -0.151 A  
HETATM    6  C   UNL     1      -8.345   5.044  66.777  1.00  0.00    -0.107 A  
HETATM    7  C   UNL     1      -9.884   3.664  63.133  1.00  0.00    -0.147 A  
HETATM    8  C   UNL     1      -8.599   4.503  65.481  1.00  0.00    -0.123 A  
HETATM    9  C   UNL     1      -9.976   4.312  65.418  1.00  0.00    -0.223 A  
HETATM   10  C   UNL     1      -8.494   3.777  63.169  1.00  0.00    -0.091 A  
HETATM   11  C   UNL     1      -7.836   4.182  64.337  1.00  0.00    -0.085 A  
HETATM   12  C   UNL     1     -10.657   3.908  64.274  1.00  0.00    -0.239 A  
HETATM   13  O   UNL     1     -10.545   4.563  66.627  1.00  0.00    -0.112 OA 
BRANCH   6  14
HETATM   14  C   UNL     1      -7.120   5.572  67.351  1.00  0.00    -0.074 C  
HETATM   15  O   UNL     1      -6.277   4.833  67.853  1.00  0.00    -0.033 OA 
BRANCH  14  16
HETATM   16  C   UNL     1      -6.890   7.046  67.397  1.00  0.00    -0.073 A  
HETATM   17  I   UNL     1      -6.625   9.713  64.056  1.00  0.00    -0.127 I  
HETATM   18  C   UNL     1      -6.443   9.865  67.264  1.00  0.00    -0.069 A  
HETATM   19  C   UNL     1      -6.986   7.733  66.189  1.00  0.00    -0.062 A  
HETATM   20  C   UNL     1      -6.347   9.151  68.481  1.00  0.00    -0.053 A  
HETATM   21  I   UNL     1      -5.996  10.115  70.329  1.00  0.00    -0.117 I  
HETATM   22  C   UNL     1      -6.711   9.109  66.101  1.00  0.00    -0.074 A  
HETATM   23  C   UNL     1      -6.516   7.756  68.538  1.00  0.00    -0.052 A  
BRANCH  18  24
HETATM   24  O   UNL     1      -6.250  11.231  67.374  1.00  0.00    -0.059 OA 
BRANCH  24  25
HETATM   25  C   UNL     1      -7.383  12.023  67.038  1.00  0.00    -0.097 C  
BRANCH  25  26
HETATM   26  C   UNL     1      -8.548  12.010  68.037  1.00  0.00    -0.170 C  
BRANCH  26  27
HETATM   27  N   UNL     1      -9.838  11.737  67.342  1.00  0.00    -0.178 NA 
BRANCH  27  28
HETATM   28  C   UNL     1     -10.775  10.898  68.110  1.00  0.00    -0.214 C  
HETATM   29  C   UNL     1     -10.271  10.415  69.467  1.00  0.00    -0.258 C  
ENDBRANCH  27  28
BRANCH  27  30
HETATM   30  C   UNL     1     -10.433  12.978  66.828  1.00  0.00    -0.259 C  
HETATM   31  C   UNL     1     -11.959  13.013  66.901  1.00  0.00    -0.415 C  
ENDBRANCH  27  30
ENDBRANCH  26  27
ENDBRANCH  25  26
ENDBRANCH  24  25
ENDBRANCH  18  24
ENDBRANCH  14  16
ENDBRANCH   6  14
ENDBRANCH   4   5
ENDBRANCH   3   4
ENDBRANCH   2   3
TORSDOF 11
ENDMDL
MODEL      228
REMARK 921   NORMALIZED FREE ENERGY PREDICTED BY IDOCK:   -2.95 KCAL/MOL
REMARK 922        TOTAL FREE ENERGY PREDICTED BY IDOCK:   -7.00 KCAL/MOL
REMARK 923 INTER-LIGAND FREE ENERGY PREDICTED BY IDOCK:   -5.96 KCAL/MOL
REMARK 924 INTRA-LIGAND FREE ENERGY PREDICTED BY IDOCK:   -1.04 KCAL/MOL
REMARK 927      BINDING AFFINITY PREDICTED BY RF-SCORE:    0.00 PKD
ROOT
HETATM    1  C   UNL     1     -12.225  14.535  66.167  1.00  0.00    -0.268 C  
HETATM    2  C   UNL     1     -12.029  13.027  66.131  1.00  0.00    -0.488 C  
ENDROOT
BRANCH   2   3
HETATM    3  C   UNL     1     -11.331  12.519  67.392  1.00  0.00    -0.371 C  
BRANCH   3   4
HETATM    4  C   UNL     1     -11.277  10.991  67.414  1.00  0.00    -0.355 C  
BRANCH   4   5
HETATM    5  C   UNL     1     -10.300  10.456  66.422  1.00  0.00    -0.213 A  
HETATM    6  C   UNL     1      -9.147   9.692  66.526  1.00  0.00    -0.185 A  
HETATM    7  C   UNL     1      -8.406   9.550  62.406  1.00  0.00    -0.163 A  
HETATM    8  C   UNL     1      -8.747   9.409  65.186  1.00  0.00    -0.210 A  
HETATM    9  C   UNL     1      -9.575  10.182  64.376  1.00  0.00    -0.302 A  
HETATM   10  C   UNL     1      -7.596   8.708  63.169  1.00  0.00    -0.112 A  
HETATM   11  C   UNL     1      -7.762   8.617  64.556  1.00  0.00    -0.124 A  
HETATM   12  C   UNL     1      -9.436  10.290  62.996  1.00  0.00    -0.331 A  
HETATM   13  O   UNL     1     -10.530  10.795  65.124  1.00  0.00    -0.285 OA 
BRANCH   6  14
HETATM   14  C   UNL     1      -8.552   9.291  67.789  1.00  0.00    -0.117 C  
HETATM   15  O   UNL     1      -7.557   9.856  68.236  1.00  0.00    -0.080 OA 
BRANCH  14  16
HETATM   16  C   UNL     1      -9.111   8.132  68.543  1.00  0.00    -0.136 A  
HETATM   17  I   UNL     1     -11.538   8.285  72.069  1.00  0.00    -0.481 I  
HETATM   18  C   UNL     1     -10.257   6.055  70.137  1.00  0.00    -0.208 A  
HETATM   19  C   UNL     1      -9.994   8.425  69.579  1.00  0.00    -0.190 A  
HETATM   20  C   UNL     1      -9.355   5.776  69.083  1.00  0.00    -0.123 A  
HETATM   21  I   UNL     1      -8.875   3.801  68.504  1.00  0.00    -0.206 I  
HETATM   22  C   UNL     1     -10.519   7.417  70.407  1.00  0.00    -0.221 A  
HETATM   23  C   UNL     1      -8.751   6.800  68.333  1.00  0.00    -0.123 A  
BRANCH  18  24
HETATM   24  O   UNL     1     -10.765   4.940  70.780  1.00  0.00    -0.086 OA 
BRANCH  24  25
HETATM   25  C   UNL     1     -10.256   4.722  72.091  1.00  0.00    -0.195 C  
BRANCH  25  26
HETATM   26  C   UNL     1      -8.868   5.305  72.392  1.00  0.00    -0.128 C  
BRANCH  26  27
HETATM   27  N   UNL     1      -7.799   4.318  72.070  1.00  0.00    -0.083 NA 
BRANCH  27  28
HETATM   28  C   UNL     1      -6.440   4.888  72.029  1.00  0.00    -0.035 C  
HETATM   29  C   UNL     1      -6.301   6.215  71.290  1.00  0.00    -0.048 C  
ENDBRANCH  27  28
BRANCH  27  30
HETATM   30  C   UNL     1      -7.918   3.119  72.909  1.00  0.00    -0.071 C  
HETATM   31  C   UNL     1      -6.994   1.974  72.493  1.00  0.00    -0.023 C  
ENDBRANCH  27  30
ENDBRANCH  26  27
ENDBRANCH  25  26
ENDBRANCH  24  25
ENDBRANCH  18  24
ENDBRANCH  14  16
ENDBRANCH   6  14
ENDBRANCH   4   5
ENDBRANCH   3   4
ENDBRANCH   2   3
TORSDOF 11
ENDMDL
MODEL      229
REMARK 921   NORMALIZED FREE ENERGY PREDICTED BY IDOCK:   -2.94 KCAL/MOL
REMARK 922        TOTAL FREE ENERGY PREDICTED BY IDOCK:   -6.99 KCAL/MOL
REMARK 923 INTER-LIGAND FREE ENERGY PREDICTED BY IDOCK:   -5.76 KCAL/MOL
REMARK 924 INTRA-LIGAND FREE ENERGY PREDICTED BY IDOCK:   -1.22 KCAL/MOL
REMARK 927      BINDING AFFINITY PREDICTED BY RF-SCORE:    0.00 PKD
ROOT
HETATM    1  C   UNL     1      -7.994   1.834  68.189  1.00  0.00    -0.062 C  
HETATM    2  C   UNL     1      -7.741   2.724  66.982  1.00  0.00    -0.071 C  
ENDROOT
BRANCH   2   3
HETATM    3  C   UNL     1      -8.712   3.904  66.938  1.00  0.00    -0.114 C  
BRANCH   3   4
HETATM    4  C   UNL     1      -7.960   5.233  66.872  1.00  0.00    -0.101 C  
BRANCH   4   5
HETATM    5  C   UNL     1      -8.173   6.053  68.099  1.00  0.00    -0.113 A  
HETATM    6  C   UNL     1      -9.160   6.940  68.503  1.00  0.00    -0.127 A  
HETATM    7  C   UNL     1      -7.448   7.751  72.239  1.00  0.00    -0.094 A  
HETATM    8  C   UNL     1      -8.842   7.289  69.850  1.00  0.00    -0.142 A  
HETATM    9  C   UNL     1      -7.585   6.741  70.091  1.00  0.00    -0.099 A  
HETATM   10  C   UNL     1      -8.734   8.264  72.068  1.00  0.00    -0.243 A  
HETATM   11  C   UNL     1      -9.448   8.032  70.886  1.00  0.00    -0.178 A  
HETATM   12  C   UNL     1      -6.853   6.952  71.256  1.00  0.00    -0.061 A  
HETATM   13  O   UNL     1      -7.193   5.972  69.042  1.00  0.00    -0.078 OA 
BRANCH   6  14
HETATM   14  C   UNL     1     -10.270   7.354  67.662  1.00  0.00    -0.201 C  
HETATM   15  O   UNL     1     -11.052   6.536  67.186  1.00  0.00    -0.390 OA 
BRANCH  14  16
HETATM   16  C   UNL     1     -10.442   8.792  67.307  1.00  0.00    -0.353 A  
HETATM   17  I   UNL     1      -9.326  10.688  63.632  1.00  0.00    -0.384 I  
HETATM   18  C   UNL     1     -10.665  11.506  66.440  1.00  0.00    -0.273 A  
HETATM   19  C   UNL     1     -10.138   9.155  65.998  1.00  0.00    -0.204 A  
HETATM   20  C   UNL     1     -10.968  11.119  67.767  1.00  0.00    -0.262 A  
HETATM   21  I   UNL     1     -11.735  12.480  69.190  1.00  0.00    -0.284 I  
HETATM   22  C   UNL     1     -10.187  10.496  65.575  1.00  0.00    -0.256 A  
HETATM   23  C   UNL     1     -10.808   9.794  68.208  1.00  0.00    -0.256 A  
BRANCH  18  24
HETATM   24  O   UNL     1     -10.873  12.846  66.162  1.00  0.00    -0.274 OA 
BRANCH  24  25
HETATM   25  C   UNL     1      -9.686  13.617  66.018  1.00  0.00    -0.222 C  
BRANCH  25  26
HETATM   26  C   UNL     1      -8.587  13.383  67.064  1.00  0.00    -0.158 C  
BRANCH  26  27
HETATM   27  N   UNL     1      -7.666  14.552  67.134  1.00  0.00    -0.142 NA 
BRANCH  27  28
HETATM   28  C   UNL     1      -8.291  15.788  67.639  1.00  0.00    -0.157 C  
HETATM   29  C   UNL     1      -7.578  17.086  67.276  1.00  0.00    -0.192 C  
ENDBRANCH  27  28
BRANCH  27  30
HETATM   30  C   UNL     1      -6.413  14.197  67.813  1.00  0.00    -0.168 C  
HETATM   31  C   UNL     1      -6.606  13.347  69.069  1.00  0.00    -0.107 C  
ENDBRANCH  27  30
ENDBRANCH  26  27
ENDBRANCH  25  26
ENDBRANCH  24  25
ENDBRANCH  18  24
ENDBRANCH  14  16
ENDBRANCH   6  14
ENDBRANCH   4   5
ENDBRANCH   3   4
ENDBRANCH   2   3
TORSDOF 11
ENDMDL
MODEL      230
REMARK 921   NORMALIZED FREE ENERGY PREDICTED BY IDOCK:   -2.83 KCAL/MOL
REMARK 922        TOTAL FREE ENERGY PREDICTED BY IDOCK:   -6.80 KCAL/MOL
REMARK 923 INTER-LIGAND FREE ENERGY PREDICTED BY IDOCK:   -5.87 KCAL/MOL
REMARK 924 INTRA-LIGAND FREE ENERGY PREDICTED BY IDOCK:   -0.94 KCAL/MOL
REMARK 927      BINDING AFFINITY PREDICTED BY RF-SCORE:    0.00 PKD
ROOT
HETATM    1  C   UNL     1      -8.640   7.057  69.906  1.00  0.00    -0.141 C  
HETATM    2  C   UNL     1     -10.015   7.475  69.410  1.00  0.00    -0.178 C  
ENDROOT
BRANCH   2   3
HETATM    3  C   UNL     1      -9.930   8.245  68.092  1.00  0.00    -0.224 C  
BRANCH   3   4
HETATM    4  C   UNL     1      -8.520   8.177  67.505  1.00  0.00    -0.126 C  
BRANCH   4   5
HETATM    5  C   UNL     1      -8.486   7.407  66.229  1.00  0.00    -0.137 A  
HETATM    6  C   UNL     1      -8.182   7.737  64.916  1.00  0.00    -0.111 A  
HETATM    7  C   UNL     1      -8.772   3.875  63.403  1.00  0.00    -0.102 A  
HETATM    8  C   UNL     1      -8.212   6.508  64.190  1.00  0.00     0.029 A  
HETATM    9  C   UNL     1      -8.719   5.562  65.077  1.00  0.00    -0.094 A  
HETATM   10  C   UNL     1      -8.200   4.771  62.498  1.00  0.00    -0.085 A  
HETATM   11  C   UNL     1      -7.903   6.084  62.879  1.00  0.00    -0.099 A  
HETATM   12  C   UNL     1      -9.022   4.249  64.728  1.00  0.00    -0.145 A  
HETATM   13  O   UNL     1      -8.860   6.101  66.317  1.00  0.00    -0.137 OA 
BRANCH   6  14
HETATM   14  C   UNL     1      -7.885   9.086  64.468  1.00  0.00    -0.123 C  
HETATM   15  O   UNL     1      -7.021   9.304  63.623  1.00  0.00    -0.090 OA 
BRANCH  14  16
HETATM   16  C   UNL     1      -8.591  10.249  65.080  1.00  0.00    -0.190 A  
HETATM   17  I   UNL     1     -12.247  12.034  63.740  1.00  0.00    -0.383 I  
HETATM   18  C   UNL     1     -10.087  12.467  66.084  1.00  0.00    -0.248 A  
HETATM   19  C   UNL     1      -9.843  10.566  64.559  1.00  0.00    -0.401 A  
HETATM   20  C   UNL     1      -8.813  12.132  66.598  1.00  0.00    -0.182 A  
HETATM   21  I   UNL     1      -7.955  13.153  68.238  1.00  0.00    -0.089 I  
HETATM   22  C   UNL     1     -10.563  11.689  65.004  1.00  0.00    -0.289 A  
HETATM   23  C   UNL     1      -8.054  11.073  66.069  1.00  0.00    -0.110 A  
BRANCH  18  24
HETATM   24  O   UNL     1     -10.706  13.535  66.710  1.00  0.00    -0.276 OA 
BRANCH  24  25
HETATM   25  C   UNL     1     -10.853  14.697  65.903  1.00  0.00    -0.312 C  
BRANCH  25  26
HETATM   26  C   UNL     1      -9.577  15.503  65.624  1.00  0.00    -0.293 C  
BRANCH  26  27
HETATM   27  N   UNL     1      -9.289  16.442  66.744  1.00  0.00    -0.233 NA 
BRANCH  27  28
HETATM   28  C   UNL     1      -8.500  17.626  66.355  1.00  0.00    -0.246 C  
HETATM   29  C   UNL     1      -8.007  18.499  67.505  1.00  0.00    -0.245 C  
ENDBRANCH  27  28
BRANCH  27  30
HETATM   30  C   UNL     1     -10.510  16.760  67.494  1.00  0.00    -0.319 C  
HETATM   31  C   UNL     1     -10.442  16.397  68.978  1.00  0.00    -0.288 C  
ENDBRANCH  27  30
ENDBRANCH  26  27
ENDBRANCH  25  26
ENDBRANCH  24  25
ENDBRANCH  18  24
ENDBRANCH  14  16
ENDBRANCH   6  14
ENDBRANCH   4   5
ENDBRANCH   3   4
ENDBRANCH   2   3
TORSDOF 11
ENDMDL
MODEL      231
REMARK 921   NORMALIZED FREE ENERGY PREDICTED BY IDOCK:   -2.83 KCAL/MOL
REMARK 922        TOTAL FREE ENERGY PREDICTED BY IDOCK:   -6.80 KCAL/MOL
REMARK 923 INTER-LIGAND FREE ENERGY PREDICTED BY IDOCK:   -6.37 KCAL/MOL
REMARK 924 INTRA-LIGAND FREE ENERGY PREDICTED BY IDOCK:   -0.43 KCAL/MOL
REMARK 927      BINDING AFFINITY PREDICTED BY RF-SCORE:    0.00 PKD
ROOT
HETATM    1  C   UNL     1     -12.669  11.471  71.080  1.00  0.00    -0.458 C  
HETATM    2  C   UNL     1     -11.642  10.953  70.086  1.00  0.00    -0.425 C  
ENDROOT
BRANCH   2   3
HETATM    3  C   UNL     1     -11.975  11.382  68.656  1.00  0.00    -0.317 C  
BRANCH   3   4
HETATM    4  C   UNL     1     -11.317  10.454  67.636  1.00  0.00    -0.162 C  
BRANCH   4   5
HETATM    5  C   UNL     1     -10.559   9.352  68.295  1.00  0.00    -0.210 A  
HETATM    6  C   UNL     1      -9.210   9.063  68.433  1.00  0.00    -0.137 A  
HETATM    7  C   UNL     1      -9.790   5.582  70.691  1.00  0.00    -0.252 A  
HETATM    8  C   UNL     1      -9.142   7.926  69.293  1.00  0.00    -0.148 A  
HETATM    9  C   UNL     1     -10.458   7.498  69.452  1.00  0.00    -0.222 A  
HETATM   10  C   UNL     1      -8.464   6.009  70.615  1.00  0.00    -0.133 A  
HETATM   11  C   UNL     1      -8.126   7.183  69.932  1.00  0.00    -0.125 A  
HETATM   12  C   UNL     1     -10.824   6.338  70.127  1.00  0.00    -0.375 A  
HETATM   13  O   UNL     1     -11.316   8.376  68.870  1.00  0.00     0.346 OA 
BRANCH   6  14
HETATM   14  C   UNL     1      -8.149   9.833  67.808  1.00  0.00    -0.113 C  
HETATM   15  O   UNL     1      -7.347   9.311  67.038  1.00  0.00    -0.089 OA 
BRANCH  14  16
HETATM   16  C   UNL     1      -7.975  11.276  68.144  1.00  0.00    -0.131 A  
HETATM   17  I   UNL     1      -9.824  14.612  66.196  1.00  0.00    -0.328 I  
HETATM   18  C   UNL     1      -7.767  14.087  68.612  1.00  0.00    -0.135 A  
HETATM   19  C   UNL     1      -8.790  12.179  67.467  1.00  0.00    -0.175 A  
HETATM   20  C   UNL     1      -6.945  13.155  69.289  1.00  0.00     0.027 A  
HETATM   21  I   UNL     1      -5.584  13.738  70.797  1.00  0.00    -0.170 I  
HETATM   22  C   UNL     1      -8.657  13.568  67.645  1.00  0.00    -0.185 A  
HETATM   23  C   UNL     1      -7.011  11.776  69.020  1.00  0.00    -0.107 A  
BRANCH  18  24
HETATM   24  O   UNL     1      -7.581  15.407  68.987  1.00  0.00    -0.146 OA 
BRANCH  24  25
HETATM   25  C   UNL     1      -7.381  16.311  67.908  1.00  0.00    -0.127 C  
BRANCH  25  26
HETATM   26  C   UNL     1      -7.865  17.752  68.123  1.00  0.00    -0.264 C  
BRANCH  26  27
HETATM   27  N   UNL     1      -9.223  17.946  67.543  1.00  0.00    -0.248 NA 
BRANCH  27  28
HETATM   28  C   UNL     1     -10.282  18.181  68.541  1.00  0.00    -0.384 C  
HETATM   29  C   UNL     1     -10.712  16.961  69.350  1.00  0.00    -0.258 C  
ENDBRANCH  27  28
BRANCH  27  30
HETATM   30  C   UNL     1      -9.197  18.935  66.458  1.00  0.00    -0.331 C  
HETATM   31  C   UNL     1      -9.937  20.233  66.780  1.00  0.00    -0.587 C  
ENDBRANCH  27  30
ENDBRANCH  26  27
ENDBRANCH  25  26
ENDBRANCH  24  25
ENDBRANCH  18  24
ENDBRANCH  14  16
ENDBRANCH   6  14
ENDBRANCH   4   5
ENDBRANCH   3   4
ENDBRANCH   2   3
TORSDOF 11
ENDMDL
MODEL      232
REMARK 921   NORMALIZED FREE ENERGY PREDICTED BY IDOCK:   -2.80 KCAL/MOL
REMARK 922        TOTAL FREE ENERGY PREDICTED BY IDOCK:   -6.74 KCAL/MOL
REMARK 923 INTER-LIGAND FREE ENERGY PREDICTED BY IDOCK:   -4.92 KCAL/MOL
REMARK 924 INTRA-LIGAND FREE ENERGY PREDICTED BY IDOCK:   -1.82 KCAL/MOL
REMARK 927      BINDING AFFINITY PREDICTED BY RF-SCORE:    0.00 PKD
ROOT
HETATM    1  C   UNL     1      -9.821   9.235  66.163  1.00  0.00    -0.363 C  
HETATM    2  C   UNL     1     -10.775   8.295  66.883  1.00  0.00    -0.179 C  
ENDROOT
BRANCH   2   3
HETATM    3  C   UNL     1     -10.407   6.829  66.648  1.00  0.00    -0.219 C  
BRANCH   3   4
HETATM    4  C   UNL     1      -8.915   6.593  66.881  1.00  0.00    -0.131 C  
BRANCH   4   5
HETATM    5  C   UNL     1      -8.606   6.373  68.323  1.00  0.00    -0.114 A  
HETATM    6  C   UNL     1      -7.852   7.065  69.260  1.00  0.00    -0.114 A  
HETATM    7  C   UNL     1      -8.679   4.450  72.427  1.00  0.00    -0.121 A  
HETATM    8  C   UNL     1      -8.070   6.397  70.503  1.00  0.00    -0.117 A  
HETATM    9  C   UNL     1      -8.782   5.243  70.188  1.00  0.00    -0.121 A  
HETATM   10  C   UNL     1      -8.024   5.623  72.801  1.00  0.00    -0.102 A  
HETATM   11  C   UNL     1      -7.724   6.611  71.855  1.00  0.00    -0.097 A  
HETATM   12  C   UNL     1      -9.097   4.246  71.107  1.00  0.00    -0.183 A  
HETATM   13  O   UNL     1      -9.128   5.243  68.874  1.00  0.00    -0.108 OA 
BRANCH   6  14
HETATM   14  C   UNL     1      -7.050   8.235  68.950  1.00  0.00    -0.066 C  
HETATM   15  O   UNL     1      -5.834   8.155  68.794  1.00  0.00    -0.040 OA 
BRANCH  14  16
HETATM   16  C   UNL     1      -7.689   9.581  68.876  1.00  0.00    -0.076 A  
HETATM   17  I   UNL     1      -5.773  13.290  67.921  1.00  0.00    -0.053 I  
HETATM   18  C   UNL     1      -8.713  12.243  68.699  1.00  0.00     0.023 A  
HETATM   19  C   UNL     1      -6.898  10.625  68.404  1.00  0.00    -0.064 A  
HETATM   20  C   UNL     1      -9.501  11.171  69.179  1.00  0.00     0.020 A  
HETATM   21  I   UNL     1     -11.540  11.408  69.684  1.00  0.00    -0.413 I  
HETATM   22  C   UNL     1      -7.371  11.949  68.368  1.00  0.00    -0.095 A  
HETATM   23  C   UNL     1      -8.982   9.871  69.315  1.00  0.00    -0.184 A  
BRANCH  18  24
HETATM   24  O   UNL     1      -9.368  13.460  68.625  1.00  0.00    -0.133 OA 
BRANCH  24  25
HETATM   25  C   UNL     1      -9.679  13.892  67.305  1.00  0.00    -0.245 C  
BRANCH  25  26
HETATM   26  C   UNL     1     -10.392  15.244  67.178  1.00  0.00    -0.265 C  
BRANCH  26  27
HETATM   27  N   UNL     1      -9.481  16.271  66.599  1.00  0.00    -0.233 NA 
BRANCH  27  28
HETATM   28  C   UNL     1     -10.144  17.538  66.242  1.00  0.00    -0.336 C  
HETATM   29  C   UNL     1     -10.785  18.298  67.399  1.00  0.00    -0.377 C  
ENDBRANCH  27  28
BRANCH  27  30
HETATM   30  C   UNL     1      -8.281  16.438  67.428  1.00  0.00    -0.158 C  
HETATM   31  C   UNL     1      -7.147  17.196  66.737  1.00  0.00    -0.259 C  
ENDBRANCH  27  30
ENDBRANCH  26  27
ENDBRANCH  25  26
ENDBRANCH  24  25
ENDBRANCH  18  24
ENDBRANCH  14  16
ENDBRANCH   6  14
ENDBRANCH   4   5
ENDBRANCH   3   4
ENDBRANCH   2   3
TORSDOF 11
ENDMDL
MODEL      233
REMARK 921   NORMALIZED FREE ENERGY PREDICTED BY IDOCK:   -2.79 KCAL/MOL
REMARK 922        TOTAL FREE ENERGY PREDICTED BY IDOCK:   -6.73 KCAL/MOL
REMARK 923 INTER-LIGAND FREE ENERGY PREDICTED BY IDOCK:   -5.07 KCAL/MOL
REMARK 924 INTRA-LIGAND FREE ENERGY PREDICTED BY IDOCK:   -1.65 KCAL/MOL
REMARK 927      BINDING AFFINITY PREDICTED BY RF-SCORE:    0.00 PKD
ROOT
HETATM    1  C   UNL     1      -8.244   7.445  70.111  1.00  0.00    -0.133 C  
HETATM    2  C   UNL     1      -9.748   7.450  69.887  1.00  0.00    -0.171 C  
ENDROOT
BRANCH   2   3
HETATM    3  C   UNL     1     -10.249   8.828  69.452  1.00  0.00    -0.210 C  
BRANCH   3   4
HETATM    4  C   UNL     1     -10.610   8.839  67.967  1.00  0.00    -0.218 C  
BRANCH   4   5
HETATM    5  C   UNL     1      -9.397   8.807  67.101  1.00  0.00    -0.150 A  
HETATM    6  C   UNL     1      -8.252   9.586  67.022  1.00  0.00    -0.113 A  
HETATM    7  C   UNL     1      -6.501   7.387  63.916  1.00  0.00    -0.048 A  
HETATM    8  C   UNL     1      -7.412   8.946  66.062  1.00  0.00    -0.090 A  
HETATM    9  C   UNL     1      -8.190   7.941  65.494  1.00  0.00    -0.140 A  
HETATM   10  C   UNL     1      -5.661   8.336  64.498  1.00  0.00    -0.051 A  
HETATM   11  C   UNL     1      -6.096   9.114  65.578  1.00  0.00    -0.059 A  
HETATM   12  C   UNL     1      -7.784   7.151  64.423  1.00  0.00    -0.117 A  
HETATM   13  O   UNL     1      -9.381   7.841  66.141  1.00  0.00    -0.169 OA 
BRANCH   6  14
HETATM   14  C   UNL     1      -8.032  10.784  67.812  1.00  0.00    -0.110 C  
HETATM   15  O   UNL     1      -7.482  10.735  68.910  1.00  0.00    -0.097 OA 
BRANCH  14  16
HETATM   16  C   UNL     1      -8.533  12.103  67.327  1.00  0.00    -0.178 A  
HETATM   17  I   UNL     1      -6.508  15.870  67.564  1.00  0.00    -0.113 I  
HETATM   18  C   UNL     1      -9.311  14.720  66.485  1.00  0.00    -0.290 A  
HETATM   19  C   UNL     1      -7.640  13.170  67.380  1.00  0.00    -0.137 A  
HETATM   20  C   UNL     1     -10.206  13.625  66.441  1.00  0.00    -0.292 A  
HETATM   21  I   UNL     1     -12.151  13.790  65.630  1.00  0.00    -0.537 I  
HETATM   22  C   UNL     1      -8.028  14.474  67.024  1.00  0.00    -0.041 A  
HETATM   23  C   UNL     1      -9.840  12.349  66.904  1.00  0.00    -0.219 A  
BRANCH  18  24
HETATM   24  O   UNL     1      -9.822  15.909  65.994  1.00  0.00    -0.289 OA 
BRANCH  24  25
HETATM   25  C   UNL     1     -10.012  16.926  66.971  1.00  0.00    -0.279 C  
BRANCH  25  26
HETATM   26  C   UNL     1     -11.373  16.949  67.679  1.00  0.00     0.213 C  
BRANCH  26  27
HETATM   27  N   UNL     1     -11.231  16.571  69.113  1.00  0.00    -0.267 NA 
BRANCH  27  28
HETATM   28  C   UNL     1     -11.950  15.340  69.490  1.00  0.00    -0.330 C  
HETATM   29  C   UNL     1     -12.818  15.439  70.740  1.00  0.00    -0.524 C  
ENDBRANCH  27  28
BRANCH  27  30
HETATM   30  C   UNL     1      -9.822  16.588  69.525  1.00  0.00    -0.080 C  
HETATM   31  C   UNL     1      -9.309  15.246  70.047  1.00  0.00     0.165 C  
ENDBRANCH  27  30
ENDBRANCH  26  27
ENDBRANCH  25  26
ENDBRANCH  24  25
ENDBRANCH  18  24
ENDBRANCH  14  16
ENDBRANCH   6  14
ENDBRANCH   4   5
ENDBRANCH   3   4
ENDBRANCH   2   3
TORSDOF 11
ENDMDL
MODEL      234
REMARK 921   NORMALIZED FREE ENERGY PREDICTED BY IDOCK:   -2.77 KCAL/MOL
REMARK 922        TOTAL FREE ENERGY PREDICTED BY IDOCK:   -6.70 KCAL/MOL
REMARK 923 INTER-LIGAND FREE ENERGY PREDICTED BY IDOCK:   -5.44 KCAL/MOL
REMARK 924 INTRA-LIGAND FREE ENERGY PREDICTED BY IDOCK:   -1.26 KCAL/MOL
REMARK 927      BINDING AFFINITY PREDICTED BY RF-SCORE:    0.00 PKD
ROOT
HETATM    1  C   UNL     1     -10.145   3.356  63.774  1.00  0.00    -0.193 C  
HETATM    2  C   UNL     1      -9.390   2.594  64.851  1.00  0.00    -0.127 C  
ENDROOT
BRANCH   2   3
HETATM    3  C   UNL     1      -8.773   3.539  65.883  1.00  0.00    -0.122 C  
BRANCH   3   4
HETATM    4  C   UNL     1      -9.852   4.181  66.755  1.00  0.00    -0.203 C  
BRANCH   4   5
HETATM    5  C   UNL     1      -9.345   4.502  68.120  1.00  0.00    -0.140 A  
HETATM    6  C   UNL     1      -8.286   5.258  68.598  1.00  0.00    -0.093 A  
HETATM    7  C   UNL     1      -9.126   4.585  72.647  1.00  0.00    -0.137 A  
HETATM    8  C   UNL     1      -8.426   5.270  70.019  1.00  0.00    -0.101 A  
HETATM    9  C   UNL     1      -9.444   4.363  70.302  1.00  0.00    -0.171 A  
HETATM   10  C   UNL     1      -8.147   5.550  72.411  1.00  0.00    -0.107 A  
HETATM   11  C   UNL     1      -7.795   5.913  71.106  1.00  0.00    -0.111 A  
HETATM   12  C   UNL     1      -9.817   3.985  71.588  1.00  0.00    -0.253 A  
HETATM   13  O   UNL     1     -10.016   3.918  69.152  1.00  0.00    -0.047 OA 
BRANCH   6  14
HETATM   14  C   UNL     1      -7.295   5.892  67.747  1.00  0.00    -0.077 C  
HETATM   15  O   UNL     1      -6.168   5.421  67.615  1.00  0.00    -0.031 OA 
BRANCH  14  16
HETATM   16  C   UNL     1      -7.612   7.177  67.059  1.00  0.00    -0.099 A  
HETATM   17  I   UNL     1      -9.007  10.794  68.880  1.00  0.00    -0.029 I  
HETATM   18  C   UNL     1      -8.289   9.716  65.936  1.00  0.00    -0.120 A  
HETATM   19  C   UNL     1      -7.912   8.266  67.873  1.00  0.00    -0.123 A  
HETATM   20  C   UNL     1      -7.984   8.598  65.124  1.00  0.00    -0.127 A  
HETATM   21  I   UNL     1      -7.873   8.732  63.018  1.00  0.00    -0.156 I  
HETATM   22  C   UNL     1      -8.304   9.504  67.333  1.00  0.00    -0.125 A  
HETATM   23  C   UNL     1      -7.702   7.336  65.675  1.00  0.00    -0.105 A  
BRANCH  18  24
HETATM   24  O   UNL     1      -8.545  10.887  65.243  1.00  0.00    -0.172 OA 
BRANCH  24  25
HETATM   25  C   UNL     1      -9.880  11.365  65.353  1.00  0.00    -0.236 C  
BRANCH  25  26
HETATM   26  C   UNL     1     -10.049  12.855  65.683  1.00  0.00    -0.272 C  
BRANCH  26  27
HETATM   27  N   UNL     1     -11.489  13.236  65.691  1.00  0.00    -0.312 NA 
BRANCH  27  28
HETATM   28  C   UNL     1     -12.344  12.394  64.833  1.00  0.00    -0.402 C  
HETATM   29  C   UNL     1     -12.376  12.773  63.356  1.00  0.00    -0.531 C  
ENDBRANCH  27  28
BRANCH  27  30
HETATM   30  C   UNL     1     -11.987  13.388  67.064  1.00  0.00    -0.379 C  
HETATM   31  C   UNL     1     -11.372  14.564  67.822  1.00  0.00    -0.335 C  
ENDBRANCH  27  30
ENDBRANCH  26  27
ENDBRANCH  25  26
ENDBRANCH  24  25
ENDBRANCH  18  24
ENDBRANCH  14  16
ENDBRANCH   6  14
ENDBRANCH   4   5
ENDBRANCH   3   4
ENDBRANCH   2   3
TORSDOF 11
ENDMDL
MODEL      235
REMARK 921   NORMALIZED FREE ENERGY PREDICTED BY IDOCK:   -2.77 KCAL/MOL
REMARK 922        TOTAL FREE ENERGY PREDICTED BY IDOCK:   -6.69 KCAL/MOL
REMARK 923 INTER-LIGAND FREE ENERGY PREDICTED BY IDOCK:   -5.83 KCAL/MOL
REMARK 924 INTRA-LIGAND FREE ENERGY PREDICTED BY IDOCK:   -0.87 KCAL/MOL
REMARK 927      BINDING AFFINITY PREDICTED BY RF-SCORE:    0.00 PKD
ROOT
HETATM    1  C   UNL     1     -10.899   9.530  66.612  1.00  0.00     0.018 C  
HETATM    2  C   UNL     1      -9.739   8.980  65.798  1.00  0.00    -0.254 C  
ENDROOT
BRANCH   2   3
HETATM    3  C   UNL     1      -8.451   9.765  66.050  1.00  0.00    -0.131 C  
BRANCH   3   4
HETATM    4  C   UNL     1      -8.561  11.191  65.510  1.00  0.00    -0.045 C  
BRANCH   4   5
HETATM    5  C   UNL     1      -9.201  12.110  66.495  1.00  0.00    -0.216 A  
HETATM    6  C   UNL     1      -9.072  12.289  67.864  1.00  0.00    -0.190 A  
HETATM    7  C   UNL     1     -11.831  15.432  68.102  1.00  0.00    -0.178 A  
HETATM    8  C   UNL     1      -9.872  13.428  68.184  1.00  0.00    -0.234 A  
HETATM    9  C   UNL     1     -10.573  13.731  67.020  1.00  0.00    -0.278 A  
HETATM   10  C   UNL     1     -11.106  15.209  69.272  1.00  0.00    -0.279 A  
HETATM   11  C   UNL     1     -10.116  14.221  69.326  1.00  0.00     0.014 A  
HETATM   12  C   UNL     1     -11.560  14.708  66.936  1.00  0.00    -0.374 A  
HETATM   13  O   UNL     1     -10.147  12.949  65.992  1.00  0.00    -0.275 OA 
BRANCH   6  14
HETATM   14  C   UNL     1      -8.249  11.450  68.717  1.00  0.00    -0.107 C  
HETATM   15  O   UNL     1      -7.023  11.475  68.649  1.00  0.00    -0.075 OA 
BRANCH  14  16
HETATM   16  C   UNL     1      -8.889  10.487  69.660  1.00  0.00     0.042 A  
HETATM   17  I   UNL     1      -7.083   7.026  71.421  1.00  0.00    -0.071 I  
HETATM   18  C   UNL     1      -9.929   8.522  71.455  1.00  0.00    -0.244 A  
HETATM   19  C   UNL     1      -8.063   9.515  70.218  1.00  0.00    -0.200 A  
HETATM   20  C   UNL     1     -10.754   9.515  70.877  1.00  0.00    -0.333 A  
HETATM   21  I   UNL     1     -12.796   9.721  71.383  1.00  0.00    -0.525 I  
HETATM   22  C   UNL     1      -8.574   8.507  71.056  1.00  0.00    -0.158 A  
HETATM   23  C   UNL     1     -10.253  10.449  69.953  1.00  0.00    -0.190 A  
BRANCH  18  24
HETATM   24  O   UNL     1     -10.571   7.677  72.344  1.00  0.00    -0.223 OA 
BRANCH  24  25
HETATM   25  C   UNL     1      -9.880   7.460  73.568  1.00  0.00    -0.312 C  
BRANCH  25  26
HETATM   26  C   UNL     1     -10.394   6.315  74.451  1.00  0.00    -0.258 C  
BRANCH  26  27
HETATM   27  N   UNL     1      -9.780   5.019  74.049  1.00  0.00    -0.137 NA 
BRANCH  27  28
HETATM   28  C   UNL     1      -8.348   4.899  74.378  1.00  0.00    -0.101 C  
HETATM   29  C   UNL     1      -7.622   3.713  73.751  1.00  0.00    -0.066 C  
ENDBRANCH  27  28
BRANCH  27  30
HETATM   30  C   UNL     1     -10.594   3.885  74.506  1.00  0.00    -0.156 C  
HETATM   31  C   UNL     1     -11.042   2.949  73.384  1.00  0.00    -0.288 C  
ENDBRANCH  27  30
ENDBRANCH  26  27
ENDBRANCH  25  26
ENDBRANCH  24  25
ENDBRANCH  18  24
ENDBRANCH  14  16
ENDBRANCH   6  14
ENDBRANCH   4   5
ENDBRANCH   3   4
ENDBRANCH   2   3
TORSDOF 11
ENDMDL
MODEL      236
REMARK 921   NORMALIZED FREE ENERGY PREDICTED BY IDOCK:   -2.72 KCAL/MOL
REMARK 922        TOTAL FREE ENERGY PREDICTED BY IDOCK:   -6.62 KCAL/MOL
REMARK 923 INTER-LIGAND FREE ENERGY PREDICTED BY IDOCK:   -6.03 KCAL/MOL
REMARK 924 INTRA-LIGAND FREE ENERGY PREDICTED BY IDOCK:   -0.59 KCAL/MOL
REMARK 927      BINDING AFFINITY PREDICTED BY RF-SCORE:    0.00 PKD
ROOT
HETATM    1  C   UNL     1     -12.814  15.598  68.847  1.00  0.00     1.078 C  
HETATM    2  C   UNL     1     -11.926  14.619  69.597  1.00  0.00    -0.368 C  
ENDROOT
BRANCH   2   3
HETATM    3  C   UNL     1     -12.710  13.394  70.071  1.00  0.00     0.045 C  
BRANCH   3   4
HETATM    4  C   UNL     1     -11.953  12.647  71.168  1.00  0.00     0.388 C  
BRANCH   4   5
HETATM    5  C   UNL     1     -12.156  11.173  71.078  1.00  0.00    -0.275 A  
HETATM    6  C   UNL     1     -11.392  10.126  70.584  1.00  0.00    -0.433 A  
HETATM    7  C   UNL     1     -14.144   7.131  71.588  1.00  0.00    -0.477 A  
HETATM    8  C   UNL     1     -12.103   8.934  70.920  1.00  0.00    -0.218 A  
HETATM    9  C   UNL     1     -13.332   9.359  71.417  1.00  0.00    -0.346 A  
HETATM   10  C   UNL     1     -12.904   6.658  71.158  1.00  0.00    -0.073 A  
HETATM   11  C   UNL     1     -11.871   7.544  70.833  1.00  0.00    -0.293 A  
HETATM   12  C   UNL     1     -14.376   8.502  71.751  1.00  0.00    -0.522 A  
HETATM   13  O   UNL     1     -13.353  10.712  71.537  1.00  0.00    -0.347 OA 
BRANCH   6  14
HETATM   14  C   UNL     1     -10.125  10.302  69.897  1.00  0.00    -0.171 C  
HETATM   15  O   UNL     1      -9.125   9.670  70.225  1.00  0.00    -0.235 OA 
BRANCH  14  16
HETATM   16  C   UNL     1     -10.000  11.313  68.807  1.00  0.00    -0.203 A  
HETATM   17  I   UNL     1      -6.648  13.866  68.038  1.00  0.00    -0.184 I  
HETATM   18  C   UNL     1      -9.567  13.309  66.808  1.00  0.00    -0.258 A  
HETATM   19  C   UNL     1      -8.759  11.927  68.662  1.00  0.00    -0.034 A  
HETATM   20  C   UNL     1     -10.822  12.677  66.972  1.00  0.00    -0.253 A  
HETATM   21  I   UNL     1     -12.451  13.051  65.678  1.00  0.00     0.022 I  
HETATM   22  C   UNL     1      -8.550  12.952  67.721  1.00  0.00    -0.185 A  
HETATM   23  C   UNL     1     -11.050  11.734  67.990  1.00  0.00    -0.297 A  
BRANCH  18  24
HETATM   24  O   UNL     1      -9.503  14.215  65.763  1.00  0.00    -0.181 OA 
BRANCH  24  25
HETATM   25  C   UNL     1     -10.305  15.378  65.931  1.00  0.00    -0.341 C  
BRANCH  25  26
HETATM   26  C   UNL     1      -9.590  16.632  66.452  1.00  0.00    -0.285 C  
BRANCH  26  27
HETATM   27  N   UNL     1     -10.575  17.691  66.811  1.00  0.00    -0.276 NA 
BRANCH  27  28
HETATM   28  C   UNL     1     -10.328  18.331  68.116  1.00  0.00    -0.373 C  
HETATM   29  C   UNL     1      -9.029  17.937  68.811  1.00  0.00    -0.203 C  
ENDBRANCH  27  28
BRANCH  27  30
HETATM   30  C   UNL     1     -10.755  18.641  65.706  1.00  0.00    -0.179 C  
HETATM   31  C   UNL     1     -10.394  20.084  66.059  1.00  0.00    -0.556 C  
ENDBRANCH  27  30
ENDBRANCH  26  27
ENDBRANCH  25  26
ENDBRANCH  24  25
ENDBRANCH  18  24
ENDBRANCH  14  16
ENDBRANCH   6  14
ENDBRANCH   4   5
ENDBRANCH   3   4
ENDBRANCH   2   3
TORSDOF 11
ENDMDL
MODEL      237
REMARK 921   NORMALIZED FREE ENERGY PREDICTED BY IDOCK:   -2.67 KCAL/MOL
REMARK 922        TOTAL FREE ENERGY PREDICTED BY IDOCK:   -6.54 KCAL/MOL
REMARK 923 INTER-LIGAND FREE ENERGY PREDICTED BY IDOCK:   -6.01 KCAL/MOL
REMARK 924 INTRA-LIGAND FREE ENERGY PREDICTED BY IDOCK:   -0.52 KCAL/MOL
REMARK 927      BINDING AFFINITY PREDICTED BY RF-SCORE:    0.00 PKD
ROOT
HETATM    1  C   UNL     1     -11.344   6.067  70.438  1.00  0.00    -0.322 C  
HETATM    2  C   UNL     1     -10.466   4.880  70.800  1.00  0.00    -0.166 C  
ENDROOT
BRANCH   2   3
HETATM    3  C   UNL     1      -8.980   5.220  70.677  1.00  0.00    -0.159 C  
BRANCH   3   4
HETATM    4  C   UNL     1      -8.699   6.642  71.165  1.00  0.00    -0.137 C  
BRANCH   4   5
HETATM    5  C   UNL     1      -8.279   7.538  70.050  1.00  0.00    -0.130 A  
HETATM    6  C   UNL     1      -8.678   8.798  69.628  1.00  0.00    -0.136 A  
HETATM    7  C   UNL     1      -5.961   9.019  66.447  1.00  0.00    -0.059 A  
HETATM    8  C   UNL     1      -7.787   9.154  68.572  1.00  0.00    -0.101 A  
HETATM    9  C   UNL     1      -7.043   8.008  68.306  1.00  0.00    -0.088 A  
HETATM   10  C   UNL     1      -6.635  10.211  66.718  1.00  0.00    -0.073 A  
HETATM   11  C   UNL     1      -7.539  10.299  67.782  1.00  0.00    -0.089 A  
HETATM   12  C   UNL     1      -6.136   7.892  67.258  1.00  0.00    -0.053 A  
HETATM   13  O   UNL     1      -7.324   7.039  69.218  1.00  0.00    -0.086 OA 
BRANCH   6  14
HETATM   14  C   UNL     1      -9.779   9.538  70.218  1.00  0.00    -0.263 C  
HETATM   15  O   UNL     1     -10.215   9.258  71.332  1.00  0.00    -0.320 OA 
BRANCH  14  16
HETATM   16  C   UNL     1     -10.450  10.623  69.445  1.00  0.00    -0.252 A  
HETATM   17  I   UNL     1     -12.942  13.735  71.011  1.00  0.00    -0.152 I  
HETATM   18  C   UNL     1     -11.830  12.766  68.153  1.00  0.00    -0.324 A  
HETATM   19  C   UNL     1     -11.095  11.612  70.184  1.00  0.00     0.233 A  
HETATM   20  C   UNL     1     -11.171  11.752  67.419  1.00  0.00    -0.297 A  
HETATM   21  I   UNL     1     -11.034  11.795  65.310  1.00  0.00    -0.257 I  
HETATM   22  C   UNL     1     -11.827  12.638  69.560  1.00  0.00    -0.312 A  
HETATM   23  C   UNL     1     -10.537  10.669  68.053  1.00  0.00    -0.248 A  
BRANCH  18  24
HETATM   24  O   UNL     1     -12.407  13.761  67.383  1.00  0.00    -0.312 OA 
BRANCH  24  25
HETATM   25  C   UNL     1     -11.901  15.069  67.621  1.00  0.00    -0.182 C  
BRANCH  25  26
HETATM   26  C   UNL     1     -10.659  15.480  66.819  1.00  0.00    -0.307 C  
BRANCH  26  27
HETATM   27  N   UNL     1      -9.788  16.387  67.618  1.00  0.00    -0.240 NA 
BRANCH  27  28
HETATM   28  C   UNL     1     -10.170  17.809  67.551  1.00  0.00    -0.356 C  
HETATM   29  C   UNL     1     -10.541  18.330  66.166  1.00  0.00    -0.326 C  
ENDBRANCH  27  28
BRANCH  27  30
HETATM   30  C   UNL     1      -9.613  15.880  68.985  1.00  0.00    -0.247 C  
HETATM   31  C   UNL     1      -8.208  15.354  69.279  1.00  0.00    -0.252 C  
ENDBRANCH  27  30
ENDBRANCH  26  27
ENDBRANCH  25  26
ENDBRANCH  24  25
ENDBRANCH  18  24
ENDBRANCH  14  16
ENDBRANCH   6  14
ENDBRANCH   4   5
ENDBRANCH   3   4
ENDBRANCH   2   3
TORSDOF 11
ENDMDL
MODEL      238
REMARK 921   NORMALIZED FREE ENERGY PREDICTED BY IDOCK:   -2.66 KCAL/MOL
REMARK 922        TOTAL FREE ENERGY PREDICTED BY IDOCK:   -6.51 KCAL/MOL
REMARK 923 INTER-LIGAND FREE ENERGY PREDICTED BY IDOCK:   -4.93 KCAL/MOL
REMARK 924 INTRA-LIGAND FREE ENERGY PREDICTED BY IDOCK:   -1.59 KCAL/MOL
REMARK 927      BINDING AFFINITY PREDICTED BY RF-SCORE:    0.00 PKD
ROOT
HETATM    1  C   UNL     1      -9.529   3.357  70.082  1.00  0.00    -0.244 C  
HETATM    2  C   UNL     1      -8.041   3.046  70.058  1.00  0.00    -0.059 C  
ENDROOT
BRANCH   2   3
HETATM    3  C   UNL     1      -7.676   2.125  68.893  1.00  0.00    -0.048 C  
BRANCH   3   4
HETATM    4  C   UNL     1      -6.856   2.868  67.839  1.00  0.00    -0.048 C  
BRANCH   4   5
HETATM    5  C   UNL     1      -7.672   3.207  66.638  1.00  0.00    -0.077 A  
HETATM    6  C   UNL     1      -7.804   4.345  65.857  1.00  0.00    -0.095 A  
HETATM    7  C   UNL     1     -10.569   2.665  63.194  1.00  0.00    -0.208 A  
HETATM    8  C   UNL     1      -8.654   3.974  64.771  1.00  0.00    -0.116 A  
HETATM    9  C   UNL     1      -9.124   2.701  65.082  1.00  0.00    -0.140 A  
HETATM   10  C   UNL     1     -10.075   3.912  62.807  1.00  0.00    -0.173 A  
HETATM   11  C   UNL     1      -9.110   4.572  63.576  1.00  0.00    -0.115 A  
HETATM   12  C   UNL     1     -10.081   2.019  64.335  1.00  0.00     0.157 A  
HETATM   13  O   UNL     1      -8.510   2.228  66.198  1.00  0.00    -0.091 OA 
BRANCH   6  14
HETATM   14  C   UNL     1      -7.154   5.609  66.151  1.00  0.00    -0.068 C  
HETATM   15  O   UNL     1      -6.060   5.894  65.670  1.00  0.00    -0.027 OA 
BRANCH  14  16
HETATM   16  C   UNL     1      -7.782   6.569  67.104  1.00  0.00    -0.100 A  
HETATM   17  I   UNL     1      -6.313  10.440  68.200  1.00  0.00    -0.051 I  
HETATM   18  C   UNL     1      -8.809   8.538  68.902  1.00  0.00    -0.139 A  
HETATM   19  C   UNL     1      -7.201   7.831  67.196  1.00  0.00    -0.090 A  
HETATM   20  C   UNL     1      -9.385   7.250  68.798  1.00  0.00    -0.143 A  
HETATM   21  I   UNL     1     -11.130   6.705  69.859  1.00  0.00    -0.417 I  
HETATM   22  C   UNL     1      -7.660   8.788  68.119  1.00  0.00    -0.097 A  
HETATM   23  C   UNL     1      -8.848   6.264  67.952  1.00  0.00    -0.112 A  
BRANCH  18  24
HETATM   24  O   UNL     1      -9.453   9.394  69.779  1.00  0.00    -0.175 OA 
BRANCH  24  25
HETATM   25  C   UNL     1     -10.065  10.524  69.170  1.00  0.00    -0.224 C  
BRANCH  25  26
HETATM   26  C   UNL     1     -11.555  10.741  69.470  1.00  0.00    -0.303 C  
BRANCH  26  27
HETATM   27  N   UNL     1     -11.741  11.844  70.453  1.00  0.00    -0.227 NA 
BRANCH  27  28
HETATM   28  C   UNL     1     -12.097  13.141  69.849  1.00  0.00    -0.287 C  
HETATM   29  C   UNL     1     -11.906  13.242  68.340  1.00  0.00    -0.395 C  
ENDBRANCH  27  28
BRANCH  27  30
HETATM   30  C   UNL     1     -12.630  11.432  71.547  1.00  0.00    -0.288 C  
HETATM   31  C   UNL     1     -12.767   9.917  71.700  1.00  0.00    -0.527 C  
ENDBRANCH  27  30
ENDBRANCH  26  27
ENDBRANCH  25  26
ENDBRANCH  24  25
ENDBRANCH  18  24
ENDBRANCH  14  16
ENDBRANCH   6  14
ENDBRANCH   4   5
ENDBRANCH   3   4
ENDBRANCH   2   3
TORSDOF 11
ENDMDL
MODEL      239
REMARK 921   NORMALIZED FREE ENERGY PREDICTED BY IDOCK:   -2.65 KCAL/MOL
REMARK 922        TOTAL FREE ENERGY PREDICTED BY IDOCK:   -6.50 KCAL/MOL
REMARK 923 INTER-LIGAND FREE ENERGY PREDICTED BY IDOCK:   -6.64 KCAL/MOL
REMARK 924 INTRA-LIGAND FREE ENERGY PREDICTED BY IDOCK:    0.14 KCAL/MOL
REMARK 927      BINDING AFFINITY PREDICTED BY RF-SCORE:    0.00 PKD
ROOT
HETATM    1  C   UNL     1     -12.166  15.807  71.684  1.00  0.00    -0.523 C  
HETATM    2  C   UNL     1     -13.117  15.260  70.631  1.00  0.00    -0.407 C  
ENDROOT
BRANCH   2   3
HETATM    3  C   UNL     1     -12.383  14.905  69.337  1.00  0.00    -0.168 C  
BRANCH   3   4
HETATM    4  C   UNL     1     -12.147  13.399  69.234  1.00  0.00    -0.312 C  
BRANCH   4   5
HETATM    5  C   UNL     1     -11.809  12.984  67.843  1.00  0.00    -0.343 A  
HETATM    6  C   UNL     1     -10.654  12.515  67.234  1.00  0.00    -0.246 A  
HETATM    7  C   UNL     1     -12.374  12.059  63.442  1.00  0.00    -0.635 A  
HETATM    8  C   UNL     1     -11.029  12.173  65.900  1.00  0.00    -0.332 A  
HETATM    9  C   UNL     1     -12.332  12.641  65.746  1.00  0.00    -0.253 A  
HETATM   10  C   UNL     1     -11.095  11.516  63.567  1.00  0.00    -0.434 A  
HETATM   11  C   UNL     1     -10.415  11.554  64.790  1.00  0.00    -0.354 A  
HETATM   12  C   UNL     1     -13.033  12.614  64.544  1.00  0.00    -0.236 A  
HETATM   13  O   UNL     1     -12.811  13.107  66.929  1.00  0.00     0.157 OA 
BRANCH   6  14
HETATM   14  C   UNL     1      -9.371  12.409  67.906  1.00  0.00    -0.195 C  
HETATM   15  O   UNL     1      -8.562  13.333  67.891  1.00  0.00    -0.164 OA 
BRANCH  14  16
HETATM   16  C   UNL     1      -8.984  11.136  68.580  1.00  0.00    -0.162 A  
HETATM   17  I   UNL     1      -5.171   9.191  68.412  1.00  0.00    -0.037 I  
HETATM   18  C   UNL     1      -8.048   8.711  69.769  1.00  0.00    -0.114 A  
HETATM   19  C   UNL     1      -7.644  10.767  68.501  1.00  0.00    -0.104 A  
HETATM   20  C   UNL     1      -9.406   9.100  69.837  1.00  0.00    -0.186 A  
HETATM   21  I   UNL     1     -10.841   7.997  70.930  1.00  0.00    -0.286 I  
HETATM   22  C   UNL     1      -7.182   9.549  69.031  1.00  0.00    -0.071 A  
HETATM   23  C   UNL     1      -9.877  10.265  69.208  1.00  0.00    -0.244 A  
BRANCH  18  24
HETATM   24  O   UNL     1      -7.743   7.539  70.438  1.00  0.00    -0.088 OA 
BRANCH  24  25
HETATM   25  C   UNL     1      -7.197   6.510  69.621  1.00  0.00    -0.078 C  
BRANCH  25  26
HETATM   26  C   UNL     1      -8.187   5.737  68.740  1.00  0.00    -0.101 C  
BRANCH  26  27
HETATM   27  N   UNL     1      -8.202   6.286  67.354  1.00  0.00    -0.109 NA 
BRANCH  27  28
HETATM   28  C   UNL     1      -8.788   7.634  67.242  1.00  0.00    -0.120 C  
HETATM   29  C   UNL     1     -10.280   7.682  66.927  1.00  0.00    -0.365 C  
ENDBRANCH  27  28
BRANCH  27  30
HETATM   30  C   UNL     1      -6.884   6.154  66.721  1.00  0.00    -0.062 C  
HETATM   31  C   UNL     1      -6.937   5.711  65.259  1.00  0.00    -0.060 C  
ENDBRANCH  27  30
ENDBRANCH  26  27
ENDBRANCH  25  26
ENDBRANCH  24  25
ENDBRANCH  18  24
ENDBRANCH  14  16
ENDBRANCH   6  14
ENDBRANCH   4   5
ENDBRANCH   3   4
ENDBRANCH   2   3
TORSDOF 11
ENDMDL
MODEL      240
REMARK 921   NORMALIZED FREE ENERGY PREDICTED BY IDOCK:   -2.56 KCAL/MOL
REMARK 922        TOTAL FREE ENERGY PREDICTED BY IDOCK:   -6.36 KCAL/MOL
REMARK 923 INTER-LIGAND FREE ENERGY PREDICTED BY IDOCK:   -5.00 KCAL/MOL
REMARK 924 INTRA-LIGAND FREE ENERGY PREDICTED BY IDOCK:   -1.36 KCAL/MOL
REMARK 927      BINDING AFFINITY PREDICTED BY RF-SCORE:    0.00 PKD
ROOT
HETATM    1  C   UNL     1     -12.008   7.772  71.030  1.00  0.00    -0.281 C  
HETATM    2  C   UNL     1     -11.010   8.694  70.347  1.00  0.00    -0.256 C  
ENDROOT
BRANCH   2   3
HETATM    3  C   UNL     1     -10.307   8.000  69.180  1.00  0.00    -0.226 C  
BRANCH   3   4
HETATM    4  C   UNL     1     -11.072   8.208  67.874  1.00  0.00     0.303 C  
BRANCH   4   5
HETATM    5  C   UNL     1     -10.920   9.599  67.357  1.00  0.00    -0.069 A  
HETATM    6  C   UNL     1     -10.131  10.177  66.375  1.00  0.00    -0.300 A  
HETATM    7  C   UNL     1     -11.656  14.046  66.884  1.00  0.00    -0.407 A  
HETATM    8  C   UNL     1     -10.561  11.536  66.281  1.00  0.00    -0.309 A  
HETATM    9  C   UNL     1     -11.440  11.724  67.344  1.00  0.00    -0.305 A  
HETATM   10  C   UNL     1     -10.832  13.890  65.769  1.00  0.00    -0.289 A  
HETATM   11  C   UNL     1     -10.288  12.641  65.447  1.00  0.00    -0.311 A  
HETATM   12  C   UNL     1     -11.998  12.952  67.686  1.00  0.00    -0.344 A  
HETATM   13  O   UNL     1     -11.677  10.545  67.978  1.00  0.00    -0.450 OA 
BRANCH   6  14
HETATM   14  C   UNL     1      -9.111   9.461  65.629  1.00  0.00    -0.207 C  
HETATM   15  O   UNL     1      -9.001   9.587  64.412  1.00  0.00    -0.224 OA 
BRANCH  14  16
HETATM   16  C   UNL     1      -8.210   8.500  66.329  1.00  0.00    -0.109 A  
HETATM   17  I   UNL     1      -8.203   4.235  65.947  1.00  0.00    -0.110 I  
HETATM   18  C   UNL     1      -6.599   6.497  67.576  1.00  0.00    -0.061 A  
HETATM   19  C   UNL     1      -8.293   7.166  65.939  1.00  0.00    -0.141 A  
HETATM   20  C   UNL     1      -6.530   7.856  67.961  1.00  0.00    -0.052 A  
HETATM   21  I   UNL     1      -5.143   8.552  69.396  1.00  0.00    -0.031 I  
HETATM   22  C   UNL     1      -7.549   6.162  66.585  1.00  0.00    -0.095 A  
HETATM   23  C   UNL     1      -7.360   8.834  67.384  1.00  0.00    -0.081 A  
BRANCH  18  24
HETATM   24  O   UNL     1      -5.719   5.658  68.238  1.00  0.00    -0.011 OA 
BRANCH  24  25
HETATM   25  C   UNL     1      -6.334   4.692  69.082  1.00  0.00    -0.032 C  
BRANCH  25  26
HETATM   26  C   UNL     1      -6.297   4.977  70.590  1.00  0.00    -0.019 C  
BRANCH  26  27
HETATM   27  N   UNL     1      -7.511   4.435  71.261  1.00  0.00    -0.058 NA 
BRANCH  27  28
HETATM   28  C   UNL     1      -8.677   5.336  71.226  1.00  0.00    -0.129 C  
HETATM   29  C   UNL     1      -9.892   4.817  70.463  1.00  0.00    -0.301 C  
ENDBRANCH  27  28
BRANCH  27  30
HETATM   30  C   UNL     1      -7.799   3.068  70.807  1.00  0.00    -0.046 C  
HETATM   31  C   UNL     1      -8.148   2.098  71.936  1.00  0.00    -0.048 C  
ENDBRANCH  27  30
ENDBRANCH  26  27
ENDBRANCH  25  26
ENDBRANCH  24  25
ENDBRANCH  18  24
ENDBRANCH  14  16
ENDBRANCH   6  14
ENDBRANCH   4   5
ENDBRANCH   3   4
ENDBRANCH   2   3
TORSDOF 11
ENDMDL
MODEL      241
REMARK 921   NORMALIZED FREE ENERGY PREDICTED BY IDOCK:   -2.56 KCAL/MOL
REMARK 922        TOTAL FREE ENERGY PREDICTED BY IDOCK:   -6.35 KCAL/MOL
REMARK 923 INTER-LIGAND FREE ENERGY PREDICTED BY IDOCK:   -4.89 KCAL/MOL
REMARK 924 INTRA-LIGAND FREE ENERGY PREDICTED BY IDOCK:   -1.47 KCAL/MOL
REMARK 927      BINDING AFFINITY PREDICTED BY RF-SCORE:    0.00 PKD
ROOT
HETATM    1  C   UNL     1     -12.793   8.153  71.692  1.00  0.00    -0.347 C  
HETATM    2  C   UNL     1     -11.959   9.222  71.005  1.00  0.00    -0.369 C  
ENDROOT
BRANCH   2   3
HETATM    3  C   UNL     1     -10.989   8.615  69.990  1.00  0.00    -0.208 C  
BRANCH   3   4
HETATM    4  C   UNL     1     -11.281   9.125  68.578  1.00  0.00     0.260 C  
BRANCH   4   5
HETATM    5  C   UNL     1     -10.963  10.574  68.435  1.00  0.00    -0.261 A  
HETATM    6  C   UNL     1      -9.919  11.275  67.851  1.00  0.00    -0.189 A  
HETATM    7  C   UNL     1     -11.449  15.069  68.754  1.00  0.00    -0.337 A  
HETATM    8  C   UNL     1     -10.278  12.654  67.941  1.00  0.00    -0.220 A  
HETATM    9  C   UNL     1     -11.416  12.693  68.742  1.00  0.00    -0.306 A  
HETATM   10  C   UNL     1     -10.349  15.078  67.895  1.00  0.00    -0.241 A  
HETATM   11  C   UNL     1      -9.761  13.881  67.470  1.00  0.00    -0.232 A  
HETATM   12  C   UNL     1     -12.024  13.866  69.178  1.00  0.00    -0.404 A  
HETATM   13  O   UNL     1     -11.845  11.433  69.018  1.00  0.00    -0.306 OA 
BRANCH   6  14
HETATM   14  C   UNL     1      -8.746  10.646  67.271  1.00  0.00    -0.129 C  
HETATM   15  O   UNL     1      -8.403  10.875  66.114  1.00  0.00    -0.162 OA 
BRANCH  14  16
HETATM   16  C   UNL     1      -7.963   9.652  68.061  1.00  0.00    -0.097 A  
HETATM   17  I   UNL     1      -7.852   5.411  67.469  1.00  0.00    -0.100 I  
HETATM   18  C   UNL     1      -6.562   7.588  69.455  1.00  0.00    -0.037 A  
HETATM   19  C   UNL     1      -7.968   8.340  67.596  1.00  0.00    -0.118 A  
HETATM   20  C   UNL     1      -6.571   8.926  69.914  1.00  0.00    -0.042 A  
HETATM   21  I   UNL     1      -5.447   9.549  71.593  1.00  0.00     0.004 I  
HETATM   22  C   UNL     1      -7.331   7.305  68.304  1.00  0.00    -0.100 A  
HETATM   23  C   UNL     1      -7.303   9.931  69.258  1.00  0.00    -0.084 A  
BRANCH  18  24
HETATM   24  O   UNL     1      -5.795   6.718  70.210  1.00  0.00    -0.022 OA 
BRANCH  24  25
HETATM   25  C   UNL     1      -6.533   5.712  70.894  1.00  0.00    -0.036 C  
BRANCH  25  26
HETATM   26  C   UNL     1      -6.750   5.925  72.398  1.00  0.00    -0.072 C  
BRANCH  26  27
HETATM   27  N   UNL     1      -8.052   5.344  72.833  1.00  0.00    -0.108 NA 
BRANCH  27  28
HETATM   28  C   UNL     1      -9.207   6.243  72.656  1.00  0.00    -0.142 C  
HETATM   29  C   UNL     1     -10.135   6.372  73.859  1.00  0.00    -0.305 C  
ENDBRANCH  27  28
BRANCH  27  30
HETATM   30  C   UNL     1      -8.246   4.004  72.265  1.00  0.00    -0.097 C  
HETATM   31  C   UNL     1      -8.750   2.969  73.272  1.00  0.00    -0.080 C  
ENDBRANCH  27  30
ENDBRANCH  26  27
ENDBRANCH  25  26
ENDBRANCH  24  25
ENDBRANCH  18  24
ENDBRANCH  14  16
ENDBRANCH   6  14
ENDBRANCH   4   5
ENDBRANCH   3   4
ENDBRANCH   2   3
TORSDOF 11
ENDMDL
MODEL      242
REMARK 921   NORMALIZED FREE ENERGY PREDICTED BY IDOCK:   -2.51 KCAL/MOL
REMARK 922        TOTAL FREE ENERGY PREDICTED BY IDOCK:   -6.28 KCAL/MOL
REMARK 923 INTER-LIGAND FREE ENERGY PREDICTED BY IDOCK:   -4.98 KCAL/MOL
REMARK 924 INTRA-LIGAND FREE ENERGY PREDICTED BY IDOCK:   -1.29 KCAL/MOL
REMARK 927      BINDING AFFINITY PREDICTED BY RF-SCORE:    0.00 PKD
ROOT
HETATM    1  C   UNL     1      -5.129   7.085  71.758  1.00  0.00    -0.028 C  
HETATM    2  C   UNL     1      -5.125   8.596  71.596  1.00  0.00    -0.034 C  
ENDROOT
BRANCH   2   3
HETATM    3  C   UNL     1      -5.448   9.011  70.159  1.00  0.00    -0.027 C  
BRANCH   3   4
HETATM    4  C   UNL     1      -6.951   8.945  69.892  1.00  0.00    -0.050 C  
BRANCH   4   5
HETATM    5  C   UNL     1      -7.254   8.314  68.576  1.00  0.00    -0.088 A  
HETATM    6  C   UNL     1      -8.429   8.016  67.901  1.00  0.00    -0.125 A  
HETATM    7  C   UNL     1      -6.539   6.414  64.524  1.00  0.00    -0.034 A  
HETATM    8  C   UNL     1      -8.029   7.534  66.618  1.00  0.00    -0.110 A  
HETATM    9  C   UNL     1      -6.645   7.396  66.686  1.00  0.00    -0.053 A  
HETATM   10  C   UNL     1      -7.915   6.596  64.385  1.00  0.00    -0.097 A  
HETATM   11  C   UNL     1      -8.671   7.166  65.416  1.00  0.00     0.015 A  
HETATM   12  C   UNL     1      -5.867   6.836  65.677  1.00  0.00    -0.034 A  
HETATM   13  O   UNL     1      -6.175   7.892  67.861  1.00  0.00    -0.047 OA 
BRANCH   6  14
HETATM   14  C   UNL     1      -9.755   8.210  68.460  1.00  0.00    -0.162 C  
HETATM   15  O   UNL     1     -10.343   7.303  69.043  1.00  0.00    -0.195 OA 
BRANCH  14  16
HETATM   16  C   UNL     1     -10.460   9.512  68.279  1.00  0.00    -0.265 A  
HETATM   17  I   UNL     1     -10.445  11.979  64.778  1.00  0.00    -0.388 I  
HETATM   18  C   UNL     1     -11.713  12.022  67.733  1.00  0.00    -0.309 A  
HETATM   19  C   UNL     1     -10.430  10.068  67.003  1.00  0.00    -0.302 A  
HETATM   20  C   UNL     1     -11.730  11.444  69.025  1.00  0.00    -0.343 A  
HETATM   21  I   UNL     1     -12.791  12.312  70.634  1.00  0.00     0.408 I  
HETATM   22  C   UNL     1     -10.992  11.329  66.735  1.00  0.00    -0.281 A  
HETATM   23  C   UNL     1     -11.069  10.235  69.305  1.00  0.00    -0.293 A  
BRANCH  18  24
HETATM   24  O   UNL     1     -12.408  13.213  67.619  1.00  0.00    -0.183 OA 
BRANCH  24  25
HETATM   25  C   UNL     1     -11.592  14.367  67.452  1.00  0.00    -0.375 C  
BRANCH  25  26
HETATM   26  C   UNL     1     -11.900  15.561  68.366  1.00  0.00    -0.224 C  
BRANCH  26  27
HETATM   27  N   UNL     1     -10.642  16.214  68.826  1.00  0.00    -0.262 NA 
BRANCH  27  28
HETATM   28  C   UNL     1     -10.096  17.209  67.884  1.00  0.00    -0.308 C  
HETATM   29  C   UNL     1      -8.579  17.361  67.890  1.00  0.00    -0.232 C  
ENDBRANCH  27  28
BRANCH  27  30
HETATM   30  C   UNL     1     -10.776  16.706  70.203  1.00  0.00    -0.084 C  
HETATM   31  C   UNL     1     -11.704  15.863  71.077  1.00  0.00    -0.473 C  
ENDBRANCH  27  30
ENDBRANCH  26  27
ENDBRANCH  25  26
ENDBRANCH  24  25
ENDBRANCH  18  24
ENDBRANCH  14  16
ENDBRANCH   6  14
ENDBRANCH   4   5
ENDBRANCH   3   4
ENDBRANCH   2   3
TORSDOF 11
ENDMDL
MODEL      243
REMARK 921   NORMALIZED FREE ENERGY PREDICTED BY IDOCK:   -2.47 KCAL/MOL
REMARK 922        TOTAL FREE ENERGY PREDICTED BY IDOCK:   -6.21 KCAL/MOL
REMARK 923 INTER-LIGAND FREE ENERGY PREDICTED BY IDOCK:   -5.47 KCAL/MOL
REMARK 924 INTRA-LIGAND FREE ENERGY PREDICTED BY IDOCK:   -0.74 KCAL/MOL
REMARK 927      BINDING AFFINITY PREDICTED BY RF-SCORE:    0.00 PKD
ROOT
HETATM    1  C   UNL     1     -10.309   8.218  67.691  1.00  0.00    -0.313 C  
HETATM    2  C   UNL     1     -10.064   7.341  66.473  1.00  0.00    -0.163 C  
ENDROOT
BRANCH   2   3
HETATM    3  C   UNL     1      -8.570   7.158  66.201  1.00  0.00    -0.151 C  
BRANCH   3   4
HETATM    4  C   UNL     1      -7.846   8.504  66.180  1.00  0.00    -0.098 C  
BRANCH   4   5
HETATM    5  C   UNL     1      -7.191   8.803  67.485  1.00  0.00    -0.080 A  
HETATM    6  C   UNL     1      -6.919   9.974  68.178  1.00  0.00    -0.075 A  
HETATM    7  C   UNL     1      -5.151   8.075  71.467  1.00  0.00    -0.030 A  
HETATM    8  C   UNL     1      -6.386   9.565  69.438  1.00  0.00    -0.043 A  
HETATM    9  C   UNL     1      -6.196   8.190  69.335  1.00  0.00    -0.034 A  
HETATM   10  C   UNL     1      -5.382   9.439  71.641  1.00  0.00    -0.065 A  
HETATM   11  C   UNL     1      -6.009  10.195  70.644  1.00  0.00    -0.104 A  
HETATM   12  C   UNL     1      -5.579   7.413  70.311  1.00  0.00    -0.024 A  
HETATM   13  O   UNL     1      -6.707   7.726  68.164  1.00  0.00    -0.062 OA 
BRANCH   6  14
HETATM   14  C   UNL     1      -7.179  11.303  67.654  1.00  0.00    -0.092 C  
HETATM   15  O   UNL     1      -6.352  11.892  66.964  1.00  0.00    -0.144 OA 
BRANCH  14  16
HETATM   16  C   UNL     1      -8.446  12.009  68.003  1.00  0.00    -0.168 A  
HETATM   17  I   UNL     1     -11.643  10.510  70.427  1.00  0.00    -0.406 I  
HETATM   18  C   UNL     1     -10.938  13.176  68.772  1.00  0.00    -0.262 A  
HETATM   19  C   UNL     1      -9.279  11.382  68.926  1.00  0.00    -0.035 A  
HETATM   20  C   UNL     1     -10.081  13.798  67.834  1.00  0.00    -0.246 A  
HETATM   21  I   UNL     1     -10.498  15.701  67.015  1.00  0.00    -0.287 I  
HETATM   22  C   UNL     1     -10.534  11.916  69.269  1.00  0.00     0.091 A  
HETATM   23  C   UNL     1      -8.880  13.198  67.416  1.00  0.00    -0.204 A  
BRANCH  18  24
HETATM   24  O   UNL     1     -12.083  13.892  69.079  1.00  0.00    -0.349 OA 
BRANCH  24  25
HETATM   25  C   UNL     1     -11.995  14.683  70.258  1.00  0.00    -0.308 C  
BRANCH  25  26
HETATM   26  C   UNL     1     -13.267  15.433  70.675  1.00  0.00    -0.308 C  
BRANCH  26  27
HETATM   27  N   UNL     1     -13.291  15.655  72.149  1.00  0.00    -0.457 NA 
BRANCH  27  28
HETATM   28  C   UNL     1     -13.783  14.504  72.928  1.00  0.00    -0.227 C  
HETATM   29  C   UNL     1     -13.696  13.149  72.233  1.00  0.00    -0.647 C  
ENDBRANCH  27  28
BRANCH  27  30
HETATM   30  C   UNL     1     -12.009  16.192  72.622  1.00  0.00    -0.551 C  
HETATM   31  C   UNL     1     -11.638  15.759  74.040  1.00  0.00     0.371 C  
ENDBRANCH  27  30
ENDBRANCH  26  27
ENDBRANCH  25  26
ENDBRANCH  24  25
ENDBRANCH  18  24
ENDBRANCH  14  16
ENDBRANCH   6  14
ENDBRANCH   4   5
ENDBRANCH   3   4
ENDBRANCH   2   3
TORSDOF 11
ENDMDL
MODEL      244
REMARK 921   NORMALIZED FREE ENERGY PREDICTED BY IDOCK:   -2.44 KCAL/MOL
REMARK 922        TOTAL FREE ENERGY PREDICTED BY IDOCK:   -6.16 KCAL/MOL
REMARK 923 INTER-LIGAND FREE ENERGY PREDICTED BY IDOCK:   -4.82 KCAL/MOL
REMARK 924 INTRA-LIGAND FREE ENERGY PREDICTED BY IDOCK:   -1.34 KCAL/MOL
REMARK 927      BINDING AFFINITY PREDICTED BY RF-SCORE:    0.00 PKD
ROOT
HETATM    1  C   UNL     1     -10.641   8.117  71.674  1.00  0.00    -0.292 C  
HETATM    2  C   UNL     1     -10.834   7.554  73.073  1.00  0.00    -0.445 C  
ENDROOT
BRANCH   2   3
HETATM    3  C   UNL     1      -9.508   7.447  73.827  1.00  0.00    -0.328 C  
BRANCH   3   4
HETATM    4  C   UNL     1      -8.327   7.397  72.858  1.00  0.00    -0.140 C  
BRANCH   4   5
HETATM    5  C   UNL     1      -7.958   5.997  72.504  1.00  0.00    -0.105 A  
HETATM    6  C   UNL     1      -7.190   5.431  71.498  1.00  0.00    -0.076 A  
HETATM    7  C   UNL     1      -7.703   1.481  72.795  1.00  0.00    -0.036 A  
HETATM    8  C   UNL     1      -7.123   4.037  71.797  1.00  0.00    -0.052 A  
HETATM    9  C   UNL     1      -8.013   3.837  72.849  1.00  0.00    -0.078 A  
HETATM   10  C   UNL     1      -6.753   1.640  71.785  1.00  0.00    -0.019 A  
HETATM   11  C   UNL     1      -6.443   2.910  71.285  1.00  0.00    -0.019 A  
HETATM   12  C   UNL     1      -8.338   2.587  73.368  1.00  0.00    -0.063 A  
HETATM   13  O   UNL     1      -8.498   5.026  73.293  1.00  0.00    -0.110 OA 
BRANCH   6  14
HETATM   14  C   UNL     1      -6.595   6.188  70.411  1.00  0.00    -0.048 C  
HETATM   15  O   UNL     1      -5.419   6.034  70.091  1.00  0.00    -0.012 OA 
BRANCH  14  16
HETATM   16  C   UNL     1      -7.396   7.224  69.696  1.00  0.00    -0.088 A  
HETATM   17  I   UNL     1     -10.901   6.579  67.321  1.00  0.00    -0.327 I  
HETATM   18  C   UNL     1      -9.051   9.044  68.242  1.00  0.00    -0.133 A  
HETATM   19  C   UNL     1      -8.582   6.800  69.103  1.00  0.00    -0.131 A  
HETATM   20  C   UNL     1      -7.841   9.457  68.848  1.00  0.00    -0.083 A  
HETATM   21  I   UNL     1      -7.212  11.474  68.849  1.00  0.00    -0.039 I  
HETATM   22  C   UNL     1      -9.375   7.672  68.336  1.00  0.00    -0.146 A  
HETATM   23  C   UNL     1      -7.001   8.551  69.518  1.00  0.00    -0.048 A  
BRANCH  18  24
HETATM   24  O   UNL     1      -9.765  10.053  67.620  1.00  0.00    -0.153 OA 
BRANCH  24  25
HETATM   25  C   UNL     1      -9.848   9.941  66.204  1.00  0.00    -0.260 C  
BRANCH  25  26
HETATM   26  C   UNL     1     -10.007  11.252  65.422  1.00  0.00    -0.250 C  
BRANCH  26  27
HETATM   27  N   UNL     1      -9.332  11.162  64.096  1.00  0.00    -0.196 NA 
BRANCH  27  28
HETATM   28  C   UNL     1      -8.578   9.913  63.883  1.00  0.00    -0.195 C  
HETATM   29  C   UNL     1      -7.704   9.874  62.634  1.00  0.00    -0.131 C  
ENDBRANCH  27  28
BRANCH  27  30
HETATM   30  C   UNL     1     -10.260  11.492  63.008  1.00  0.00    -0.265 C  
HETATM   31  C   UNL     1     -11.619  12.005  63.484  1.00  0.00    -0.553 C  
ENDBRANCH  27  30
ENDBRANCH  26  27
ENDBRANCH  25  26
ENDBRANCH  24  25
ENDBRANCH  18  24
ENDBRANCH  14  16
ENDBRANCH   6  14
ENDBRANCH   4   5
ENDBRANCH   3   4
ENDBRANCH   2   3
TORSDOF 11
ENDMDL
MODEL      245
REMARK 921   NORMALIZED FREE ENERGY PREDICTED BY IDOCK:   -2.29 KCAL/MOL
REMARK 922        TOTAL FREE ENERGY PREDICTED BY IDOCK:   -5.91 KCAL/MOL
REMARK 923 INTER-LIGAND FREE ENERGY PREDICTED BY IDOCK:   -5.08 KCAL/MOL
REMARK 924 INTRA-LIGAND FREE ENERGY PREDICTED BY IDOCK:   -0.83 KCAL/MOL
REMARK 927      BINDING AFFINITY PREDICTED BY RF-SCORE:    0.00 PKD
ROOT
HETATM    1  C   UNL     1      -6.080  13.489  67.991  1.00  0.00    -0.133 C  
HETATM    2  C   UNL     1      -6.718  12.584  66.950  1.00  0.00     0.222 C  
ENDROOT
BRANCH   2   3
HETATM    3  C   UNL     1      -6.085  11.192  66.948  1.00  0.00    -0.104 C  
BRANCH   3   4
HETATM    4  C   UNL     1      -6.922  10.208  66.130  1.00  0.00    -0.113 C  
BRANCH   4   5
HETATM    5  C   UNL     1      -8.301  10.720  65.887  1.00  0.00    -0.162 A  
HETATM    6  C   UNL     1      -9.386  10.984  66.709  1.00  0.00    -0.199 A  
HETATM    7  C   UNL     1     -11.879  12.350  63.632  1.00  0.00    -0.610 A  
HETATM    8  C   UNL     1     -10.372  11.585  65.870  1.00  0.00    -0.293 A  
HETATM    9  C   UNL     1      -9.884  11.462  64.572  1.00  0.00    -0.260 A  
HETATM   10  C   UNL     1     -12.381  12.554  64.918  1.00  0.00    -0.539 A  
HETATM   11  C   UNL     1     -11.636  12.190  66.045  1.00  0.00    -0.420 A  
HETATM   12  C   UNL     1     -10.600  11.818  63.433  1.00  0.00    -0.479 A  
HETATM   13  O   UNL     1      -8.620  10.963  64.586  1.00  0.00    -0.112 OA 
BRANCH   6  14
HETATM   14  C   UNL     1      -9.414  10.692  68.131  1.00  0.00    -0.154 C  
HETATM   15  O   UNL     1      -9.942  11.459  68.932  1.00  0.00    -0.198 OA 
BRANCH  14  16
HETATM   16  C   UNL     1      -8.739   9.470  68.657  1.00  0.00    -0.127 A  
HETATM   17  I   UNL     1      -5.221   9.322  71.096  1.00  0.00    -0.052 I  
HETATM   18  C   UNL     1      -7.288   7.261  69.745  1.00  0.00    -0.084 A  
HETATM   19  C   UNL     1      -7.690   9.669  69.551  1.00  0.00    -0.109 A  
HETATM   20  C   UNL     1      -8.354   7.078  68.834  1.00  0.00    -0.125 A  
HETATM   21  I   UNL     1      -9.058   5.159  68.294  1.00  0.00    -0.163 I  
HETATM   22  C   UNL     1      -6.931   8.595  70.048  1.00  0.00    -0.043 A  
HETATM   23  C   UNL     1      -9.034   8.165  68.258  1.00  0.00    -0.136 A  
BRANCH  18  24
HETATM   24  O   UNL     1      -6.721   6.092  70.221  1.00  0.00    -0.046 OA 
BRANCH  24  25
HETATM   25  C   UNL     1      -6.756   5.944  71.636  1.00  0.00    -0.059 C  
BRANCH  25  26
HETATM   26  C   UNL     1      -8.144   5.808  72.276  1.00  0.00    -0.107 C  
BRANCH  26  27
HETATM   27  N   UNL     1      -8.275   4.505  72.985  1.00  0.00    -0.099 NA 
BRANCH  27  28
HETATM   28  C   UNL     1      -7.502   4.414  74.236  1.00  0.00    -0.077 C  
HETATM   29  C   UNL     1      -6.402   3.358  74.259  1.00  0.00    -0.025 C  
ENDBRANCH  27  28
BRANCH  27  30
HETATM   30  C   UNL     1      -9.686   4.121  73.126  1.00  0.00    -0.125 C  
HETATM   31  C   UNL     1      -9.901   2.806  73.875  1.00  0.00    -0.144 C  
ENDBRANCH  27  30
ENDBRANCH  26  27
ENDBRANCH  25  26
ENDBRANCH  24  25
ENDBRANCH  18  24
ENDBRANCH  14  16
ENDBRANCH   6  14
ENDBRANCH   4   5
ENDBRANCH   3   4
ENDBRANCH   2   3
TORSDOF 11
ENDMDL
MODEL      246
REMARK 921   NORMALIZED FREE ENERGY PREDICTED BY IDOCK:   -2.25 KCAL/MOL
REMARK 922        TOTAL FREE ENERGY PREDICTED BY IDOCK:   -5.85 KCAL/MOL
REMARK 923 INTER-LIGAND FREE ENERGY PREDICTED BY IDOCK:   -4.10 KCAL/MOL
REMARK 924 INTRA-LIGAND FREE ENERGY PREDICTED BY IDOCK:   -1.75 KCAL/MOL
REMARK 927      BINDING AFFINITY PREDICTED BY RF-SCORE:    0.00 PKD
ROOT
HETATM    1  C   UNL     1      -9.091   3.925  69.554  1.00  0.00    -0.196 C  
HETATM    2  C   UNL     1      -7.573   3.853  69.539  1.00  0.00    -0.053 C  
ENDROOT
BRANCH   2   3
HETATM    3  C   UNL     1      -7.062   2.948  68.417  1.00  0.00    -0.049 C  
BRANCH   3   4
HETATM    4  C   UNL     1      -6.492   3.770  67.262  1.00  0.00    -0.038 C  
BRANCH   4   5
HETATM    5  C   UNL     1      -7.436   3.838  66.110  1.00  0.00    -0.080 A  
HETATM    6  C   UNL     1      -7.744   4.817  65.177  1.00  0.00    -0.086 A  
HETATM    7  C   UNL     1     -10.546   2.500  63.097  1.00  0.00    -0.199 A  
HETATM    8  C   UNL     1      -8.641   4.203  64.252  1.00  0.00    -0.112 A  
HETATM    9  C   UNL     1      -8.958   2.965  64.803  1.00  0.00    -0.127 A  
HETATM   10  C   UNL     1     -10.211   3.702  62.473  1.00  0.00    -0.160 A  
HETATM   11  C   UNL     1      -9.253   4.557  63.030  1.00  0.00    -0.104 A  
HETATM   12  C   UNL     1      -9.903   2.093  64.271  1.00  0.00    -0.052 A  
HETATM   13  O   UNL     1      -8.208   2.734  65.913  1.00  0.00    -0.085 OA 
BRANCH   6  14
HETATM   14  C   UNL     1      -7.197   6.162  65.204  1.00  0.00    -0.070 C  
HETATM   15  O   UNL     1      -6.252   6.483  64.489  1.00  0.00    -0.036 OA 
BRANCH  14  16
HETATM   16  C   UNL     1      -7.741   7.171  66.159  1.00  0.00    -0.098 A  
HETATM   17  I   UNL     1      -6.357  11.184  66.726  1.00  0.00    -0.111 I  
HETATM   18  C   UNL     1      -8.620   9.238  67.925  1.00  0.00    -0.120 A  
HETATM   19  C   UNL     1      -7.226   8.461  66.068  1.00  0.00    -0.073 A  
HETATM   20  C   UNL     1      -9.130   7.921  68.006  1.00  0.00    -0.132 A  
HETATM   21  I   UNL     1     -10.677   7.391  69.345  1.00  0.00    -0.088 I  
HETATM   22  C   UNL     1      -7.606   9.472  66.968  1.00  0.00    -0.091 A  
HETATM   23  C   UNL     1      -8.660   6.891  67.172  1.00  0.00    -0.121 A  
BRANCH  18  24
HETATM   24  O   UNL     1      -9.183  10.136  68.815  1.00  0.00    -0.149 OA 
BRANCH  24  25
HETATM   25  C   UNL     1     -10.229  10.936  68.275  1.00  0.00    -0.173 C  
BRANCH  25  26
HETATM   26  C   UNL     1     -10.031  12.456  68.339  1.00  0.00    -0.210 C  
BRANCH  26  27
HETATM   27  N   UNL     1      -9.838  13.023  66.975  1.00  0.00    -0.233 NA 
BRANCH  27  28
HETATM   28  C   UNL     1     -11.069  13.088  66.165  1.00  0.00    -0.287 C  
HETATM   29  C   UNL     1     -10.865  13.149  64.655  1.00  0.00    -0.383 C  
ENDBRANCH  27  28
BRANCH  27  30
HETATM   30  C   UNL     1      -9.092  14.286  67.029  1.00  0.00    -0.233 C  
HETATM   31  C   UNL     1      -8.183  14.420  68.251  1.00  0.00    -0.149 C  
ENDBRANCH  27  30
ENDBRANCH  26  27
ENDBRANCH  25  26
ENDBRANCH  24  25
ENDBRANCH  18  24
ENDBRANCH  14  16
ENDBRANCH   6  14
ENDBRANCH   4   5
ENDBRANCH   3   4
ENDBRANCH   2   3
TORSDOF 11
ENDMDL
MODEL      247
REMARK 921   NORMALIZED FREE ENERGY PREDICTED BY IDOCK:   -2.23 KCAL/MOL
REMARK 922        TOTAL FREE ENERGY PREDICTED BY IDOCK:   -5.82 KCAL/MOL
REMARK 923 INTER-LIGAND FREE ENERGY PREDICTED BY IDOCK:   -4.90 KCAL/MOL
REMARK 924 INTRA-LIGAND FREE ENERGY PREDICTED BY IDOCK:   -0.91 KCAL/MOL
REMARK 927      BINDING AFFINITY PREDICTED BY RF-SCORE:    0.00 PKD
ROOT
HETATM    1  C   UNL     1     -12.187  14.018  66.674  1.00  0.00    -0.463 C  
HETATM    2  C   UNL     1     -11.651  12.617  66.425  1.00  0.00    -0.441 C  
ENDROOT
BRANCH   2   3
HETATM    3  C   UNL     1     -11.062  12.004  67.696  1.00  0.00    -0.319 C  
BRANCH   3   4
HETATM    4  C   UNL     1     -10.398  10.660  67.402  1.00  0.00    -0.262 C  
BRANCH   4   5
HETATM    5  C   UNL     1     -10.575   9.695  68.525  1.00  0.00    -0.220 A  
HETATM    6  C   UNL     1     -10.560   8.312  68.614  1.00  0.00    -0.144 A  
HETATM    7  C   UNL     1     -11.211   8.184  72.750  1.00  0.00    -0.407 A  
HETATM    8  C   UNL     1     -10.662   8.011  70.006  1.00  0.00    -0.244 A  
HETATM    9  C   UNL     1     -10.924   9.225  70.633  1.00  0.00    -0.276 A  
HETATM   10  C   UNL     1     -10.887   6.954  72.177  1.00  0.00    -0.256 A  
HETATM   11  C   UNL     1     -10.597   6.853  70.812  1.00  0.00    -0.245 A  
HETATM   12  C   UNL     1     -11.212   9.357  71.988  1.00  0.00    -0.066 A  
HETATM   13  O   UNL     1     -10.845  10.247  69.740  1.00  0.00    -0.247 OA 
BRANCH   6  14
HETATM   14  C   UNL     1     -10.440   7.428  67.468  1.00  0.00    -0.268 C  
HETATM   15  O   UNL     1     -11.406   6.805  67.036  1.00  0.00    -0.337 OA 
BRANCH  14  16
HETATM   16  C   UNL     1      -9.110   7.211  66.828  1.00  0.00    -0.169 A  
HETATM   17  I   UNL     1      -8.155   7.640  62.675  1.00  0.00     0.073 I  
HETATM   18  C   UNL     1      -6.661   6.832  65.405  1.00  0.00    -0.050 A  
HETATM   19  C   UNL     1      -9.001   7.551  65.482  1.00  0.00     0.056 A  
HETATM   20  C   UNL     1      -6.791   6.490  66.772  1.00  0.00    -0.066 A  
HETATM   21  I   UNL     1      -5.159   5.793  67.920  1.00  0.00    -0.004 I  
HETATM   22  C   UNL     1      -7.820   7.315  64.756  1.00  0.00    -0.126 A  
HETATM   23  C   UNL     1      -8.010   6.627  67.458  1.00  0.00    -0.115 A  
BRANCH  18  24
HETATM   24  O   UNL     1      -5.398   6.638  64.874  1.00  0.00    -0.024 OA 
BRANCH  24  25
HETATM   25  C   UNL     1      -5.253   5.458  64.093  1.00  0.00    -0.010 C  
BRANCH  25  26
HETATM   26  C   UNL     1      -6.541   4.685  63.775  1.00  0.00    -0.041 C  
BRANCH  26  27
HETATM   27  N   UNL     1      -6.539   3.354  64.446  1.00  0.00    -0.034 NA 
BRANCH  27  28
HETATM   28  C   UNL     1      -5.209   2.904  64.896  1.00  0.00    -0.009 C  
HETATM   29  C   UNL     1      -5.206   1.811  65.959  1.00  0.00    -0.005 C  
ENDBRANCH  27  28
BRANCH  27  30
HETATM   30  C   UNL     1      -7.576   3.285  65.483  1.00  0.00    -0.077 C  
HETATM   31  C   UNL     1      -8.627   2.202  65.240  1.00  0.00    -0.109 C  
ENDBRANCH  27  30
ENDBRANCH  26  27
ENDBRANCH  25  26
ENDBRANCH  24  25
ENDBRANCH  18  24
ENDBRANCH  14  16
ENDBRANCH   6  14
ENDBRANCH   4   5
ENDBRANCH   3   4
ENDBRANCH   2   3
TORSDOF 11
ENDMDL
MODEL      248
REMARK 921   NORMALIZED FREE ENERGY PREDICTED BY IDOCK:   -2.22 KCAL/MOL
REMARK 922        TOTAL FREE ENERGY PREDICTED BY IDOCK:   -5.80 KCAL/MOL
REMARK 923 INTER-LIGAND FREE ENERGY PREDICTED BY IDOCK:   -5.08 KCAL/MOL
REMARK 924 INTRA-LIGAND FREE ENERGY PREDICTED BY IDOCK:   -0.71 KCAL/MOL
REMARK 927      BINDING AFFINITY PREDICTED BY RF-SCORE:    0.00 PKD
ROOT
HETATM    1  C   UNL     1      -9.430  18.963  68.769  1.00  0.00    -0.407 C  
HETATM    2  C   UNL     1     -10.555  18.642  67.798  1.00  0.00    -0.433 C  
ENDROOT
BRANCH   2   3
HETATM    3  C   UNL     1     -11.136  17.249  68.047  1.00  0.00    -0.065 C  
BRANCH   3   4
HETATM    4  C   UNL     1     -10.678  16.696  69.397  1.00  0.00    -0.331 C  
BRANCH   4   5
HETATM    5  C   UNL     1     -10.899  15.225  69.497  1.00  0.00    -0.271 A  
HETATM    6  C   UNL     1     -10.274  14.120  68.940  1.00  0.00    -0.181 A  
HETATM    7  C   UNL     1     -12.715  11.296  70.841  1.00  0.00    -0.412 A  
HETATM    8  C   UNL     1     -10.887  12.981  69.545  1.00  0.00     0.139 A  
HETATM    9  C   UNL     1     -11.964  13.478  70.273  1.00  0.00    -0.316 A  
HETATM   10  C   UNL     1     -11.612  10.756  70.180  1.00  0.00    -0.424 A  
HETATM   11  C   UNL     1     -10.683  11.583  69.539  1.00  0.00    -0.054 A  
HETATM   12  C   UNL     1     -12.901  12.680  70.923  1.00  0.00    -0.178 A  
HETATM   13  O   UNL     1     -11.955  14.837  70.265  1.00  0.00    -0.273 OA 
BRANCH   6  14
HETATM   14  C   UNL     1      -9.204  14.202  67.962  1.00  0.00    -0.195 C  
HETATM   15  O   UNL     1      -8.867  15.276  67.470  1.00  0.00    -0.170 OA 
BRANCH  14  16
HETATM   16  C   UNL     1      -8.529  12.960  67.486  1.00  0.00    -0.186 A  
HETATM   17  I   UNL     1      -9.736  10.466  64.220  1.00  0.00    -0.224 I  
HETATM   18  C   UNL     1      -7.402  10.555  66.431  1.00  0.00    -0.129 A  
HETATM   19  C   UNL     1      -9.018  12.391  66.313  1.00  0.00    -0.041 A  
HETATM   20  C   UNL     1      -6.920  11.145  67.623  1.00  0.00    -0.084 A  
HETATM   21  I   UNL     1      -5.244  10.381  68.660  1.00  0.00    -0.036 I  
HETATM   22  C   UNL     1      -8.512  11.177  65.815  1.00  0.00    -0.076 A  
HETATM   23  C   UNL     1      -7.508  12.298  68.170  1.00  0.00    -0.112 A  
BRANCH  18  24
HETATM   24  O   UNL     1      -6.718   9.423  66.023  1.00  0.00    -0.078 OA 
BRANCH  24  25
HETATM   25  C   UNL     1      -7.385   8.195  66.287  1.00  0.00    -0.078 C  
BRANCH  25  26
HETATM   26  C   UNL     1      -6.511   7.031  66.774  1.00  0.00    -0.051 C  
BRANCH  26  27
HETATM   27  N   UNL     1      -7.285   6.124  67.666  1.00  0.00    -0.077 NA 
BRANCH  27  28
HETATM   28  C   UNL     1      -6.512   4.983  68.189  1.00  0.00    -0.041 C  
HETATM   29  C   UNL     1      -6.799   3.634  67.537  1.00  0.00    -0.050 C  
ENDBRANCH  27  28
BRANCH  27  30
HETATM   30  C   UNL     1      -8.001   6.884  68.699  1.00  0.00    -0.120 C  
HETATM   31  C   UNL     1      -8.432   6.046  69.902  1.00  0.00    -0.130 C  
ENDBRANCH  27  30
ENDBRANCH  26  27
ENDBRANCH  25  26
ENDBRANCH  24  25
ENDBRANCH  18  24
ENDBRANCH  14  16
ENDBRANCH   6  14
ENDBRANCH   4   5
ENDBRANCH   3   4
ENDBRANCH   2   3
TORSDOF 11
ENDMDL
MODEL      249
REMARK 921   NORMALIZED FREE ENERGY PREDICTED BY IDOCK:   -2.22 KCAL/MOL
REMARK 922        TOTAL FREE ENERGY PREDICTED BY IDOCK:   -5.79 KCAL/MOL
REMARK 923 INTER-LIGAND FREE ENERGY PREDICTED BY IDOCK:   -6.04 KCAL/MOL
REMARK 924 INTRA-LIGAND FREE ENERGY PREDICTED BY IDOCK:    0.24 KCAL/MOL
REMARK 927      BINDING AFFINITY PREDICTED BY RF-SCORE:    0.00 PKD
ROOT
HETATM    1  C   UNL     1     -10.419  17.341  69.137  1.00  0.00    -0.263 C  
HETATM    2  C   UNL     1     -10.495  17.666  67.654  1.00  0.00    -0.372 C  
ENDROOT
BRANCH   2   3
HETATM    3  C   UNL     1      -9.105  17.848  67.044  1.00  0.00    -0.256 C  
BRANCH   3   4
HETATM    4  C   UNL     1      -8.323  16.534  67.053  1.00  0.00    -0.220 C  
BRANCH   4   5
HETATM    5  C   UNL     1      -9.140  15.399  66.536  1.00  0.00    -0.300 A  
HETATM    6  C   UNL     1      -9.014  14.019  66.599  1.00  0.00    -0.177 A  
HETATM    7  C   UNL     1     -12.545  13.215  64.493  1.00  0.00    -0.344 A  
HETATM    8  C   UNL     1     -10.206  13.494  66.014  1.00  0.00    -0.308 A  
HETATM    9  C   UNL     1     -10.871  14.590  65.470  1.00  0.00    -0.336 A  
HETATM   10  C   UNL     1     -11.951  12.095  65.076  1.00  0.00    -0.343 A  
HETATM   11  C   UNL     1     -10.791  12.219  65.849  1.00  0.00    -0.306 A  
HETATM   12  C   UNL     1     -12.026  14.498  64.701  1.00  0.00    -0.478 A  
HETATM   13  O   UNL     1     -10.238  15.744  65.809  1.00  0.00    -0.320 OA 
BRANCH   6  14
HETATM   14  C   UNL     1      -7.873  13.335  67.180  1.00  0.00    -0.033 C  
HETATM   15  O   UNL     1      -6.724  13.602  66.838  1.00  0.00     0.159 OA 
BRANCH  14  16
HETATM   16  C   UNL     1      -8.083  12.239  68.170  1.00  0.00    -0.158 A  
HETATM   17  I   UNL     1     -11.805  11.012  69.898  1.00  0.00    -0.487 I  
HETATM   18  C   UNL     1      -8.698  10.200  70.075  1.00  0.00     0.027 A  
HETATM   19  C   UNL     1      -9.402  11.923  68.483  1.00  0.00    -0.142 A  
HETATM   20  C   UNL     1      -7.364  10.537  69.747  1.00  0.00    -0.134 A  
HETATM   21  I   UNL     1      -5.709   9.481  70.530  1.00  0.00    -0.071 I  
HETATM   22  C   UNL     1      -9.717  10.963  69.462  1.00  0.00     0.111 A  
HETATM   23  C   UNL     1      -7.060  11.575  68.849  1.00  0.00    -0.111 A  
BRANCH  18  24
HETATM   24  O   UNL     1      -8.831   9.156  70.975  1.00  0.00    -0.215 OA 
BRANCH  24  25
HETATM   25  C   UNL     1      -9.640   8.077  70.523  1.00  0.00    -0.170 C  
BRANCH  25  26
HETATM   26  C   UNL     1      -9.980   6.997  71.558  1.00  0.00    -0.180 C  
BRANCH  26  27
HETATM   27  N   UNL     1      -8.740   6.397  72.125  1.00  0.00    -0.132 NA 
BRANCH  27  28
HETATM   28  C   UNL     1      -8.747   6.265  73.594  1.00  0.00    -0.124 C  
HETATM   29  C   UNL     1      -7.689   7.075  74.335  1.00  0.00    -0.135 C  
ENDBRANCH  27  28
BRANCH  27  30
HETATM   30  C   UNL     1      -8.380   5.162  71.417  1.00  0.00    -0.119 C  
HETATM   31  C   UNL     1      -8.530   3.895  72.259  1.00  0.00    -0.098 C  
ENDBRANCH  27  30
ENDBRANCH  26  27
ENDBRANCH  25  26
ENDBRANCH  24  25
ENDBRANCH  18  24
ENDBRANCH  14  16
ENDBRANCH   6  14
ENDBRANCH   4   5
ENDBRANCH   3   4
ENDBRANCH   2   3
TORSDOF 11
ENDMDL
MODEL      250
REMARK 921   NORMALIZED FREE ENERGY PREDICTED BY IDOCK:   -2.19 KCAL/MOL
REMARK 922        TOTAL FREE ENERGY PREDICTED BY IDOCK:   -5.74 KCAL/MOL
REMARK 923 INTER-LIGAND FREE ENERGY PREDICTED BY IDOCK:   -5.46 KCAL/MOL
REMARK 924 INTRA-LIGAND FREE ENERGY PREDICTED BY IDOCK:   -0.28 KCAL/MOL
REMARK 927      BINDING AFFINITY PREDICTED BY RF-SCORE:    0.00 PKD
ROOT
HETATM    1  C   UNL     1      -9.022  18.504  68.328  1.00  0.00    -0.332 C  
HETATM    2  C   UNL     1     -10.127  18.171  67.339  1.00  0.00    -0.359 C  
ENDROOT
BRANCH   2   3
HETATM    3  C   UNL     1     -10.762  16.813  67.638  1.00  0.00    -0.305 C  
BRANCH   3   4
HETATM    4  C   UNL     1     -10.353  16.307  69.022  1.00  0.00    -0.264 C  
BRANCH   4   5
HETATM    5  C   UNL     1     -10.730  14.879  69.225  1.00  0.00    -0.249 A  
HETATM    6  C   UNL     1     -10.210  13.675  68.775  1.00  0.00    -0.155 A  
HETATM    7  C   UNL     1     -12.986  11.276  70.796  1.00  0.00    -0.171 A  
HETATM    8  C   UNL     1     -10.956  12.656  69.442  1.00  0.00    -0.042 A  
HETATM    9  C   UNL     1     -11.994  13.318  70.092  1.00  0.00    -0.318 A  
HETATM   10  C   UNL     1     -11.928  10.575  70.217  1.00  0.00    -0.411 A  
HETATM   11  C   UNL     1     -10.900  11.250  69.548  1.00  0.00    -0.207 A  
HETATM   12  C   UNL     1     -13.027  12.674  70.766  1.00  0.00     0.019 A  
HETATM   13  O   UNL     1     -11.842  14.664  69.982  1.00  0.00    -0.272 OA 
BRANCH   6  14
HETATM   14  C   UNL     1      -9.111  13.570  67.832  1.00  0.00    -0.204 C  
HETATM   15  O   UNL     1      -8.615  14.567  67.312  1.00  0.00    -0.190 OA 
BRANCH  14  16
HETATM   16  C   UNL     1      -8.601  12.229  67.425  1.00  0.00    -0.178 A  
HETATM   17  I   UNL     1      -9.524  10.110  63.819  1.00  0.00    -0.000 I  
HETATM   18  C   UNL     1      -7.756   9.671  66.470  1.00  0.00    -0.098 A  
HETATM   19  C   UNL     1      -8.922  11.800  66.140  1.00  0.00    -0.145 A  
HETATM   20  C   UNL     1      -7.441  10.123  67.773  1.00  0.00    -0.089 A  
HETATM   21  I   UNL     1      -6.212   9.011  69.085  1.00  0.00    -0.043 I  
HETATM   22  C   UNL     1      -8.563  10.520  65.679  1.00  0.00    -0.175 A  
HETATM   23  C   UNL     1      -7.901  11.358  68.262  1.00  0.00    -0.132 A  
BRANCH  18  24
HETATM   24  O   UNL     1      -7.231   8.434  66.139  1.00  0.00    -0.075 OA 
BRANCH  24  25
HETATM   25  C   UNL     1      -8.148   7.351  66.235  1.00  0.00    -0.117 C  
BRANCH  25  26
HETATM   26  C   UNL     1      -8.238   6.420  65.018  1.00  0.00    -0.125 C  
BRANCH  26  27
HETATM   27  N   UNL     1      -8.603   5.037  65.435  1.00  0.00    -0.137 NA 
BRANCH  27  28
HETATM   28  C   UNL     1      -9.863   4.945  66.195  1.00  0.00    -0.207 C  
HETATM   29  C   UNL     1      -9.716   4.689  67.691  1.00  0.00    -0.207 C  
ENDBRANCH  27  28
BRANCH  27  30
HETATM   30  C   UNL     1      -8.519   4.106  64.303  1.00  0.00    -0.105 C  
HETATM   31  C   UNL     1      -9.870   3.775  63.668  1.00  0.00    -0.168 C  
ENDBRANCH  27  30
ENDBRANCH  26  27
ENDBRANCH  25  26
ENDBRANCH  24  25
ENDBRANCH  18  24
ENDBRANCH  14  16
ENDBRANCH   6  14
ENDBRANCH   4   5
ENDBRANCH   3   4
ENDBRANCH   2   3
TORSDOF 11
ENDMDL
MODEL      251
REMARK 921   NORMALIZED FREE ENERGY PREDICTED BY IDOCK:   -2.18 KCAL/MOL
REMARK 922        TOTAL FREE ENERGY PREDICTED BY IDOCK:   -5.74 KCAL/MOL
REMARK 923 INTER-LIGAND FREE ENERGY PREDICTED BY IDOCK:   -4.27 KCAL/MOL
REMARK 924 INTRA-LIGAND FREE ENERGY PREDICTED BY IDOCK:   -1.47 KCAL/MOL
REMARK 927      BINDING AFFINITY PREDICTED BY RF-SCORE:    0.00 PKD
ROOT
HETATM    1  C   UNL     1     -10.756   9.425  67.292  1.00  0.00    -0.258 C  
HETATM    2  C   UNL     1      -9.894   8.885  66.162  1.00  0.00    -0.326 C  
ENDROOT
BRANCH   2   3
HETATM    3  C   UNL     1      -8.419   9.239  66.359  1.00  0.00    -0.128 C  
BRANCH   3   4
HETATM    4  C   UNL     1      -8.117  10.644  65.838  1.00  0.00    -0.159 C  
BRANCH   4   5
HETATM    5  C   UNL     1      -7.752  11.579  66.941  1.00  0.00    -0.157 A  
HETATM    6  C   UNL     1      -6.929  11.477  68.053  1.00  0.00    -0.077 A  
HETATM    7  C   UNL     1      -7.602  15.390  69.390  1.00  0.00    -0.224 A  
HETATM    8  C   UNL     1      -6.909  12.778  68.641  1.00  0.00    -0.099 A  
HETATM    9  C   UNL     1      -7.870  13.514  67.955  1.00  0.00    -0.159 A  
HETATM   10  C   UNL     1      -6.585  14.715  70.064  1.00  0.00    -0.161 A  
HETATM   11  C   UNL     1      -6.218  13.415  69.695  1.00  0.00    -0.120 A  
HETATM   12  C   UNL     1      -8.253  14.807  68.297  1.00  0.00    -0.142 A  
HETATM   13  O   UNL     1      -8.361  12.796  66.910  1.00  0.00    -0.155 OA 
BRANCH   6  14
HETATM   14  C   UNL     1      -6.250  10.256  68.449  1.00  0.00    -0.047 C  
HETATM   15  O   UNL     1      -5.158   9.949  67.977  1.00  0.00    -0.036 OA 
BRANCH  14  16
HETATM   16  C   UNL     1      -6.904   9.311  69.400  1.00  0.00    -0.049 A  
HETATM   17  I   UNL     1      -5.413   5.506  70.679  1.00  0.00    -0.009 I  
HETATM   18  C   UNL     1      -7.993   7.359  71.180  1.00  0.00    -0.100 A  
HETATM   19  C   UNL     1      -6.165   8.195  69.781  1.00  0.00    -0.029 A  
HETATM   20  C   UNL     1      -8.730   8.498  70.780  1.00  0.00    -0.160 A  
HETATM   21  I   UNL     1     -10.647   8.930  71.558  1.00  0.00    -0.410 I  
HETATM   22  C   UNL     1      -6.710   7.198  70.609  1.00  0.00    -0.052 A  
HETATM   23  C   UNL     1      -8.215   9.431  69.863  1.00  0.00    -0.155 A  
BRANCH  18  24
HETATM   24  O   UNL     1      -8.639   6.536  72.086  1.00  0.00    -0.124 OA 
BRANCH  24  25
HETATM   25  C   UNL     1      -7.985   6.400  73.342  1.00  0.00    -0.096 C  
BRANCH  25  26
HETATM   26  C   UNL     1      -8.672   5.502  74.379  1.00  0.00    -0.117 C  
BRANCH  26  27
HETATM   27  N   UNL     1      -9.097   4.213  73.764  1.00  0.00    -0.094 NA 
BRANCH  27  28
HETATM   28  C   UNL     1      -8.014   3.224  73.617  1.00  0.00    -0.073 C  
HETATM   29  C   UNL     1      -7.848   2.626  72.224  1.00  0.00    -0.054 C  
ENDBRANCH  27  28
BRANCH  27  30
HETATM   30  C   UNL     1     -10.300   3.686  74.421  1.00  0.00    -0.198 C  
HETATM   31  C   UNL     1     -11.226   2.903  73.490  1.00  0.00    -0.301 C  
ENDBRANCH  27  30
ENDBRANCH  26  27
ENDBRANCH  25  26
ENDBRANCH  24  25
ENDBRANCH  18  24
ENDBRANCH  14  16
ENDBRANCH   6  14
ENDBRANCH   4   5
ENDBRANCH   3   4
ENDBRANCH   2   3
TORSDOF 11
ENDMDL
MODEL      252
REMARK 921   NORMALIZED FREE ENERGY PREDICTED BY IDOCK:   -2.17 KCAL/MOL
REMARK 922        TOTAL FREE ENERGY PREDICTED BY IDOCK:   -5.72 KCAL/MOL
REMARK 923 INTER-LIGAND FREE ENERGY PREDICTED BY IDOCK:   -5.48 KCAL/MOL
REMARK 924 INTRA-LIGAND FREE ENERGY PREDICTED BY IDOCK:   -0.24 KCAL/MOL
REMARK 927      BINDING AFFINITY PREDICTED BY RF-SCORE:    0.00 PKD
ROOT
HETATM    1  C   UNL     1      -5.221  15.196  69.528  1.00  0.00    -0.089 C  
HETATM    2  C   UNL     1      -6.343  15.589  68.581  1.00  0.00    -0.099 C  
ENDROOT
BRANCH   2   3
HETATM    3  C   UNL     1      -5.802  16.052  67.227  1.00  0.00    -0.081 C  
BRANCH   3   4
HETATM    4  C   UNL     1      -6.941  16.350  66.253  1.00  0.00     0.398 C  
BRANCH   4   5
HETATM    5  C   UNL     1      -7.923  17.315  66.825  1.00  0.00    -0.241 A  
HETATM    6  C   UNL     1      -9.285  17.515  66.654  1.00  0.00    -0.277 A  
HETATM    7  C   UNL     1      -9.553  20.691  69.373  1.00  0.00     0.944 A  
HETATM    8  C   UNL     1      -9.651  18.524  67.596  1.00  0.00    -0.304 A  
HETATM    9  C   UNL     1      -8.452  18.992  68.127  1.00  0.00    -0.316 A  
HETATM   10  C   UNL     1     -10.782  20.212  68.919  1.00  0.00     0.343 A  
HETATM   11  C   UNL     1     -10.849  19.123  68.042  1.00  0.00    -0.195 A  
HETATM   12  C   UNL     1      -8.355  20.070  69.002  1.00  0.00     0.139 A  
HETATM   13  O   UNL     1      -7.410  18.243  67.680  1.00  0.00    -0.208 OA 
BRANCH   6  14
HETATM   14  C   UNL     1     -10.097  16.783  65.699  1.00  0.00    -0.189 C  
HETATM   15  O   UNL     1     -10.786  17.364  64.865  1.00  0.00    -0.814 OA 
BRANCH  14  16
HETATM   16  C   UNL     1     -10.157  15.293  65.755  1.00  0.00    -0.384 A  
HETATM   17  I   UNL     1      -7.976  12.730  68.405  1.00  0.00    -0.003 I  
HETATM   18  C   UNL     1     -10.111  12.448  66.016  1.00  0.00    -0.251 A  
HETATM   19  C   UNL     1      -9.468  14.678  66.797  1.00  0.00    -0.275 A  
HETATM   20  C   UNL     1     -10.803  13.090  64.962  1.00  0.00    -0.308 A  
HETATM   21  I   UNL     1     -11.971  12.019  63.563  1.00  0.00    -0.304 I  
HETATM   22  C   UNL     1      -9.389  13.278  66.903  1.00  0.00    -0.244 A  
HETATM   23  C   UNL     1     -10.782  14.487  64.803  1.00  0.00    -0.414 A  
BRANCH  18  24
HETATM   24  O   UNL     1     -10.227  11.069  66.034  1.00  0.00    -0.237 OA 
BRANCH  24  25
HETATM   25  C   UNL     1     -10.909  10.542  67.166  1.00  0.00    -0.259 C  
BRANCH  25  26
HETATM   26  C   UNL     1     -11.905  11.478  67.863  1.00  0.00    -0.184 C  
BRANCH  26  27
HETATM   27  N   UNL     1     -12.075  11.100  69.294  1.00  0.00    -0.357 NA 
BRANCH  27  28
HETATM   28  C   UNL     1     -11.133  10.068  69.765  1.00  0.00    -0.274 C  
HETATM   29  C   UNL     1     -11.631   9.189  70.907  1.00  0.00    -0.350 C  
ENDBRANCH  27  28
BRANCH  27  30
HETATM   30  C   UNL     1     -12.134  12.291  70.151  1.00  0.00    -0.287 C  
HETATM   31  C   UNL     1     -12.135  13.612  69.381  1.00  0.00    -0.364 C  
ENDBRANCH  27  30
ENDBRANCH  26  27
ENDBRANCH  25  26
ENDBRANCH  24  25
ENDBRANCH  18  24
ENDBRANCH  14  16
ENDBRANCH   6  14
ENDBRANCH   4   5
ENDBRANCH   3   4
ENDBRANCH   2   3
TORSDOF 11
ENDMDL
MODEL      253
REMARK 921   NORMALIZED FREE ENERGY PREDICTED BY IDOCK:   -2.05 KCAL/MOL
REMARK 922        TOTAL FREE ENERGY PREDICTED BY IDOCK:   -5.51 KCAL/MOL
REMARK 923 INTER-LIGAND FREE ENERGY PREDICTED BY IDOCK:   -4.89 KCAL/MOL
REMARK 924 INTRA-LIGAND FREE ENERGY PREDICTED BY IDOCK:   -0.61 KCAL/MOL
REMARK 927      BINDING AFFINITY PREDICTED BY RF-SCORE:    0.00 PKD
ROOT
HETATM    1  C   UNL     1     -10.940   6.158  66.840  1.00  0.00    -0.384 C  
HETATM    2  C   UNL     1     -10.408   4.757  67.094  1.00  0.00    -0.140 C  
ENDROOT
BRANCH   2   3
HETATM    3  C   UNL     1      -8.922   4.775  67.454  1.00  0.00    -0.115 C  
BRANCH   3   4
HETATM    4  C   UNL     1      -8.272   6.095  67.041  1.00  0.00    -0.106 C  
BRANCH   4   5
HETATM    5  C   UNL     1      -7.751   6.849  68.217  1.00  0.00    -0.113 A  
HETATM    6  C   UNL     1      -7.085   8.056  68.365  1.00  0.00    -0.084 A  
HETATM    7  C   UNL     1      -6.868   7.867  72.544  1.00  0.00    -0.079 A  
HETATM    8  C   UNL     1      -6.985   8.275  69.772  1.00  0.00    -0.048 A  
HETATM    9  C   UNL     1      -7.424   7.095  70.366  1.00  0.00    -0.084 A  
HETATM   10  C   UNL     1      -6.481   9.091  71.999  1.00  0.00     0.019 A  
HETATM   11  C   UNL     1      -6.545   9.316  70.619  1.00  0.00    -0.079 A  
HETATM   12  C   UNL     1      -7.374   6.844  71.734  1.00  0.00    -0.084 A  
HETATM   13  O   UNL     1      -7.911   6.243  69.425  1.00  0.00    -0.100 OA 
BRANCH   6  14
HETATM   14  C   UNL     1      -6.638   8.876  67.253  1.00  0.00    -0.062 C  
HETATM   15  O   UNL     1      -5.585   8.639  66.665  1.00  0.00    -0.038 OA 
BRANCH  14  16
HETATM   16  C   UNL     1      -7.427  10.073  66.841  1.00  0.00    -0.095 A  
HETATM   17  I   UNL     1      -7.583  13.862  68.831  1.00  0.00     0.148 I  
HETATM   18  C   UNL     1      -8.871  12.463  66.237  1.00  0.00     0.027 A  
HETATM   19  C   UNL     1      -7.210  11.244  67.561  1.00  0.00    -0.100 A  
HETATM   20  C   UNL     1      -9.081  11.263  65.518  1.00  0.00    -0.170 A  
HETATM   21  I   UNL     1     -10.379  11.158  63.853  1.00  0.00    -0.366 I  
HETATM   22  C   UNL     1      -7.956  12.411  67.312  1.00  0.00    -0.178 A  
HETATM   23  C   UNL     1      -8.409  10.073  65.849  1.00  0.00    -0.129 A  
BRANCH  18  24
HETATM   24  O   UNL     1      -9.609  13.546  65.790  1.00  0.00    -0.182 OA 
BRANCH  24  25
HETATM   25  C   UNL     1      -9.738  14.608  66.728  1.00  0.00    -0.257 C  
BRANCH  25  26
HETATM   26  C   UNL     1      -9.226  15.984  66.279  1.00  0.00    -0.333 C  
BRANCH  26  27
HETATM   27  N   UNL     1      -9.760  17.061  67.159  1.00  0.00    -0.252 NA 
BRANCH  27  28
HETATM   28  C   UNL     1     -10.111  18.305  66.451  1.00  0.00    -0.396 C  
HETATM   29  C   UNL     1     -10.031  19.583  67.280  1.00  0.00    -0.493 C  
ENDBRANCH  27  28
BRANCH  27  30
HETATM   30  C   UNL     1     -10.825  16.549  68.031  1.00  0.00    -0.337 C  
HETATM   31  C   UNL     1     -10.602  16.831  69.517  1.00  0.00    -0.283 C  
ENDBRANCH  27  30
ENDBRANCH  26  27
ENDBRANCH  25  26
ENDBRANCH  24  25
ENDBRANCH  18  24
ENDBRANCH  14  16
ENDBRANCH   6  14
ENDBRANCH   4   5
ENDBRANCH   3   4
ENDBRANCH   2   3
TORSDOF 11
ENDMDL
MODEL      254
REMARK 921   NORMALIZED FREE ENERGY PREDICTED BY IDOCK:   -2.04 KCAL/MOL
REMARK 922        TOTAL FREE ENERGY PREDICTED BY IDOCK:   -5.50 KCAL/MOL
REMARK 923 INTER-LIGAND FREE ENERGY PREDICTED BY IDOCK:   -4.71 KCAL/MOL
REMARK 924 INTRA-LIGAND FREE ENERGY PREDICTED BY IDOCK:   -0.78 KCAL/MOL
REMARK 927      BINDING AFFINITY PREDICTED BY RF-SCORE:    0.00 PKD
ROOT
HETATM    1  C   UNL     1      -9.524   3.215  64.720  1.00  0.00    -0.150 C  
HETATM    2  C   UNL     1      -8.698   2.269  65.576  1.00  0.00    -0.121 C  
ENDROOT
BRANCH   2   3
HETATM    3  C   UNL     1      -8.968   2.476  67.067  1.00  0.00    -0.167 C  
BRANCH   3   4
HETATM    4  C   UNL     1      -9.163   3.957  67.390  1.00  0.00    -0.199 C  
BRANCH   4   5
HETATM    5  C   UNL     1      -8.923   4.248  68.832  1.00  0.00    -0.109 A  
HETATM    6  C   UNL     1      -8.007   5.035  69.514  1.00  0.00    -0.075 A  
HETATM    7  C   UNL     1      -9.513   4.166  73.326  1.00  0.00    -0.130 A  
HETATM    8  C   UNL     1      -8.397   4.985  70.886  1.00  0.00    -0.112 A  
HETATM    9  C   UNL     1      -9.399   4.020  70.956  1.00  0.00    -0.149 A  
HETATM   10  C   UNL     1      -8.560   5.185  73.298  1.00  0.00    -0.113 A  
HETATM   11  C   UNL     1      -8.003   5.614  72.087  1.00  0.00    -0.107 A  
HETATM   12  C   UNL     1      -9.973   3.576  72.143  1.00  0.00    -0.234 A  
HETATM   13  O   UNL     1      -9.734   3.594  69.710  1.00  0.00    -0.185 OA 
BRANCH   6  14
HETATM   14  C   UNL     1      -6.916   5.746  68.873  1.00  0.00    -0.068 C  
HETATM   15  O   UNL     1      -5.898   5.164  68.509  1.00  0.00    -0.015 OA 
BRANCH  14  16
HETATM   16  C   UNL     1      -6.988   7.226  68.700  1.00  0.00    -0.082 A  
HETATM   17  I   UNL     1      -8.826   9.353  65.469  1.00  0.00    -0.275 I  
HETATM   18  C   UNL     1      -7.221  10.025  68.174  1.00  0.00    -0.081 A  
HETATM   19  C   UNL     1      -7.763   7.697  67.644  1.00  0.00    -0.122 A  
HETATM   20  C   UNL     1      -6.435   9.530  69.241  1.00  0.00    -0.044 A  
HETATM   21  I   UNL     1      -5.470  10.809  70.619  1.00  0.00    -0.083 I  
HETATM   22  C   UNL     1      -7.838   9.067  67.338  1.00  0.00    -0.100 A  
HETATM   23  C   UNL     1      -6.278   8.151  69.468  1.00  0.00    -0.033 A  
BRANCH  18  24
HETATM   24  O   UNL     1      -7.274  11.406  68.082  1.00  0.00    -0.075 OA 
BRANCH  24  25
HETATM   25  C   UNL     1      -7.915  11.902  66.913  1.00  0.00    -0.132 C  
BRANCH  25  26
HETATM   26  C   UNL     1      -8.980  12.987  67.125  1.00  0.00    -0.223 C  
BRANCH  26  27
HETATM   27  N   UNL     1     -10.342  12.455  66.837  1.00  0.00    -0.223 NA 
BRANCH  27  28
HETATM   28  C   UNL     1     -11.130  12.122  68.038  1.00  0.00    -0.244 C  
HETATM   29  C   UNL     1     -10.954  10.704  68.572  1.00  0.00    -0.296 C  
ENDBRANCH  27  28
BRANCH  27  30
HETATM   30  C   UNL     1     -11.050  13.311  65.877  1.00  0.00    -0.285 C  
HETATM   31  C   UNL     1     -12.130  14.191  66.507  1.00  0.00    -0.481 C  
ENDBRANCH  27  30
ENDBRANCH  26  27
ENDBRANCH  25  26
ENDBRANCH  24  25
ENDBRANCH  18  24
ENDBRANCH  14  16
ENDBRANCH   6  14
ENDBRANCH   4   5
ENDBRANCH   3   4
ENDBRANCH   2   3
TORSDOF 11
ENDMDL
MODEL      255
REMARK 921   NORMALIZED FREE ENERGY PREDICTED BY IDOCK:   -1.64 KCAL/MOL
REMARK 922        TOTAL FREE ENERGY PREDICTED BY IDOCK:   -4.84 KCAL/MOL
REMARK 923 INTER-LIGAND FREE ENERGY PREDICTED BY IDOCK:   -3.78 KCAL/MOL
REMARK 924 INTRA-LIGAND FREE ENERGY PREDICTED BY IDOCK:   -1.07 KCAL/MOL
REMARK 927      BINDING AFFINITY PREDICTED BY RF-SCORE:    0.00 PKD
ROOT
HETATM    1  C   UNL     1     -11.622   9.851  69.881  1.00  0.00    -0.184 C  
HETATM    2  C   UNL     1     -10.566   9.799  68.789  1.00  0.00    -0.244 C  
ENDROOT
BRANCH   2   3
HETATM    3  C   UNL     1      -9.836  11.135  68.647  1.00  0.00    -0.207 C  
BRANCH   3   4
HETATM    4  C   UNL     1     -10.823  12.301  68.606  1.00  0.00    -0.268 C  
BRANCH   4   5
HETATM    5  C   UNL     1     -10.192  13.546  68.081  1.00  0.00    -0.249 A  
HETATM    6  C   UNL     1      -9.921  14.021  66.806  1.00  0.00    -0.268 A  
HETATM    7  C   UNL     1      -8.247  17.640  68.092  1.00  0.00    -0.257 A  
HETATM    8  C   UNL     1      -9.420  15.346  66.984  1.00  0.00    -0.232 A  
HETATM    9  C   UNL     1      -9.246  15.499  68.357  1.00  0.00    -0.191 A  
HETATM   10  C   UNL     1      -8.465  17.559  66.716  1.00  0.00    -0.275 A  
HETATM   11  C   UNL     1      -9.061  16.426  66.149  1.00  0.00    -0.362 A  
HETATM   12  C   UNL     1      -8.659  16.613  68.949  1.00  0.00    -0.235 A  
HETATM   13  O   UNL     1      -9.737  14.419  69.021  1.00  0.00    -0.179 OA 
BRANCH   6  14
HETATM   14  C   UNL     1     -10.153  13.259  65.592  1.00  0.00    -0.272 C  
HETATM   15  O   UNL     1     -11.082  13.527  64.835  1.00  0.00    -0.318 OA 
BRANCH  14  16
HETATM   16  C   UNL     1      -9.292  12.084  65.271  1.00  0.00     0.050 A  
HETATM   17  I   UNL     1      -5.567  11.045  67.111  1.00  0.00    -0.090 I  
HETATM   18  C   UNL     1      -7.495   9.913  64.799  1.00  0.00    -0.136 A  
HETATM   19  C   UNL     1      -8.194  11.867  66.099  1.00  0.00     0.231 A  
HETATM   20  C   UNL     1      -8.614  10.150  63.966  1.00  0.00    -0.192 A  
HETATM   21  I   UNL     1      -9.134   8.853  62.381  1.00  0.00     0.885 I  
HETATM   22  C   UNL     1      -7.270  10.838  65.843  1.00  0.00    -0.091 A  
HETATM   23  C   UNL     1      -9.467  11.249  64.166  1.00  0.00    -0.200 A  
BRANCH  18  24
HETATM   24  O   UNL     1      -6.752   8.792  64.471  1.00  0.00    -0.070 OA 
BRANCH  24  25
HETATM   25  C   UNL     1      -6.617   7.837  65.516  1.00  0.00    -0.045 C  
BRANCH  25  26
HETATM   26  C   UNL     1      -6.869   6.370  65.140  1.00  0.00    -0.047 C  
BRANCH  26  27
HETATM   27  N   UNL     1      -7.034   5.532  66.361  1.00  0.00    -0.062 NA 
BRANCH  27  28
HETATM   28  C   UNL     1      -8.430   5.170  66.665  1.00  0.00    -0.107 C  
HETATM   29  C   UNL     1      -9.241   6.227  67.406  1.00  0.00    -0.116 C  
ENDBRANCH  27  28
BRANCH  27  30
HETATM   30  C   UNL     1      -6.111   4.389  66.343  1.00  0.00    -0.031 C  
HETATM   31  C   UNL     1      -5.508   4.097  64.969  1.00  0.00    -0.013 C  
ENDBRANCH  27  30
ENDBRANCH  26  27
ENDBRANCH  25  26
ENDBRANCH  24  25
ENDBRANCH  18  24
ENDBRANCH  14  16
ENDBRANCH   6  14
ENDBRANCH   4   5
ENDBRANCH   3   4
ENDBRANCH   2   3
TORSDOF 11
ENDMDL
MODEL      256
REMARK 921   NORMALIZED FREE ENERGY PREDICTED BY IDOCK:   -1.53 KCAL/MOL
REMARK 922        TOTAL FREE ENERGY PREDICTED BY IDOCK:   -4.67 KCAL/MOL
REMARK 923 INTER-LIGAND FREE ENERGY PREDICTED BY IDOCK:   -7.06 KCAL/MOL
REMARK 924 INTRA-LIGAND FREE ENERGY PREDICTED BY IDOCK:    2.40 KCAL/MOL
REMARK 927      BINDING AFFINITY PREDICTED BY RF-SCORE:    0.00 PKD
ROOT
HETATM    1  C   UNL     1     -14.408  14.778  71.413  1.00  0.00    -0.516 C  
HETATM    2  C   UNL     1     -13.025  14.291  71.010  1.00  0.00    -0.411 C  
ENDROOT
BRANCH   2   3
HETATM    3  C   UNL     1     -13.016  12.787  70.730  1.00  0.00     0.007 C  
BRANCH   3   4
HETATM    4  C   UNL     1     -11.600  12.290  70.442  1.00  0.00     0.048 C  
BRANCH   4   5
HETATM    5  C   UNL     1     -11.534  10.801  70.389  1.00  0.00    -0.307 A  
HETATM    6  C   UNL     1     -10.750   9.899  69.685  1.00  0.00    -0.277 A  
HETATM    7  C   UNL     1     -12.491   6.481  71.367  1.00  0.00    -0.194 A  
HETATM    8  C   UNL     1     -11.099   8.609  70.185  1.00  0.00    -0.199 A  
HETATM    9  C   UNL     1     -12.200   8.813  71.012  1.00  0.00    -0.190 A  
HETATM   10  C   UNL     1     -11.352   6.233  70.601  1.00  0.00    -0.409 A  
HETATM   11  C   UNL     1     -10.638   7.285  70.015  1.00  0.00    -0.247 A  
HETATM   12  C   UNL     1     -12.927   7.788  71.610  1.00  0.00    -0.374 A  
HETATM   13  O   UNL     1     -12.446  10.142  71.155  1.00  0.00    -0.325 OA 
BRANCH   6  14
HETATM   14  C   UNL     1      -9.781  10.285  68.675  1.00  0.00    -0.167 C  
HETATM   15  O   UNL     1      -9.265   9.454  67.932  1.00  0.00    -0.130 OA 
BRANCH  14  16
HETATM   16  C   UNL     1      -9.343  11.707  68.563  1.00  0.00    -0.169 A  
HETATM   17  I   UNL     1      -5.321  13.175  68.660  1.00  0.00    -0.085 I  
HETATM   18  C   UNL     1      -8.298  14.360  68.386  1.00  0.00    -0.155 A  
HETATM   19  C   UNL     1      -7.972  11.935  68.475  1.00  0.00    -0.137 A  
HETATM   20  C   UNL     1      -9.687  14.110  68.480  1.00  0.00    -0.219 A  
HETATM   21  I   UNL     1     -11.122  15.658  68.366  1.00  0.00    -0.354 I  
HETATM   22  C   UNL     1      -7.442  13.237  68.446  1.00  0.00    -0.124 A  
HETATM   23  C   UNL     1     -10.198  12.808  68.620  1.00  0.00    -0.162 A  
BRANCH  18  24
HETATM   24  O   UNL     1      -7.954  15.695  68.255  1.00  0.00    -0.126 OA 
BRANCH  24  25
HETATM   25  C   UNL     1      -7.564  16.084  66.943  1.00  0.00    -0.233 C  
BRANCH  25  26
HETATM   26  C   UNL     1      -8.617  16.822  66.106  1.00  0.00    -0.264 C  
BRANCH  26  27
HETATM   27  N   UNL     1      -8.269  18.264  65.966  1.00  0.00    -0.506 NA 
BRANCH  27  28
HETATM   28  C   UNL     1      -8.552  19.076  67.163  1.00  0.00    -0.281 C  
HETATM   29  C   UNL     1      -8.760  20.566  66.917  1.00  0.00    -0.288 C  
ENDBRANCH  27  28
BRANCH  27  30
HETATM   30  C   UNL     1      -6.906  18.428  65.443  1.00  0.00    -0.089 C  
HETATM   31  C   UNL     1      -5.884  18.862  66.493  1.00  0.00    -0.179 C  
ENDBRANCH  27  30
ENDBRANCH  26  27
ENDBRANCH  25  26
ENDBRANCH  24  25
ENDBRANCH  18  24
ENDBRANCH  14  16
ENDBRANCH   6  14
ENDBRANCH   4   5
ENDBRANCH   3   4
ENDBRANCH   2   3
TORSDOF 11
ENDMDL
MODEL      257
REMARK 921   NORMALIZED FREE ENERGY PREDICTED BY IDOCK:   -1.52 KCAL/MOL
REMARK 922        TOTAL FREE ENERGY PREDICTED BY IDOCK:   -4.65 KCAL/MOL
REMARK 923 INTER-LIGAND FREE ENERGY PREDICTED BY IDOCK:   -5.25 KCAL/MOL
REMARK 924 INTRA-LIGAND FREE ENERGY PREDICTED BY IDOCK:    0.60 KCAL/MOL
REMARK 927      BINDING AFFINITY PREDICTED BY RF-SCORE:    0.00 PKD
ROOT
HETATM    1  C   UNL     1     -10.709  13.756  69.887  1.00  0.00     0.411 C  
HETATM    2  C   UNL     1     -11.847  12.924  69.318  1.00  0.00    -0.363 C  
ENDROOT
BRANCH   2   3
HETATM    3  C   UNL     1     -11.457  11.451  69.184  1.00  0.00    -0.365 C  
BRANCH   3   4
HETATM    4  C   UNL     1     -11.636  10.964  67.746  1.00  0.00    -0.231 C  
BRANCH   4   5
HETATM    5  C   UNL     1     -10.886   9.700  67.491  1.00  0.00    -0.198 A  
HETATM    6  C   UNL     1      -9.694   9.404  66.849  1.00  0.00    -0.242 A  
HETATM    7  C   UNL     1      -9.863   5.286  67.600  1.00  0.00    -0.187 A  
HETATM    8  C   UNL     1      -9.469   8.011  67.069  1.00  0.00    -0.223 A  
HETATM    9  C   UNL     1     -10.635   7.533  67.660  1.00  0.00    -0.233 A  
HETATM   10  C   UNL     1      -8.651   5.729  67.070  1.00  0.00    -0.110 A  
HETATM   11  C   UNL     1      -8.434   7.087  66.811  1.00  0.00    -0.118 A  
HETATM   12  C   UNL     1     -10.878   6.190  67.932  1.00  0.00    -0.406 A  
HETATM   13  O   UNL     1     -11.481   8.560  67.939  1.00  0.00     0.735 OA 
BRANCH   6  14
HETATM   14  C   UNL     1      -8.891  10.384  66.138  1.00  0.00    -0.158 C  
HETATM   15  O   UNL     1      -7.921  10.050  65.464  1.00  0.00    -0.127 OA 
BRANCH  14  16
HETATM   16  C   UNL     1      -9.199  11.838  66.268  1.00  0.00    -0.227 A  
HETATM   17  I   UNL     1      -7.493  14.588  69.074  1.00  0.00    -0.036 I  
HETATM   18  C   UNL     1      -9.656  14.626  66.694  1.00  0.00    -0.278 A  
HETATM   19  C   UNL     1      -8.415  12.567  67.158  1.00  0.00    -0.186 A  
HETATM   20  C   UNL     1     -10.445  13.869  65.796  1.00  0.00    -0.307 A  
HETATM   21  I   UNL     1     -11.943  14.751  64.593  1.00  0.00    -0.197 I  
HETATM   22  C   UNL     1      -8.667  13.925  67.421  1.00  0.00    -0.203 A  
HETATM   23  C   UNL     1     -10.255  12.487  65.626  1.00  0.00    -0.287 A  
BRANCH  18  24
HETATM   24  O   UNL     1      -9.968  15.974  66.750  1.00  0.00    -0.243 OA 
BRANCH  24  25
HETATM   25  C   UNL     1      -8.899  16.849  66.414  1.00  0.00    -0.287 C  
BRANCH  25  26
HETATM   26  C   UNL     1      -8.573  17.954  67.428  1.00  0.00    -0.239 C  
BRANCH  26  27
HETATM   27  N   UNL     1      -9.770  18.288  68.250  1.00  0.00    -0.318 NA 
BRANCH  27  28
HETATM   28  C   UNL     1      -9.530  19.308  69.286  1.00  0.00    -0.154 C  
HETATM   29  C   UNL     1      -8.067  19.656  69.545  1.00  0.00     0.208 C  
ENDBRANCH  27  28
BRANCH  27  30
HETATM   30  C   UNL     1     -10.934  18.565  67.398  1.00  0.00    -0.150 C  
HETATM   31  C   UNL     1     -10.686  19.634  66.333  1.00  0.00    -0.530 C  
ENDBRANCH  27  30
ENDBRANCH  26  27
ENDBRANCH  25  26
ENDBRANCH  24  25
ENDBRANCH  18  24
ENDBRANCH  14  16
ENDBRANCH   6  14
ENDBRANCH   4   5
ENDBRANCH   3   4
ENDBRANCH   2   3
TORSDOF 11
ENDMDL
MODEL      258
REMARK 921   NORMALIZED FREE ENERGY PREDICTED BY IDOCK:   -0.71 KCAL/MOL
REMARK 922        TOTAL FREE ENERGY PREDICTED BY IDOCK:   -3.32 KCAL/MOL
REMARK 923 INTER-LIGAND FREE ENERGY PREDICTED BY IDOCK:   -4.63 KCAL/MOL
REMARK 924 INTRA-LIGAND FREE ENERGY PREDICTED BY IDOCK:    1.31 KCAL/MOL
REMARK 927      BINDING AFFINITY PREDICTED BY RF-SCORE:    0.00 PKD
ROOT
HETATM    1  C   UNL     1     -14.410  14.708  71.408  1.00  0.00    -0.466 C  
HETATM    2  C   UNL     1     -13.006  14.191  71.139  1.00  0.00    -0.419 C  
ENDROOT
BRANCH   2   3
HETATM    3  C   UNL     1     -12.984  12.669  70.991  1.00  0.00    -0.156 C  
BRANCH   3   4
HETATM    4  C   UNL     1     -11.552  12.149  70.867  1.00  0.00     0.836 C  
BRANCH   4   5
HETATM    5  C   UNL     1     -11.503  10.659  70.831  1.00  0.00    -0.114 A  
HETATM    6  C   UNL     1     -10.769   9.740  70.097  1.00  0.00    -0.339 A  
HETATM    7  C   UNL     1     -12.444   6.362  71.921  1.00  0.00    -0.219 A  
HETATM    8  C   UNL     1     -11.100   8.460  70.634  1.00  0.00    -0.278 A  
HETATM    9  C   UNL     1     -12.151   8.686  71.518  1.00  0.00    -0.316 A  
HETATM   10  C   UNL     1     -11.352   6.092  71.096  1.00  0.00    -0.340 A  
HETATM   11  C   UNL     1     -10.662   7.129  70.456  1.00  0.00    -0.259 A  
HETATM   12  C   UNL     1     -12.853   7.676  72.170  1.00  0.00    -0.161 A  
HETATM   13  O   UNL     1     -12.377  10.019  71.656  1.00  0.00    -0.378 OA 
BRANCH   6  14
HETATM   14  C   UNL     1      -9.854  10.102  69.029  1.00  0.00    -0.205 C  
HETATM   15  O   UNL     1      -9.426  11.248  68.912  1.00  0.00    -0.174 OA 
BRANCH  14  16
HETATM   16  C   UNL     1      -9.462   9.090  68.005  1.00  0.00    -0.157 A  
HETATM   17  I   UNL     1      -8.727   9.792  63.844  1.00  0.00    -0.255 I  
HETATM   18  C   UNL     1      -8.726   7.312  65.893  1.00  0.00    -0.131 A  
HETATM   19  C   UNL     1      -9.134   9.573  66.741  1.00  0.00    -0.173 A  
HETATM   20  C   UNL     1      -9.065   6.839  67.182  1.00  0.00    -0.126 A  
HETATM   21  I   UNL     1      -8.933   4.795  67.704  1.00  0.00    -0.149 I  
HETATM   22  C   UNL     1      -8.828   8.705  65.677  1.00  0.00    -0.187 A  
HETATM   23  C   UNL     1      -9.477   7.709  68.207  1.00  0.00    -0.148 A  
BRANCH  18  24
HETATM   24  O   UNL     1      -8.342   6.331  64.995  1.00  0.00    -0.142 OA 
BRANCH  24  25
HETATM   25  C   UNL     1      -6.937   6.197  64.821  1.00  0.00    -0.055 C  
BRANCH  25  26
HETATM   26  C   UNL     1      -6.239   5.135  65.682  1.00  0.00    -0.034 C  
BRANCH  26  27
HETATM   27  N   UNL     1      -5.700   4.036  64.833  1.00  0.00    -0.014 NA 
BRANCH  27  28
HETATM   28  C   UNL     1      -6.334   2.725  65.063  1.00  0.00    -0.027 C  
HETATM   29  C   UNL     1      -5.527   1.737  65.898  1.00  0.00    -0.009 C  
ENDBRANCH  27  28
BRANCH  27  30
HETATM   30  C   UNL     1      -5.650   4.436  63.421  1.00  0.00    -0.013 C  
HETATM   31  C   UNL     1      -6.751   3.816  62.560  1.00  0.00    -0.027 C  
ENDBRANCH  27  30
ENDBRANCH  26  27
ENDBRANCH  25  26
ENDBRANCH  24  25
ENDBRANCH  18  24
ENDBRANCH  14  16
ENDBRANCH   6  14
ENDBRANCH   4   5
ENDBRANCH   3   4
ENDBRANCH   2   3
TORSDOF 11
ENDMDL
MODEL      259
REMARK 921   NORMALIZED FREE ENERGY PREDICTED BY IDOCK:   -0.35 KCAL/MOL
REMARK 922        TOTAL FREE ENERGY PREDICTED BY IDOCK:   -2.72 KCAL/MOL
REMARK 923 INTER-LIGAND FREE ENERGY PREDICTED BY IDOCK:   -4.53 KCAL/MOL
REMARK 924 INTRA-LIGAND FREE ENERGY PREDICTED BY IDOCK:    1.82 KCAL/MOL
REMARK 927      BINDING AFFINITY PREDICTED BY RF-SCORE:    0.00 PKD
ROOT
HETATM    1  C   UNL     1     -14.410  14.708  71.408  1.00  0.00    -0.466 C  
HETATM    2  C   UNL     1     -13.006  14.185  71.152  1.00  0.00    -0.419 C  
ENDROOT
BRANCH   2   3
HETATM    3  C   UNL     1     -12.987  12.662  71.013  1.00  0.00    -0.156 C  
BRANCH   3   4
HETATM    4  C   UNL     1     -11.556  12.136  70.903  1.00  0.00     0.836 C  
BRANCH   4   5
HETATM    5  C   UNL     1     -11.512  10.646  70.876  1.00  0.00    -0.114 A  
HETATM    6  C   UNL     1     -10.776   9.720  70.153  1.00  0.00    -0.339 A  
HETATM    7  C   UNL     1     -12.475   6.359  71.988  1.00  0.00    -0.212 A  
HETATM    8  C   UNL     1     -11.115   8.444  70.696  1.00  0.00    -0.278 A  
HETATM    9  C   UNL     1     -12.172   8.679  71.572  1.00  0.00    -0.318 A  
HETATM   10  C   UNL     1     -11.378   6.081  71.172  1.00  0.00    -0.300 A  
HETATM   11  C   UNL     1     -10.681   7.111  70.531  1.00  0.00    -0.259 A  
HETATM   12  C   UNL     1     -12.881   7.676  72.226  1.00  0.00    -0.064 A  
HETATM   13  O   UNL     1     -12.394  10.014  71.700  1.00  0.00    -0.378 OA 
BRANCH   6  14
HETATM   14  C   UNL     1      -9.853  10.072  69.089  1.00  0.00    -0.205 C  
HETATM   15  O   UNL     1      -9.421  11.216  68.968  1.00  0.00    -0.159 OA 
BRANCH  14  16
HETATM   16  C   UNL     1      -9.457   9.053  68.075  1.00  0.00    -0.157 A  
HETATM   17  I   UNL     1      -8.692   9.725  63.915  1.00  0.00    -0.255 I  
HETATM   18  C   UNL     1      -8.713   7.259  65.979  1.00  0.00    -0.151 A  
HETATM   19  C   UNL     1      -9.119   9.526  66.810  1.00  0.00    -0.173 A  
HETATM   20  C   UNL     1      -9.062   6.795  67.269  1.00  0.00    -0.119 A  
HETATM   21  I   UNL     1      -8.941   4.754  67.805  1.00  0.00    -0.154 I  
HETATM   22  C   UNL     1      -8.809   8.650  65.754  1.00  0.00    -0.193 A  
HETATM   23  C   UNL     1      -9.479   7.673  68.285  1.00  0.00    -0.148 A  
BRANCH  18  24
HETATM   24  O   UNL     1      -8.326   6.270  65.090  1.00  0.00    -0.142 OA 
BRANCH  24  25
HETATM   25  C   UNL     1      -6.920   6.131  64.927  1.00  0.00    -0.055 C  
BRANCH  25  26
HETATM   26  C   UNL     1      -6.050   7.264  65.488  1.00  0.00    -0.038 C  
BRANCH  26  27
HETATM   27  N   UNL     1      -5.218   6.779  66.625  1.00  0.00    -0.016 NA 
BRANCH  27  28
HETATM   28  C   UNL     1      -5.543   7.399  67.922  1.00  0.00    -0.026 C  
HETATM   29  C   UNL     1      -5.415   8.917  67.981  1.00  0.00    -0.035 C  
ENDBRANCH  27  28
BRANCH  27  30
HETATM   30  C   UNL     1      -5.175   5.312  66.659  1.00  0.00    -0.008 C  
HETATM   31  C   UNL     1      -6.045   4.688  67.750  1.00  0.00    -0.031 C  
ENDBRANCH  27  30
ENDBRANCH  26  27
ENDBRANCH  25  26
ENDBRANCH  24  25
ENDBRANCH  18  24
ENDBRANCH  14  16
ENDBRANCH   6  14
ENDBRANCH   4   5
ENDBRANCH   3   4
ENDBRANCH   2   3
TORSDOF 11
ENDMDL
MODEL      260
REMARK 921   NORMALIZED FREE ENERGY PREDICTED BY IDOCK:    0.03 KCAL/MOL
REMARK 922        TOTAL FREE ENERGY PREDICTED BY IDOCK:   -2.10 KCAL/MOL
REMARK 923 INTER-LIGAND FREE ENERGY PREDICTED BY IDOCK:   -1.75 KCAL/MOL
REMARK 924 INTRA-LIGAND FREE ENERGY PREDICTED BY IDOCK:   -0.35 KCAL/MOL
REMARK 927      BINDING AFFINITY PREDICTED BY RF-SCORE:    0.00 PKD
ROOT
HETATM    1  C   UNL     1     -11.193   4.575  65.432  1.00  0.00     0.354 C  
HETATM    2  C   UNL     1      -9.762   4.874  65.851  1.00  0.00    -0.197 C  
ENDROOT
BRANCH   2   3
HETATM    3  C   UNL     1      -9.679   6.127  66.723  1.00  0.00    -0.191 C  
BRANCH   3   4
HETATM    4  C   UNL     1     -10.336   5.895  68.083  1.00  0.00    -0.259 C  
BRANCH   4   5
HETATM    5  C   UNL     1      -9.371   5.349  69.080  1.00  0.00    -0.127 A  
HETATM    6  C   UNL     1      -8.005   5.491  69.271  1.00  0.00    -0.095 A  
HETATM    7  C   UNL     1      -7.837   3.061  72.680  1.00  0.00    -0.059 A  
HETATM    8  C   UNL     1      -7.710   4.809  70.490  1.00  0.00    -0.058 A  
HETATM    9  C   UNL     1      -8.882   4.145  70.840  1.00  0.00    -0.090 A  
HETATM   10  C   UNL     1      -6.660   3.758  72.407  1.00  0.00    -0.018 A  
HETATM   11  C   UNL     1      -6.584   4.644  71.326  1.00  0.00    -0.027 A  
HETATM   12  C   UNL     1      -8.989   3.261  71.910  1.00  0.00    -0.144 A  
HETATM   13  O   UNL     1      -9.893   4.493  70.001  1.00  0.00    -0.201 OA 
BRANCH   6  14
HETATM   14  C   UNL     1      -7.133   6.224  68.370  1.00  0.00    -0.083 C  
HETATM   15  O   UNL     1      -6.347   5.643  67.626  1.00  0.00    -0.038 OA 
BRANCH  14  16
HETATM   16  C   UNL     1      -7.132   7.716  68.380  1.00  0.00    -0.081 A  
HETATM   17  I   UNL     1      -9.731  10.276  70.624  1.00  0.00     1.903 I  
HETATM   18  C   UNL     1      -7.309  10.564  68.527  1.00  0.00    -0.088 A  
HETATM   19  C   UNL     1      -7.973   8.337  69.299  1.00  0.00    -0.114 A  
HETATM   20  C   UNL     1      -6.462   9.916  67.598  1.00  0.00    -0.064 A  
HETATM   21  I   UNL     1      -5.155  10.986  66.326  1.00  0.00    -0.099 I  
HETATM   22  C   UNL     1      -8.114   9.736  69.341  1.00  0.00    -0.129 A  
HETATM   23  C   UNL     1      -6.414   8.515  67.489  1.00  0.00    -0.058 A  
BRANCH  18  24
HETATM   24  O   UNL     1      -7.243  11.947  68.510  1.00  0.00    -0.087 OA 
BRANCH  24  25
HETATM   25  C   UNL     1      -8.126  12.575  67.588  1.00  0.00    -0.171 C  
BRANCH  25  26
HETATM   26  C   UNL     1      -9.411  13.176  68.171  1.00  0.00    -0.222 C  
BRANCH  26  27
HETATM   27  N   UNL     1     -10.460  13.306  67.121  1.00  0.00    -0.247 NA 
BRANCH  27  28
HETATM   28  C   UNL     1     -10.068  12.772  65.803  1.00  0.00    -0.286 C  
HETATM   29  C   UNL     1      -9.917  13.804  64.691  1.00  0.00    -0.032 C  
ENDBRANCH  27  28
BRANCH  27  30
HETATM   30  C   UNL     1     -11.755  12.809  67.604  1.00  0.00    -0.367 C  
HETATM   31  C   UNL     1     -11.771  12.460  69.092  1.00  0.00    -0.376 C  
ENDBRANCH  27  30
ENDBRANCH  26  27
ENDBRANCH  25  26
ENDBRANCH  24  25
ENDBRANCH  18  24
ENDBRANCH  14  16
ENDBRANCH   6  14
ENDBRANCH   4   5
ENDBRANCH   3   4
ENDBRANCH   2   3
TORSDOF 11
ENDMDL
MODEL      261
REMARK 921   NORMALIZED FREE ENERGY PREDICTED BY IDOCK:    1.13 KCAL/MOL
REMARK 922        TOTAL FREE ENERGY PREDICTED BY IDOCK:   -0.29 KCAL/MOL
REMARK 923 INTER-LIGAND FREE ENERGY PREDICTED BY IDOCK:   -0.43 KCAL/MOL
REMARK 924 INTRA-LIGAND FREE ENERGY PREDICTED BY IDOCK:    0.14 KCAL/MOL
REMARK 927      BINDING AFFINITY PREDICTED BY RF-SCORE:    0.00 PKD
ROOT
HETATM    1  C   UNL     1      -6.239  15.644  70.796  1.00  0.00     0.360 C  
HETATM    2  C   UNL     1      -6.867  17.005  70.541  1.00  0.00     1.724 C  
ENDROOT
BRANCH   2   3
HETATM    3  C   UNL     1      -5.817  18.049  70.159  1.00  0.00    -0.180 C  
BRANCH   3   4
HETATM    4  C   UNL     1      -5.183  17.721  68.807  1.00  0.00    -0.156 C  
BRANCH   4   5
HETATM    5  C   UNL     1      -5.922  18.358  67.679  1.00  0.00    -0.172 A  
HETATM    6  C   UNL     1      -7.253  18.379  67.293  1.00  0.00    -0.213 A  
HETATM    7  C   UNL     1      -6.653  20.853  63.967  1.00  0.00    -0.157 A  
HETATM    8  C   UNL     1      -7.325  19.284  66.192  1.00  0.00    -0.289 A  
HETATM    9  C   UNL     1      -6.005  19.591  65.874  1.00  0.00    -0.168 A  
HETATM   10  C   UNL     1      -7.992  20.627  64.286  1.00  0.00     1.936 A  
HETATM   11  C   UNL     1      -8.344  19.857  65.401  1.00  0.00     0.533 A  
HETATM   12  C   UNL     1      -5.625  20.356  64.775  1.00  0.00    -0.235 A  
HETATM   13  O   UNL     1      -5.158  19.052  66.790  1.00  0.00    -0.145 OA 
BRANCH   6  14
HETATM   14  C   UNL     1      -8.299  17.616  67.951  1.00  0.00    -0.235 C  
HETATM   15  O   UNL     1      -9.000  18.114  68.828  1.00  0.00    -0.295 OA 
BRANCH  14  16
HETATM   16  C   UNL     1      -8.500  16.177  67.612  1.00  0.00    -0.178 A  
HETATM   17  I   UNL     1     -11.861  14.457  65.589  1.00  0.00    -0.276 I  
HETATM   18  C   UNL     1      -9.087  13.476  66.888  1.00  0.00    -0.239 A  
HETATM   19  C   UNL     1      -9.604  15.868  66.822  1.00  0.00    -0.252 A  
HETATM   20  C   UNL     1      -7.972  13.807  67.692  1.00  0.00    -0.174 A  
HETATM   21  I   UNL     1      -6.566  12.359  68.323  1.00  0.00    -0.101 I  
HETATM   22  C   UNL     1      -9.937  14.538  66.508  1.00  0.00    -0.280 A  
HETATM   23  C   UNL     1      -7.712  15.130  68.092  1.00  0.00    -0.117 A  
BRANCH  18  24
HETATM   24  O   UNL     1      -9.205  12.131  66.582  1.00  0.00    -0.198 OA 
BRANCH  24  25
HETATM   25  C   UNL     1      -8.854  11.789  65.246  1.00  0.00     0.333 C  
BRANCH  25  26
HETATM   26  C   UNL     1      -9.085  10.330  64.829  1.00  0.00    -0.219 C  
BRANCH  26  27
HETATM   27  N   UNL     1      -8.868   9.410  65.981  1.00  0.00    -0.148 NA 
BRANCH  27  28
HETATM   28  C   UNL     1     -10.059   9.203  66.825  1.00  0.00    -0.271 C  
HETATM   29  C   UNL     1     -10.469   7.751  67.044  1.00  0.00    -0.419 C  
ENDBRANCH  27  28
BRANCH  27  30
HETATM   30  C   UNL     1      -8.220   8.166  65.547  1.00  0.00    -0.144 C  
HETATM   31  C   UNL     1      -6.722   8.305  65.277  1.00  0.00    -0.052 C  
ENDBRANCH  27  30
ENDBRANCH  26  27
ENDBRANCH  25  26
ENDBRANCH  24  25
ENDBRANCH  18  24
ENDBRANCH  14  16
ENDBRANCH   6  14
ENDBRANCH   4   5
ENDBRANCH   3   4
ENDBRANCH   2   3
TORSDOF 11
ENDMDL
MODEL      262
REMARK 921   NORMALIZED FREE ENERGY PREDICTED BY IDOCK:    1.29 KCAL/MOL
REMARK 922        TOTAL FREE ENERGY PREDICTED BY IDOCK:   -0.04 KCAL/MOL
REMARK 923 INTER-LIGAND FREE ENERGY PREDICTED BY IDOCK:   -3.80 KCAL/MOL
REMARK 924 INTRA-LIGAND FREE ENERGY PREDICTED BY IDOCK:    3.76 KCAL/MOL
REMARK 927      BINDING AFFINITY PREDICTED BY RF-SCORE:    0.00 PKD
ROOT
HETATM    1  C   UNL     1     -10.908   6.562  71.004  1.00  0.00    -0.301 C  
HETATM    2  C   UNL     1     -10.589   5.359  71.877  1.00  0.00    -0.288 C  
ENDROOT
BRANCH   2   3
HETATM    3  C   UNL     1      -9.114   4.967  71.780  1.00  0.00    -0.166 C  
BRANCH   3   4
HETATM    4  C   UNL     1      -8.227   6.200  71.611  1.00  0.00    -0.118 C  
BRANCH   4   5
HETATM    5  C   UNL     1      -8.062   6.574  70.178  1.00  0.00    -0.121 A  
HETATM    6  C   UNL     1      -8.399   7.694  69.432  1.00  0.00    -0.131 A  
HETATM    7  C   UNL     1      -6.815   6.253  65.832  1.00  0.00    -0.057 A  
HETATM    8  C   UNL     1      -7.845   7.478  68.135  1.00  0.00    -0.122 A  
HETATM    9  C   UNL     1      -7.384   6.165  68.138  1.00  0.00    -0.085 A  
HETATM   10  C   UNL     1      -7.202   7.593  65.799  1.00  0.00    -0.065 A  
HETATM   11  C   UNL     1      -7.706   8.223  66.943  1.00  0.00    -0.095 A  
HETATM   12  C   UNL     1      -6.876   5.513  67.018  1.00  0.00    -0.064 A  
HETATM   13  O   UNL     1      -7.492   5.627  69.382  1.00  0.00    -0.072 OA 
BRANCH   6  14
HETATM   14  C   UNL     1      -9.149   8.821  69.958  1.00  0.00    -0.160 C  
HETATM   15  O   UNL     1      -9.387   8.928  71.159  1.00  0.00    -0.211 OA 
BRANCH  14  16
HETATM   16  C   UNL     1      -9.703   9.849  69.030  1.00  0.00    -0.195 A  
HETATM   17  I   UNL     1     -11.870  13.383  70.103  1.00  0.00    -0.098 I  
HETATM   18  C   UNL     1     -10.854  11.916  67.428  1.00  0.00    -0.243 A  
HETATM   19  C   UNL     1     -10.246  10.991  69.612  1.00  0.00     0.070 A  
HETATM   20  C   UNL     1     -10.300  10.747  66.854  1.00  0.00    -0.241 A  
HETATM   21  I   UNL     1     -10.154  10.480  64.762  1.00  0.00    -0.135 I  
HETATM   22  C   UNL     1     -10.868  11.987  68.839  1.00  0.00    -0.211 A  
HETATM   23  C   UNL     1      -9.781   9.707  67.644  1.00  0.00    -0.182 A  
BRANCH  18  24
HETATM   24  O   UNL     1     -11.325  12.846  66.517  1.00  0.00    -0.291 OA 
BRANCH  24  25
HETATM   25  C   UNL     1     -12.005  13.954  67.093  1.00  0.00    -0.420 C  
BRANCH  25  26
HETATM   26  C   UNL     1     -11.307  15.317  66.985  1.00  0.00    -0.230 C  
BRANCH  26  27
HETATM   27  N   UNL     1     -10.974  15.630  65.567  1.00  0.00    -0.325 NA 
BRANCH  27  28
HETATM   28  C   UNL     1      -9.534  15.572  65.255  1.00  0.00     0.185 C  
HETATM   29  C   UNL     1      -8.594  15.947  66.396  1.00  0.00    -0.364 C  
ENDBRANCH  27  28
BRANCH  27  30
HETATM   30  C   UNL     1     -11.816  14.858  64.644  1.00  0.00    -0.407 C  
HETATM   31  C   UNL     1     -12.977  15.654  64.047  1.00  0.00     1.341 C  
ENDBRANCH  27  30
ENDBRANCH  26  27
ENDBRANCH  25  26
ENDBRANCH  24  25
ENDBRANCH  18  24
ENDBRANCH  14  16
ENDBRANCH   6  14
ENDBRANCH   4   5
ENDBRANCH   3   4
ENDBRANCH   2   3
TORSDOF 11
ENDMDL
MODEL      263
REMARK 921   NORMALIZED FREE ENERGY PREDICTED BY IDOCK:    2.37 KCAL/MOL
REMARK 922        TOTAL FREE ENERGY PREDICTED BY IDOCK:    1.75 KCAL/MOL
REMARK 923 INTER-LIGAND FREE ENERGY PREDICTED BY IDOCK:   -0.29 KCAL/MOL
REMARK 924 INTRA-LIGAND FREE ENERGY PREDICTED BY IDOCK:    2.04 KCAL/MOL
REMARK 927      BINDING AFFINITY PREDICTED BY RF-SCORE:    0.00 PKD
ROOT
HETATM    1  C   UNL     1     -11.106   5.537  67.059  1.00  0.00     0.177 C  
HETATM    2  C   UNL     1     -10.770   4.770  65.790  1.00  0.00    -0.220 C  
ENDROOT
BRANCH   2   3
HETATM    3  C   UNL     1     -10.244   5.697  64.693  1.00  0.00     1.859 C  
BRANCH   3   4
HETATM    4  C   UNL     1      -9.344   6.786  65.278  1.00  0.00     0.655 C  
BRANCH   4   5
HETATM    5  C   UNL     1      -8.262   6.214  66.129  1.00  0.00    -0.119 A  
HETATM    6  C   UNL     1      -6.991   6.641  66.483  1.00  0.00    -0.066 A  
HETATM    7  C   UNL     1      -6.139   3.343  68.921  1.00  0.00    -0.028 A  
HETATM    8  C   UNL     1      -6.514   5.693  67.437  1.00  0.00    -0.047 A  
HETATM    9  C   UNL     1      -7.450   4.663  67.442  1.00  0.00    -0.078 A  
HETATM   10  C   UNL     1      -5.206   4.378  68.999  1.00  0.00    -0.007 A  
HETATM   11  C   UNL     1      -5.385   5.562  68.275  1.00  0.00    -0.004 A  
HETATM   12  C   UNL     1      -7.301   3.476  68.154  1.00  0.00    -0.051 A  
HETATM   13  O   UNL     1      -8.520   4.991  66.671  1.00  0.00    -0.108 OA 
BRANCH   6  14
HETATM   14  C   UNL     1      -6.363   7.838  65.953  1.00  0.00    -0.042 C  
HETATM   15  O   UNL     1      -5.273   7.794  65.388  1.00  0.00    -0.028 OA 
BRANCH  14  16
HETATM   16  C   UNL     1      -7.010   9.169  66.144  1.00  0.00    -0.086 A  
HETATM   17  I   UNL     1      -6.559  11.792  69.499  1.00  0.00     0.060 I  
HETATM   18  C   UNL     1      -8.159  11.723  66.711  1.00  0.00    -0.133 A  
HETATM   19  C   UNL     1      -6.603   9.911  67.249  1.00  0.00    -0.070 A  
HETATM   20  C   UNL     1      -8.563  10.954  65.594  1.00  0.00    -0.160 A  
HETATM   21  I   UNL     1      -9.953  11.674  64.173  1.00  0.00    -0.305 I  
HETATM   22  C   UNL     1      -7.202  11.142  67.572  1.00  0.00    -0.101 A  
HETATM   23  C   UNL     1      -8.036   9.675  65.344  1.00  0.00    -0.127 A  
BRANCH  18  24
HETATM   24  O   UNL     1      -8.772  12.960  66.819  1.00  0.00    -0.190 OA 
BRANCH  24  25
HETATM   25  C   UNL     1      -9.339  13.236  68.093  1.00  0.00    -0.220 C  
BRANCH  25  26
HETATM   26  C   UNL     1     -10.282  14.444  68.176  1.00  0.00    -0.232 C  
BRANCH  26  27
HETATM   27  N   UNL     1     -11.371  14.199  69.163  1.00  0.00    -0.265 NA 
BRANCH  27  28
HETATM   28  C   UNL     1     -12.156  15.397  69.510  1.00  0.00    -0.305 C  
HETATM   29  C   UNL     1     -13.510  15.136  70.162  1.00  0.00     0.346 C  
ENDBRANCH  27  28
BRANCH  27  30
HETATM   30  C   UNL     1     -12.188  13.043  68.771  1.00  0.00    -0.011 C  
HETATM   31  C   UNL     1     -11.628  11.699  69.234  1.00  0.00    -0.385 C  
ENDBRANCH  27  30
ENDBRANCH  26  27
ENDBRANCH  25  26
ENDBRANCH  24  25
ENDBRANCH  18  24
ENDBRANCH  14  16
ENDBRANCH   6  14
ENDBRANCH   4   5
ENDBRANCH   3   4
ENDBRANCH   2   3
TORSDOF 11
ENDMDL
MODEL      264
REMARK 921   NORMALIZED FREE ENERGY PREDICTED BY IDOCK:    4.50 KCAL/MOL
REMARK 922        TOTAL FREE ENERGY PREDICTED BY IDOCK:    5.24 KCAL/MOL
REMARK 923 INTER-LIGAND FREE ENERGY PREDICTED BY IDOCK:    3.83 KCAL/MOL
REMARK 924 INTRA-LIGAND FREE ENERGY PREDICTED BY IDOCK:    1.41 KCAL/MOL
REMARK 927      BINDING AFFINITY PREDICTED BY RF-SCORE:    0.00 PKD
ROOT
HETATM    1  C   UNL     1     -10.614  17.321  70.758  1.00  0.00     1.395 C  
HETATM    2  C   UNL     1     -10.555  18.711  70.146  1.00  0.00     1.695 C  
ENDROOT
BRANCH   2   3
HETATM    3  C   UNL     1      -9.212  19.390  70.418  1.00  0.00     1.525 C  
BRANCH   3   4
HETATM    4  C   UNL     1      -8.077  18.678  69.682  1.00  0.00     0.634 C  
BRANCH   4   5
HETATM    5  C   UNL     1      -8.574  17.909  68.506  1.00  0.00    -0.293 A  
HETATM    6  C   UNL     1      -8.201  16.712  67.914  1.00  0.00    -0.183 A  
HETATM    7  C   UNL     1     -11.148  16.818  64.938  1.00  0.00    -0.061 A  
HETATM    8  C   UNL     1      -9.167  16.466  66.892  1.00  0.00    -0.237 A  
HETATM    9  C   UNL     1      -9.935  17.625  66.816  1.00  0.00    -0.320 A  
HETATM   10  C   UNL     1     -10.450  15.613  65.020  1.00  0.00    -0.364 A  
HETATM   11  C   UNL     1      -9.468  15.416  65.997  1.00  0.00    -0.381 A  
HETATM   12  C   UNL     1     -10.920  17.847  65.858  1.00  0.00     0.238 A  
HETATM   13  O   UNL     1      -9.592  18.487  67.810  1.00  0.00    -0.280 OA 
BRANCH   6  14
HETATM   14  C   UNL     1      -7.055  15.925  68.332  1.00  0.00    -0.117 C  
HETATM   15  O   UNL     1      -5.914  16.379  68.284  1.00  0.00    -0.102 OA 
BRANCH  14  16
HETATM   16  C   UNL     1      -7.239  14.511  68.772  1.00  0.00    -0.126 A  
HETATM   17  I   UNL     1     -10.336  11.818  67.547  1.00  0.00    -0.257 I  
HETATM   18  C   UNL     1      -7.780  11.801  69.499  1.00  0.00     0.522 A  
HETATM   19  C   UNL     1      -8.235  13.780  68.130  1.00  0.00    -0.160 A  
HETATM   20  C   UNL     1      -6.775  12.560  70.143  1.00  0.00     0.525 A  
HETATM   21  I   UNL     1      -5.495  11.727  71.605  1.00  0.00     0.890 I  
HETATM   22  C   UNL     1      -8.550  12.466  68.518  1.00  0.00    -0.060 A  
HETATM   23  C   UNL     1      -6.544  13.909  69.822  1.00  0.00    -0.054 A  
BRANCH  18  24
HETATM   24  O   UNL     1      -7.884  10.489  69.928  1.00  0.00    -0.117 OA 
BRANCH  24  25
HETATM   25  C   UNL     1      -6.959   9.590  69.330  1.00  0.00    -0.050 C  
BRANCH  25  26
HETATM   26  C   UNL     1      -6.868   8.189  69.950  1.00  0.00    -0.044 C  
BRANCH  26  27
HETATM   27  N   UNL     1      -6.605   7.163  68.903  1.00  0.00    -0.046 NA 
BRANCH  27  28
HETATM   28  C   UNL     1      -6.631   5.773  69.395  1.00  0.00    -0.054 C  
HETATM   29  C   UNL     1      -7.105   4.725  68.393  1.00  0.00    -0.057 C  
ENDBRANCH  27  28
BRANCH  27  30
HETATM   30  C   UNL     1      -7.442   7.392  67.718  1.00  0.00    -0.101 C  
HETATM   31  C   UNL     1      -8.944   7.349  67.999  1.00  0.00    -0.132 C  
ENDBRANCH  27  30
ENDBRANCH  26  27
ENDBRANCH  25  26
ENDBRANCH  24  25
ENDBRANCH  18  24
ENDBRANCH  14  16
ENDBRANCH   6  14
ENDBRANCH   4   5
ENDBRANCH   3   4
ENDBRANCH   2   3
TORSDOF 11
ENDMDL
MODEL      265
REMARK 921   NORMALIZED FREE ENERGY PREDICTED BY IDOCK:    6.40 KCAL/MOL
REMARK 922        TOTAL FREE ENERGY PREDICTED BY IDOCK:    8.37 KCAL/MOL
REMARK 923 INTER-LIGAND FREE ENERGY PREDICTED BY IDOCK:   -1.70 KCAL/MOL
REMARK 924 INTRA-LIGAND FREE ENERGY PREDICTED BY IDOCK:   10.07 KCAL/MOL
REMARK 927      BINDING AFFINITY PREDICTED BY RF-SCORE:    0.00 PKD
ROOT
HETATM    1  C   UNL     1     -10.423   9.348  68.309  1.00  0.00    -0.260 C  
HETATM    2  C   UNL     1     -11.604   8.409  68.122  1.00  0.00     1.621 C  
ENDROOT
BRANCH   2   3
HETATM    3  C   UNL     1     -11.147   6.975  67.851  1.00  0.00    -0.135 C  
BRANCH   3   4
HETATM    4  C   UNL     1     -10.119   6.929  66.721  1.00  0.00    -0.264 C  
BRANCH   4   5
HETATM    5  C   UNL     1      -9.041   7.942  66.910  1.00  0.00    -0.143 A  
HETATM    6  C   UNL     1      -8.893   9.268  66.533  1.00  0.00    -0.154 A  
HETATM    7  C   UNL     1      -5.132   9.757  68.312  1.00  0.00    -0.036 A  
HETATM    8  C   UNL     1      -7.679   9.711  67.139  1.00  0.00    -0.091 A  
HETATM    9  C   UNL     1      -7.090   8.569  67.675  1.00  0.00    -0.080 A  
HETATM   10  C   UNL     1      -5.712  10.938  67.850  1.00  0.00    -0.042 A  
HETATM   11  C   UNL     1      -6.987  10.935  67.274  1.00  0.00    -0.089 A  
HETATM   12  C   UNL     1      -5.825   8.543  68.256  1.00  0.00    -0.042 A  
HETATM   13  O   UNL     1      -7.926   7.504  67.558  1.00  0.00    -0.113 OA 
BRANCH   6  14
HETATM   14  C   UNL     1      -9.844   9.985  65.703  1.00  0.00    -0.295 C  
HETATM   15  O   UNL     1     -10.059   9.651  64.540  1.00  0.00     0.151 OA 
BRANCH  14  16
HETATM   16  C   UNL     1     -10.539  11.193  66.235  1.00  0.00    -0.309 A  
HETATM   17  I   UNL     1     -12.003  11.772  70.219  1.00  0.00    -0.110 I  
HETATM   18  C   UNL     1     -11.899  13.396  67.445  1.00  0.00    -0.375 A  
HETATM   19  C   UNL     1     -10.797  11.215  67.603  1.00  0.00    -0.295 A  
HETATM   20  C   UNL     1     -11.631  13.356  66.056  1.00  0.00    -0.344 A  
HETATM   21  I   UNL     1     -12.091  14.970  64.772  1.00  0.00     0.047 I  
HETATM   22  C   UNL     1     -11.517  12.265  68.201  1.00  0.00    -0.316 A  
HETATM   23  C   UNL     1     -11.009  12.249  65.453  1.00  0.00    -0.341 A  
BRANCH  18  24
HETATM   24  O   UNL     1     -12.518  14.553  67.885  1.00  0.00    -0.072 OA 
BRANCH  24  25
HETATM   25  C   UNL     1     -12.701  14.634  69.293  1.00  0.00     0.308 C  
BRANCH  25  26
HETATM   26  C   UNL     1     -13.245  15.961  69.838  1.00  0.00     1.179 C  
BRANCH  26  27
HETATM   27  N   UNL     1     -12.624  16.287  71.153  1.00  0.00     0.034 NA 
BRANCH  27  28
HETATM   28  C   UNL     1     -13.038  15.401  72.256  1.00  0.00    -0.405 C  
HETATM   29  C   UNL     1     -11.928  14.961  73.204  1.00  0.00    -0.326 C  
ENDBRANCH  27  28
BRANCH  27  30
HETATM   30  C   UNL     1     -11.170  16.442  71.026  1.00  0.00    -0.087 C  
HETATM   31  C   UNL     1     -10.656  16.336  69.590  1.00  0.00    -0.320 C  
ENDBRANCH  27  30
ENDBRANCH  26  27
ENDBRANCH  25  26
ENDBRANCH  24  25
ENDBRANCH  18  24
ENDBRANCH  14  16
ENDBRANCH   6  14
ENDBRANCH   4   5
ENDBRANCH   3   4
ENDBRANCH   2   3
TORSDOF 11
ENDMDL
MODEL      266
REMARK 921   NORMALIZED FREE ENERGY PREDICTED BY IDOCK:    8.63 KCAL/MOL
REMARK 922        TOTAL FREE ENERGY PREDICTED BY IDOCK:   12.03 KCAL/MOL
REMARK 923 INTER-LIGAND FREE ENERGY PREDICTED BY IDOCK:   10.49 KCAL/MOL
REMARK 924 INTRA-LIGAND FREE ENERGY PREDICTED BY IDOCK:    1.55 KCAL/MOL
REMARK 927      BINDING AFFINITY PREDICTED BY RF-SCORE:    0.00 PKD
ROOT
HETATM    1  C   UNL     1      -6.521  15.715  70.814  1.00  0.00     0.589 C  
HETATM    2  C   UNL     1      -7.463  16.891  70.611  1.00  0.00     3.301 C  
ENDROOT
BRANCH   2   3
HETATM    3  C   UNL     1      -6.698  18.184  70.329  1.00  0.00     0.817 C  
BRANCH   3   4
HETATM    4  C   UNL     1      -5.883  18.072  69.040  1.00  0.00    -0.211 C  
BRANCH   4   5
HETATM    5  C   UNL     1      -6.626  18.610  67.865  1.00  0.00    -0.213 A  
HETATM    6  C   UNL     1      -7.924  18.463  67.399  1.00  0.00    -0.241 A  
HETATM    7  C   UNL     1      -7.438  20.993  64.096  1.00  0.00     1.013 A  
HETATM    8  C   UNL     1      -8.041  19.352  66.289  1.00  0.00    -0.335 A  
HETATM    9  C   UNL     1      -6.753  19.823  66.048  1.00  0.00    -0.237 A  
HETATM   10  C   UNL     1      -8.755  20.601  64.336  1.00  0.00     2.816 A  
HETATM   11  C   UNL     1      -9.075  19.793  65.433  1.00  0.00     0.740 A  
HETATM   12  C   UNL     1      -6.406  20.629  64.968  1.00  0.00    -0.311 A  
HETATM   13  O   UNL     1      -5.903  19.394  67.018  1.00  0.00    -0.175 OA 
BRANCH   6  14
HETATM   14  C   UNL     1      -8.903  17.575  68.000  1.00  0.00    -0.258 C  
HETATM   15  O   UNL     1      -9.449  17.850  69.065  1.00  0.00    -0.211 OA 
BRANCH  14  16
HETATM   16  C   UNL     1      -9.222  16.269  67.354  1.00  0.00    -0.217 A  
HETATM   17  I   UNL     1     -12.078  15.565  64.241  1.00  0.00     0.715 I  
HETATM   18  C   UNL     1      -9.991  13.870  66.006  1.00  0.00    -0.310 A  
HETATM   19  C   UNL     1     -10.083  16.303  66.261  1.00  0.00    -0.340 A  
HETATM   20  C   UNL     1      -9.119  13.853  67.120  1.00  0.00    -0.239 A  
HETATM   21  I   UNL     1      -8.204  12.076  67.808  1.00  0.00    -0.188 I  
HETATM   22  C   UNL     1     -10.516  15.126  65.626  1.00  0.00    -0.359 A  
HETATM   23  C   UNL     1      -8.782  15.027  67.816  1.00  0.00    -0.167 A  
BRANCH  18  24
HETATM   24  O   UNL     1     -10.226  12.632  65.431  1.00  0.00    -0.281 OA 
BRANCH  24  25
HETATM   25  C   UNL     1     -11.590  12.229  65.417  1.00  0.00    -0.363 C  
BRANCH  25  26
HETATM   26  C   UNL     1     -11.881  10.817  64.892  1.00  0.00     1.921 C  
BRANCH  26  27
HETATM   27  N   UNL     1     -11.522  10.703  63.450  1.00  0.00     1.356 NA 
BRANCH  27  28
HETATM   28  C   UNL     1     -12.378  11.495  62.548  1.00  0.00     1.618 C  
HETATM   29  C   UNL     1     -13.401  12.398  63.229  1.00  0.00     0.815 C  
ENDBRANCH  27  28
BRANCH  27  30
HETATM   30  C   UNL     1     -10.084  10.915  63.247  1.00  0.00    -0.312 C  
HETATM   31  C   UNL     1      -9.201   9.839  63.880  1.00  0.00    -0.248 C  
ENDBRANCH  27  30
ENDBRANCH  26  27
ENDBRANCH  25  26
ENDBRANCH  24  25
ENDBRANCH  18  24
ENDBRANCH  14  16
ENDBRANCH   6  14
ENDBRANCH   4   5
ENDBRANCH   3   4
ENDBRANCH   2   3
TORSDOF 11
ENDMDL
MODEL      267
REMARK 921   NORMALIZED FREE ENERGY PREDICTED BY IDOCK:   10.01 KCAL/MOL
REMARK 922        TOTAL FREE ENERGY PREDICTED BY IDOCK:   14.29 KCAL/MOL
REMARK 923 INTER-LIGAND FREE ENERGY PREDICTED BY IDOCK:    7.65 KCAL/MOL
REMARK 924 INTRA-LIGAND FREE ENERGY PREDICTED BY IDOCK:    6.64 KCAL/MOL
REMARK 927      BINDING AFFINITY PREDICTED BY RF-SCORE:    0.00 PKD
ROOT
HETATM    1  C   UNL     1      -8.426  14.088  70.513  1.00  0.00     3.177 C  
HETATM    2  C   UNL     1      -9.211  12.877  70.033  1.00  0.00     3.458 C  
ENDROOT
BRANCH   2   3
HETATM    3  C   UNL     1      -8.315  11.879  69.299  1.00  0.00     0.556 C  
BRANCH   3   4
HETATM    4  C   UNL     1      -9.144  10.783  68.631  1.00  0.00    -0.173 C  
BRANCH   4   5
HETATM    5  C   UNL     1      -8.301   9.877  67.800  1.00  0.00    -0.114 A  
HETATM    6  C   UNL     1      -8.206   9.632  66.438  1.00  0.00    -0.119 A  
HETATM    7  C   UNL     1      -5.130   6.807  66.764  1.00  0.00    -0.013 A  
HETATM    8  C   UNL     1      -7.104   8.740  66.279  1.00  0.00    -0.082 A  
HETATM    9  C   UNL     1      -6.739   8.362  67.568  1.00  0.00    -0.063 A  
HETATM   10  C   UNL     1      -5.415   7.205  65.458  1.00  0.00    -0.028 A  
HETATM   11  C   UNL     1      -6.388   8.177  65.199  1.00  0.00    -0.048 A  
HETATM   12  C   UNL     1      -5.774   7.401  67.856  1.00  0.00    -0.030 A  
HETATM   13  O   UNL     1      -7.446   9.069  68.488  1.00  0.00    -0.083 OA 
BRANCH   6  14
HETATM   14  C   UNL     1      -9.084  10.228  65.446  1.00  0.00    -0.185 C  
HETATM   15  O   UNL     1      -9.355   9.646  64.399  1.00  0.00    -0.254 OA 
BRANCH  14  16
HETATM   16  C   UNL     1      -9.627  11.601  65.657  1.00  0.00    -0.252 A  
HETATM   17  I   UNL     1      -7.800  14.779  67.872  1.00  0.00    -0.208 I  
HETATM   18  C   UNL     1     -10.496  14.270  66.194  1.00  0.00    -0.292 A  
HETATM   19  C   UNL     1      -8.790  12.515  66.291  1.00  0.00     0.059 A  
HETATM   20  C   UNL     1     -11.334  13.327  65.553  1.00  0.00    -0.294 A  
HETATM   21  I   UNL     1     -13.249  13.837  64.818  1.00  0.00     1.568 I  
HETATM   22  C   UNL     1      -9.226  13.813  66.614  1.00  0.00    -0.223 A  
HETATM   23  C   UNL     1     -10.926  11.999  65.336  1.00  0.00    -0.347 A  
BRANCH  18  24
HETATM   24  O   UNL     1     -11.043  15.534  66.335  1.00  0.00    -0.283 OA 
BRANCH  24  25
HETATM   25  C   UNL     1     -10.271  16.585  65.766  1.00  0.00    -0.329 C  
BRANCH  25  26
HETATM   26  C   UNL     1      -9.396  17.393  66.734  1.00  0.00    -0.268 C  
BRANCH  26  27
HETATM   27  N   UNL     1      -9.869  17.229  68.138  1.00  0.00    -0.277 NA 
BRANCH  27  28
HETATM   28  C   UNL     1      -9.662  18.414  68.990  1.00  0.00    -0.223 C  
HETATM   29  C   UNL     1      -8.746  19.490  68.416  1.00  0.00    -0.389 C  
ENDBRANCH  27  28
BRANCH  27  30
HETATM   30  C   UNL     1     -11.238  16.699  68.175  1.00  0.00    -0.202 C  
HETATM   31  C   UNL     1     -12.308  17.710  67.761  1.00  0.00     3.612 C  
ENDBRANCH  27  30
ENDBRANCH  26  27
ENDBRANCH  25  26
ENDBRANCH  24  25
ENDBRANCH  18  24
ENDBRANCH  14  16
ENDBRANCH   6  14
ENDBRANCH   4   5
ENDBRANCH   3   4
ENDBRANCH   2   3
TORSDOF 11
ENDMDL
MODEL      268
REMARK 921   NORMALIZED FREE ENERGY PREDICTED BY IDOCK:   18.04 KCAL/MOL
REMARK 922        TOTAL FREE ENERGY PREDICTED BY IDOCK:   27.49 KCAL/MOL
REMARK 923 INTER-LIGAND FREE ENERGY PREDICTED BY IDOCK:   23.00 KCAL/MOL
REMARK 924 INTRA-LIGAND FREE ENERGY PREDICTED BY IDOCK:    4.49 KCAL/MOL
REMARK 927      BINDING AFFINITY PREDICTED BY RF-SCORE:    0.00 PKD
ROOT
HETATM    1  C   UNL     1      -8.488  14.071  70.670  1.00  0.00     3.631 C  
HETATM    2  C   UNL     1      -9.318  12.798  70.656  1.00  0.00     7.384 C  
ENDROOT
BRANCH   2   3
HETATM    3  C   UNL     1      -8.476  11.579  70.276  1.00  0.00     3.203 C  
BRANCH   3   4
HETATM    4  C   UNL     1      -9.341  10.322  70.176  1.00  0.00     0.185 C  
BRANCH   4   5
HETATM    5  C   UNL     1      -8.527   9.110  69.877  1.00  0.00    -0.147 A  
HETATM    6  C   UNL     1      -8.474   8.227  68.809  1.00  0.00    -0.125 A  
HETATM    7  C   UNL     1      -5.401   5.870  70.405  1.00  0.00    -0.012 A  
HETATM    8  C   UNL     1      -7.381   7.351  69.082  1.00  0.00    -0.090 A  
HETATM    9  C   UNL     1      -6.979   7.648  70.381  1.00  0.00    -0.047 A  
HETATM   10  C   UNL     1      -5.723   5.581  69.079  1.00  0.00    -0.015 A  
HETATM   11  C   UNL     1      -6.700   6.318  68.401  1.00  0.00    -0.068 A  
HETATM   12  C   UNL     1      -6.009   6.934  71.080  1.00  0.00    -0.036 A  
HETATM   13  O   UNL     1      -7.655   8.729  70.852  1.00  0.00    -0.078 OA 
BRANCH   6  14
HETATM   14  C   UNL     1      -9.379   8.275  67.674  1.00  0.00    -0.137 C  
HETATM   15  O   UNL     1      -9.438   7.355  66.863  1.00  0.00    -0.146 OA 
BRANCH  14  16
HETATM   16  C   UNL     1     -10.218   9.486  67.438  1.00  0.00    -0.285 A  
HETATM   17  I   UNL     1     -10.281  11.922  63.916  1.00  0.00    -0.480 I  
HETATM   18  C   UNL     1     -11.718  11.831  66.792  1.00  0.00    -0.116 A  
HETATM   19  C   UNL     1     -10.177  10.035  66.159  1.00  0.00    -0.283 A  
HETATM   20  C   UNL     1     -11.744  11.261  68.086  1.00  0.00    -0.253 A  
HETATM   21  I   UNL     1     -12.991  12.007  69.622  1.00  0.00     2.213 I  
HETATM   22  C   UNL     1     -10.864  11.222  65.845  1.00  0.00    -0.202 A  
HETATM   23  C   UNL     1     -10.966  10.138  68.419  1.00  0.00    -0.293 A  
BRANCH  18  24
HETATM   24  O   UNL     1     -12.538  12.933  66.624  1.00  0.00    -0.247 OA 
BRANCH  24  25
HETATM   25  C   UNL     1     -13.482  12.819  65.566  1.00  0.00     2.007 C  
BRANCH  25  26
HETATM   26  C   UNL     1     -13.121  13.516  64.248  1.00  0.00     0.679 C  
BRANCH  26  27
HETATM   27  N   UNL     1     -12.159  14.630  64.483  1.00  0.00    -0.480 NA 
BRANCH  27  28
HETATM   28  C   UNL     1     -12.395  15.822  63.650  1.00  0.00     1.101 C  
HETATM   29  C   UNL     1     -12.926  17.049  64.385  1.00  0.00     6.495 C  
ENDBRANCH  27  28
BRANCH  27  30
HETATM   30  C   UNL     1     -12.030  14.920  65.917  1.00  0.00    -0.054 C  
HETATM   31  C   UNL     1     -10.588  15.121  66.384  1.00  0.00    -0.305 C  
ENDBRANCH  27  30
ENDBRANCH  26  27
ENDBRANCH  25  26
ENDBRANCH  24  25
ENDBRANCH  18  24
ENDBRANCH  14  16
ENDBRANCH   6  14
ENDBRANCH   4   5
ENDBRANCH   3   4
ENDBRANCH   2   3
TORSDOF 11
ENDMDL
MODEL      269
REMARK 921   NORMALIZED FREE ENERGY PREDICTED BY IDOCK:   27.38 KCAL/MOL
REMARK 922        TOTAL FREE ENERGY PREDICTED BY IDOCK:   42.84 KCAL/MOL
REMARK 923 INTER-LIGAND FREE ENERGY PREDICTED BY IDOCK:   21.63 KCAL/MOL
REMARK 924 INTRA-LIGAND FREE ENERGY PREDICTED BY IDOCK:   21.22 KCAL/MOL
REMARK 927      BINDING AFFINITY PREDICTED BY RF-SCORE:    0.00 PKD
ROOT
HETATM    1  C   UNL     1     -11.959  18.355  64.172  1.00  0.00     8.192 C  
HETATM    2  C   UNL     1     -13.082  17.465  64.680  1.00  0.00     9.535 C  
ENDROOT
BRANCH   2   3
HETATM    3  C   UNL     1     -13.127  16.131  63.934  1.00  0.00     2.843 C  
BRANCH   3   4
HETATM    4  C   UNL     1     -13.248  14.960  64.908  1.00  0.00     0.972 C  
BRANCH   4   5
HETATM    5  C   UNL     1     -11.913  14.438  65.318  1.00  0.00    -0.382 A  
HETATM    6  C   UNL     1     -11.102  14.639  66.425  1.00  0.00    -0.334 A  
HETATM    7  C   UNL     1      -8.072  12.036  65.162  1.00  0.00     1.762 A  
HETATM    8  C   UNL     1     -10.004  13.739  66.271  1.00  0.00    -0.312 A  
HETATM    9  C   UNL     1     -10.136  13.203  64.993  1.00  0.00    -0.222 A  
HETATM   10  C   UNL     1      -7.933  12.494  66.472  1.00  0.00     0.332 A  
HETATM   11  C   UNL     1      -8.895  13.335  67.045  1.00  0.00    -0.216 A  
HETATM   12  C   UNL     1      -9.198  12.364  64.399  1.00  0.00     0.674 A  
HETATM   13  O   UNL     1     -11.304  13.607  64.427  1.00  0.00    -0.369 OA 
BRANCH   6  14
HETATM   14  C   UNL     1     -11.401  15.583  67.487  1.00  0.00    -0.232 C  
HETATM   15  O   UNL     1     -12.468  15.546  68.095  1.00  0.00     0.374 OA 
BRANCH  14  16
HETATM   16  C   UNL     1     -10.431  16.666  67.820  1.00  0.00    -0.316 A  
HETATM   17  I   UNL     1      -6.753  16.253  69.975  1.00  0.00     0.808 I  
HETATM   18  C   UNL     1      -8.458  18.592  68.572  1.00  0.00    -0.329 A  
HETATM   19  C   UNL     1      -9.229  16.273  68.404  1.00  0.00    -0.203 A  
HETATM   20  C   UNL     1      -9.685  18.973  67.981  1.00  0.00    -0.340 A  
HETATM   21  I   UNL     1     -10.120  20.980  67.480  1.00  0.00     1.457 I  
HETATM   22  C   UNL     1      -8.276  17.214  68.832  1.00  0.00    -0.192 A  
HETATM   23  C   UNL     1     -10.678  18.030  67.659  1.00  0.00    -0.360 A  
BRANCH  18  24
HETATM   24  O   UNL     1      -7.587  19.636  68.831  1.00  0.00    -0.354 OA 
BRANCH  24  25
HETATM   25  C   UNL     1      -6.588  19.353  69.803  1.00  0.00    -0.226 C  
BRANCH  25  26
HETATM   26  C   UNL     1      -6.049  17.916  69.834  1.00  0.00    -0.166 C  
BRANCH  26  27
HETATM   27  N   UNL     1      -6.205  17.264  68.504  1.00  0.00    -0.156 NA 
BRANCH  27  28
HETATM   28  C   UNL     1      -6.334  18.206  67.377  1.00  0.00    -0.172 C  
HETATM   29  C   UNL     1      -5.976  17.648  66.004  1.00  0.00    -0.223 C  
ENDBRANCH  27  28
BRANCH  27  30
HETATM   30  C   UNL     1      -5.184  16.228  68.302  1.00  0.00    -0.102 C  
HETATM   31  C   UNL     1      -5.738  14.803  68.282  1.00  0.00    -0.116 C  
ENDBRANCH  27  30
ENDBRANCH  26  27
ENDBRANCH  25  26
ENDBRANCH  24  25
ENDBRANCH  18  24
ENDBRANCH  14  16
ENDBRANCH   6  14
ENDBRANCH   4   5
ENDBRANCH   3   4
ENDBRANCH   2   3
TORSDOF 11
ENDMDL
MODEL      270
REMARK 921   NORMALIZED FREE ENERGY PREDICTED BY IDOCK:   61.15 KCAL/MOL
REMARK 922        TOTAL FREE ENERGY PREDICTED BY IDOCK:   98.32 KCAL/MOL
REMARK 923 INTER-LIGAND FREE ENERGY PREDICTED BY IDOCK:   30.80 KCAL/MOL
REMARK 924 INTRA-LIGAND FREE ENERGY PREDICTED BY IDOCK:   67.52 KCAL/MOL
REMARK 927      BINDING AFFINITY PREDICTED BY RF-SCORE:    0.00 PKD
ROOT
HETATM    1  C   UNL     1     -12.048  18.440  64.104  1.00  0.00     8.904 C  
HETATM    2  C   UNL     1     -13.327  17.789  64.605  1.00  0.00    13.436 C  
ENDROOT
BRANCH   2   3
HETATM    3  C   UNL     1     -13.702  16.564  63.771  1.00  0.00     6.321 C  
BRANCH   3   4
HETATM    4  C   UNL     1     -13.960  15.349  64.661  1.00  0.00     3.543 C  
BRANCH   4   5
HETATM    5  C   UNL     1     -12.765  14.463  64.752  1.00  0.00    -0.131 A  
HETATM    6  C   UNL     1     -11.689  14.387  65.624  1.00  0.00    -0.356 A  
HETATM    7  C   UNL     1      -9.899  11.100  63.744  1.00  0.00    -0.374 A  
HETATM    8  C   UNL     1     -10.956  13.225  65.237  1.00  0.00    -0.307 A  
HETATM    9  C   UNL     1     -11.534  12.799  64.044  1.00  0.00    -0.417 A  
HETATM   10  C   UNL     1      -9.327  11.449  64.968  1.00  0.00    -0.158 A  
HETATM   11  C   UNL     1      -9.851  12.499  65.731  1.00  0.00    -0.244 A  
HETATM   12  C   UNL     1     -11.038  11.757  63.266  1.00  0.00    -0.370 A  
HETATM   13  O   UNL     1     -12.644  13.532  63.766  1.00  0.00    -0.701 OA 
BRANCH   6  14
HETATM   14  C   UNL     1     -11.451  15.334  66.699  1.00  0.00    -0.107 C  
HETATM   15  O   UNL     1     -12.313  15.581  67.538  1.00  0.00     0.506 OA 
BRANCH  14  16
HETATM   16  C   UNL     1     -10.160  16.078  66.767  1.00  0.00    -0.272 A  
HETATM   17  I   UNL     1      -9.647  20.322  67.022  1.00  0.00    -0.478 I  
HETATM   18  C   UNL     1      -7.804  17.691  66.888  1.00  0.00    -0.224 A  
HETATM   19  C   UNL     1     -10.238  17.450  66.992  1.00  0.00    -0.323 A  
HETATM   20  C   UNL     1      -7.743  16.296  66.657  1.00  0.00    -0.251 A  
HETATM   21  I   UNL     1      -5.908  15.257  66.512  1.00  0.00     4.302 I  
HETATM   22  C   UNL     1      -9.091  18.263  66.995  1.00  0.00    -0.271 A  
HETATM   23  C   UNL     1      -8.904  15.511  66.545  1.00  0.00    -0.348 A  
BRANCH  18  24
HETATM   24  O   UNL     1      -6.574  18.322  66.971  1.00  0.00    -0.178 OA 
BRANCH  24  25
HETATM   25  C   UNL     1      -6.572  19.681  66.553  1.00  0.00    -0.186 C  
BRANCH  25  26
HETATM   26  C   UNL     1      -7.943  20.351  66.391  1.00  0.00    -0.124 C  
BRANCH  26  27
HETATM   27  N   UNL     1      -9.026  19.472  66.916  1.00  0.00    -0.310 NA 
BRANCH  27  28
HETATM   28  C   UNL     1      -8.562  18.424  67.843  1.00  0.00    -0.272 C  
HETATM   29  C   UNL     1      -9.623  17.845  68.772  1.00  0.00    -0.290 C  
ENDBRANCH  27  28
BRANCH  27  30
HETATM   30  C   UNL     1     -10.148  20.268  67.429  1.00  0.00    -0.394 C  
HETATM   31  C   UNL     1      -9.742  21.332  68.449  1.00  0.00     0.874 C  
ENDBRANCH  27  30
ENDBRANCH  26  27
ENDBRANCH  25  26
ENDBRANCH  24  25
ENDBRANCH  18  24
ENDBRANCH  14  16
ENDBRANCH   6  14
ENDBRANCH   4   5
ENDBRANCH   3   4
ENDBRANCH   2   3
TORSDOF 11
ENDMDL
