MODEL        1
REMARK 921   NORMALIZED FREE ENERGY PREDICTED BY IDOCK:   -7.22 KCAL/MOL
REMARK 922        TOTAL FREE ENERGY PREDICTED BY IDOCK:  -11.19 KCAL/MOL
REMARK 923 INTER-LIGAND FREE ENERGY PREDICTED BY IDOCK:  -10.17 KCAL/MOL
REMARK 924 INTRA-LIGAND FREE ENERGY PREDICTED BY IDOCK:   -1.02 KCAL/MOL
REMARK 927      BINDING AFFINITY PREDICTED BY RF-SCORE:    0.00 PKD
ROOT
HETATM    1  C   UNL     1     -13.966   8.009  71.456  1.00  0.00    -0.433 C  
HETATM    2  C   UNL     1     -13.658   9.272  72.249  1.00  0.00    -0.480 C  
ENDROOT
BRANCH   2   3
HETATM    3  N   UNL     1     -12.291   9.768  72.036  1.00  0.00    -0.322 NA 
HETATM    4  C   UNL     1     -11.287   8.700  72.086  1.00  0.00    -0.364 C  
HETATM    5  C   UNL     1     -10.108   9.301  71.350  1.00  0.00    -0.348 C  
HETATM    6  C   UNL     1     -10.760  10.036  70.196  1.00  0.00    -0.361 C  
HETATM    7  C   UNL     1     -12.160  10.410  70.703  1.00  0.00    -0.348 C  
BRANCH   7   8
HETATM    8  C   UNL     1     -12.358  11.935  70.826  1.00  0.00    -0.320 C  
BRANCH   8   9
HETATM    9  N   UNL     1     -11.999  12.707  69.647  1.00  0.00    -0.309 N  
HETATM   10  C   UNL     1     -12.220  14.063  69.528  1.00  0.00    -0.308 C  
HETATM   11  H   UNL     1     -11.559  12.220  68.867  1.00  0.00     0.000 HD 
HETATM   12  O   UNL     1     -12.786  14.741  70.369  1.00  0.00    -0.347 OA 
BRANCH  10  13
HETATM   13  C   UNL     1     -11.760  14.656  68.241  1.00  0.00    -0.359 A  
HETATM   14  C   UNL     1     -12.140  13.958  67.077  1.00  0.00    -0.451 A  
HETATM   15  C   UNL     1     -11.768  14.408  65.806  1.00  0.00    -0.362 A  
HETATM   16  C   UNL     1     -11.063  15.861  68.112  1.00  0.00    -0.338 A  
HETATM   17  C   UNL     1     -11.009  15.570  65.658  1.00  0.00    -0.303 A  
HETATM   18  N   UNL     1     -10.725  16.144  64.408  1.00  0.00    -0.806 NA 
HETATM   19  C   UNL     1     -10.735  16.313  66.817  1.00  0.00    -0.204 A  
HETATM   20  H2  UNL     1     -11.615  16.298  63.934  1.00  0.00     0.000 HD 
HETATM   21  H1  UNL     1     -10.171  16.994  64.300  1.00  0.00     0.000 HD 
BRANCH  15  22
HETATM   22  S   UNL     1     -12.148  13.348  64.420  1.00  0.00    -0.416 S  
HETATM   23  O   UNL     1     -13.133  12.383  64.874  1.00  0.00    -0.765 OA 
HETATM   24  O   UNL     1     -12.447  14.225  63.299  1.00  0.00    -0.705 OA 
BRANCH  22  25
HETATM   25  C   UNL     1     -10.629  12.492  64.068  1.00  0.00    -0.421 C  
HETATM   26  C   UNL     1     -10.643  11.099  64.681  1.00  0.00    -0.386 C  
ENDBRANCH  22  25
ENDBRANCH  15  22
BRANCH  16  27
HETATM   27  O   UNL     1     -10.699  16.747  69.088  1.00  0.00    -0.329 OA 
HETATM   28  C   UNL     1      -9.954  17.898  68.705  1.00  0.00    -0.387 C  
ENDBRANCH  16  27
ENDBRANCH  10  13
ENDBRANCH   8   9
ENDBRANCH   7   8
ENDBRANCH   2   3
TORSDOF 7
ENDMDL
MODEL        2
REMARK 921   NORMALIZED FREE ENERGY PREDICTED BY IDOCK:   -7.09 KCAL/MOL
REMARK 922        TOTAL FREE ENERGY PREDICTED BY IDOCK:  -11.02 KCAL/MOL
REMARK 923 INTER-LIGAND FREE ENERGY PREDICTED BY IDOCK:   -9.91 KCAL/MOL
REMARK 924 INTRA-LIGAND FREE ENERGY PREDICTED BY IDOCK:   -1.10 KCAL/MOL
REMARK 927      BINDING AFFINITY PREDICTED BY RF-SCORE:    0.00 PKD
ROOT
HETATM    1  C   UNL     1     -10.623  15.668  65.348  1.00  0.00    -0.436 C  
HETATM    2  C   UNL     1     -10.485  14.335  66.073  1.00  0.00    -0.301 C  
ENDROOT
BRANCH   2   3
HETATM    3  N   UNL     1     -11.314  13.272  65.488  1.00  0.00    -0.291 NA 
HETATM    4  C   UNL     1     -12.054  13.719  64.303  1.00  0.00    -0.440 C  
HETATM    5  C   UNL     1     -12.383  12.422  63.594  1.00  0.00    -0.647 C  
HETATM    6  C   UNL     1     -11.115  11.607  63.758  1.00  0.00    -0.499 C  
HETATM    7  C   UNL     1     -10.477  12.124  65.056  1.00  0.00    -0.290 C  
BRANCH   7   8
HETATM    8  C   UNL     1     -10.436  11.050  66.163  1.00  0.00    -0.244 C  
BRANCH   8   9
HETATM    9  N   UNL     1     -11.155  11.385  67.382  1.00  0.00    -0.272 N  
HETATM   10  C   UNL     1     -10.647  11.179  68.648  1.00  0.00    -0.193 C  
HETATM   11  H   UNL     1     -12.085  11.794  67.297  1.00  0.00     0.000 HD 
HETATM   12  O   UNL     1      -9.572  10.649  68.877  1.00  0.00    -0.181 OA 
BRANCH  10  13
HETATM   13  C   UNL     1     -11.546  11.608  69.755  1.00  0.00    -0.389 A  
HETATM   14  C   UNL     1     -11.828  12.988  69.814  1.00  0.00    -0.381 A  
HETATM   15  C   UNL     1     -12.656  13.520  70.808  1.00  0.00    -0.309 A  
HETATM   16  C   UNL     1     -12.170  10.750  70.666  1.00  0.00    -0.379 A  
HETATM   17  C   UNL     1     -13.231  12.689  71.771  1.00  0.00    -0.359 A  
HETATM   18  N   UNL     1     -14.176  13.143  72.705  1.00  0.00    -0.655 NA 
HETATM   19  C   UNL     1     -13.032  11.306  71.634  1.00  0.00    -0.537 A  
HETATM   20  H2  UNL     1     -14.938  13.577  72.182  1.00  0.00     0.000 HD 
HETATM   21  H1  UNL     1     -14.597  12.536  73.409  1.00  0.00     0.000 HD 
BRANCH  15  22
HETATM   22  S   UNL     1     -12.793  15.298  70.892  1.00  0.00    -0.461 S  
HETATM   23  O   UNL     1     -12.280  15.829  69.643  1.00  0.00    -0.336 OA 
HETATM   24  O   UNL     1     -14.159  15.587  71.302  1.00  0.00    -0.548 OA 
BRANCH  22  25
HETATM   25  C   UNL     1     -11.701  15.780  72.211  1.00  0.00    -0.478 C  
HETATM   26  C   UNL     1     -12.493  16.133  73.461  1.00  0.00    -0.671 C  
ENDBRANCH  22  25
ENDBRANCH  15  22
BRANCH  16  27
HETATM   27  O   UNL     1     -12.131   9.384  70.718  1.00  0.00    -0.276 OA 
HETATM   28  C   UNL     1     -11.478   8.774  71.827  1.00  0.00    -0.342 C  
ENDBRANCH  16  27
ENDBRANCH  10  13
ENDBRANCH   8   9
ENDBRANCH   7   8
ENDBRANCH   2   3
TORSDOF 7
ENDMDL
MODEL        3
REMARK 921   NORMALIZED FREE ENERGY PREDICTED BY IDOCK:   -6.96 KCAL/MOL
REMARK 922        TOTAL FREE ENERGY PREDICTED BY IDOCK:  -10.84 KCAL/MOL
REMARK 923 INTER-LIGAND FREE ENERGY PREDICTED BY IDOCK:   -9.72 KCAL/MOL
REMARK 924 INTRA-LIGAND FREE ENERGY PREDICTED BY IDOCK:   -1.12 KCAL/MOL
REMARK 927      BINDING AFFINITY PREDICTED BY RF-SCORE:    0.00 PKD
ROOT
HETATM    1  C   UNL     1     -10.110   8.048  72.842  1.00  0.00    -0.376 C  
HETATM    2  C   UNL     1     -10.021   8.609  71.428  1.00  0.00    -0.254 C  
ENDROOT
BRANCH   2   3
HETATM    3  N   UNL     1     -11.291   9.175  70.952  1.00  0.00    -0.277 NA 
HETATM    4  C   UNL     1     -12.201   9.524  72.047  1.00  0.00    -0.298 C  
HETATM    5  C   UNL     1     -13.143  10.521  71.407  1.00  0.00    -0.509 C  
HETATM    6  C   UNL     1     -12.224  11.357  70.539  1.00  0.00    -0.478 C  
HETATM    7  C   UNL     1     -11.059  10.424  70.181  1.00  0.00    -0.314 C  
BRANCH   7   8
HETATM    8  C   UNL     1     -10.994  10.111  68.671  1.00  0.00    -0.230 C  
BRANCH   8   9
HETATM    9  N   UNL     1     -11.195  11.250  67.790  1.00  0.00    -0.271 N  
HETATM   10  C   UNL     1     -10.216  12.182  67.513  1.00  0.00    -0.199 C  
HETATM   11  H   UNL     1     -12.109  11.367  67.353  1.00  0.00     0.000 HD 
HETATM   12  O   UNL     1      -9.105  12.178  68.016  1.00  0.00    -0.177 OA 
BRANCH  10  13
HETATM   13  C   UNL     1     -10.633  13.259  66.572  1.00  0.00    -0.289 A  
HETATM   14  C   UNL     1      -9.985  14.499  66.738  1.00  0.00    -0.267 A  
HETATM   15  C   UNL     1     -10.289  15.593  65.921  1.00  0.00    -0.350 A  
HETATM   16  C   UNL     1     -11.541  13.103  65.520  1.00  0.00    -0.335 A  
HETATM   17  C   UNL     1     -11.246  15.481  64.911  1.00  0.00    -0.389 A  
HETATM   18  N   UNL     1     -11.493  16.497  63.975  1.00  0.00    -1.581 NA 
HETATM   19  C   UNL     1     -11.800  14.210  64.686  1.00  0.00    -0.443 A  
HETATM   20  H2  UNL     1     -10.603  16.724  63.529  1.00  0.00     0.000 HD 
HETATM   21  H1  UNL     1     -12.192  16.414  63.236  1.00  0.00     0.000 HD 
BRANCH  15  22
HETATM   22  S   UNL     1      -9.542  17.159  66.341  1.00  0.00    -0.270 S  
HETATM   23  O   UNL     1      -8.183  17.138  65.832  1.00  0.00    -0.526 OA 
HETATM   24  O   UNL     1     -10.470  18.191  65.901  1.00  0.00    -0.518 OA 
BRANCH  22  25
HETATM   25  C   UNL     1      -9.487  17.180  68.118  1.00  0.00    -0.269 C  
HETATM   26  C   UNL     1      -8.525  18.249  68.614  1.00  0.00    -0.301 C  
ENDBRANCH  22  25
ENDBRANCH  15  22
BRANCH  16  27
HETATM   27  O   UNL     1     -12.189  11.971  65.110  1.00  0.00    -0.403 OA 
HETATM   28  C   UNL     1     -12.575  11.877  63.744  1.00  0.00    -0.396 C  
ENDBRANCH  16  27
ENDBRANCH  10  13
ENDBRANCH   8   9
ENDBRANCH   7   8
ENDBRANCH   2   3
TORSDOF 7
ENDMDL
MODEL        4
REMARK 921   NORMALIZED FREE ENERGY PREDICTED BY IDOCK:   -6.93 KCAL/MOL
REMARK 922        TOTAL FREE ENERGY PREDICTED BY IDOCK:  -10.78 KCAL/MOL
REMARK 923 INTER-LIGAND FREE ENERGY PREDICTED BY IDOCK:   -9.57 KCAL/MOL
REMARK 924 INTRA-LIGAND FREE ENERGY PREDICTED BY IDOCK:   -1.22 KCAL/MOL
REMARK 927      BINDING AFFINITY PREDICTED BY RF-SCORE:    0.00 PKD
ROOT
HETATM    1  C   UNL     1     -12.281  12.633  65.046  1.00  0.00    -0.535 C  
HETATM    2  C   UNL     1     -12.318  13.800  66.026  1.00  0.00    -0.457 C  
ENDROOT
BRANCH   2   3
HETATM    3  N   UNL     1     -11.020  14.473  66.170  1.00  0.00    -0.315 NA 
HETATM    4  C   UNL     1     -10.876  15.624  65.273  1.00  0.00    -0.406 C  
HETATM    5  C   UNL     1      -9.778  16.435  65.928  1.00  0.00    -0.327 C  
HETATM    6  C   UNL     1     -10.101  16.327  67.404  1.00  0.00    -0.260 C  
HETATM    7  C   UNL     1     -10.839  14.988  67.552  1.00  0.00    -0.297 C  
BRANCH   7   8
HETATM    8  C   UNL     1     -10.051  13.968  68.400  1.00  0.00    -0.236 C  
BRANCH   8   9
HETATM    9  N   UNL     1     -10.852  13.157  69.303  1.00  0.00    -0.440 N  
HETATM   10  C   UNL     1     -10.936  11.783  69.223  1.00  0.00    -0.175 C  
HETATM   11  H   UNL     1     -11.380  13.631  70.036  1.00  0.00     0.000 HD 
HETATM   12  O   UNL     1     -10.396  11.113  68.358  1.00  0.00    -0.172 OA 
BRANCH  10  13
HETATM   13  C   UNL     1     -11.802  11.153  70.258  1.00  0.00    -0.455 A  
HETATM   14  C   UNL     1     -11.656   9.759  70.411  1.00  0.00    -0.327 A  
HETATM   15  C   UNL     1     -12.415   9.047  71.346  1.00  0.00    -0.317 A  
HETATM   16  C   UNL     1     -12.668  11.842  71.112  1.00  0.00    -0.305 A  
HETATM   17  C   UNL     1     -13.338   9.705  72.160  1.00  0.00    -0.454 A  
HETATM   18  N   UNL     1     -14.024   9.070  73.207  1.00  0.00    -1.199 NA 
HETATM   19  C   UNL     1     -13.392  11.106  72.074  1.00  0.00    -0.384 A  
HETATM   20  H2  UNL     1     -13.325   8.648  73.818  1.00  0.00     0.000 HD 
HETATM   21  H1  UNL     1     -14.699   9.551  73.802  1.00  0.00     0.000 HD 
BRANCH  15  22
HETATM   22  S   UNL     1     -12.278   7.267  71.324  1.00  0.00    -0.359 S  
HETATM   23  O   UNL     1     -13.603   6.731  71.574  1.00  0.00    -0.229 OA 
HETATM   24  O   UNL     1     -11.570   6.923  70.100  1.00  0.00    -0.322 OA 
BRANCH  22  25
HETATM   25  C   UNL     1     -11.230   6.871  72.704  1.00  0.00    -0.260 C  
HETATM   26  C   UNL     1     -10.170   7.944  72.900  1.00  0.00    -0.397 C  
ENDBRANCH  22  25
ENDBRANCH  15  22
BRANCH  16  27
HETATM   27  O   UNL     1     -12.876  13.189  71.215  1.00  0.00    -0.353 OA 
HETATM   28  C   UNL     1     -13.512  13.683  72.389  1.00  0.00    -0.584 C  
ENDBRANCH  16  27
ENDBRANCH  10  13
ENDBRANCH   8   9
ENDBRANCH   7   8
ENDBRANCH   2   3
TORSDOF 7
ENDMDL
MODEL        5
REMARK 921   NORMALIZED FREE ENERGY PREDICTED BY IDOCK:   -6.92 KCAL/MOL
REMARK 922        TOTAL FREE ENERGY PREDICTED BY IDOCK:  -10.78 KCAL/MOL
REMARK 923 INTER-LIGAND FREE ENERGY PREDICTED BY IDOCK:   -9.23 KCAL/MOL
REMARK 924 INTRA-LIGAND FREE ENERGY PREDICTED BY IDOCK:   -1.54 KCAL/MOL
REMARK 927      BINDING AFFINITY PREDICTED BY RF-SCORE:    0.00 PKD
ROOT
HETATM    1  C   UNL     1     -11.510  15.939  69.198  1.00  0.00    -0.377 C  
HETATM    2  C   UNL     1     -11.281  15.759  67.703  1.00  0.00    -0.246 C  
ENDROOT
BRANCH   2   3
HETATM    3  N   UNL     1     -11.341  14.354  67.275  1.00  0.00    -0.327 NA 
HETATM    4  C   UNL     1     -12.204  14.154  66.106  1.00  0.00    -0.442 C  
HETATM    5  C   UNL     1     -11.720  12.834  65.545  1.00  0.00    -0.436 C  
HETATM    6  C   UNL     1     -10.215  12.922  65.699  1.00  0.00    -0.295 C  
HETATM    7  C   UNL     1      -9.993  13.856  66.897  1.00  0.00    -0.264 C  
BRANCH   7   8
HETATM    8  C   UNL     1      -9.338  13.137  68.095  1.00  0.00    -0.217 C  
BRANCH   8   9
HETATM    9  N   UNL     1     -10.260  12.500  69.020  1.00  0.00    -0.426 N  
HETATM   10  C   UNL     1     -10.463  11.136  69.076  1.00  0.00    -0.206 C  
HETATM   11  H   UNL     1     -10.786  13.092  69.662  1.00  0.00     0.000 HD 
HETATM   12  O   UNL     1      -9.935  10.334  68.325  1.00  0.00    -0.143 OA 
BRANCH  10  13
HETATM   13  C   UNL     1     -11.442  10.697  70.109  1.00  0.00    -0.411 A  
HETATM   14  C   UNL     1     -11.401   9.330  70.448  1.00  0.00    -0.283 A  
HETATM   15  C   UNL     1     -12.271   8.790  71.401  1.00  0.00    -0.309 A  
HETATM   16  C   UNL     1     -12.321  11.540  70.798  1.00  0.00    -0.375 A  
HETATM   17  C   UNL     1     -13.206   9.600  72.049  1.00  0.00    -0.453 A  
HETATM   18  N   UNL     1     -14.007   9.147  73.108  1.00  0.00    -1.161 NA 
HETATM   19  C   UNL     1     -13.159  10.978  71.783  1.00  0.00    -0.554 A  
HETATM   20  H2  UNL     1     -13.383   8.770  73.823  1.00  0.00     0.000 HD 
HETATM   21  H1  UNL     1     -14.690   9.739  73.581  1.00  0.00     0.000 HD 
BRANCH  15  22
HETATM   22  S   UNL     1     -12.252   7.018  71.615  1.00  0.00    -0.372 S  
HETATM   23  O   UNL     1     -11.357   6.727  72.720  1.00  0.00    -0.254 OA 
HETATM   24  O   UNL     1     -13.642   6.593  71.670  1.00  0.00    -0.177 OA 
BRANCH  22  25
HETATM   25  C   UNL     1     -11.535   6.383  70.116  1.00  0.00    -0.417 C  
HETATM   26  C   UNL     1     -10.380   5.443  70.429  1.00  0.00    -0.353 C  
ENDBRANCH  22  25
ENDBRANCH  15  22
BRANCH  16  27
HETATM   27  O   UNL     1     -12.445  12.899  70.712  1.00  0.00    -0.349 OA 
HETATM   28  C   UNL     1     -13.113  13.579  71.769  1.00  0.00    -0.387 C  
ENDBRANCH  16  27
ENDBRANCH  10  13
ENDBRANCH   8   9
ENDBRANCH   7   8
ENDBRANCH   2   3
TORSDOF 7
ENDMDL
MODEL        6
REMARK 921   NORMALIZED FREE ENERGY PREDICTED BY IDOCK:   -6.76 KCAL/MOL
REMARK 922        TOTAL FREE ENERGY PREDICTED BY IDOCK:  -10.55 KCAL/MOL
REMARK 923 INTER-LIGAND FREE ENERGY PREDICTED BY IDOCK:   -9.04 KCAL/MOL
REMARK 924 INTRA-LIGAND FREE ENERGY PREDICTED BY IDOCK:   -1.51 KCAL/MOL
REMARK 927      BINDING AFFINITY PREDICTED BY RF-SCORE:    0.00 PKD
ROOT
HETATM    1  C   UNL     1     -10.449   5.073  72.992  1.00  0.00    -0.251 C  
HETATM    2  C   UNL     1     -10.668   6.430  73.649  1.00  0.00    -0.212 C  
ENDROOT
BRANCH   2   3
HETATM    3  N   UNL     1     -10.271   7.556  72.792  1.00  0.00    -0.229 NA 
HETATM    4  C   UNL     1      -8.883   7.976  73.016  1.00  0.00    -0.239 C  
HETATM    5  C   UNL     1      -8.541   8.722  71.744  1.00  0.00    -0.198 C  
HETATM    6  C   UNL     1      -9.190   7.880  70.664  1.00  0.00    -0.157 C  
HETATM    7  C   UNL     1     -10.377   7.193  71.356  1.00  0.00    -0.196 C  
BRANCH   7   8
HETATM    8  C   UNL     1     -11.737   7.651  70.791  1.00  0.00    -0.239 C  
BRANCH   8   9
HETATM    9  N   UNL     1     -11.772   9.010  70.275  1.00  0.00    -0.468 N  
HETATM   10  C   UNL     1     -12.313  10.074  70.967  1.00  0.00    -0.360 C  
HETATM   11  H   UNL     1     -11.376   9.186  69.352  1.00  0.00     0.000 HD 
HETATM   12  O   UNL     1     -12.862   9.978  72.051  1.00  0.00    -0.408 OA 
BRANCH  10  13
HETATM   13  C   UNL     1     -12.230  11.381  70.257  1.00  0.00    -0.433 A  
HETATM   14  C   UNL     1     -12.422  12.524  71.058  1.00  0.00    -0.353 A  
HETATM   15  C   UNL     1     -12.373  13.811  70.513  1.00  0.00    -0.359 A  
HETATM   16  C   UNL     1     -11.910  11.546  68.906  1.00  0.00    -0.341 A  
HETATM   17  C   UNL     1     -12.126  13.996  69.151  1.00  0.00    -0.337 A  
HETATM   18  N   UNL     1     -11.929  15.261  68.575  1.00  0.00    -0.556 NA 
HETATM   19  C   UNL     1     -11.827  12.856  68.389  1.00  0.00    -0.357 A  
HETATM   20  H2  UNL     1     -11.171  15.714  69.086  1.00  0.00     0.000 HD 
HETATM   21  H1  UNL     1     -11.748  15.396  67.579  1.00  0.00     0.000 HD 
BRANCH  15  22
HETATM   22  S   UNL     1     -12.811  15.171  71.584  1.00  0.00    -0.403 S  
HETATM   23  O   UNL     1     -11.684  16.085  71.602  1.00  0.00    -0.444 OA 
HETATM   24  O   UNL     1     -14.120  15.634  71.149  1.00  0.00    -0.539 OA 
BRANCH  22  25
HETATM   25  C   UNL     1     -12.986  14.445  73.198  1.00  0.00    -0.413 C  
HETATM   26  C   UNL     1     -12.411  15.364  74.265  1.00  0.00    -0.807 C  
ENDBRANCH  22  25
ENDBRANCH  15  22
BRANCH  16  27
HETATM   27  O   UNL     1     -11.575  10.593  67.984  1.00  0.00    -0.464 OA 
HETATM   28  C   UNL     1     -10.755  10.980  66.887  1.00  0.00    -0.274 C  
ENDBRANCH  16  27
ENDBRANCH  10  13
ENDBRANCH   8   9
ENDBRANCH   7   8
ENDBRANCH   2   3
TORSDOF 7
ENDMDL
MODEL        7
REMARK 921   NORMALIZED FREE ENERGY PREDICTED BY IDOCK:   -6.70 KCAL/MOL
REMARK 922        TOTAL FREE ENERGY PREDICTED BY IDOCK:  -10.47 KCAL/MOL
REMARK 923 INTER-LIGAND FREE ENERGY PREDICTED BY IDOCK:   -9.17 KCAL/MOL
REMARK 924 INTRA-LIGAND FREE ENERGY PREDICTED BY IDOCK:   -1.30 KCAL/MOL
REMARK 927      BINDING AFFINITY PREDICTED BY RF-SCORE:    0.00 PKD
ROOT
HETATM    1  C   UNL     1     -10.805   9.363  70.985  1.00  0.00    -0.406 C  
HETATM    2  C   UNL     1      -9.433   9.088  70.381  1.00  0.00    -0.210 C  
ENDROOT
BRANCH   2   3
HETATM    3  N   UNL     1      -9.051  10.065  69.352  1.00  0.00    -0.203 NA 
HETATM    4  C   UNL     1      -7.767  10.713  69.636  1.00  0.00    -0.070 C  
HETATM    5  C   UNL     1      -7.336  11.231  68.280  1.00  0.00    -0.095 C  
HETATM    6  C   UNL     1      -7.725  10.108  67.341  1.00  0.00    -0.095 C  
HETATM    7  C   UNL     1      -8.911   9.411  68.025  1.00  0.00    -0.124 C  
BRANCH   7   8
HETATM    8  C   UNL     1     -10.221   9.550  67.223  1.00  0.00    -0.234 C  
BRANCH   8   9
HETATM    9  N   UNL     1     -10.447  10.853  66.617  1.00  0.00    -0.246 N  
HETATM   10  C   UNL     1     -11.403  11.744  67.058  1.00  0.00    -0.321 C  
HETATM   11  H   UNL     1      -9.866  11.122  65.823  1.00  0.00     0.000 HD 
HETATM   12  O   UNL     1     -12.190  11.512  67.961  1.00  0.00    -0.582 OA 
BRANCH  10  13
HETATM   13  C   UNL     1     -11.452  13.026  66.302  1.00  0.00    -0.379 A  
HETATM   14  C   UNL     1     -10.573  14.033  66.749  1.00  0.00    -0.277 A  
HETATM   15  C   UNL     1     -10.525  15.285  66.127  1.00  0.00    -0.309 A  
HETATM   16  C   UNL     1     -12.233  13.263  65.167  1.00  0.00    -0.443 A  
HETATM   17  C   UNL     1     -11.349  15.568  65.036  1.00  0.00    -0.299 A  
HETATM   18  N   UNL     1     -11.247  16.750  64.287  1.00  0.00    -1.365 NA 
HETATM   19  C   UNL     1     -12.136  14.519  64.533  1.00  0.00    -0.501 A  
HETATM   20  H2  UNL     1     -10.281  16.827  63.967  1.00  0.00     0.000 HD 
HETATM   21  H1  UNL     1     -11.850  16.957  63.489  1.00  0.00     0.000 HD 
BRANCH  15  22
HETATM   22  S   UNL     1      -9.510  16.539  66.891  1.00  0.00    -0.247 S  
HETATM   23  O   UNL     1      -8.623  15.866  67.822  1.00  0.00    -0.158 OA 
HETATM   24  O   UNL     1      -8.961  17.342  65.809  1.00  0.00    -0.521 OA 
BRANCH  22  25
HETATM   25  C   UNL     1     -10.647  17.549  67.813  1.00  0.00    -0.375 C  
HETATM   26  C   UNL     1     -10.520  19.010  67.405  1.00  0.00    -0.539 C  
ENDBRANCH  22  25
ENDBRANCH  15  22
BRANCH  16  27
HETATM   27  O   UNL     1     -13.058  12.399  64.501  1.00  0.00    -0.823 OA 
HETATM   28  C   UNL     1     -12.614  11.874  63.255  1.00  0.00    -0.344 C  
ENDBRANCH  16  27
ENDBRANCH  10  13
ENDBRANCH   8   9
ENDBRANCH   7   8
ENDBRANCH   2   3
TORSDOF 7
ENDMDL
MODEL        8
REMARK 921   NORMALIZED FREE ENERGY PREDICTED BY IDOCK:   -6.68 KCAL/MOL
REMARK 922        TOTAL FREE ENERGY PREDICTED BY IDOCK:  -10.44 KCAL/MOL
REMARK 923 INTER-LIGAND FREE ENERGY PREDICTED BY IDOCK:   -9.17 KCAL/MOL
REMARK 924 INTRA-LIGAND FREE ENERGY PREDICTED BY IDOCK:   -1.27 KCAL/MOL
REMARK 927      BINDING AFFINITY PREDICTED BY RF-SCORE:    0.00 PKD
ROOT
HETATM    1  C   UNL     1     -10.502   7.428  73.249  1.00  0.00    -0.424 C  
HETATM    2  C   UNL     1     -10.706   8.385  72.081  1.00  0.00    -0.337 C  
ENDROOT
BRANCH   2   3
HETATM    3  N   UNL     1     -12.049   8.295  71.490  1.00  0.00    -0.290 NA 
HETATM    4  C   UNL     1     -12.623   6.950  71.591  1.00  0.00    -0.367 C  
HETATM    5  C   UNL     1     -14.108   7.197  71.432  1.00  0.00    -0.406 C  
HETATM    6  C   UNL     1     -14.335   8.466  72.229  1.00  0.00    -0.465 C  
HETATM    7  C   UNL     1     -12.994   9.212  72.178  1.00  0.00    -0.425 C  
BRANCH   7   8
HETATM    8  C   UNL     1     -13.088  10.549  71.413  1.00  0.00    -0.410 C  
BRANCH   8   9
HETATM    9  N   UNL     1     -12.549  10.534  70.063  1.00  0.00    -0.526 N  
HETATM   10  C   UNL     1     -11.943  11.623  69.472  1.00  0.00    -0.317 C  
HETATM   11  H   UNL     1     -12.622   9.671  69.523  1.00  0.00     0.000 HD 
HETATM   12  O   UNL     1     -11.846  12.720  69.995  1.00  0.00    -0.325 OA 
BRANCH  10  13
HETATM   13  C   UNL     1     -11.449  11.383  68.087  1.00  0.00    -0.375 A  
HETATM   14  C   UNL     1     -11.743  12.393  67.150  1.00  0.00    -0.415 A  
HETATM   15  C   UNL     1     -11.338  12.286  65.815  1.00  0.00    -0.355 A  
HETATM   16  C   UNL     1     -10.672  10.291  67.687  1.00  0.00    -0.288 A  
HETATM   17  C   UNL     1     -10.624  11.170  65.377  1.00  0.00    -0.227 A  
HETATM   18  N   UNL     1     -10.074  11.071  64.089  1.00  0.00    -0.315 NA 
HETATM   19  C   UNL     1     -10.243  10.227  66.345  1.00  0.00    -0.290 A  
HETATM   20  H2  UNL     1      -9.479  11.888  63.948  1.00  0.00     0.000 HD 
HETATM   21  H1  UNL     1      -9.551  10.255  63.769  1.00  0.00     0.000 HD 
BRANCH  15  22
HETATM   22  S   UNL     1     -11.924  13.535  64.681  1.00  0.00    -0.422 S  
HETATM   23  O   UNL     1     -11.937  12.941  63.357  1.00  0.00    -0.533 OA 
HETATM   24  O   UNL     1     -13.150  14.070  65.253  1.00  0.00    -0.782 OA 
BRANCH  22  25
HETATM   25  C   UNL     1     -10.685  14.810  64.724  1.00  0.00    -0.358 C  
HETATM   26  C   UNL     1     -11.329  16.179  64.885  1.00  0.00    -0.201 C  
ENDBRANCH  22  25
ENDBRANCH  15  22
BRANCH  16  27
HETATM   27  O   UNL     1     -10.179   9.268  68.448  1.00  0.00    -0.187 OA 
HETATM   28  C   UNL     1      -8.791   9.275  68.763  1.00  0.00    -0.132 C  
ENDBRANCH  16  27
ENDBRANCH  10  13
ENDBRANCH   8   9
ENDBRANCH   7   8
ENDBRANCH   2   3
TORSDOF 7
ENDMDL
MODEL        9
REMARK 921   NORMALIZED FREE ENERGY PREDICTED BY IDOCK:   -6.67 KCAL/MOL
REMARK 922        TOTAL FREE ENERGY PREDICTED BY IDOCK:  -10.42 KCAL/MOL
REMARK 923 INTER-LIGAND FREE ENERGY PREDICTED BY IDOCK:   -9.13 KCAL/MOL
REMARK 924 INTRA-LIGAND FREE ENERGY PREDICTED BY IDOCK:   -1.29 KCAL/MOL
REMARK 927      BINDING AFFINITY PREDICTED BY RF-SCORE:    0.00 PKD
ROOT
HETATM    1  C   UNL     1     -10.396   5.187  70.831  1.00  0.00    -0.282 C  
HETATM    2  C   UNL     1     -10.998   6.033  69.716  1.00  0.00    -0.401 C  
ENDROOT
BRANCH   2   3
HETATM    3  N   UNL     1     -11.520   7.322  70.188  1.00  0.00    -0.213 NA 
HETATM    4  C   UNL     1     -12.361   7.189  71.382  1.00  0.00    -0.377 C  
HETATM    5  C   UNL     1     -12.340   8.583  71.974  1.00  0.00    -0.423 C  
HETATM    6  C   UNL     1     -10.901   9.018  71.784  1.00  0.00    -0.437 C  
HETATM    7  C   UNL     1     -10.412   8.243  70.552  1.00  0.00    -0.210 C  
BRANCH   7   8
HETATM    8  C   UNL     1     -10.079   9.169  69.363  1.00  0.00    -0.197 C  
BRANCH   8   9
HETATM    9  N   UNL     1     -10.330  10.584  69.586  1.00  0.00    -0.347 N  
HETATM   10  C   UNL     1     -11.296  11.302  68.912  1.00  0.00    -0.275 C  
HETATM   11  H   UNL     1      -9.762  11.071  70.278  1.00  0.00     0.000 HD 
HETATM   12  O   UNL     1     -11.997  10.843  68.027  1.00  0.00    -0.586 OA 
BRANCH  10  13
HETATM   13  C   UNL     1     -11.392  12.735  69.308  1.00  0.00    -0.307 A  
HETATM   14  C   UNL     1     -12.099  12.993  70.499  1.00  0.00    -0.373 A  
HETATM   15  C   UNL     1     -12.264  14.297  70.978  1.00  0.00    -0.356 A  
HETATM   16  C   UNL     1     -10.783  13.799  68.636  1.00  0.00    -0.256 A  
HETATM   17  C   UNL     1     -11.726  15.382  70.284  1.00  0.00    -0.327 A  
HETATM   18  N   UNL     1     -11.740  16.693  70.785  1.00  0.00    -0.374 NA 
HETATM   19  C   UNL     1     -10.931  15.100  69.161  1.00  0.00    -0.260 A  
HETATM   20  H2  UNL     1     -11.301  16.673  71.706  1.00  0.00     0.000 HD 
HETATM   21  H1  UNL     1     -11.346  17.486  70.278  1.00  0.00     0.000 HD 
BRANCH  15  22
HETATM   22  S   UNL     1     -13.330  14.519  72.393  1.00  0.00    -0.474 S  
HETATM   23  O   UNL     1     -14.114  15.717  72.158  1.00  0.00    -0.513 OA 
HETATM   24  O   UNL     1     -13.994  13.243  72.614  1.00  0.00    -0.741 OA 
BRANCH  22  25
HETATM   25  C   UNL     1     -12.226  14.816  73.756  1.00  0.00    -0.303 C  
HETATM   26  C   UNL     1     -12.507  16.171  74.389  1.00  0.00    -0.655 C  
ENDBRANCH  22  25
ENDBRANCH  15  22
BRANCH  16  27
HETATM   27  O   UNL     1      -9.966  13.764  67.540  1.00  0.00    -0.228 OA 
HETATM   28  C   UNL     1      -9.320  14.969  67.145  1.00  0.00    -0.215 C  
ENDBRANCH  16  27
ENDBRANCH  10  13
ENDBRANCH   8   9
ENDBRANCH   7   8
ENDBRANCH   2   3
TORSDOF 7
ENDMDL
MODEL       10
REMARK 921   NORMALIZED FREE ENERGY PREDICTED BY IDOCK:   -6.60 KCAL/MOL
REMARK 922        TOTAL FREE ENERGY PREDICTED BY IDOCK:  -10.32 KCAL/MOL
REMARK 923 INTER-LIGAND FREE ENERGY PREDICTED BY IDOCK:   -8.97 KCAL/MOL
REMARK 924 INTRA-LIGAND FREE ENERGY PREDICTED BY IDOCK:   -1.35 KCAL/MOL
REMARK 927      BINDING AFFINITY PREDICTED BY RF-SCORE:    0.00 PKD
ROOT
HETATM    1  C   UNL     1     -10.297   5.454  66.801  1.00  0.00    -0.321 C  
HETATM    2  C   UNL     1     -11.003   6.650  67.427  1.00  0.00    -0.360 C  
ENDROOT
BRANCH   2   3
HETATM    3  N   UNL     1     -10.077   7.600  68.059  1.00  0.00    -0.179 NA 
HETATM    4  C   UNL     1      -8.710   7.077  68.157  1.00  0.00    -0.127 C  
HETATM    5  C   UNL     1      -7.874   8.330  68.319  1.00  0.00    -0.118 C  
HETATM    6  C   UNL     1      -8.526   9.307  67.362  1.00  0.00    -0.122 C  
HETATM    7  C   UNL     1      -9.993   8.860  67.276  1.00  0.00    -0.216 C  
BRANCH   7   8
HETATM    8  C   UNL     1     -10.966   9.909  67.853  1.00  0.00    -0.223 C  
BRANCH   8   9
HETATM    9  N   UNL     1     -11.080  11.141  67.088  1.00  0.00    -0.295 N  
HETATM   10  C   UNL     1     -11.452  12.349  67.640  1.00  0.00    -0.337 C  
HETATM   11  H   UNL     1     -10.874  11.109  66.090  1.00  0.00     0.000 HD 
HETATM   12  O   UNL     1     -11.774  12.499  68.807  1.00  0.00    -0.291 OA 
BRANCH  10  13
HETATM   13  C   UNL     1     -11.490  13.485  66.678  1.00  0.00    -0.366 A  
HETATM   14  C   UNL     1     -10.690  14.596  67.012  1.00  0.00    -0.290 A  
HETATM   15  C   UNL     1     -10.640  15.729  66.193  1.00  0.00    -0.313 A  
HETATM   16  C   UNL     1     -12.186  13.491  65.465  1.00  0.00    -0.451 A  
HETATM   17  C   UNL     1     -11.385  15.786  65.013  1.00  0.00    -0.220 A  
HETATM   18  N   UNL     1     -11.269  16.833  64.086  1.00  0.00    -1.383 NA 
HETATM   19  C   UNL     1     -12.088  14.630  64.638  1.00  0.00    -0.466 A  
HETATM   20  H2  UNL     1     -10.284  16.906  63.829  1.00  0.00     0.000 HD 
HETATM   21  H1  UNL     1     -11.813  16.874  63.224  1.00  0.00     0.000 HD 
BRANCH  15  22
HETATM   22  S   UNL     1      -9.739  17.143  66.808  1.00  0.00    -0.284 S  
HETATM   23  O   UNL     1      -8.575  17.314  65.958  1.00  0.00    -0.492 OA 
HETATM   24  O   UNL     1     -10.707  18.220  66.946  1.00  0.00    -0.352 OA 
BRANCH  22  25
HETATM   25  C   UNL     1      -9.196  16.669  68.433  1.00  0.00    -0.225 C  
HETATM   26  C   UNL     1      -7.737  17.047  68.643  1.00  0.00    -0.251 C  
ENDBRANCH  22  25
ENDBRANCH  15  22
BRANCH  16  27
HETATM   27  O   UNL     1     -12.921  12.488  64.896  1.00  0.00    -0.821 OA 
HETATM   28  C   UNL     1     -12.468  11.942  63.662  1.00  0.00    -0.470 C  
ENDBRANCH  16  27
ENDBRANCH  10  13
ENDBRANCH   8   9
ENDBRANCH   7   8
ENDBRANCH   2   3
TORSDOF 7
ENDMDL
MODEL       11
REMARK 921   NORMALIZED FREE ENERGY PREDICTED BY IDOCK:   -6.57 KCAL/MOL
REMARK 922        TOTAL FREE ENERGY PREDICTED BY IDOCK:  -10.28 KCAL/MOL
REMARK 923 INTER-LIGAND FREE ENERGY PREDICTED BY IDOCK:   -9.07 KCAL/MOL
REMARK 924 INTRA-LIGAND FREE ENERGY PREDICTED BY IDOCK:   -1.21 KCAL/MOL
REMARK 927      BINDING AFFINITY PREDICTED BY RF-SCORE:    0.00 PKD
ROOT
HETATM    1  C   UNL     1     -14.257   7.398  71.507  1.00  0.00    -0.571 C  
HETATM    2  C   UNL     1     -14.074   8.763  72.160  1.00  0.00    -0.450 C  
ENDROOT
BRANCH   2   3
HETATM    3  N   UNL     1     -12.670   9.196  72.207  1.00  0.00    -0.387 NA 
HETATM    4  C   UNL     1     -11.741   8.081  72.419  1.00  0.00    -0.386 C  
HETATM    5  C   UNL     1     -10.422   8.633  71.920  1.00  0.00    -0.410 C  
HETATM    6  C   UNL     1     -10.819   9.408  70.680  1.00  0.00    -0.346 C  
HETATM    7  C   UNL     1     -12.271   9.843  70.931  1.00  0.00    -0.328 C  
BRANCH   7   8
HETATM    8  C   UNL     1     -12.420  11.374  71.042  1.00  0.00    -0.383 C  
BRANCH   8   9
HETATM    9  N   UNL     1     -12.116  12.120  69.831  1.00  0.00    -0.284 N  
HETATM   10  C   UNL     1     -11.910  13.483  69.807  1.00  0.00    -0.329 C  
HETATM   11  H   UNL     1     -12.053  11.607  68.952  1.00  0.00     0.000 HD 
HETATM   12  O   UNL     1     -12.013  14.209  70.782  1.00  0.00    -0.318 OA 
BRANCH  10  13
HETATM   13  C   UNL     1     -11.598  14.040  68.461  1.00  0.00    -0.357 A  
HETATM   14  C   UNL     1     -11.070  15.346  68.447  1.00  0.00    -0.301 A  
HETATM   15  C   UNL     1     -10.739  15.984  67.247  1.00  0.00    -0.295 A  
HETATM   16  C   UNL     1     -11.721  13.345  67.253  1.00  0.00    -0.380 A  
HETATM   17  C   UNL     1     -10.922  15.335  66.024  1.00  0.00    -0.317 A  
HETATM   18  N   UNL     1     -10.481  15.868  64.803  1.00  0.00    -0.674 NA 
HETATM   19  C   UNL     1     -11.343  13.996  66.061  1.00  0.00    -0.328 A  
HETATM   20  H2  UNL     1      -9.484  16.065  64.897  1.00  0.00     0.000 HD 
HETATM   21  H1  UNL     1     -10.615  15.394  63.909  1.00  0.00     0.000 HD 
BRANCH  15  22
HETATM   22  S   UNL     1     -10.252  17.699  67.340  1.00  0.00    -0.358 S  
HETATM   23  O   UNL     1     -10.765  18.357  66.153  1.00  0.00    -0.347 OA 
HETATM   24  O   UNL     1     -10.642  18.168  68.661  1.00  0.00    -0.265 OA 
BRANCH  22  25
HETATM   25  C   UNL     1      -8.476  17.676  67.259  1.00  0.00    -0.216 C  
HETATM   26  C   UNL     1      -7.882  17.266  68.599  1.00  0.00    -0.272 C  
ENDBRANCH  22  25
ENDBRANCH  15  22
BRANCH  16  27
HETATM   27  O   UNL     1     -12.097  12.047  67.048  1.00  0.00    -0.603 OA 
HETATM   28  C   UNL     1     -11.128  11.141  66.534  1.00  0.00    -0.167 C  
ENDBRANCH  16  27
ENDBRANCH  10  13
ENDBRANCH   8   9
ENDBRANCH   7   8
ENDBRANCH   2   3
TORSDOF 7
ENDMDL
MODEL       12
REMARK 921   NORMALIZED FREE ENERGY PREDICTED BY IDOCK:   -6.54 KCAL/MOL
REMARK 922        TOTAL FREE ENERGY PREDICTED BY IDOCK:  -10.24 KCAL/MOL
REMARK 923 INTER-LIGAND FREE ENERGY PREDICTED BY IDOCK:   -9.27 KCAL/MOL
REMARK 924 INTRA-LIGAND FREE ENERGY PREDICTED BY IDOCK:   -0.97 KCAL/MOL
REMARK 927      BINDING AFFINITY PREDICTED BY RF-SCORE:    0.00 PKD
ROOT
HETATM    1  C   UNL     1     -11.576  14.752  66.535  1.00  0.00    -0.306 C  
HETATM    2  C   UNL     1     -12.082  13.375  66.946  1.00  0.00    -0.354 C  
ENDROOT
BRANCH   2   3
HETATM    3  N   UNL     1     -12.062  12.402  65.846  1.00  0.00    -0.623 NA 
HETATM    4  C   UNL     1     -12.673  12.921  64.618  1.00  0.00    -0.330 C  
HETATM    5  C   UNL     1     -12.094  12.029  63.541  1.00  0.00    -0.628 C  
HETATM    6  C   UNL     1     -10.650  11.862  63.970  1.00  0.00    -0.422 C  
HETATM    7  C   UNL     1     -10.668  12.023  65.497  1.00  0.00    -0.276 C  
BRANCH   7   8
HETATM    8  C   UNL     1     -10.269  10.728  66.234  1.00  0.00    -0.245 C  
BRANCH   8   9
HETATM    9  N   UNL     1     -10.991  10.466  67.469  1.00  0.00    -0.304 N  
HETATM   10  C   UNL     1     -10.516  10.810  68.717  1.00  0.00    -0.199 C  
HETATM   11  H   UNL     1     -11.897  10.002  67.409  1.00  0.00     0.000 HD 
HETATM   12  O   UNL     1      -9.426  11.318  68.919  1.00  0.00    -0.174 OA 
BRANCH  10  13
HETATM   13  C   UNL     1     -11.425  10.461  69.844  1.00  0.00    -0.368 A  
HETATM   14  C   UNL     1     -11.378   9.120  70.274  1.00  0.00    -0.217 A  
HETATM   15  C   UNL     1     -12.185   8.664  71.321  1.00  0.00    -0.281 A  
HETATM   16  C   UNL     1     -12.241  11.366  70.532  1.00  0.00    -0.386 A  
HETATM   17  C   UNL     1     -13.061   9.533  71.975  1.00  0.00    -0.438 A  
HETATM   18  N   UNL     1     -13.790   9.169  73.117  1.00  0.00    -1.136 NA 
HETATM   19  C   UNL     1     -13.015  10.889  71.610  1.00  0.00    -0.569 A  
HETATM   20  H2  UNL     1     -13.122   8.831  73.810  1.00  0.00     0.000 HD 
HETATM   21  H1  UNL     1     -14.430   9.805  73.594  1.00  0.00     0.000 HD 
BRANCH  15  22
HETATM   22  S   UNL     1     -12.175   6.910  71.656  1.00  0.00    -0.372 S  
HETATM   23  O   UNL     1     -11.261   6.688  72.761  1.00  0.00    -0.261 OA 
HETATM   24  O   UNL     1     -13.568   6.503  71.768  1.00  0.00    -0.100 OA 
BRANCH  22  25
HETATM   25  C   UNL     1     -11.494   6.167  70.191  1.00  0.00    -0.295 C  
HETATM   26  C   UNL     1     -10.198   5.437  70.513  1.00  0.00    -0.326 C  
ENDBRANCH  22  25
ENDBRANCH  15  22
BRANCH  16  27
HETATM   27  O   UNL     1     -12.352  12.718  70.361  1.00  0.00    -0.318 OA 
HETATM   28  C   UNL     1     -12.940  13.480  71.409  1.00  0.00    -0.339 C  
ENDBRANCH  16  27
ENDBRANCH  10  13
ENDBRANCH   8   9
ENDBRANCH   7   8
ENDBRANCH   2   3
TORSDOF 7
ENDMDL
MODEL       13
REMARK 921   NORMALIZED FREE ENERGY PREDICTED BY IDOCK:   -6.52 KCAL/MOL
REMARK 922        TOTAL FREE ENERGY PREDICTED BY IDOCK:  -10.21 KCAL/MOL
REMARK 923 INTER-LIGAND FREE ENERGY PREDICTED BY IDOCK:   -8.91 KCAL/MOL
REMARK 924 INTRA-LIGAND FREE ENERGY PREDICTED BY IDOCK:   -1.30 KCAL/MOL
REMARK 927      BINDING AFFINITY PREDICTED BY RF-SCORE:    0.00 PKD
ROOT
HETATM    1  C   UNL     1     -10.873  16.085  65.041  1.00  0.00    -0.421 C  
HETATM    2  C   UNL     1      -9.620  16.082  65.909  1.00  0.00    -0.335 C  
ENDROOT
BRANCH   2   3
HETATM    3  N   UNL     1      -9.889  15.723  67.308  1.00  0.00    -0.228 NA 
HETATM    4  C   UNL     1     -10.015  16.896  68.179  1.00  0.00    -0.285 C  
HETATM    5  C   UNL     1     -10.779  16.358  69.371  1.00  0.00    -0.324 C  
HETATM    6  C   UNL     1     -11.807  15.443  68.738  1.00  0.00    -0.339 C  
HETATM    7  C   UNL     1     -11.163  14.968  67.427  1.00  0.00    -0.335 C  
BRANCH   7   8
HETATM    8  C   UNL     1     -10.885  13.451  67.420  1.00  0.00    -0.268 C  
BRANCH   8   9
HETATM    9  N   UNL     1     -11.544  12.691  68.470  1.00  0.00    -0.301 N  
HETATM   10  C   UNL     1     -10.920  11.701  69.200  1.00  0.00    -0.219 C  
HETATM   11  H   UNL     1     -12.519  12.902  68.678  1.00  0.00     0.000 HD 
HETATM   12  O   UNL     1      -9.776  11.324  69.006  1.00  0.00    -0.160 OA 
BRANCH  10  13
HETATM   13  C   UNL     1     -11.777  11.061  70.237  1.00  0.00    -0.445 A  
HETATM   14  C   UNL     1     -11.559   9.685  70.446  1.00  0.00    -0.299 A  
HETATM   15  C   UNL     1     -12.301   8.966  71.389  1.00  0.00    -0.313 A  
HETATM   16  C   UNL     1     -12.702  11.732  71.044  1.00  0.00    -0.275 A  
HETATM   17  C   UNL     1     -13.281   9.601  72.155  1.00  0.00    -0.444 A  
HETATM   18  N   UNL     1     -13.958   8.966  73.208  1.00  0.00    -1.217 NA 
HETATM   19  C   UNL     1     -13.409  10.992  72.014  1.00  0.00    -0.393 A  
HETATM   20  H2  UNL     1     -13.253   8.607  73.851  1.00  0.00     0.000 HD 
HETATM   21  H1  UNL     1     -14.674   9.430  73.767  1.00  0.00     0.000 HD 
BRANCH  15  22
HETATM   22  S   UNL     1     -12.067   7.197  71.437  1.00  0.00    -0.363 S  
HETATM   23  O   UNL     1     -11.048   6.925  72.434  1.00  0.00    -0.242 OA 
HETATM   24  O   UNL     1     -13.391   6.608  71.567  1.00  0.00    -0.183 OA 
BRANCH  22  25
HETATM   25  C   UNL     1     -11.425   6.775  69.833  1.00  0.00    -0.300 C  
HETATM   26  C   UNL     1     -10.504   5.568  69.923  1.00  0.00    -0.386 C  
ENDBRANCH  22  25
ENDBRANCH  15  22
BRANCH  16  27
HETATM   27  O   UNL     1     -12.985  13.069  71.090  1.00  0.00    -0.280 OA 
HETATM   28  C   UNL     1     -13.486  13.606  72.310  1.00  0.00    -0.555 C  
ENDBRANCH  16  27
ENDBRANCH  10  13
ENDBRANCH   8   9
ENDBRANCH   7   8
ENDBRANCH   2   3
TORSDOF 7
ENDMDL
MODEL       14
REMARK 921   NORMALIZED FREE ENERGY PREDICTED BY IDOCK:   -6.50 KCAL/MOL
REMARK 922        TOTAL FREE ENERGY PREDICTED BY IDOCK:  -10.17 KCAL/MOL
REMARK 923 INTER-LIGAND FREE ENERGY PREDICTED BY IDOCK:   -9.10 KCAL/MOL
REMARK 924 INTRA-LIGAND FREE ENERGY PREDICTED BY IDOCK:   -1.07 KCAL/MOL
REMARK 927      BINDING AFFINITY PREDICTED BY RF-SCORE:    0.00 PKD
ROOT
HETATM    1  C   UNL     1     -11.662  15.836  69.016  1.00  0.00    -0.405 C  
HETATM    2  C   UNL     1     -10.812  15.598  70.259  1.00  0.00    -0.350 C  
ENDROOT
BRANCH   2   3
HETATM    3  N   UNL     1     -11.594  15.126  71.410  1.00  0.00    -0.355 NA 
HETATM    4  C   UNL     1     -12.070  16.224  72.258  1.00  0.00    -0.486 C  
HETATM    5  C   UNL     1     -13.225  15.599  73.012  1.00  0.00    -0.664 C  
HETATM    6  C   UNL     1     -13.910  14.754  71.957  1.00  0.00    -0.548 C  
HETATM    7  C   UNL     1     -12.800  14.382  70.963  1.00  0.00    -0.353 C  
BRANCH   7   8
HETATM    8  C   UNL     1     -12.510  12.867  70.939  1.00  0.00    -0.296 C  
BRANCH   8   9
HETATM    9  N   UNL     1     -12.030  12.345  69.669  1.00  0.00    -0.298 N  
HETATM   10  C   UNL     1     -11.537  11.067  69.508  1.00  0.00    -0.313 C  
HETATM   11  H   UNL     1     -12.059  12.957  68.854  1.00  0.00     0.000 HD 
HETATM   12  O   UNL     1     -11.403  10.265  70.417  1.00  0.00    -0.287 OA 
BRANCH  10  13
HETATM   13  C   UNL     1     -11.113  10.736  68.119  1.00  0.00    -0.337 A  
HETATM   14  C   UNL     1     -11.472  11.675  67.131  1.00  0.00    -0.344 A  
HETATM   15  C   UNL     1     -11.137  11.480  65.787  1.00  0.00    -0.210 A  
HETATM   16  C   UNL     1     -10.343   9.628  67.754  1.00  0.00    -0.236 A  
HETATM   17  C   UNL     1     -10.430  10.343  65.389  1.00  0.00    -0.117 A  
HETATM   18  N   UNL     1      -9.947  10.161  64.084  1.00  0.00    -0.455 NA 
HETATM   19  C   UNL     1      -9.984   9.475  66.398  1.00  0.00    -0.339 A  
HETATM   20  H2  UNL     1      -9.373  10.973  63.855  1.00  0.00     0.000 HD 
HETATM   21  H1  UNL     1      -9.431   9.331  63.793  1.00  0.00     0.000 HD 
BRANCH  15  22
HETATM   22  S   UNL     1     -11.800  12.639  64.603  1.00  0.00    -0.405 S  
HETATM   23  O   UNL     1     -10.839  12.747  63.521  1.00  0.00    -0.396 OA 
HETATM   24  O   UNL     1     -13.164  12.214  64.328  1.00  0.00    -0.768 OA 
BRANCH  22  25
HETATM   25  C   UNL     1     -11.865  14.192  65.468  1.00  0.00    -0.364 C  
HETATM   26  C   UNL     1     -10.581  14.981  65.252  1.00  0.00    -0.418 C  
ENDBRANCH  22  25
ENDBRANCH  15  22
BRANCH  16  27
HETATM   27  O   UNL     1      -9.794   8.665  68.556  1.00  0.00    -0.160 OA 
HETATM   28  C   UNL     1     -10.318   7.345  68.472  1.00  0.00    -0.198 C  
ENDBRANCH  16  27
ENDBRANCH  10  13
ENDBRANCH   8   9
ENDBRANCH   7   8
ENDBRANCH   2   3
TORSDOF 7
ENDMDL
MODEL       15
REMARK 921   NORMALIZED FREE ENERGY PREDICTED BY IDOCK:   -6.48 KCAL/MOL
REMARK 922        TOTAL FREE ENERGY PREDICTED BY IDOCK:  -10.16 KCAL/MOL
REMARK 923 INTER-LIGAND FREE ENERGY PREDICTED BY IDOCK:   -9.21 KCAL/MOL
REMARK 924 INTRA-LIGAND FREE ENERGY PREDICTED BY IDOCK:   -0.94 KCAL/MOL
REMARK 927      BINDING AFFINITY PREDICTED BY RF-SCORE:    0.00 PKD
ROOT
HETATM    1  C   UNL     1     -10.318   7.990  72.613  1.00  0.00    -0.398 C  
HETATM    2  C   UNL     1     -10.293   8.287  71.119  1.00  0.00    -0.202 C  
ENDROOT
BRANCH   2   3
HETATM    3  N   UNL     1     -11.436   9.097  70.674  1.00  0.00    -0.269 NA 
HETATM    4  C   UNL     1     -12.255   9.582  71.789  1.00  0.00    -0.387 C  
HETATM    5  C   UNL     1     -12.995  10.757  71.186  1.00  0.00    -0.467 C  
HETATM    6  C   UNL     1     -11.941  11.427  70.329  1.00  0.00    -0.460 C  
HETATM    7  C   UNL     1     -10.977  10.300  69.932  1.00  0.00    -0.303 C  
BRANCH   7   8
HETATM    8  C   UNL     1     -10.984  10.022  68.414  1.00  0.00    -0.217 C  
BRANCH   8   9
HETATM    9  N   UNL     1     -11.150  11.193  67.567  1.00  0.00    -0.273 N  
HETATM   10  C   UNL     1     -10.098  11.960  67.112  1.00  0.00    -0.204 C  
HETATM   11  H   UNL     1     -12.095  11.461  67.296  1.00  0.00     0.000 HD 
HETATM   12  O   UNL     1      -8.931  11.770  67.413  1.00  0.00    -0.164 OA 
BRANCH  10  13
HETATM   13  C   UNL     1     -10.494  13.105  66.245  1.00  0.00    -0.291 A  
HETATM   14  C   UNL     1     -10.054  14.374  66.671  1.00  0.00    -0.276 A  
HETATM   15  C   UNL     1     -10.363  15.531  65.947  1.00  0.00    -0.347 A  
HETATM   16  C   UNL     1     -11.187  12.998  65.036  1.00  0.00    -0.297 A  
HETATM   17  C   UNL     1     -11.116  15.455  64.775  1.00  0.00    -0.403 A  
HETATM   18  N   UNL     1     -11.339  16.558  63.936  1.00  0.00    -1.559 NA 
HETATM   19  C   UNL     1     -11.452  14.175  64.305  1.00  0.00    -0.287 A  
HETATM   20  H2  UNL     1     -10.427  16.942  63.688  1.00  0.00     0.000 HD 
HETATM   21  H1  UNL     1     -11.890  16.503  63.079  1.00  0.00     0.000 HD 
BRANCH  15  22
HETATM   22  S   UNL     1      -9.910  17.096  66.677  1.00  0.00    -0.302 S  
HETATM   23  O   UNL     1     -10.614  18.132  65.944  1.00  0.00    -0.465 OA 
HETATM   24  O   UNL     1     -10.108  16.955  68.112  1.00  0.00    -0.272 OA 
BRANCH  22  25
HETATM   25  C   UNL     1      -8.167  17.259  66.368  1.00  0.00    -0.282 C  
HETATM   26  C   UNL     1      -7.741  18.718  66.454  1.00  0.00    -0.289 C  
ENDBRANCH  22  25
ENDBRANCH  15  22
BRANCH  16  27
HETATM   27  O   UNL     1     -11.603  11.869  64.385  1.00  0.00    -0.331 OA 
HETATM   28  C   UNL     1     -12.648  11.993  63.427  1.00  0.00    -0.469 C  
ENDBRANCH  16  27
ENDBRANCH  10  13
ENDBRANCH   8   9
ENDBRANCH   7   8
ENDBRANCH   2   3
TORSDOF 7
ENDMDL
MODEL       16
REMARK 921   NORMALIZED FREE ENERGY PREDICTED BY IDOCK:   -6.46 KCAL/MOL
REMARK 922        TOTAL FREE ENERGY PREDICTED BY IDOCK:  -10.13 KCAL/MOL
REMARK 923 INTER-LIGAND FREE ENERGY PREDICTED BY IDOCK:   -8.89 KCAL/MOL
REMARK 924 INTRA-LIGAND FREE ENERGY PREDICTED BY IDOCK:   -1.24 KCAL/MOL
REMARK 927      BINDING AFFINITY PREDICTED BY RF-SCORE:    0.00 PKD
ROOT
HETATM    1  C   UNL     1      -6.406   8.854  66.428  1.00  0.00    -0.065 C  
HETATM    2  C   UNL     1      -7.232  10.122  66.607  1.00  0.00    -0.105 C  
ENDROOT
BRANCH   2   3
HETATM    3  N   UNL     1      -8.664   9.855  66.798  1.00  0.00    -0.128 NA 
HETATM    4  C   UNL     1      -9.104   8.623  66.134  1.00  0.00    -0.201 C  
HETATM    5  C   UNL     1     -10.384   8.277  66.865  1.00  0.00    -0.391 C  
HETATM    6  C   UNL     1     -10.055   8.595  68.309  1.00  0.00    -0.225 C  
HETATM    7  C   UNL     1      -8.987   9.696  68.240  1.00  0.00    -0.123 C  
BRANCH   7   8
HETATM    8  C   UNL     1      -9.479  11.036  68.824  1.00  0.00    -0.183 C  
BRANCH   8   9
HETATM    9  N   UNL     1      -9.875  12.035  67.844  1.00  0.00    -0.190 N  
HETATM   10  C   UNL     1     -11.187  12.285  67.498  1.00  0.00    -0.297 C  
HETATM   11  H   UNL     1      -9.144  12.580  67.388  1.00  0.00     0.000 HD 
HETATM   12  O   UNL     1     -12.141  11.662  67.933  1.00  0.00    -0.613 OA 
BRANCH  10  13
HETATM   13  C   UNL     1     -11.367  13.361  66.483  1.00  0.00    -0.346 A  
HETATM   14  C   UNL     1     -10.607  14.530  66.692  1.00  0.00    -0.283 A  
HETATM   15  C   UNL     1     -10.688  15.616  65.814  1.00  0.00    -0.341 A  
HETATM   16  C   UNL     1     -12.157  13.262  65.334  1.00  0.00    -0.422 A  
HETATM   17  C   UNL     1     -11.526  15.566  64.698  1.00  0.00    -0.324 A  
HETATM   18  N   UNL     1     -11.545  16.564  63.711  1.00  0.00    -1.433 NA 
HETATM   19  C   UNL     1     -12.190  14.355  64.444  1.00  0.00    -0.481 A  
HETATM   20  H2  UNL     1     -10.590  16.673  63.370  1.00  0.00     0.000 HD 
HETATM   21  H1  UNL     1     -12.158  16.527  62.896  1.00  0.00     0.000 HD 
BRANCH  15  22
HETATM   22  S   UNL     1      -9.823  17.107  66.277  1.00  0.00    -0.275 S  
HETATM   23  O   UNL     1      -8.464  16.988  65.781  1.00  0.00    -0.508 OA 
HETATM   24  O   UNL     1     -10.660  18.219  65.852  1.00  0.00    -0.477 OA 
BRANCH  22  25
HETATM   25  C   UNL     1      -9.787  17.084  68.054  1.00  0.00    -0.275 C  
HETATM   26  C   UNL     1      -9.743  18.500  68.610  1.00  0.00    -0.398 C  
ENDBRANCH  22  25
ENDBRANCH  15  22
BRANCH  16  27
HETATM   27  O   UNL     1     -12.877  12.191  64.881  1.00  0.00    -0.496 OA 
HETATM   28  C   UNL     1     -12.727  11.812  63.517  1.00  0.00    -0.306 C  
ENDBRANCH  16  27
ENDBRANCH  10  13
ENDBRANCH   8   9
ENDBRANCH   7   8
ENDBRANCH   2   3
TORSDOF 7
ENDMDL
MODEL       17
REMARK 921   NORMALIZED FREE ENERGY PREDICTED BY IDOCK:   -6.44 KCAL/MOL
REMARK 922        TOTAL FREE ENERGY PREDICTED BY IDOCK:  -10.09 KCAL/MOL
REMARK 923 INTER-LIGAND FREE ENERGY PREDICTED BY IDOCK:   -8.74 KCAL/MOL
REMARK 924 INTRA-LIGAND FREE ENERGY PREDICTED BY IDOCK:   -1.35 KCAL/MOL
REMARK 927      BINDING AFFINITY PREDICTED BY RF-SCORE:    0.00 PKD
ROOT
HETATM    1  C   UNL     1      -8.308   9.103  70.805  1.00  0.00    -0.248 C  
HETATM    2  C   UNL     1      -9.534   9.436  69.963  1.00  0.00    -0.228 C  
ENDROOT
BRANCH   2   3
HETATM    3  N   UNL     1     -10.736   8.702  70.381  1.00  0.00    -0.220 NA 
HETATM    4  C   UNL     1     -10.429   7.375  70.924  1.00  0.00    -0.217 C  
HETATM    5  C   UNL     1     -11.662   7.043  71.738  1.00  0.00    -0.333 C  
HETATM    6  C   UNL     1     -12.004   8.362  72.401  1.00  0.00    -0.451 C  
HETATM    7  C   UNL     1     -11.464   9.437  71.447  1.00  0.00    -0.379 C  
BRANCH   7   8
HETATM    8  C   UNL     1     -12.585  10.297  70.828  1.00  0.00    -0.352 C  
BRANCH   8   9
HETATM    9  N   UNL     1     -12.206  11.656  70.474  1.00  0.00    -0.369 N  
HETATM   10  C   UNL     1     -12.081  12.098  69.173  1.00  0.00    -0.168 C  
HETATM   11  H   UNL     1     -12.021  12.317  71.227  1.00  0.00     0.000 HD 
HETATM   12  O   UNL     1     -12.222  11.387  68.192  1.00  0.00    -0.602 OA 
BRANCH  10  13
HETATM   13  C   UNL     1     -11.697  13.530  69.039  1.00  0.00    -0.370 A  
HETATM   14  C   UNL     1     -11.266  13.930  67.758  1.00  0.00    -0.316 A  
HETATM   15  C   UNL     1     -10.874  15.248  67.501  1.00  0.00    -0.304 A  
HETATM   16  C   UNL     1     -11.802  14.491  70.049  1.00  0.00    -0.313 A  
HETATM   17  C   UNL     1     -10.903  16.208  68.514  1.00  0.00    -0.313 A  
HETATM   18  N   UNL     1     -10.654  17.570  68.285  1.00  0.00    -0.374 NA 
HETATM   19  C   UNL     1     -11.438  15.822  69.754  1.00  0.00    -0.350 A  
HETATM   20  H2  UNL     1     -11.296  17.878  67.554  1.00  0.00     0.000 HD 
HETATM   21  H1  UNL     1     -10.675  18.271  69.025  1.00  0.00     0.000 HD 
BRANCH  15  22
HETATM   22  S   UNL     1     -10.176  15.595  65.895  1.00  0.00    -0.378 S  
HETATM   23  O   UNL     1     -10.762  16.839  65.430  1.00  0.00    -0.507 OA 
HETATM   24  O   UNL     1      -8.733  15.476  66.037  1.00  0.00    -0.258 OA 
BRANCH  22  25
HETATM   25  C   UNL     1     -10.744  14.270  64.852  1.00  0.00    -0.432 C  
HETATM   26  C   UNL     1     -12.171  14.525  64.390  1.00  0.00    -0.480 C  
ENDBRANCH  22  25
ENDBRANCH  15  22
BRANCH  16  27
HETATM   27  O   UNL     1     -12.298  14.350  71.315  1.00  0.00    -0.324 OA 
HETATM   28  C   UNL     1     -13.175  15.356  71.809  1.00  0.00    -0.457 C  
ENDBRANCH  16  27
ENDBRANCH  10  13
ENDBRANCH   8   9
ENDBRANCH   7   8
ENDBRANCH   2   3
TORSDOF 7
ENDMDL
MODEL       18
REMARK 921   NORMALIZED FREE ENERGY PREDICTED BY IDOCK:   -6.41 KCAL/MOL
REMARK 922        TOTAL FREE ENERGY PREDICTED BY IDOCK:  -10.06 KCAL/MOL
REMARK 923 INTER-LIGAND FREE ENERGY PREDICTED BY IDOCK:   -8.74 KCAL/MOL
REMARK 924 INTRA-LIGAND FREE ENERGY PREDICTED BY IDOCK:   -1.32 KCAL/MOL
REMARK 927      BINDING AFFINITY PREDICTED BY RF-SCORE:    0.00 PKD
ROOT
HETATM    1  C   UNL     1      -9.808   4.343  66.782  1.00  0.00    -0.241 C  
HETATM    2  C   UNL     1     -10.635   5.618  66.666  1.00  0.00    -0.295 C  
ENDROOT
BRANCH   2   3
HETATM    3  N   UNL     1     -10.691   6.384  67.918  1.00  0.00    -0.266 NA 
HETATM    4  C   UNL     1     -10.360   5.572  69.094  1.00  0.00    -0.248 C  
HETATM    5  C   UNL     1      -9.969   6.608  70.127  1.00  0.00    -0.190 C  
HETATM    6  C   UNL     1      -9.169   7.613  69.324  1.00  0.00    -0.145 C  
HETATM    7  C   UNL     1      -9.722   7.510  67.895  1.00  0.00    -0.146 C  
BRANCH   7   8
HETATM    8  C   UNL     1     -10.425   8.805  67.438  1.00  0.00    -0.279 C  
BRANCH   8   9
HETATM    9  N   UNL     1     -11.144   9.525  68.477  1.00  0.00    -0.473 N  
HETATM   10  C   UNL     1     -10.889  10.839  68.810  1.00  0.00    -0.221 C  
HETATM   11  H   UNL     1     -11.876   9.031  68.987  1.00  0.00     0.000 HD 
HETATM   12  O   UNL     1     -10.005  11.513  68.309  1.00  0.00    -0.188 OA 
BRANCH  10  13
HETATM   13  C   UNL     1     -11.754  11.383  69.894  1.00  0.00    -0.424 A  
HETATM   14  C   UNL     1     -11.936  12.781  69.887  1.00  0.00    -0.368 A  
HETATM   15  C   UNL     1     -12.722  13.416  70.854  1.00  0.00    -0.272 A  
HETATM   16  C   UNL     1     -12.436  10.615  70.842  1.00  0.00    -0.397 A  
HETATM   17  C   UNL     1     -13.354  12.675  71.854  1.00  0.00    -0.387 A  
HETATM   18  N   UNL     1     -14.263  13.238  72.764  1.00  0.00    -0.586 NA 
HETATM   19  C   UNL     1     -13.255  11.276  71.782  1.00  0.00    -0.480 A  
HETATM   20  H2  UNL     1     -14.992  13.701  72.220  1.00  0.00     0.000 HD 
HETATM   21  H1  UNL     1     -14.725  12.697  73.495  1.00  0.00     0.000 HD 
BRANCH  15  22
HETATM   22  S   UNL     1     -12.731  15.201  70.855  1.00  0.00    -0.432 S  
HETATM   23  O   UNL     1     -12.153  15.636  69.597  1.00  0.00    -0.364 OA 
HETATM   24  O   UNL     1     -14.081  15.607  71.217  1.00  0.00    -0.560 OA 
BRANCH  22  25
HETATM   25  C   UNL     1     -11.637  15.664  72.178  1.00  0.00    -0.443 C  
HETATM   26  C   UNL     1     -12.427  16.147  73.385  1.00  0.00    -0.661 C  
ENDBRANCH  22  25
ENDBRANCH  15  22
BRANCH  16  27
HETATM   27  O   UNL     1     -12.495   9.254  70.959  1.00  0.00    -0.288 OA 
HETATM   28  C   UNL     1     -13.265   8.704  72.022  1.00  0.00    -0.386 C  
ENDBRANCH  16  27
ENDBRANCH  10  13
ENDBRANCH   8   9
ENDBRANCH   7   8
ENDBRANCH   2   3
TORSDOF 7
ENDMDL
MODEL       19
REMARK 921   NORMALIZED FREE ENERGY PREDICTED BY IDOCK:   -6.41 KCAL/MOL
REMARK 922        TOTAL FREE ENERGY PREDICTED BY IDOCK:  -10.05 KCAL/MOL
REMARK 923 INTER-LIGAND FREE ENERGY PREDICTED BY IDOCK:   -8.80 KCAL/MOL
REMARK 924 INTRA-LIGAND FREE ENERGY PREDICTED BY IDOCK:   -1.26 KCAL/MOL
REMARK 927      BINDING AFFINITY PREDICTED BY RF-SCORE:    0.00 PKD
ROOT
HETATM    1  C   UNL     1     -10.036   5.385  69.628  1.00  0.00    -0.319 C  
HETATM    2  C   UNL     1     -11.198   6.371  69.654  1.00  0.00    -0.418 C  
ENDROOT
BRANCH   2   3
HETATM    3  N   UNL     1     -11.356   7.041  70.952  1.00  0.00    -0.279 NA 
HETATM    4  C   UNL     1     -11.194   6.124  72.085  1.00  0.00    -0.287 C  
HETATM    5  C   UNL     1     -10.873   7.054  73.236  1.00  0.00    -0.345 C  
HETATM    6  C   UNL     1      -9.944   8.074  72.608  1.00  0.00    -0.358 C  
HETATM    7  C   UNL     1     -10.341   8.111  71.125  1.00  0.00    -0.198 C  
BRANCH   7   8
HETATM    8  C   UNL     1     -10.929   9.474  70.704  1.00  0.00    -0.306 C  
BRANCH   8   9
HETATM    9  N   UNL     1     -10.657   9.873  69.332  1.00  0.00    -0.215 N  
HETATM   10  C   UNL     1     -11.454  10.746  68.620  1.00  0.00    -0.295 C  
HETATM   11  H   UNL     1      -9.834   9.486  68.871  1.00  0.00     0.000 HD 
HETATM   12  O   UNL     1     -12.490  11.228  69.045  1.00  0.00    -0.417 OA 
BRANCH  10  13
HETATM   13  C   UNL     1     -10.983  11.027  67.236  1.00  0.00    -0.356 A  
HETATM   14  C   UNL     1     -11.548  12.159  66.616  1.00  0.00    -0.416 A  
HETATM   15  C   UNL     1     -11.192  12.530  65.315  1.00  0.00    -0.304 A  
HETATM   16  C   UNL     1      -9.992  10.308  66.560  1.00  0.00    -0.224 A  
HETATM   17  C   UNL     1     -10.258  11.784  64.594  1.00  0.00    -0.284 A  
HETATM   18  N   UNL     1      -9.761  12.183  63.344  1.00  0.00    -0.645 NA 
HETATM   19  C   UNL     1      -9.622  10.726  65.264  1.00  0.00    -0.278 A  
HETATM   20  H2  UNL     1      -9.381  13.124  63.453  1.00  0.00     0.000 HD 
HETATM   21  H1  UNL     1      -9.078  11.637  62.818  1.00  0.00     0.000 HD 
BRANCH  15  22
HETATM   22  S   UNL     1     -12.106  13.870  64.568  1.00  0.00    -0.440 S  
HETATM   23  O   UNL     1     -12.344  13.508  63.183  1.00  0.00    -0.712 OA 
HETATM   24  O   UNL     1     -13.227  14.149  65.453  1.00  0.00    -0.741 OA 
BRANCH  22  25
HETATM   25  C   UNL     1     -10.999  15.261  64.614  1.00  0.00    -0.304 C  
HETATM   26  C   UNL     1     -10.476  15.485  66.026  1.00  0.00    -0.335 C  
ENDBRANCH  22  25
ENDBRANCH  15  22
BRANCH  16  27
HETATM   27  O   UNL     1      -9.238   9.260  67.011  1.00  0.00    -0.134 OA 
HETATM   28  C   UNL     1      -9.335   8.019  66.321  1.00  0.00    -0.184 C  
ENDBRANCH  16  27
ENDBRANCH  10  13
ENDBRANCH   8   9
ENDBRANCH   7   8
ENDBRANCH   2   3
TORSDOF 7
ENDMDL
MODEL       20
REMARK 921   NORMALIZED FREE ENERGY PREDICTED BY IDOCK:   -6.40 KCAL/MOL
REMARK 922        TOTAL FREE ENERGY PREDICTED BY IDOCK:  -10.04 KCAL/MOL
REMARK 923 INTER-LIGAND FREE ENERGY PREDICTED BY IDOCK:   -8.65 KCAL/MOL
REMARK 924 INTRA-LIGAND FREE ENERGY PREDICTED BY IDOCK:   -1.40 KCAL/MOL
REMARK 927      BINDING AFFINITY PREDICTED BY RF-SCORE:    0.00 PKD
ROOT
HETATM    1  C   UNL     1     -10.441  15.409  69.890  1.00  0.00    -0.310 C  
HETATM    2  C   UNL     1     -11.581  15.489  68.882  1.00  0.00    -0.373 C  
ENDROOT
BRANCH   2   3
HETATM    3  N   UNL     1     -11.146  15.248  67.500  1.00  0.00    -0.320 NA 
HETATM    4  C   UNL     1     -10.480  16.412  66.906  1.00  0.00    -0.289 C  
HETATM    5  C   UNL     1      -9.686  15.809  65.766  1.00  0.00    -0.372 C  
HETATM    6  C   UNL     1      -9.151  14.522  66.361  1.00  0.00    -0.217 C  
HETATM    7  C   UNL     1     -10.174  14.127  67.437  1.00  0.00    -0.244 C  
BRANCH   7   8
HETATM    8  C   UNL     1     -10.904  12.809  67.104  1.00  0.00    -0.256 C  
BRANCH   8   9
HETATM    9  N   UNL     1     -11.566  12.163  68.226  1.00  0.00    -0.305 N  
HETATM   10  C   UNL     1     -10.902  11.404  69.168  1.00  0.00    -0.213 C  
HETATM   11  H   UNL     1     -12.575  12.276  68.322  1.00  0.00     0.000 HD 
HETATM   12  O   UNL     1      -9.709  11.153  69.128  1.00  0.00    -0.149 OA 
BRANCH  10  13
HETATM   13  C   UNL     1     -11.772  10.846  70.241  1.00  0.00    -0.437 A  
HETATM   14  C   UNL     1     -11.631   9.466  70.486  1.00  0.00    -0.291 A  
HETATM   15  C   UNL     1     -12.394   8.820  71.464  1.00  0.00    -0.328 A  
HETATM   16  C   UNL     1     -12.638  11.593  71.046  1.00  0.00    -0.331 A  
HETATM   17  C   UNL     1     -13.317   9.533  72.231  1.00  0.00    -0.441 A  
HETATM   18  N   UNL     1     -14.007   8.970  73.316  1.00  0.00    -1.199 NA 
HETATM   19  C   UNL     1     -13.366  10.925  72.052  1.00  0.00    -0.394 A  
HETATM   20  H2  UNL     1     -13.310   8.588  73.956  1.00  0.00     0.000 HD 
HETATM   21  H1  UNL     1     -14.682   9.491  73.876  1.00  0.00     0.000 HD 
BRANCH  15  22
HETATM   22  S   UNL     1     -12.263   7.042  71.560  1.00  0.00    -0.384 S  
HETATM   23  O   UNL     1     -11.325   6.736  72.625  1.00  0.00    -0.259 OA 
HETATM   24  O   UNL     1     -13.624   6.530  71.617  1.00  0.00    -0.059 OA 
BRANCH  22  25
HETATM   25  C   UNL     1     -11.546   6.550  70.009  1.00  0.00    -0.390 C  
HETATM   26  C   UNL     1     -10.133   6.025  70.212  1.00  0.00    -0.249 C  
ENDBRANCH  22  25
ENDBRANCH  15  22
BRANCH  16  27
HETATM   27  O   UNL     1     -12.841  12.945  71.058  1.00  0.00    -0.282 OA 
HETATM   28  C   UNL     1     -13.556  13.506  72.154  1.00  0.00    -0.557 C  
ENDBRANCH  16  27
ENDBRANCH  10  13
ENDBRANCH   8   9
ENDBRANCH   7   8
ENDBRANCH   2   3
TORSDOF 7
ENDMDL
MODEL       21
REMARK 921   NORMALIZED FREE ENERGY PREDICTED BY IDOCK:   -6.35 KCAL/MOL
REMARK 922        TOTAL FREE ENERGY PREDICTED BY IDOCK:   -9.96 KCAL/MOL
REMARK 923 INTER-LIGAND FREE ENERGY PREDICTED BY IDOCK:   -8.87 KCAL/MOL
REMARK 924 INTRA-LIGAND FREE ENERGY PREDICTED BY IDOCK:   -1.10 KCAL/MOL
REMARK 927      BINDING AFFINITY PREDICTED BY RF-SCORE:    0.00 PKD
ROOT
HETATM    1  C   UNL     1     -13.020  11.718  71.609  1.00  0.00    -0.467 C  
HETATM    2  C   UNL     1     -12.357  11.071  70.399  1.00  0.00    -0.356 C  
ENDROOT
BRANCH   2   3
HETATM    3  N   UNL     1     -11.139  10.323  70.741  1.00  0.00    -0.304 NA 
HETATM    4  C   UNL     1     -11.400   9.198  71.644  1.00  0.00    -0.376 C  
HETATM    5  C   UNL     1     -10.195   8.305  71.439  1.00  0.00    -0.263 C  
HETATM    6  C   UNL     1      -9.960   8.379  69.944  1.00  0.00    -0.190 C  
HETATM    7  C   UNL     1     -10.509   9.751  69.523  1.00  0.00    -0.232 C  
BRANCH   7   8
HETATM    8  C   UNL     1      -9.406  10.695  69.003  1.00  0.00    -0.180 C  
BRANCH   8   9
HETATM    9  N   UNL     1      -9.860  11.754  68.116  1.00  0.00    -0.184 N  
HETATM   10  C   UNL     1      -9.019  12.697  67.561  1.00  0.00    -0.187 C  
HETATM   11  H   UNL     1     -10.854  11.803  67.892  1.00  0.00     0.000 HD 
HETATM   12  O   UNL     1      -7.825  12.773  67.797  1.00  0.00    -0.129 OA 
BRANCH  10  13
HETATM   13  C   UNL     1      -9.694  13.682  66.670  1.00  0.00    -0.287 A  
HETATM   14  C   UNL     1      -9.191  14.997  66.721  1.00  0.00    -0.280 A  
HETATM   15  C   UNL     1      -9.739  16.017  65.937  1.00  0.00    -0.343 A  
HETATM   16  C   UNL     1     -10.711  13.380  65.759  1.00  0.00    -0.274 A  
HETATM   17  C   UNL     1     -10.805  15.753  65.073  1.00  0.00    -0.443 A  
HETATM   18  N   UNL     1     -11.303  16.699  64.164  1.00  0.00    -1.437 NA 
HETATM   19  C   UNL     1     -11.220  14.418  64.951  1.00  0.00    -0.392 A  
HETATM   20  H2  UNL     1     -10.520  17.017  63.593  1.00  0.00     0.000 HD 
HETATM   21  H1  UNL     1     -12.082  16.506  63.533  1.00  0.00     0.000 HD 
BRANCH  15  22
HETATM   22  S   UNL     1      -9.144  17.676  66.220  1.00  0.00    -0.131 S  
HETATM   23  O   UNL     1      -7.843  17.780  65.586  1.00  0.00    -0.538 OA 
HETATM   24  O   UNL     1     -10.221  18.573  65.828  1.00  0.00    -0.568 OA 
BRANCH  22  25
HETATM   25  C   UNL     1      -8.935  17.793  67.982  1.00  0.00    -0.263 C  
HETATM   26  C   UNL     1     -10.283  17.920  68.676  1.00  0.00    -0.387 C  
ENDBRANCH  22  25
ENDBRANCH  15  22
BRANCH  16  27
HETATM   27  O   UNL     1     -11.262  12.164  65.464  1.00  0.00    -0.313 OA 
HETATM   28  C   UNL     1     -10.667  11.391  64.427  1.00  0.00    -0.342 C  
ENDBRANCH  16  27
ENDBRANCH  10  13
ENDBRANCH   8   9
ENDBRANCH   7   8
ENDBRANCH   2   3
TORSDOF 7
ENDMDL
MODEL       22
REMARK 921   NORMALIZED FREE ENERGY PREDICTED BY IDOCK:   -6.34 KCAL/MOL
REMARK 922        TOTAL FREE ENERGY PREDICTED BY IDOCK:   -9.95 KCAL/MOL
REMARK 923 INTER-LIGAND FREE ENERGY PREDICTED BY IDOCK:   -8.84 KCAL/MOL
REMARK 924 INTRA-LIGAND FREE ENERGY PREDICTED BY IDOCK:   -1.11 KCAL/MOL
REMARK 927      BINDING AFFINITY PREDICTED BY RF-SCORE:    0.00 PKD
ROOT
HETATM    1  C   UNL     1     -11.301   6.278  69.449  1.00  0.00    -0.448 C  
HETATM    2  C   UNL     1     -10.223   6.001  70.489  1.00  0.00    -0.206 C  
ENDROOT
BRANCH   2   3
HETATM    3  N   UNL     1     -10.768   5.747  71.830  1.00  0.00    -0.235 NA 
HETATM    4  C   UNL     1     -10.105   4.628  72.508  1.00  0.00    -0.174 C  
HETATM    5  C   UNL     1     -10.420   4.876  73.968  1.00  0.00    -0.329 C  
HETATM    6  C   UNL     1     -10.277   6.378  74.102  1.00  0.00    -0.361 C  
HETATM    7  C   UNL     1     -10.597   6.934  72.707  1.00  0.00    -0.240 C  
BRANCH   7   8
HETATM    8  C   UNL     1     -11.877   7.794  72.691  1.00  0.00    -0.262 C  
BRANCH   8   9
HETATM    9  N   UNL     1     -11.773   9.055  71.973  1.00  0.00    -0.361 N  
HETATM   10  C   UNL     1     -12.825   9.636  71.296  1.00  0.00    -0.350 C  
HETATM   11  H   UNL     1     -10.873   9.535  71.970  1.00  0.00     0.000 HD 
HETATM   12  O   UNL     1     -13.929   9.131  71.184  1.00  0.00    -0.247 OA 
BRANCH  10  13
HETATM   13  C   UNL     1     -12.500  10.934  70.642  1.00  0.00    -0.460 A  
HETATM   14  C   UNL     1     -12.847  12.089  71.372  1.00  0.00    -0.391 A  
HETATM   15  C   UNL     1     -12.599  13.369  70.868  1.00  0.00    -0.327 A  
HETATM   16  C   UNL     1     -11.828  11.078  69.425  1.00  0.00    -0.335 A  
HETATM   17  C   UNL     1     -11.993  13.536  69.621  1.00  0.00    -0.337 A  
HETATM   18  N   UNL     1     -11.595  14.788  69.125  1.00  0.00    -0.286 NA 
HETATM   19  C   UNL     1     -11.554  12.380  68.957  1.00  0.00    -0.362 A  
HETATM   20  H2  UNL     1     -10.981  15.210  69.822  1.00  0.00     0.000 HD 
HETATM   21  H1  UNL     1     -11.153  14.910  68.214  1.00  0.00     0.000 HD 
BRANCH  15  22
HETATM   22  S   UNL     1     -13.244  14.752  71.794  1.00  0.00    -0.381 S  
HETATM   23  O   UNL     1     -13.599  15.784  70.837  1.00  0.00    -0.538 OA 
HETATM   24  O   UNL     1     -14.253  14.212  72.693  1.00  0.00    -0.598 OA 
BRANCH  22  25
HETATM   25  C   UNL     1     -11.876  15.327  72.774  1.00  0.00    -0.415 C  
HETATM   26  C   UNL     1     -12.316  15.597  74.205  1.00  0.00    -0.813 C  
ENDBRANCH  22  25
ENDBRANCH  15  22
BRANCH  16  27
HETATM   27  O   UNL     1     -11.304  10.107  68.617  1.00  0.00    -0.206 OA 
HETATM   28  C   UNL     1      -9.960   9.698  68.845  1.00  0.00    -0.178 C  
ENDBRANCH  16  27
ENDBRANCH  10  13
ENDBRANCH   8   9
ENDBRANCH   7   8
ENDBRANCH   2   3
TORSDOF 7
ENDMDL
MODEL       23
REMARK 921   NORMALIZED FREE ENERGY PREDICTED BY IDOCK:   -6.27 KCAL/MOL
REMARK 922        TOTAL FREE ENERGY PREDICTED BY IDOCK:   -9.86 KCAL/MOL
REMARK 923 INTER-LIGAND FREE ENERGY PREDICTED BY IDOCK:   -8.62 KCAL/MOL
REMARK 924 INTRA-LIGAND FREE ENERGY PREDICTED BY IDOCK:   -1.24 KCAL/MOL
REMARK 927      BINDING AFFINITY PREDICTED BY RF-SCORE:    0.00 PKD
ROOT
HETATM    1  C   UNL     1      -9.226   7.984  70.566  1.00  0.00    -0.154 C  
HETATM    2  C   UNL     1     -10.052   9.245  70.786  1.00  0.00    -0.291 C  
ENDROOT
BRANCH   2   3
HETATM    3  N   UNL     1     -11.500   9.000  70.745  1.00  0.00    -0.279 NA 
HETATM    4  C   UNL     1     -11.842   7.591  70.968  1.00  0.00    -0.293 C  
HETATM    5  C   UNL     1     -13.292   7.654  71.402  1.00  0.00    -0.340 C  
HETATM    6  C   UNL     1     -13.329   8.868  72.308  1.00  0.00    -0.497 C  
HETATM    7  C   UNL     1     -12.200   9.777  71.800  1.00  0.00    -0.367 C  
BRANCH   7   8
HETATM    8  C   UNL     1     -12.726  11.106  71.219  1.00  0.00    -0.426 C  
BRANCH   8   9
HETATM    9  N   UNL     1     -12.264  11.427  69.878  1.00  0.00    -0.293 N  
HETATM   10  C   UNL     1     -11.871  12.691  69.489  1.00  0.00    -0.312 C  
HETATM   11  H   UNL     1     -12.228  10.677  69.188  1.00  0.00     0.000 HD 
HETATM   12  O   UNL     1     -11.922  13.675  70.207  1.00  0.00    -0.325 OA 
BRANCH  10  13
HETATM   13  C   UNL     1     -11.420  12.791  68.073  1.00  0.00    -0.364 A  
HETATM   14  C   UNL     1     -11.026  14.075  67.647  1.00  0.00    -0.281 A  
HETATM   15  C   UNL     1     -10.585  14.304  66.340  1.00  0.00    -0.286 A  
HETATM   16  C   UNL     1     -11.294  11.715  67.189  1.00  0.00    -0.306 A  
HETATM   17  C   UNL     1     -10.520  13.257  65.418  1.00  0.00    -0.297 A  
HETATM   18  N   UNL     1      -9.958  13.397  64.140  1.00  0.00    -0.757 NA 
HETATM   19  C   UNL     1     -10.809  11.966  65.888  1.00  0.00    -0.342 A  
HETATM   20  H2  UNL     1      -9.010  13.756  64.261  1.00  0.00     0.000 HD 
HETATM   21  H1  UNL     1      -9.910  12.632  63.467  1.00  0.00     0.000 HD 
BRANCH  15  22
HETATM   22  S   UNL     1     -10.288  15.999  65.862  1.00  0.00    -0.384 S  
HETATM   23  O   UNL     1      -8.862  16.136  65.629  1.00  0.00    -0.329 OA 
HETATM   24  O   UNL     1     -11.234  16.300  64.799  1.00  0.00    -0.461 OA 
BRANCH  22  25
HETATM   25  C   UNL     1     -10.729  16.962  67.291  1.00  0.00    -0.208 C  
HETATM   26  C   UNL     1     -10.363  18.425  67.086  1.00  0.00    -0.419 C  
ENDBRANCH  22  25
ENDBRANCH  15  22
BRANCH  16  27
HETATM   27  O   UNL     1     -11.506  10.385  67.425  1.00  0.00    -0.354 OA 
HETATM   28  C   UNL     1     -10.400   9.498  67.308  1.00  0.00    -0.255 C  
ENDBRANCH  16  27
ENDBRANCH  10  13
ENDBRANCH   8   9
ENDBRANCH   7   8
ENDBRANCH   2   3
TORSDOF 7
ENDMDL
MODEL       24
REMARK 921   NORMALIZED FREE ENERGY PREDICTED BY IDOCK:   -6.27 KCAL/MOL
REMARK 922        TOTAL FREE ENERGY PREDICTED BY IDOCK:   -9.86 KCAL/MOL
REMARK 923 INTER-LIGAND FREE ENERGY PREDICTED BY IDOCK:   -8.25 KCAL/MOL
REMARK 924 INTRA-LIGAND FREE ENERGY PREDICTED BY IDOCK:   -1.60 KCAL/MOL
REMARK 927      BINDING AFFINITY PREDICTED BY RF-SCORE:    0.00 PKD
ROOT
HETATM    1  C   UNL     1     -11.479   5.124  72.949  1.00  0.00    -0.329 C  
HETATM    2  C   UNL     1     -11.783   6.323  72.058  1.00  0.00    -0.322 C  
ENDROOT
BRANCH   2   3
HETATM    3  N   UNL     1     -10.586   6.880  71.413  1.00  0.00    -0.218 NA 
HETATM    4  C   UNL     1      -9.426   6.918  72.310  1.00  0.00    -0.140 C  
HETATM    5  C   UNL     1      -8.255   7.004  71.353  1.00  0.00    -0.109 C  
HETATM    6  C   UNL     1      -8.651   6.060  70.236  1.00  0.00    -0.143 C  
HETATM    7  C   UNL     1     -10.187   6.064  70.238  1.00  0.00    -0.208 C  
BRANCH   7   8
HETATM    8  C   UNL     1     -10.779   6.666  68.947  1.00  0.00    -0.264 C  
BRANCH   8   9
HETATM    9  N   UNL     1     -11.046   8.094  68.992  1.00  0.00    -0.413 N  
HETATM   10  C   UNL     1     -10.663   8.973  67.999  1.00  0.00    -0.125 C  
HETATM   11  H   UNL     1     -11.544   8.467  69.800  1.00  0.00     0.000 HD 
HETATM   12  O   UNL     1     -10.018   8.654  67.015  1.00  0.00    -0.200 OA 
BRANCH  10  13
HETATM   13  C   UNL     1     -11.052  10.390  68.241  1.00  0.00    -0.338 A  
HETATM   14  C   UNL     1     -11.263  11.171  67.087  1.00  0.00    -0.320 A  
HETATM   15  C   UNL     1     -11.628  12.518  67.178  1.00  0.00    -0.368 A  
HETATM   16  C   UNL     1     -11.288  10.958  69.497  1.00  0.00    -0.283 A  
HETATM   17  C   UNL     1     -11.798  13.126  68.423  1.00  0.00    -0.351 A  
HETATM   18  N   UNL     1     -12.296  14.429  68.577  1.00  0.00    -0.594 NA 
HETATM   19  C   UNL     1     -11.694  12.307  69.560  1.00  0.00    -0.398 A  
HETATM   20  H2  UNL     1     -13.192  14.472  68.092  1.00  0.00     0.000 HD 
HETATM   21  H1  UNL     1     -12.420  14.873  69.487  1.00  0.00     0.000 HD 
BRANCH  15  22
HETATM   22  S   UNL     1     -11.689  13.453  65.658  1.00  0.00    -0.365 S  
HETATM   23  O   UNL     1     -13.074  13.822  65.435  1.00  0.00    -0.727 OA 
HETATM   24  O   UNL     1     -10.667  14.483  65.766  1.00  0.00    -0.293 OA 
BRANCH  22  25
HETATM   25  C   UNL     1     -11.192  12.305  64.394  1.00  0.00    -0.334 C  
HETATM   26  C   UNL     1     -12.361  11.975  63.478  1.00  0.00    -0.661 C  
ENDBRANCH  22  25
ENDBRANCH  15  22
BRANCH  16  27
HETATM   27  O   UNL     1     -11.256  10.359  70.726  1.00  0.00    -0.326 OA 
HETATM   28  C   UNL     1     -12.469  10.286  71.467  1.00  0.00    -0.422 C  
ENDBRANCH  16  27
ENDBRANCH  10  13
ENDBRANCH   8   9
ENDBRANCH   7   8
ENDBRANCH   2   3
TORSDOF 7
ENDMDL
MODEL       25
REMARK 921   NORMALIZED FREE ENERGY PREDICTED BY IDOCK:   -6.24 KCAL/MOL
REMARK 922        TOTAL FREE ENERGY PREDICTED BY IDOCK:   -9.81 KCAL/MOL
REMARK 923 INTER-LIGAND FREE ENERGY PREDICTED BY IDOCK:   -8.63 KCAL/MOL
REMARK 924 INTRA-LIGAND FREE ENERGY PREDICTED BY IDOCK:   -1.18 KCAL/MOL
REMARK 927      BINDING AFFINITY PREDICTED BY RF-SCORE:    0.00 PKD
ROOT
HETATM    1  C   UNL     1     -10.109   4.382  72.169  1.00  0.00    -0.262 C  
HETATM    2  C   UNL     1     -10.862   4.992  73.346  1.00  0.00    -0.299 C  
ENDROOT
BRANCH   2   3
HETATM    3  N   UNL     1     -10.413   6.352  73.675  1.00  0.00    -0.275 NA 
HETATM    4  C   UNL     1      -9.034   6.388  74.173  1.00  0.00    -0.149 C  
HETATM    5  C   UNL     1      -8.623   7.827  73.943  1.00  0.00    -0.313 C  
HETATM    6  C   UNL     1      -9.228   8.147  72.591  1.00  0.00    -0.332 C  
HETATM    7  C   UNL     1     -10.453   7.228  72.476  1.00  0.00    -0.237 C  
BRANCH   7   8
HETATM    8  C   UNL     1     -11.780   8.013  72.436  1.00  0.00    -0.386 C  
BRANCH   8   9
HETATM    9  N   UNL     1     -11.737   9.274  71.712  1.00  0.00    -0.380 N  
HETATM   10  C   UNL     1     -12.774  10.184  71.704  1.00  0.00    -0.447 C  
HETATM   11  H   UNL     1     -10.895   9.498  71.182  1.00  0.00     0.000 HD 
HETATM   12  O   UNL     1     -13.847  10.004  72.254  1.00  0.00    -0.247 OA 
BRANCH  10  13
HETATM   13  C   UNL     1     -12.511  11.417  70.910  1.00  0.00    -0.478 A  
HETATM   14  C   UNL     1     -12.040  11.209  69.598  1.00  0.00    -0.406 A  
HETATM   15  C   UNL     1     -11.752  12.283  68.750  1.00  0.00    -0.340 A  
HETATM   16  C   UNL     1     -12.764  12.723  71.341  1.00  0.00    -0.255 A  
HETATM   17  C   UNL     1     -11.928  13.598  69.185  1.00  0.00    -0.351 A  
HETATM   18  N   UNL     1     -11.789  14.709  68.338  1.00  0.00    -0.444 NA 
HETATM   19  C   UNL     1     -12.502  13.787  70.453  1.00  0.00    -0.384 A  
HETATM   20  H2  UNL     1     -12.410  14.565  67.542  1.00  0.00     0.000 HD 
HETATM   21  H1  UNL     1     -11.918  15.670  68.657  1.00  0.00     0.000 HD 
BRANCH  15  22
HETATM   22  S   UNL     1     -10.990  11.904  67.180  1.00  0.00    -0.286 S  
HETATM   23  O   UNL     1     -11.963  12.206  66.146  1.00  0.00    -0.593 OA 
HETATM   24  O   UNL     1      -9.695  12.567  67.179  1.00  0.00    -0.199 OA 
BRANCH  22  25
HETATM   25  C   UNL     1     -10.717  10.148  67.215  1.00  0.00    -0.254 C  
HETATM   26  C   UNL     1      -9.609   9.757  66.249  1.00  0.00    -0.271 C  
ENDBRANCH  22  25
ENDBRANCH  15  22
BRANCH  16  27
HETATM   27  O   UNL     1     -13.322  13.142  72.516  1.00  0.00    -0.534 OA 
HETATM   28  C   UNL     1     -13.324  14.538  72.797  1.00  0.00    -0.507 C  
ENDBRANCH  16  27
ENDBRANCH  10  13
ENDBRANCH   8   9
ENDBRANCH   7   8
ENDBRANCH   2   3
TORSDOF 7
ENDMDL
MODEL       26
REMARK 921   NORMALIZED FREE ENERGY PREDICTED BY IDOCK:   -6.23 KCAL/MOL
REMARK 922        TOTAL FREE ENERGY PREDICTED BY IDOCK:   -9.80 KCAL/MOL
REMARK 923 INTER-LIGAND FREE ENERGY PREDICTED BY IDOCK:   -8.61 KCAL/MOL
REMARK 924 INTRA-LIGAND FREE ENERGY PREDICTED BY IDOCK:   -1.19 KCAL/MOL
REMARK 927      BINDING AFFINITY PREDICTED BY RF-SCORE:    0.00 PKD
ROOT
HETATM    1  C   UNL     1     -11.801  13.218  63.895  1.00  0.00    -0.522 C  
HETATM    2  C   UNL     1     -10.579  13.415  64.784  1.00  0.00    -0.405 C  
ENDROOT
BRANCH   2   3
HETATM    3  N   UNL     1     -10.396  12.332  65.761  1.00  0.00    -0.252 NA 
HETATM    4  C   UNL     1     -10.411  11.003  65.142  1.00  0.00    -0.283 C  
HETATM    5  C   UNL     1      -9.708  10.139  66.167  1.00  0.00    -0.275 C  
HETATM    6  C   UNL     1      -8.579  11.026  66.652  1.00  0.00    -0.157 C  
HETATM    7  C   UNL     1      -9.090  12.461  66.457  1.00  0.00    -0.181 C  
BRANCH   7   8
HETATM    8  C   UNL     1      -9.272  13.211  67.793  1.00  0.00    -0.203 C  
BRANCH   8   9
HETATM    9  N   UNL     1     -10.060  12.514  68.797  1.00  0.00    -0.412 N  
HETATM   10  C   UNL     1     -11.364  12.841  69.106  1.00  0.00    -0.281 C  
HETATM   11  H   UNL     1      -9.624  11.741  69.300  1.00  0.00     0.000 HD 
HETATM   12  O   UNL     1     -11.970  13.777  68.613  1.00  0.00    -0.351 OA 
BRANCH  10  13
HETATM   13  C   UNL     1     -11.985  11.986  70.156  1.00  0.00    -0.401 A  
HETATM   14  C   UNL     1     -11.528  10.654  70.209  1.00  0.00    -0.422 A  
HETATM   15  C   UNL     1     -12.035   9.749  71.146  1.00  0.00    -0.376 A  
HETATM   16  C   UNL     1     -12.909  12.425  71.110  1.00  0.00    -0.205 A  
HETATM   17  C   UNL     1     -13.011  10.146  72.062  1.00  0.00    -0.409 A  
HETATM   18  N   UNL     1     -13.455   9.325  73.110  1.00  0.00    -0.783 NA 
HETATM   19  C   UNL     1     -13.375  11.502  72.069  1.00  0.00    -0.397 A  
HETATM   20  H2  UNL     1     -12.634   9.041  73.645  1.00  0.00     0.000 HD 
HETATM   21  H1  UNL     1     -14.169   9.615  73.779  1.00  0.00     0.000 HD 
BRANCH  15  22
HETATM   22  S   UNL     1     -11.516   8.046  71.001  1.00  0.00    -0.277 S  
HETATM   23  O   UNL     1     -12.657   7.218  71.347  1.00  0.00    -0.355 OA 
HETATM   24  O   UNL     1     -10.889   7.916  69.695  1.00  0.00    -0.242 OA 
BRANCH  22  25
HETATM   25  C   UNL     1     -10.262   7.842  72.245  1.00  0.00    -0.228 C  
HETATM   26  C   UNL     1     -10.775   6.977  73.388  1.00  0.00    -0.379 C  
ENDBRANCH  22  25
ENDBRANCH  15  22
BRANCH  16  27
HETATM   27  O   UNL     1     -13.396  13.686  71.312  1.00  0.00    -0.285 OA 
HETATM   28  C   UNL     1     -13.315  14.234  72.623  1.00  0.00    -0.525 C  
ENDBRANCH  16  27
ENDBRANCH  10  13
ENDBRANCH   8   9
ENDBRANCH   7   8
ENDBRANCH   2   3
TORSDOF 7
ENDMDL
MODEL       27
REMARK 921   NORMALIZED FREE ENERGY PREDICTED BY IDOCK:   -6.22 KCAL/MOL
REMARK 922        TOTAL FREE ENERGY PREDICTED BY IDOCK:   -9.79 KCAL/MOL
REMARK 923 INTER-LIGAND FREE ENERGY PREDICTED BY IDOCK:   -8.71 KCAL/MOL
REMARK 924 INTRA-LIGAND FREE ENERGY PREDICTED BY IDOCK:   -1.08 KCAL/MOL
REMARK 927      BINDING AFFINITY PREDICTED BY RF-SCORE:    0.00 PKD
ROOT
HETATM    1  C   UNL     1      -9.502   8.344  72.239  1.00  0.00    -0.367 C  
HETATM    2  C   UNL     1     -10.292   7.749  71.079  1.00  0.00    -0.202 C  
ENDROOT
BRANCH   2   3
HETATM    3  N   UNL     1     -11.669   8.255  71.000  1.00  0.00    -0.280 NA 
HETATM    4  C   UNL     1     -12.530   7.724  72.061  1.00  0.00    -0.286 C  
HETATM    5  C   UNL     1     -13.665   8.725  72.115  1.00  0.00    -0.498 C  
HETATM    6  C   UNL     1     -12.962  10.056  71.943  1.00  0.00    -0.547 C  
HETATM    7  C   UNL     1     -11.698   9.735  71.131  1.00  0.00    -0.385 C  
BRANCH   7   8
HETATM    8  C   UNL     1     -11.709  10.392  69.735  1.00  0.00    -0.237 C  
BRANCH   8   9
HETATM    9  N   UNL     1     -11.405  11.814  69.713  1.00  0.00    -0.462 N  
HETATM   10  C   UNL     1     -11.709  12.643  68.653  1.00  0.00    -0.325 C  
HETATM   11  H   UNL     1     -10.941  12.221  70.525  1.00  0.00     0.000 HD 
HETATM   12  O   UNL     1     -12.212  12.262  67.609  1.00  0.00    -0.442 OA 
BRANCH  10  13
HETATM   13  C   UNL     1     -11.321  14.067  68.848  1.00  0.00    -0.314 A  
HETATM   14  C   UNL     1     -10.892  14.747  67.691  1.00  0.00    -0.285 A  
HETATM   15  C   UNL     1     -10.497  16.088  67.740  1.00  0.00    -0.298 A  
HETATM   16  C   UNL     1     -11.423  14.773  70.051  1.00  0.00    -0.277 A  
HETATM   17  C   UNL     1     -10.521  16.792  68.946  1.00  0.00    -0.332 A  
HETATM   18  N   UNL     1     -10.270  18.170  69.032  1.00  0.00    -0.433 NA 
HETATM   19  C   UNL     1     -11.056  16.135  70.066  1.00  0.00    -0.363 A  
HETATM   20  H2  UNL     1     -10.913  18.638  68.392  1.00  0.00     0.000 HD 
HETATM   21  H1  UNL     1     -10.288  18.684  69.913  1.00  0.00     0.000 HD 
BRANCH  15  22
HETATM   22  S   UNL     1      -9.800  16.790  66.254  1.00  0.00    -0.311 S  
HETATM   23  O   UNL     1     -10.413  16.109  65.128  1.00  0.00    -0.560 OA 
HETATM   24  O   UNL     1      -9.918  18.235  66.385  1.00  0.00    -0.347 OA 
BRANCH  22  25
HETATM   25  C   UNL     1      -8.075  16.364  66.310  1.00  0.00    -0.276 C  
HETATM   26  C   UNL     1      -7.320  17.301  67.242  1.00  0.00    -0.189 C  
ENDBRANCH  22  25
ENDBRANCH  15  22
BRANCH  16  27
HETATM   27  O   UNL     1     -11.917  14.348  71.253  1.00  0.00    -0.335 OA 
HETATM   28  C   UNL     1     -13.076  14.994  71.768  1.00  0.00    -0.356 C  
ENDBRANCH  16  27
ENDBRANCH  10  13
ENDBRANCH   8   9
ENDBRANCH   7   8
ENDBRANCH   2   3
TORSDOF 7
ENDMDL
MODEL       28
REMARK 921   NORMALIZED FREE ENERGY PREDICTED BY IDOCK:   -6.18 KCAL/MOL
REMARK 922        TOTAL FREE ENERGY PREDICTED BY IDOCK:   -9.72 KCAL/MOL
REMARK 923 INTER-LIGAND FREE ENERGY PREDICTED BY IDOCK:   -8.80 KCAL/MOL
REMARK 924 INTRA-LIGAND FREE ENERGY PREDICTED BY IDOCK:   -0.92 KCAL/MOL
REMARK 927      BINDING AFFINITY PREDICTED BY RF-SCORE:    0.00 PKD
ROOT
HETATM    1  C   UNL     1     -10.385   6.796  73.646  1.00  0.00    -0.372 C  
HETATM    2  C   UNL     1     -11.451   7.625  72.938  1.00  0.00    -0.290 C  
ENDROOT
BRANCH   2   3
HETATM    3  N   UNL     1     -10.889   8.719  72.135  1.00  0.00    -0.360 NA 
HETATM    4  C   UNL     1      -9.483   8.499  71.782  1.00  0.00    -0.258 C  
HETATM    5  C   UNL     1      -9.283   9.405  70.585  1.00  0.00    -0.303 C  
HETATM    6  C   UNL     1     -10.570   9.235  69.803  1.00  0.00    -0.244 C  
HETATM    7  C   UNL     1     -11.628   8.871  70.855  1.00  0.00    -0.283 C  
BRANCH   7   8
HETATM    8  C   UNL     1     -12.718   9.953  70.996  1.00  0.00    -0.334 C  
BRANCH   8   9
HETATM    9  N   UNL     1     -12.284  11.314  70.724  1.00  0.00    -0.377 N  
HETATM   10  C   UNL     1     -12.763  12.417  71.401  1.00  0.00    -0.243 C  
HETATM   11  H   UNL     1     -11.589  11.462  69.993  1.00  0.00     0.000 HD 
HETATM   12  O   UNL     1     -13.632  12.372  72.255  1.00  0.00    -0.504 OA 
BRANCH  10  13
HETATM   13  C   UNL     1     -12.170  13.714  70.971  1.00  0.00    -0.374 A  
HETATM   14  C   UNL     1     -11.879  13.826  69.597  1.00  0.00    -0.393 A  
HETATM   15  C   UNL     1     -11.316  14.992  69.066  1.00  0.00    -0.290 A  
HETATM   16  C   UNL     1     -11.962  14.820  71.801  1.00  0.00    -0.339 A  
HETATM   17  C   UNL     1     -11.032  16.082  69.890  1.00  0.00    -0.353 A  
HETATM   18  N   UNL     1     -10.599  17.322  69.395  1.00  0.00    -0.359 NA 
HETATM   19  C   UNL     1     -11.431  15.997  71.233  1.00  0.00    -0.475 A  
HETATM   20  H2  UNL     1     -11.284  17.632  68.705  1.00  0.00     0.000 HD 
HETATM   21  H1  UNL     1     -10.391  18.119  69.997  1.00  0.00     0.000 HD 
BRANCH  15  22
HETATM   22  S   UNL     1     -10.822  14.952  67.351  1.00  0.00    -0.312 S  
HETATM   23  O   UNL     1     -10.746  16.328  66.893  1.00  0.00    -0.300 OA 
HETATM   24  O   UNL     1      -9.649  14.094  67.279  1.00  0.00    -0.222 OA 
BRANCH  22  25
HETATM   25  C   UNL     1     -12.159  14.141  66.506  1.00  0.00    -0.454 C  
HETATM   26  C   UNL     1     -11.704  12.803  65.940  1.00  0.00    -0.464 C  
ENDBRANCH  22  25
ENDBRANCH  15  22
BRANCH  16  27
HETATM   27  O   UNL     1     -12.277  14.968  73.123  1.00  0.00    -0.365 OA 
HETATM   28  C   UNL     1     -12.966  16.149  73.520  1.00  0.00    -0.532 C  
ENDBRANCH  16  27
ENDBRANCH  10  13
ENDBRANCH   8   9
ENDBRANCH   7   8
ENDBRANCH   2   3
TORSDOF 7
ENDMDL
MODEL       29
REMARK 921   NORMALIZED FREE ENERGY PREDICTED BY IDOCK:   -6.15 KCAL/MOL
REMARK 922        TOTAL FREE ENERGY PREDICTED BY IDOCK:   -9.69 KCAL/MOL
REMARK 923 INTER-LIGAND FREE ENERGY PREDICTED BY IDOCK:   -8.51 KCAL/MOL
REMARK 924 INTRA-LIGAND FREE ENERGY PREDICTED BY IDOCK:   -1.18 KCAL/MOL
REMARK 927      BINDING AFFINITY PREDICTED BY RF-SCORE:    0.00 PKD
ROOT
HETATM    1  C   UNL     1     -10.591  19.892  65.865  1.00  0.00    -0.523 C  
HETATM    2  C   UNL     1      -9.150  19.641  66.292  1.00  0.00    -0.376 C  
ENDROOT
BRANCH   2   3
HETATM    3  N   UNL     1      -8.937  18.297  66.845  1.00  0.00    -0.271 NA 
HETATM    4  C   UNL     1      -7.690  17.683  66.378  1.00  0.00    -0.290 C  
HETATM    5  C   UNL     1      -7.421  16.618  67.420  1.00  0.00    -0.188 C  
HETATM    6  C   UNL     1      -7.798  17.301  68.719  1.00  0.00    -0.254 C  
HETATM    7  C   UNL     1      -8.860  18.339  68.328  1.00  0.00    -0.287 C  
BRANCH   7   8
HETATM    8  C   UNL     1     -10.242  18.032  68.941  1.00  0.00    -0.311 C  
BRANCH   8   9
HETATM    9  N   UNL     1     -10.626  16.629  68.940  1.00  0.00    -0.315 N  
HETATM   10  C   UNL     1     -11.154  15.983  70.039  1.00  0.00    -0.362 C  
HETATM   11  H   UNL     1     -10.498  16.094  68.081  1.00  0.00     0.000 HD 
HETATM   12  O   UNL     1     -11.302  16.501  71.132  1.00  0.00    -0.298 OA 
BRANCH  10  13
HETATM   13  C   UNL     1     -11.491  14.549  69.812  1.00  0.00    -0.327 A  
HETATM   14  C   UNL     1     -11.048  14.003  68.591  1.00  0.00    -0.286 A  
HETATM   15  C   UNL     1     -11.304  12.670  68.256  1.00  0.00    -0.295 A  
HETATM   16  C   UNL     1     -12.131  13.717  70.735  1.00  0.00    -0.295 A  
HETATM   17  C   UNL     1     -12.005  11.839  69.132  1.00  0.00    -0.293 A  
HETATM   18  N   UNL     1     -12.171  10.463  68.913  1.00  0.00    -0.680 NA 
HETATM   19  C   UNL     1     -12.342  12.365  70.390  1.00  0.00    -0.307 A  
HETATM   20  H2  UNL     1     -11.242  10.060  68.789  1.00  0.00     0.000 HD 
HETATM   21  H1  UNL     1     -12.684   9.856  69.554  1.00  0.00     0.000 HD 
BRANCH  15  22
HETATM   22  S   UNL     1     -10.857  12.141  66.610  1.00  0.00    -0.281 S  
HETATM   23  O   UNL     1      -9.864  11.091  66.750  1.00  0.00    -0.189 OA 
HETATM   24  O   UNL     1     -12.104  11.876  65.909  1.00  0.00    -0.474 OA 
BRANCH  22  25
HETATM   25  C   UNL     1     -10.088  13.560  65.865  1.00  0.00    -0.303 C  
HETATM   26  C   UNL     1     -10.892  14.038  64.664  1.00  0.00    -0.416 C  
ENDBRANCH  22  25
ENDBRANCH  15  22
BRANCH  16  27
HETATM   27  O   UNL     1     -12.537  14.004  72.009  1.00  0.00    -0.301 OA 
HETATM   28  C   UNL     1     -13.847  13.611  72.401  1.00  0.00    -0.589 C  
ENDBRANCH  16  27
ENDBRANCH  10  13
ENDBRANCH   8   9
ENDBRANCH   7   8
ENDBRANCH   2   3
TORSDOF 7
ENDMDL
MODEL       30
REMARK 921   NORMALIZED FREE ENERGY PREDICTED BY IDOCK:   -6.10 KCAL/MOL
REMARK 922        TOTAL FREE ENERGY PREDICTED BY IDOCK:   -9.62 KCAL/MOL
REMARK 923 INTER-LIGAND FREE ENERGY PREDICTED BY IDOCK:   -8.45 KCAL/MOL
REMARK 924 INTRA-LIGAND FREE ENERGY PREDICTED BY IDOCK:   -1.17 KCAL/MOL
REMARK 927      BINDING AFFINITY PREDICTED BY RF-SCORE:    0.00 PKD
ROOT
HETATM    1  C   UNL     1     -11.625  15.917  69.059  1.00  0.00    -0.392 C  
HETATM    2  C   UNL     1     -12.058  14.615  69.721  1.00  0.00    -0.324 C  
ENDROOT
BRANCH   2   3
HETATM    3  N   UNL     1     -12.096  14.700  71.188  1.00  0.00    -0.325 NA 
HETATM    4  C   UNL     1     -11.678  16.013  71.690  1.00  0.00    -0.506 C  
HETATM    5  C   UNL     1     -12.275  16.055  73.081  1.00  0.00    -0.636 C  
HETATM    6  C   UNL     1     -13.639  15.423  72.891  1.00  0.00    -0.609 C  
HETATM    7  C   UNL     1     -13.473  14.471  71.697  1.00  0.00    -0.373 C  
BRANCH   7   8
HETATM    8  C   UNL     1     -13.654  12.990  72.091  1.00  0.00    -0.526 C  
BRANCH   8   9
HETATM    9  N   UNL     1     -12.828  12.045  71.357  1.00  0.00    -0.350 N  
HETATM   10  C   UNL     1     -12.958  10.675  71.464  1.00  0.00    -0.461 C  
HETATM   11  H   UNL     1     -12.115  12.413  70.728  1.00  0.00     0.000 HD 
HETATM   12  O   UNL     1     -13.735  10.119  72.221  1.00  0.00    -0.288 OA 
BRANCH  10  13
HETATM   13  C   UNL     1     -12.020   9.894  70.611  1.00  0.00    -0.361 A  
HETATM   14  C   UNL     1     -11.551   8.687  71.166  1.00  0.00    -0.330 A  
HETATM   15  C   UNL     1     -10.661   7.863  70.468  1.00  0.00    -0.233 A  
HETATM   16  C   UNL     1     -11.644  10.233  69.307  1.00  0.00    -0.119 A  
HETATM   17  C   UNL     1     -10.216   8.218  69.193  1.00  0.00    -0.218 A  
HETATM   18  N   UNL     1      -9.437   7.369  68.391  1.00  0.00    -0.143 NA 
HETATM   19  C   UNL     1     -10.778   9.365  68.610  1.00  0.00    -0.196 A  
HETATM   20  H2  UNL     1      -9.940   6.486  68.304  1.00  0.00     0.000 HD 
HETATM   21  H1  UNL     1      -9.112   7.629  67.459  1.00  0.00     0.000 HD 
BRANCH  15  22
HETATM   22  S   UNL     1      -9.995   6.456  71.340  1.00  0.00    -0.185 S  
HETATM   23  O   UNL     1     -10.338   5.272  70.573  1.00  0.00    -0.252 OA 
HETATM   24  O   UNL     1      -8.601   6.765  71.620  1.00  0.00    -0.125 OA 
BRANCH  22  25
HETATM   25  C   UNL     1     -10.877   6.413  72.884  1.00  0.00    -0.256 C  
HETATM   26  C   UNL     1      -9.985   6.880  74.025  1.00  0.00    -0.371 C  
ENDBRANCH  22  25
ENDBRANCH  15  22
BRANCH  16  27
HETATM   27  O   UNL     1     -12.066  11.284  68.542  1.00  0.00    -0.573 OA 
HETATM   28  C   UNL     1     -11.281  11.648  67.411  1.00  0.00    -0.298 C  
ENDBRANCH  16  27
ENDBRANCH  10  13
ENDBRANCH   8   9
ENDBRANCH   7   8
ENDBRANCH   2   3
TORSDOF 7
ENDMDL
MODEL       31
REMARK 921   NORMALIZED FREE ENERGY PREDICTED BY IDOCK:   -6.07 KCAL/MOL
REMARK 922        TOTAL FREE ENERGY PREDICTED BY IDOCK:   -9.58 KCAL/MOL
REMARK 923 INTER-LIGAND FREE ENERGY PREDICTED BY IDOCK:   -8.58 KCAL/MOL
REMARK 924 INTRA-LIGAND FREE ENERGY PREDICTED BY IDOCK:   -1.00 KCAL/MOL
REMARK 927      BINDING AFFINITY PREDICTED BY RF-SCORE:    0.00 PKD
ROOT
HETATM    1  C   UNL     1     -11.452  15.881  69.018  1.00  0.00    -0.380 C  
HETATM    2  C   UNL     1     -12.442  14.953  69.711  1.00  0.00    -0.185 C  
ENDROOT
BRANCH   2   3
HETATM    3  N   UNL     1     -12.312  14.961  71.175  1.00  0.00    -0.300 NA 
HETATM    4  C   UNL     1     -11.855  16.253  71.696  1.00  0.00    -0.416 C  
HETATM    5  C   UNL     1     -12.289  16.211  73.146  1.00  0.00    -0.641 C  
HETATM    6  C   UNL     1     -13.657  15.564  73.080  1.00  0.00    -0.593 C  
HETATM    7  C   UNL     1     -13.617  14.679  71.825  1.00  0.00    -0.394 C  
BRANCH   7   8
HETATM    8  C   UNL     1     -13.732  13.176  72.157  1.00  0.00    -0.495 C  
BRANCH   8   9
HETATM    9  N   UNL     1     -12.803  12.309  71.449  1.00  0.00    -0.339 N  
HETATM   10  C   UNL     1     -12.813  10.934  71.554  1.00  0.00    -0.454 C  
HETATM   11  H   UNL     1     -12.106  12.741  70.842  1.00  0.00     0.000 HD 
HETATM   12  O   UNL     1     -13.560  10.309  72.288  1.00  0.00    -0.325 OA 
BRANCH  10  13
HETATM   13  C   UNL     1     -11.783  10.241  70.731  1.00  0.00    -0.453 A  
HETATM   14  C   UNL     1     -11.568  10.776  69.445  1.00  0.00    -0.380 A  
HETATM   15  C   UNL     1     -10.630  10.215  68.572  1.00  0.00    -0.216 A  
HETATM   16  C   UNL     1     -10.987   9.176  71.164  1.00  0.00    -0.320 A  
HETATM   17  C   UNL     1      -9.876   9.105  68.957  1.00  0.00    -0.174 A  
HETATM   18  N   UNL     1      -8.828   8.586  68.181  1.00  0.00    -0.142 NA 
HETATM   19  C   UNL     1     -10.021   8.654  70.279  1.00  0.00    -0.204 A  
HETATM   20  H2  UNL     1      -8.176   9.350  67.999  1.00  0.00     0.000 HD 
HETATM   21  H1  UNL     1      -8.277   7.775  68.463  1.00  0.00     0.000 HD 
BRANCH  15  22
HETATM   22  S   UNL     1     -10.575  10.860  66.908  1.00  0.00    -0.258 S  
HETATM   23  O   UNL     1     -10.263   9.750  66.026  1.00  0.00    -0.259 OA 
HETATM   24  O   UNL     1     -11.801  11.620  66.719  1.00  0.00    -0.557 OA 
BRANCH  22  25
HETATM   25  C   UNL     1      -9.207  11.997  66.903  1.00  0.00    -0.197 C  
HETATM   26  C   UNL     1      -9.701  13.431  66.773  1.00  0.00    -0.262 C  
ENDBRANCH  22  25
ENDBRANCH  15  22
BRANCH  16  27
HETATM   27  O   UNL     1     -10.947   8.584  72.396  1.00  0.00    -0.357 OA 
HETATM   28  C   UNL     1     -11.536   7.296  72.541  1.00  0.00    -0.281 C  
ENDBRANCH  16  27
ENDBRANCH  10  13
ENDBRANCH   8   9
ENDBRANCH   7   8
ENDBRANCH   2   3
TORSDOF 7
ENDMDL
MODEL       32
REMARK 921   NORMALIZED FREE ENERGY PREDICTED BY IDOCK:   -6.07 KCAL/MOL
REMARK 922        TOTAL FREE ENERGY PREDICTED BY IDOCK:   -9.58 KCAL/MOL
REMARK 923 INTER-LIGAND FREE ENERGY PREDICTED BY IDOCK:   -8.16 KCAL/MOL
REMARK 924 INTRA-LIGAND FREE ENERGY PREDICTED BY IDOCK:   -1.42 KCAL/MOL
REMARK 927      BINDING AFFINITY PREDICTED BY RF-SCORE:    0.00 PKD
ROOT
HETATM    1  C   UNL     1      -9.399  15.773  69.455  1.00  0.00    -0.269 C  
HETATM    2  C   UNL     1     -10.631  16.658  69.312  1.00  0.00    -0.343 C  
ENDROOT
BRANCH   2   3
HETATM    3  N   UNL     1     -10.525  17.620  68.207  1.00  0.00    -0.380 NA 
HETATM    4  C   UNL     1      -9.999  18.920  68.635  1.00  0.00    -0.412 C  
HETATM    5  C   UNL     1      -9.492  19.528  67.344  1.00  0.00    -0.415 C  
HETATM    6  C   UNL     1      -8.851  18.351  66.636  1.00  0.00    -0.297 C  
HETATM    7  C   UNL     1      -9.607  17.118  67.153  1.00  0.00    -0.255 C  
BRANCH   7   8
HETATM    8  C   UNL     1     -10.409  16.407  66.043  1.00  0.00    -0.352 C  
BRANCH   8   9
HETATM    9  N   UNL     1     -10.232  14.966  65.971  1.00  0.00    -0.283 N  
HETATM   10  C   UNL     1     -11.105  14.061  66.539  1.00  0.00    -0.314 C  
HETATM   11  H   UNL     1      -9.418  14.604  65.475  1.00  0.00     0.000 HD 
HETATM   12  O   UNL     1     -12.080  14.374  67.201  1.00  0.00    -0.414 OA 
BRANCH  10  13
HETATM   13  C   UNL     1     -10.739  12.632  66.332  1.00  0.00    -0.278 A  
HETATM   14  C   UNL     1     -10.696  11.838  67.495  1.00  0.00    -0.262 A  
HETATM   15  C   UNL     1     -10.362  10.481  67.437  1.00  0.00    -0.224 A  
HETATM   16  C   UNL     1     -10.516  12.029  65.090  1.00  0.00    -0.289 A  
HETATM   17  C   UNL     1     -10.065   9.875  66.216  1.00  0.00    -0.241 A  
HETATM   18  N   UNL     1      -9.859   8.493  66.078  1.00  0.00    -0.472 NA 
HETATM   19  C   UNL     1     -10.221  10.650  65.055  1.00  0.00    -0.380 A  
HETATM   20  H2  UNL     1     -10.680   8.023  66.460  1.00  0.00     0.000 HD 
HETATM   21  H1  UNL     1      -9.642   8.050  65.185  1.00  0.00     0.000 HD 
BRANCH  15  22
HETATM   22  S   UNL     1     -10.161   9.622  68.989  1.00  0.00    -0.209 S  
HETATM   23  O   UNL     1     -10.608   8.256  68.786  1.00  0.00    -0.202 OA 
HETATM   24  O   UNL     1      -8.802   9.887  69.435  1.00  0.00    -0.160 OA 
BRANCH  22  25
HETATM   25  C   UNL     1     -11.282  10.429  70.109  1.00  0.00    -0.321 C  
HETATM   26  C   UNL     1     -11.487   9.591  71.362  1.00  0.00    -0.462 C  
ENDBRANCH  22  25
ENDBRANCH  15  22
BRANCH  16  27
HETATM   27  O   UNL     1     -10.620  12.577  63.842  1.00  0.00    -0.389 OA 
HETATM   28  C   UNL     1     -11.918  12.904  63.358  1.00  0.00    -0.537 C  
ENDBRANCH  16  27
ENDBRANCH  10  13
ENDBRANCH   8   9
ENDBRANCH   7   8
ENDBRANCH   2   3
TORSDOF 7
ENDMDL
MODEL       33
REMARK 921   NORMALIZED FREE ENERGY PREDICTED BY IDOCK:   -6.02 KCAL/MOL
REMARK 922        TOTAL FREE ENERGY PREDICTED BY IDOCK:   -9.51 KCAL/MOL
REMARK 923 INTER-LIGAND FREE ENERGY PREDICTED BY IDOCK:   -8.18 KCAL/MOL
REMARK 924 INTRA-LIGAND FREE ENERGY PREDICTED BY IDOCK:   -1.33 KCAL/MOL
REMARK 927      BINDING AFFINITY PREDICTED BY RF-SCORE:    0.00 PKD
ROOT
HETATM    1  C   UNL     1     -10.888  19.131  67.465  1.00  0.00    -0.512 C  
HETATM    2  C   UNL     1     -10.301  19.133  66.058  1.00  0.00    -0.463 C  
ENDROOT
BRANCH   2   3
HETATM    3  N   UNL     1      -9.329  18.054  65.838  1.00  0.00    -0.504 NA 
HETATM    4  C   UNL     1      -8.015  18.348  66.419  1.00  0.00    -0.262 C  
HETATM    5  C   UNL     1      -7.382  16.978  66.546  1.00  0.00    -0.320 C  
HETATM    6  C   UNL     1      -8.531  16.108  67.013  1.00  0.00    -0.238 C  
HETATM    7  C   UNL     1      -9.793  16.786  66.460  1.00  0.00    -0.290 C  
BRANCH   7   8
HETATM    8  C   UNL     1     -10.522  15.918  65.414  1.00  0.00    -0.405 C  
BRANCH   8   9
HETATM    9  N   UNL     1     -10.265  14.489  65.502  1.00  0.00    -0.348 N  
HETATM   10  C   UNL     1     -11.146  13.589  66.065  1.00  0.00    -0.293 C  
HETATM   11  H   UNL     1      -9.386  14.133  65.128  1.00  0.00     0.000 HD 
HETATM   12  O   UNL     1     -12.200  13.902  66.592  1.00  0.00    -0.437 OA 
BRANCH  10  13
HETATM   13  C   UNL     1     -10.688  12.172  66.037  1.00  0.00    -0.308 A  
HETATM   14  C   UNL     1     -10.739  11.489  67.268  1.00  0.00    -0.286 A  
HETATM   15  C   UNL     1     -10.333  10.155  67.377  1.00  0.00    -0.238 A  
HETATM   16  C   UNL     1     -10.295  11.475  64.890  1.00  0.00    -0.289 A  
HETATM   17  C   UNL     1      -9.868   9.461  66.259  1.00  0.00    -0.281 A  
HETATM   18  N   UNL     1      -9.579   8.087  66.277  1.00  0.00    -0.380 NA 
HETATM   19  C   UNL     1      -9.928  10.119  65.020  1.00  0.00    -0.375 A  
HETATM   20  H2  UNL     1     -10.414   7.605  66.610  1.00  0.00     0.000 HD 
HETATM   21  H1  UNL     1      -9.239   7.580  65.459  1.00  0.00     0.000 HD 
BRANCH  15  22
HETATM   22  S   UNL     1     -10.268   9.452  69.017  1.00  0.00    -0.211 S  
HETATM   23  O   UNL     1     -10.856   8.127  68.940  1.00  0.00    -0.115 OA 
HETATM   24  O   UNL     1      -8.900   9.617  69.483  1.00  0.00    -0.160 OA 
BRANCH  22  25
HETATM   25  C   UNL     1     -11.323  10.489  70.003  1.00  0.00    -0.318 C  
HETATM   26  C   UNL     1     -11.626   9.830  71.341  1.00  0.00    -0.452 C  
ENDBRANCH  22  25
ENDBRANCH  15  22
BRANCH  16  27
HETATM   27  O   UNL     1     -10.282  11.903  63.592  1.00  0.00    -0.363 OA 
HETATM   28  C   UNL     1      -9.319  11.338  62.709  1.00  0.00    -0.332 C  
ENDBRANCH  16  27
ENDBRANCH  10  13
ENDBRANCH   8   9
ENDBRANCH   7   8
ENDBRANCH   2   3
TORSDOF 7
ENDMDL
MODEL       34
REMARK 921   NORMALIZED FREE ENERGY PREDICTED BY IDOCK:   -6.01 KCAL/MOL
REMARK 922        TOTAL FREE ENERGY PREDICTED BY IDOCK:   -9.49 KCAL/MOL
REMARK 923 INTER-LIGAND FREE ENERGY PREDICTED BY IDOCK:   -8.56 KCAL/MOL
REMARK 924 INTRA-LIGAND FREE ENERGY PREDICTED BY IDOCK:   -0.93 KCAL/MOL
REMARK 927      BINDING AFFINITY PREDICTED BY RF-SCORE:    0.00 PKD
ROOT
HETATM    1  C   UNL     1     -11.283   6.185  69.645  1.00  0.00    -0.488 C  
HETATM    2  C   UNL     1     -12.103   6.638  70.847  1.00  0.00    -0.320 C  
ENDROOT
BRANCH   2   3
HETATM    3  N   UNL     1     -11.363   7.536  71.744  1.00  0.00    -0.248 NA 
HETATM    4  C   UNL     1     -10.124   6.936  72.249  1.00  0.00    -0.176 C  
HETATM    5  C   UNL     1      -9.309   8.139  72.676  1.00  0.00    -0.342 C  
HETATM    6  C   UNL     1      -9.581   9.148  71.578  1.00  0.00    -0.278 C  
HETATM    7  C   UNL     1     -10.973   8.786  71.041  1.00  0.00    -0.268 C  
BRANCH   7   8
HETATM    8  C   UNL     1     -12.016   9.892  71.306  1.00  0.00    -0.402 C  
BRANCH   8   9
HETATM    9  N   UNL     1     -11.797  11.139  70.590  1.00  0.00    -0.377 N  
HETATM   10  C   UNL     1     -12.373  12.338  70.955  1.00  0.00    -0.220 C  
HETATM   11  H   UNL     1     -11.186  11.126  69.774  1.00  0.00     0.000 HD 
HETATM   12  O   UNL     1     -13.161  12.467  71.876  1.00  0.00    -0.464 OA 
BRANCH  10  13
HETATM   13  C   UNL     1     -12.001  13.493  70.091  1.00  0.00    -0.399 A  
HETATM   14  C   UNL     1     -12.090  13.270  68.702  1.00  0.00    -0.257 A  
HETATM   15  C   UNL     1     -11.765  14.272  67.782  1.00  0.00    -0.374 A  
HETATM   16  C   UNL     1     -11.652  14.766  70.552  1.00  0.00    -0.279 A  
HETATM   17  C   UNL     1     -11.345  15.529  68.221  1.00  0.00    -0.357 A  
HETATM   18  N   UNL     1     -11.140  16.613  67.353  1.00  0.00    -0.090 NA 
HETATM   19  C   UNL     1     -11.368  15.771  69.604  1.00  0.00    -0.334 A  
HETATM   20  H2  UNL     1     -12.001  16.747  66.823  1.00  0.00     0.000 HD 
HETATM   21  H1  UNL     1     -10.832  17.531  67.673  1.00  0.00     0.000 HD 
BRANCH  15  22
HETATM   22  S   UNL     1     -11.740  13.820  66.055  1.00  0.00    -0.382 S  
HETATM   23  O   UNL     1     -13.088  13.991  65.546  1.00  0.00    -0.713 OA 
HETATM   24  O   UNL     1     -10.634  14.549  65.454  1.00  0.00    -0.322 OA 
BRANCH  22  25
HETATM   25  C   UNL     1     -11.339  12.088  66.041  1.00  0.00    -0.343 C  
HETATM   26  C   UNL     1     -10.206  11.807  65.065  1.00  0.00    -0.314 C  
ENDBRANCH  22  25
ENDBRANCH  15  22
BRANCH  16  27
HETATM   27  O   UNL     1     -11.616  15.229  71.838  1.00  0.00    -0.384 OA 
HETATM   28  C   UNL     1     -12.835  15.668  72.427  1.00  0.00    -0.433 C  
ENDBRANCH  16  27
ENDBRANCH  10  13
ENDBRANCH   8   9
ENDBRANCH   7   8
ENDBRANCH   2   3
TORSDOF 7
ENDMDL
MODEL       35
REMARK 921   NORMALIZED FREE ENERGY PREDICTED BY IDOCK:   -6.01 KCAL/MOL
REMARK 922        TOTAL FREE ENERGY PREDICTED BY IDOCK:   -9.49 KCAL/MOL
REMARK 923 INTER-LIGAND FREE ENERGY PREDICTED BY IDOCK:   -8.23 KCAL/MOL
REMARK 924 INTRA-LIGAND FREE ENERGY PREDICTED BY IDOCK:   -1.26 KCAL/MOL
REMARK 927      BINDING AFFINITY PREDICTED BY RF-SCORE:    0.00 PKD
ROOT
HETATM    1  C   UNL     1     -11.743  15.777  69.182  1.00  0.00    -0.398 C  
HETATM    2  C   UNL     1     -10.837  15.469  70.367  1.00  0.00    -0.335 C  
ENDROOT
BRANCH   2   3
HETATM    3  N   UNL     1     -11.577  15.044  71.563  1.00  0.00    -0.361 NA 
HETATM    4  C   UNL     1     -12.004  16.174  72.395  1.00  0.00    -0.554 C  
HETATM    5  C   UNL     1     -13.135  15.589  73.215  1.00  0.00    -0.658 C  
HETATM    6  C   UNL     1     -13.874  14.722  72.215  1.00  0.00    -0.590 C  
HETATM    7  C   UNL     1     -12.810  14.304  71.190  1.00  0.00    -0.359 C  
BRANCH   7   8
HETATM    8  C   UNL     1     -12.542  12.785  71.201  1.00  0.00    -0.271 C  
BRANCH   8   9
HETATM    9  N   UNL     1     -11.953  12.248  69.985  1.00  0.00    -0.374 N  
HETATM   10  C   UNL     1     -11.773  10.899  69.756  1.00  0.00    -0.338 C  
HETATM   11  H   UNL     1     -11.657  12.903  69.261  1.00  0.00     0.000 HD 
HETATM   12  O   UNL     1     -12.036  10.026  70.567  1.00  0.00    -0.274 OA 
BRANCH  10  13
HETATM   13  C   UNL     1     -11.165  10.569  68.437  1.00  0.00    -0.339 A  
HETATM   14  C   UNL     1     -10.418   9.375  68.391  1.00  0.00    -0.256 A  
HETATM   15  C   UNL     1      -9.792   8.954  67.213  1.00  0.00    -0.199 A  
HETATM   16  C   UNL     1     -11.343  11.303  67.261  1.00  0.00    -0.255 A  
HETATM   17  C   UNL     1      -9.897   9.710  66.044  1.00  0.00    -0.274 A  
HETATM   18  N   UNL     1      -9.411   9.271  64.803  1.00  0.00    -0.444 NA 
HETATM   19  C   UNL     1     -10.735  10.836  66.077  1.00  0.00    -0.168 A  
HETATM   20  H2  UNL     1      -9.830   8.360  64.615  1.00  0.00     0.000 HD 
HETATM   21  H1  UNL     1      -9.487   9.824  63.948  1.00  0.00     0.000 HD 
BRANCH  15  22
HETATM   22  S   UNL     1      -8.725   7.526  67.319  1.00  0.00    -0.122 S  
HETATM   23  O   UNL     1      -7.582   7.780  66.462  1.00  0.00    -0.092 OA 
HETATM   24  O   UNL     1      -8.531   7.261  68.736  1.00  0.00    -0.128 OA 
BRANCH  22  25
HETATM   25  C   UNL     1      -9.675   6.192  66.627  1.00  0.00    -0.160 C  
HETATM   26  C   UNL     1     -11.102   6.218  67.154  1.00  0.00    -0.389 C  
ENDBRANCH  22  25
ENDBRANCH  15  22
BRANCH  16  27
HETATM   27  O   UNL     1     -12.113  12.415  67.055  1.00  0.00    -0.549 OA 
HETATM   28  C   UNL     1     -11.554  13.489  66.307  1.00  0.00    -0.345 C  
ENDBRANCH  16  27
ENDBRANCH  10  13
ENDBRANCH   8   9
ENDBRANCH   7   8
ENDBRANCH   2   3
TORSDOF 7
ENDMDL
MODEL       36
REMARK 921   NORMALIZED FREE ENERGY PREDICTED BY IDOCK:   -5.94 KCAL/MOL
REMARK 922        TOTAL FREE ENERGY PREDICTED BY IDOCK:   -9.39 KCAL/MOL
REMARK 923 INTER-LIGAND FREE ENERGY PREDICTED BY IDOCK:   -7.63 KCAL/MOL
REMARK 924 INTRA-LIGAND FREE ENERGY PREDICTED BY IDOCK:   -1.76 KCAL/MOL
REMARK 927      BINDING AFFINITY PREDICTED BY RF-SCORE:    0.00 PKD
ROOT
HETATM    1  C   UNL     1     -10.531   5.325  70.212  1.00  0.00    -0.332 C  
HETATM    2  C   UNL     1     -11.215   6.325  69.287  1.00  0.00    -0.389 C  
ENDROOT
BRANCH   2   3
HETATM    3  N   UNL     1     -10.894   7.722  69.612  1.00  0.00    -0.223 NA 
HETATM    4  C   UNL     1     -11.765   8.275  70.654  1.00  0.00    -0.147 C  
HETATM    5  C   UNL     1     -10.966   9.448  71.182  1.00  0.00    -0.430 C  
HETATM    6  C   UNL     1      -9.548   8.915  71.214  1.00  0.00    -0.348 C  
HETATM    7  C   UNL     1      -9.502   7.844  70.114  1.00  0.00    -0.160 C  
BRANCH   7   8
HETATM    8  C   UNL     1      -8.551   8.222  68.959  1.00  0.00    -0.135 C  
BRANCH   8   9
HETATM    9  N   UNL     1      -9.169   8.936  67.853  1.00  0.00    -0.138 N  
HETATM   10  C   UNL     1      -9.124  10.308  67.710  1.00  0.00    -0.134 C  
HETATM   11  H   UNL     1      -9.662   8.394  67.144  1.00  0.00     0.000 HD 
HETATM   12  O   UNL     1      -8.613  11.064  68.519  1.00  0.00    -0.145 OA 
BRANCH  10  13
HETATM   13  C   UNL     1      -9.811  10.828  66.495  1.00  0.00    -0.246 A  
HETATM   14  C   UNL     1     -10.448  12.076  66.640  1.00  0.00    -0.247 A  
HETATM   15  C   UNL     1     -11.131  12.672  65.575  1.00  0.00    -0.294 A  
HETATM   16  C   UNL     1      -9.801  10.214  65.239  1.00  0.00    -0.319 A  
HETATM   17  C   UNL     1     -11.195  12.042  64.331  1.00  0.00    -0.344 A  
HETATM   18  N   UNL     1     -11.745  12.652  63.193  1.00  0.00    -0.782 NA 
HETATM   19  C   UNL     1     -10.463  10.855  64.171  1.00  0.00    -0.397 A  
HETATM   20  H2  UNL     1     -11.262  13.541  63.060  1.00  0.00     0.000 HD 
HETATM   21  H1  UNL     1     -11.792  12.191  62.283  1.00  0.00     0.000 HD 
BRANCH  15  22
HETATM   22  S   UNL     1     -12.052  14.161  65.926  1.00  0.00    -0.426 S  
HETATM   23  O   UNL     1     -11.394  15.249  65.227  1.00  0.00    -0.338 OA 
HETATM   24  O   UNL     1     -13.449  13.857  65.652  1.00  0.00    -0.590 OA 
BRANCH  22  25
HETATM   25  C   UNL     1     -11.869  14.411  67.677  1.00  0.00    -0.378 C  
HETATM   26  C   UNL     1     -11.190  15.743  67.961  1.00  0.00    -0.338 C  
ENDBRANCH  22  25
ENDBRANCH  15  22
BRANCH  16  27
HETATM   27  O   UNL     1      -9.155   9.073  64.849  1.00  0.00    -0.183 OA 
HETATM   28  C   UNL     1      -8.260   9.153  63.745  1.00  0.00    -0.173 C  
ENDBRANCH  16  27
ENDBRANCH  10  13
ENDBRANCH   8   9
ENDBRANCH   7   8
ENDBRANCH   2   3
TORSDOF 7
ENDMDL
MODEL       37
REMARK 921   NORMALIZED FREE ENERGY PREDICTED BY IDOCK:   -5.91 KCAL/MOL
REMARK 922        TOTAL FREE ENERGY PREDICTED BY IDOCK:   -9.36 KCAL/MOL
REMARK 923 INTER-LIGAND FREE ENERGY PREDICTED BY IDOCK:   -8.35 KCAL/MOL
REMARK 924 INTRA-LIGAND FREE ENERGY PREDICTED BY IDOCK:   -1.01 KCAL/MOL
REMARK 927      BINDING AFFINITY PREDICTED BY RF-SCORE:    0.00 PKD
ROOT
HETATM    1  C   UNL     1     -13.544   8.601  71.952  1.00  0.00    -0.446 C  
HETATM    2  C   UNL     1     -13.214  10.078  72.131  1.00  0.00    -0.390 C  
ENDROOT
BRANCH   2   3
HETATM    3  N   UNL     1     -12.003  10.490  71.409  1.00  0.00    -0.292 NA 
HETATM    4  C   UNL     1     -11.207   9.350  70.941  1.00  0.00    -0.325 C  
HETATM    5  C   UNL     1     -10.366   9.949  69.834  1.00  0.00    -0.298 C  
HETATM    6  C   UNL     1     -11.335  10.876  69.126  1.00  0.00    -0.350 C  
HETATM    7  C   UNL     1     -12.349  11.287  70.204  1.00  0.00    -0.276 C  
BRANCH   7   8
HETATM    8  C   UNL     1     -12.288  12.794  70.529  1.00  0.00    -0.275 C  
BRANCH   8   9
HETATM    9  N   UNL     1     -11.448  13.589  69.647  1.00  0.00    -0.419 N  
HETATM   10  C   UNL     1     -11.560  14.958  69.518  1.00  0.00    -0.303 C  
HETATM   11  H   UNL     1     -10.739  13.108  69.094  1.00  0.00     0.000 HD 
HETATM   12  O   UNL     1     -12.403  15.633  70.084  1.00  0.00    -0.395 OA 
BRANCH  10  13
HETATM   13  C   UNL     1     -10.589  15.572  68.570  1.00  0.00    -0.246 A  
HETATM   14  C   UNL     1     -10.156  16.873  68.896  1.00  0.00    -0.297 A  
HETATM   15  C   UNL     1      -9.248  17.562  68.085  1.00  0.00    -0.277 A  
HETATM   16  C   UNL     1     -10.039  14.934  67.454  1.00  0.00    -0.228 A  
HETATM   17  C   UNL     1      -8.742  16.972  66.926  1.00  0.00    -0.227 A  
HETATM   18  N   UNL     1      -7.728  17.556  66.151  1.00  0.00    -0.436 NA 
HETATM   19  C   UNL     1      -9.095  15.636  66.675  1.00  0.00    -0.313 A  
HETATM   20  H2  UNL     1      -6.938  17.739  66.770  1.00  0.00     0.000 HD 
HETATM   21  H1  UNL     1      -7.357  17.124  65.304  1.00  0.00     0.000 HD 
BRANCH  15  22
HETATM   22  S   UNL     1      -8.915  19.267  68.497  1.00  0.00    -0.373 S  
HETATM   23  O   UNL     1      -9.838  19.643  69.552  1.00  0.00    -0.326 OA 
HETATM   24  O   UNL     1      -7.479  19.366  68.714  1.00  0.00    -0.335 OA 
BRANCH  22  25
HETATM   25  C   UNL     1      -9.322  20.182  67.028  1.00  0.00    -0.395 C  
HETATM   26  C   UNL     1     -10.629  19.684  66.430  1.00  0.00    -0.592 C  
ENDBRANCH  22  25
ENDBRANCH  15  22
BRANCH  16  27
HETATM   27  O   UNL     1     -10.226  13.650  67.024  1.00  0.00    -0.246 OA 
HETATM   28  C   UNL     1     -10.445  13.433  65.634  1.00  0.00    -0.290 C  
ENDBRANCH  16  27
ENDBRANCH  10  13
ENDBRANCH   8   9
ENDBRANCH   7   8
ENDBRANCH   2   3
TORSDOF 7
ENDMDL
MODEL       38
REMARK 921   NORMALIZED FREE ENERGY PREDICTED BY IDOCK:   -5.86 KCAL/MOL
REMARK 922        TOTAL FREE ENERGY PREDICTED BY IDOCK:   -9.28 KCAL/MOL
REMARK 923 INTER-LIGAND FREE ENERGY PREDICTED BY IDOCK:   -8.09 KCAL/MOL
REMARK 924 INTRA-LIGAND FREE ENERGY PREDICTED BY IDOCK:   -1.19 KCAL/MOL
REMARK 927      BINDING AFFINITY PREDICTED BY RF-SCORE:    0.00 PKD
ROOT
HETATM    1  C   UNL     1     -12.103  16.662  74.326  1.00  0.00    -0.321 C  
HETATM    2  C   UNL     1     -11.922  16.598  72.814  1.00  0.00    -0.253 C  
ENDROOT
BRANCH   2   3
HETATM    3  N   UNL     1     -12.266  15.286  72.248  1.00  0.00    -0.352 NA 
HETATM    4  C   UNL     1     -13.091  14.478  73.152  1.00  0.00    -0.446 C  
HETATM    5  C   UNL     1     -13.738  13.474  72.221  1.00  0.00    -0.700 C  
HETATM    6  C   UNL     1     -14.076  14.303  70.999  1.00  0.00     0.070 C  
HETATM    7  C   UNL     1     -13.040  15.437  70.989  1.00  0.00    -0.501 C  
BRANCH   7   8
HETATM    8  C   UNL     1     -12.095  15.365  69.772  1.00  0.00    -0.347 C  
BRANCH   8   9
HETATM    9  N   UNL     1     -11.706  14.024  69.364  1.00  0.00    -0.293 N  
HETATM   10  C   UNL     1     -11.834  13.553  68.074  1.00  0.00    -0.365 C  
HETATM   11  H   UNL     1     -11.318  13.399  70.070  1.00  0.00     0.000 HD 
HETATM   12  O   UNL     1     -12.333  14.187  67.160  1.00  0.00    -0.370 OA 
BRANCH  10  13
HETATM   13  C   UNL     1     -11.359  12.155  67.874  1.00  0.00    -0.361 A  
HETATM   14  C   UNL     1     -11.406  11.326  69.013  1.00  0.00    -0.344 A  
HETATM   15  C   UNL     1     -10.985   9.993  68.959  1.00  0.00    -0.212 A  
HETATM   16  C   UNL     1     -10.954  11.608  66.653  1.00  0.00    -0.299 A  
HETATM   17  C   UNL     1     -10.508   9.447  67.766  1.00  0.00    -0.254 A  
HETATM   18  N   UNL     1     -10.203   8.085  67.618  1.00  0.00    -0.211 NA 
HETATM   19  C   UNL     1     -10.573  10.251  66.617  1.00  0.00    -0.232 A  
HETATM   20  H2  UNL     1     -11.033   7.555  67.886  1.00  0.00     0.000 HD 
HETATM   21  H1  UNL     1      -9.855   7.685  66.746  1.00  0.00     0.000 HD 
BRANCH  15  22
HETATM   22  S   UNL     1     -10.917   9.095  70.501  1.00  0.00    -0.273 S  
HETATM   23  O   UNL     1     -11.378   7.745  70.233  1.00  0.00    -0.252 OA 
HETATM   24  O   UNL     1      -9.587   9.317  71.050  1.00  0.00    -0.271 OA 
BRANCH  22  25
HETATM   25  C   UNL     1     -12.097   9.905  71.556  1.00  0.00    -0.410 C  
HETATM   26  C   UNL     1     -13.334   9.037  71.743  1.00  0.00    -0.453 C  
ENDBRANCH  22  25
ENDBRANCH  15  22
BRANCH  16  27
HETATM   27  O   UNL     1     -10.943  12.192  65.416  1.00  0.00    -0.285 OA 
HETATM   28  C   UNL     1     -10.814  11.348  64.278  1.00  0.00    -0.349 C  
ENDBRANCH  16  27
ENDBRANCH  10  13
ENDBRANCH   8   9
ENDBRANCH   7   8
ENDBRANCH   2   3
TORSDOF 7
ENDMDL
MODEL       39
REMARK 921   NORMALIZED FREE ENERGY PREDICTED BY IDOCK:   -5.83 KCAL/MOL
REMARK 922        TOTAL FREE ENERGY PREDICTED BY IDOCK:   -9.24 KCAL/MOL
REMARK 923 INTER-LIGAND FREE ENERGY PREDICTED BY IDOCK:   -7.94 KCAL/MOL
REMARK 924 INTRA-LIGAND FREE ENERGY PREDICTED BY IDOCK:   -1.29 KCAL/MOL
REMARK 927      BINDING AFFINITY PREDICTED BY RF-SCORE:    0.00 PKD
ROOT
HETATM    1  C   UNL     1     -10.719  18.873  67.134  1.00  0.00    -0.506 C  
HETATM    2  C   UNL     1     -10.580  17.597  66.312  1.00  0.00    -0.215 C  
ENDROOT
BRANCH   2   3
HETATM    3  N   UNL     1      -9.984  16.487  67.068  1.00  0.00    -0.261 NA 
HETATM    4  C   UNL     1      -8.701  16.844  67.682  1.00  0.00    -0.209 C  
HETATM    5  C   UNL     1      -8.548  15.814  68.781  1.00  0.00    -0.203 C  
HETATM    6  C   UNL     1      -9.950  15.697  69.343  1.00  0.00    -0.279 C  
HETATM    7  C   UNL     1     -10.878  16.058  68.174  1.00  0.00    -0.322 C  
BRANCH   7   8
HETATM    8  C   UNL     1     -11.750  14.869  67.722  1.00  0.00    -0.317 C  
BRANCH   8   9
HETATM    9  N   UNL     1     -11.779  13.735  68.633  1.00  0.00    -0.334 N  
HETATM   10  C   UNL     1     -11.772  12.421  68.214  1.00  0.00    -0.345 C  
HETATM   11  H   UNL     1     -11.807  13.922  69.635  1.00  0.00     0.000 HD 
HETATM   12  O   UNL     1     -11.795  12.074  67.045  1.00  0.00    -0.573 OA 
BRANCH  10  13
HETATM   13  C   UNL     1     -11.791  11.419  69.316  1.00  0.00    -0.417 A  
HETATM   14  C   UNL     1     -11.182  10.181  69.027  1.00  0.00    -0.223 A  
HETATM   15  C   UNL     1     -11.137   9.154  69.976  1.00  0.00    -0.190 A  
HETATM   16  C   UNL     1     -12.291  11.645  70.603  1.00  0.00    -0.344 A  
HETATM   17  C   UNL     1     -11.694   9.333  71.243  1.00  0.00    -0.346 A  
HETATM   18  N   UNL     1     -11.558   8.394  72.278  1.00  0.00    -0.367 NA 
HETATM   19  C   UNL     1     -12.197  10.607  71.553  1.00  0.00    -0.345 A  
HETATM   20  H2  UNL     1     -10.560   8.223  72.405  1.00  0.00     0.000 HD 
HETATM   21  H1  UNL     1     -11.966   8.525  73.204  1.00  0.00     0.000 HD 
BRANCH  15  22
HETATM   22  S   UNL     1     -10.506   7.573  69.439  1.00  0.00    -0.217 S  
HETATM   23  O   UNL     1      -9.102   7.523  69.804  1.00  0.00    -0.141 OA 
HETATM   24  O   UNL     1     -11.428   6.567  69.944  1.00  0.00    -0.390 OA 
BRANCH  22  25
HETATM   25  C   UNL     1     -10.635   7.606  67.665  1.00  0.00    -0.224 C  
HETATM   26  C   UNL     1     -10.903   6.211  67.120  1.00  0.00    -0.442 C  
ENDBRANCH  22  25
ENDBRANCH  15  22
BRANCH  16  27
HETATM   27  O   UNL     1     -12.812  12.795  71.128  1.00  0.00    -0.323 OA 
HETATM   28  C   UNL     1     -13.476  12.717  72.384  1.00  0.00    -0.409 C  
ENDBRANCH  16  27
ENDBRANCH  10  13
ENDBRANCH   8   9
ENDBRANCH   7   8
ENDBRANCH   2   3
TORSDOF 7
ENDMDL
MODEL       40
REMARK 921   NORMALIZED FREE ENERGY PREDICTED BY IDOCK:   -5.81 KCAL/MOL
REMARK 922        TOTAL FREE ENERGY PREDICTED BY IDOCK:   -9.22 KCAL/MOL
REMARK 923 INTER-LIGAND FREE ENERGY PREDICTED BY IDOCK:   -8.19 KCAL/MOL
REMARK 924 INTRA-LIGAND FREE ENERGY PREDICTED BY IDOCK:   -1.03 KCAL/MOL
REMARK 927      BINDING AFFINITY PREDICTED BY RF-SCORE:    0.00 PKD
ROOT
HETATM    1  C   UNL     1      -7.094  19.555  68.735  1.00  0.00    -0.383 C  
HETATM    2  C   UNL     1      -8.086  18.401  68.799  1.00  0.00    -0.244 C  
ENDROOT
BRANCH   2   3
HETATM    3  N   UNL     1      -9.382  18.720  68.185  1.00  0.00    -0.304 NA 
HETATM    4  C   UNL     1      -9.300  19.837  67.238  1.00  0.00    -0.346 C  
HETATM    5  C   UNL     1     -10.533  19.650  66.379  1.00  0.00    -0.618 C  
HETATM    6  C   UNL     1     -10.594  18.149  66.182  1.00  0.00    -0.289 C  
HETATM    7  C   UNL     1      -9.910  17.558  67.424  1.00  0.00    -0.297 C  
BRANCH   7   8
HETATM    8  C   UNL     1     -10.881  16.744  68.304  1.00  0.00    -0.366 C  
BRANCH   8   9
HETATM    9  N   UNL     1     -10.846  15.304  68.104  1.00  0.00    -0.264 N  
HETATM   10  C   UNL     1     -11.616  14.415  68.826  1.00  0.00    -0.315 C  
HETATM   11  H   UNL     1     -10.219  14.931  67.392  1.00  0.00     0.000 HD 
HETATM   12  O   UNL     1     -12.360  14.737  69.737  1.00  0.00    -0.302 OA 
BRANCH  10  13
HETATM   13  C   UNL     1     -11.433  12.987  68.447  1.00  0.00    -0.345 A  
HETATM   14  C   UNL     1     -11.543  12.056  69.500  1.00  0.00    -0.389 A  
HETATM   15  C   UNL     1     -11.388  10.684  69.277  1.00  0.00    -0.282 A  
HETATM   16  C   UNL     1     -11.239  12.517  67.144  1.00  0.00    -0.300 A  
HETATM   17  C   UNL     1     -11.122  10.199  67.995  1.00  0.00    -0.240 A  
HETATM   18  N   UNL     1     -11.094   8.830  67.687  1.00  0.00    -0.413 NA 
HETATM   19  C   UNL     1     -11.126  11.126  66.941  1.00  0.00    -0.313 A  
HETATM   20  H2  UNL     1     -11.985   8.431  67.985  1.00  0.00     0.000 HD 
HETATM   21  H1  UNL     1     -10.900   8.475  66.750  1.00  0.00     0.000 HD 
BRANCH  15  22
HETATM   22  S   UNL     1     -11.367   9.621  70.711  1.00  0.00    -0.367 S  
HETATM   23  O   UNL     1     -11.811   8.308  70.279  1.00  0.00    -0.011 OA 
HETATM   24  O   UNL     1     -10.058   9.783  71.326  1.00  0.00    -0.108 OA 
BRANCH  22  25
HETATM   25  C   UNL     1     -12.588  10.306  71.808  1.00  0.00    -0.389 C  
HETATM   26  C   UNL     1     -13.449   9.204  72.407  1.00  0.00    -0.535 C  
ENDBRANCH  22  25
ENDBRANCH  15  22
BRANCH  16  27
HETATM   27  O   UNL     1     -11.217  13.224  65.974  1.00  0.00    -0.292 OA 
HETATM   28  C   UNL     1     -12.347  13.133  65.114  1.00  0.00    -0.473 C  
ENDBRANCH  16  27
ENDBRANCH  10  13
ENDBRANCH   8   9
ENDBRANCH   7   8
ENDBRANCH   2   3
TORSDOF 7
ENDMDL
MODEL       41
REMARK 921   NORMALIZED FREE ENERGY PREDICTED BY IDOCK:   -5.81 KCAL/MOL
REMARK 922        TOTAL FREE ENERGY PREDICTED BY IDOCK:   -9.21 KCAL/MOL
REMARK 923 INTER-LIGAND FREE ENERGY PREDICTED BY IDOCK:   -8.36 KCAL/MOL
REMARK 924 INTRA-LIGAND FREE ENERGY PREDICTED BY IDOCK:   -0.84 KCAL/MOL
REMARK 927      BINDING AFFINITY PREDICTED BY RF-SCORE:    0.00 PKD
ROOT
HETATM    1  C   UNL     1     -13.119  11.809  72.009  1.00  0.00    -0.436 C  
HETATM    2  C   UNL     1     -12.586  10.896  70.911  1.00  0.00    -0.397 C  
ENDROOT
BRANCH   2   3
HETATM    3  N   UNL     1     -11.701   9.839  71.420  1.00  0.00    -0.390 NA 
HETATM    4  C   UNL     1     -12.425   8.807  72.170  1.00  0.00    -0.393 C  
HETATM    5  C   UNL     1     -11.479   7.626  72.130  1.00  0.00    -0.345 C  
HETATM    6  C   UNL     1     -10.935   7.666  70.717  1.00  0.00    -0.262 C  
HETATM    7  C   UNL     1     -11.009   9.143  70.304  1.00  0.00    -0.245 C  
BRANCH   7   8
HETATM    8  C   UNL     1      -9.616   9.764  70.074  1.00  0.00    -0.241 C  
BRANCH   8   9
HETATM    9  N   UNL     1      -9.601  10.989  69.289  1.00  0.00    -0.421 N  
HETATM   10  C   UNL     1      -9.848  11.027  67.932  1.00  0.00    -0.171 C  
HETATM   11  H   UNL     1      -9.397  11.866  69.767  1.00  0.00     0.000 HD 
HETATM   12  O   UNL     1     -10.049  10.040  67.245  1.00  0.00    -0.187 OA 
BRANCH  10  13
HETATM   13  C   UNL     1      -9.797  12.389  67.331  1.00  0.00    -0.199 A  
HETATM   14  C   UNL     1     -10.881  12.730  66.498  1.00  0.00    -0.280 A  
HETATM   15  C   UNL     1     -10.951  13.978  65.870  1.00  0.00    -0.286 A  
HETATM   16  C   UNL     1      -8.812  13.347  67.590  1.00  0.00    -0.200 A  
HETATM   17  C   UNL     1      -9.941  14.924  66.057  1.00  0.00    -0.313 A  
HETATM   18  N   UNL     1     -10.024  16.237  65.566  1.00  0.00    -0.530 NA 
HETATM   19  C   UNL     1      -8.926  14.612  66.975  1.00  0.00    -0.258 A  
HETATM   20  H2  UNL     1     -10.890  16.641  65.921  1.00  0.00     0.000 HD 
HETATM   21  H1  UNL     1      -9.286  16.928  65.703  1.00  0.00     0.000 HD 
BRANCH  15  22
HETATM   22  S   UNL     1     -12.273  14.230  64.697  1.00  0.00    -0.433 S  
HETATM   23  O   UNL     1     -13.512  13.874  65.364  1.00  0.00    -0.672 OA 
HETATM   24  O   UNL     1     -12.094  15.568  64.154  1.00  0.00    -0.564 OA 
BRANCH  22  25
HETATM   25  C   UNL     1     -11.964  13.055  63.398  1.00  0.00    -0.520 C  
HETATM   26  C   UNL     1     -12.847  11.827  63.563  1.00  0.00    -0.347 C  
ENDBRANCH  22  25
ENDBRANCH  15  22
BRANCH  16  27
HETATM   27  O   UNL     1      -7.748  13.271  68.444  1.00  0.00    -0.128 OA 
HETATM   28  C   UNL     1      -6.439  13.260  67.886  1.00  0.00    -0.147 C  
ENDBRANCH  16  27
ENDBRANCH  10  13
ENDBRANCH   8   9
ENDBRANCH   7   8
ENDBRANCH   2   3
TORSDOF 7
ENDMDL
MODEL       42
REMARK 921   NORMALIZED FREE ENERGY PREDICTED BY IDOCK:   -5.80 KCAL/MOL
REMARK 922        TOTAL FREE ENERGY PREDICTED BY IDOCK:   -9.20 KCAL/MOL
REMARK 923 INTER-LIGAND FREE ENERGY PREDICTED BY IDOCK:   -8.46 KCAL/MOL
REMARK 924 INTRA-LIGAND FREE ENERGY PREDICTED BY IDOCK:   -0.73 KCAL/MOL
REMARK 927      BINDING AFFINITY PREDICTED BY RF-SCORE:    0.00 PKD
ROOT
HETATM    1  C   UNL     1      -9.414   8.534  72.203  1.00  0.00    -0.375 C  
HETATM    2  C   UNL     1     -10.571   7.760  71.583  1.00  0.00    -0.214 C  
ENDROOT
BRANCH   2   3
HETATM    3  N   UNL     1     -11.591   8.631  70.983  1.00  0.00    -0.278 NA 
HETATM    4  C   UNL     1     -12.674   8.961  71.915  1.00  0.00    -0.376 C  
HETATM    5  C   UNL     1     -13.276  10.214  71.313  1.00  0.00    -0.453 C  
HETATM    6  C   UNL     1     -12.062  10.990  70.844  1.00  0.00    -0.444 C  
HETATM    7  C   UNL     1     -10.998   9.922  70.549  1.00  0.00    -0.326 C  
BRANCH   7   8
HETATM    8  C   UNL     1     -10.623   9.859  69.054  1.00  0.00    -0.220 C  
BRANCH   8   9
HETATM    9  N   UNL     1     -10.548  11.143  68.374  1.00  0.00    -0.183 N  
HETATM   10  C   UNL     1      -9.386  11.876  68.256  1.00  0.00    -0.193 C  
HETATM   11  H   UNL     1     -11.401  11.521  67.964  1.00  0.00     0.000 HD 
HETATM   12  O   UNL     1      -8.319  11.553  68.751  1.00  0.00    -0.141 OA 
BRANCH  10  13
HETATM   13  C   UNL     1      -9.534  13.156  67.508  1.00  0.00    -0.212 A  
HETATM   14  C   UNL     1     -10.618  13.217  66.610  1.00  0.00    -0.284 A  
HETATM   15  C   UNL     1     -10.865  14.361  65.845  1.00  0.00    -0.304 A  
HETATM   16  C   UNL     1      -8.737  14.291  67.688  1.00  0.00    -0.191 A  
HETATM   17  C   UNL     1     -10.038  15.481  65.955  1.00  0.00    -0.332 A  
HETATM   18  N   UNL     1     -10.315  16.701  65.319  1.00  0.00    -0.636 NA 
HETATM   19  C   UNL     1      -9.031  15.445  66.933  1.00  0.00    -0.273 A  
HETATM   20  H2  UNL     1     -11.253  16.986  65.601  1.00  0.00     0.000 HD 
HETATM   21  H1  UNL     1      -9.711  17.520  65.400  1.00  0.00     0.000 HD 
BRANCH  15  22
HETATM   22  S   UNL     1     -12.152  14.258  64.612  1.00  0.00    -0.466 S  
HETATM   23  O   UNL     1     -13.345  13.765  65.276  1.00  0.00    -0.710 OA 
HETATM   24  O   UNL     1     -12.175  15.544  63.930  1.00  0.00    -0.614 OA 
BRANCH  22  25
HETATM   25  C   UNL     1     -11.587  13.026  63.461  1.00  0.00    -0.412 C  
HETATM   26  C   UNL     1     -12.605  11.902  63.335  1.00  0.00    -0.555 C  
ENDBRANCH  22  25
ENDBRANCH  15  22
BRANCH  16  27
HETATM   27  O   UNL     1      -7.718  14.488  68.577  1.00  0.00    -0.116 OA 
HETATM   28  C   UNL     1      -6.388  14.544  68.072  1.00  0.00    -0.154 C  
ENDBRANCH  16  27
ENDBRANCH  10  13
ENDBRANCH   8   9
ENDBRANCH   7   8
ENDBRANCH   2   3
TORSDOF 7
ENDMDL
MODEL       43
REMARK 921   NORMALIZED FREE ENERGY PREDICTED BY IDOCK:   -5.80 KCAL/MOL
REMARK 922        TOTAL FREE ENERGY PREDICTED BY IDOCK:   -9.19 KCAL/MOL
REMARK 923 INTER-LIGAND FREE ENERGY PREDICTED BY IDOCK:   -7.91 KCAL/MOL
REMARK 924 INTRA-LIGAND FREE ENERGY PREDICTED BY IDOCK:   -1.28 KCAL/MOL
REMARK 927      BINDING AFFINITY PREDICTED BY RF-SCORE:    0.00 PKD
ROOT
HETATM    1  C   UNL     1     -10.385  19.812  68.040  1.00  0.00    -0.567 C  
HETATM    2  C   UNL     1     -10.536  18.867  66.855  1.00  0.00    -0.427 C  
ENDROOT
BRANCH   2   3
HETATM    3  N   UNL     1      -9.964  17.536  67.102  1.00  0.00    -0.303 NA 
HETATM    4  C   UNL     1      -8.525  17.478  66.826  1.00  0.00    -0.250 C  
HETATM    5  C   UNL     1      -8.073  16.266  67.614  1.00  0.00    -0.161 C  
HETATM    6  C   UNL     1      -8.861  16.378  68.904  1.00  0.00    -0.256 C  
HETATM    7  C   UNL     1     -10.139  17.139  68.523  1.00  0.00    -0.329 C  
BRANCH   7   8
HETATM    8  C   UNL     1     -11.410  16.278  68.681  1.00  0.00    -0.333 C  
BRANCH   8   9
HETATM    9  N   UNL     1     -11.233  14.856  68.435  1.00  0.00    -0.278 N  
HETATM   10  C   UNL     1     -11.818  13.871  69.204  1.00  0.00    -0.358 C  
HETATM   11  H   UNL     1     -10.645  14.571  67.652  1.00  0.00     0.000 HD 
HETATM   12  O   UNL     1     -12.494  14.087  70.195  1.00  0.00    -0.344 OA 
BRANCH  10  13
HETATM   13  C   UNL     1     -11.515  12.480  68.765  1.00  0.00    -0.353 A  
HETATM   14  C   UNL     1     -11.616  11.489  69.762  1.00  0.00    -0.401 A  
HETATM   15  C   UNL     1     -11.353  10.145  69.480  1.00  0.00    -0.206 A  
HETATM   16  C   UNL     1     -11.220  12.095  67.454  1.00  0.00    -0.302 A  
HETATM   17  C   UNL     1     -10.986   9.747  68.193  1.00  0.00    -0.175 A  
HETATM   18  N   UNL     1     -10.845   8.402  67.819  1.00  0.00    -0.494 NA 
HETATM   19  C   UNL     1     -10.998  10.727  67.187  1.00  0.00    -0.324 A  
HETATM   20  H2  UNL     1     -11.721   7.929  68.046  1.00  0.00     0.000 HD 
HETATM   21  H1  UNL     1     -10.577   8.112  66.878  1.00  0.00     0.000 HD 
BRANCH  15  22
HETATM   22  S   UNL     1     -11.333   9.009  70.858  1.00  0.00    -0.309 S  
HETATM   23  O   UNL     1     -12.063   9.638  71.944  1.00  0.00    -0.376 OA 
HETATM   24  O   UNL     1     -11.765   7.721  70.338  1.00  0.00    -0.176 OA 
BRANCH  22  25
HETATM   25  C   UNL     1      -9.621   8.879  71.320  1.00  0.00    -0.278 C  
HETATM   26  C   UNL     1      -8.978   7.668  70.660  1.00  0.00    -0.153 C  
ENDBRANCH  22  25
ENDBRANCH  15  22
BRANCH  16  27
HETATM   27  O   UNL     1     -11.185  12.864  66.323  1.00  0.00    -0.284 OA 
HETATM   28  C   UNL     1     -12.242  12.720  65.381  1.00  0.00    -0.478 C  
ENDBRANCH  16  27
ENDBRANCH  10  13
ENDBRANCH   8   9
ENDBRANCH   7   8
ENDBRANCH   2   3
TORSDOF 7
ENDMDL
MODEL       44
REMARK 921   NORMALIZED FREE ENERGY PREDICTED BY IDOCK:   -5.78 KCAL/MOL
REMARK 922        TOTAL FREE ENERGY PREDICTED BY IDOCK:   -9.16 KCAL/MOL
REMARK 923 INTER-LIGAND FREE ENERGY PREDICTED BY IDOCK:   -8.23 KCAL/MOL
REMARK 924 INTRA-LIGAND FREE ENERGY PREDICTED BY IDOCK:   -0.93 KCAL/MOL
REMARK 927      BINDING AFFINITY PREDICTED BY RF-SCORE:    0.00 PKD
ROOT
HETATM    1  C   UNL     1      -8.731   8.963  71.174  1.00  0.00    -0.280 C  
HETATM    2  C   UNL     1      -9.929   9.521  70.416  1.00  0.00    -0.267 C  
ENDROOT
BRANCH   2   3
HETATM    3  N   UNL     1     -11.154   8.734  70.616  1.00  0.00    -0.242 NA 
HETATM    4  C   UNL     1     -10.882   7.313  70.853  1.00  0.00    -0.243 C  
HETATM    5  C   UNL     1     -12.147   6.829  71.529  1.00  0.00    -0.410 C  
HETATM    6  C   UNL     1     -12.499   7.969  72.463  1.00  0.00    -0.193 C  
HETATM    7  C   UNL     1     -11.912   9.223  71.797  1.00  0.00    -0.385 C  
BRANCH   7   8
HETATM    8  C   UNL     1     -13.001  10.222  71.354  1.00  0.00    -0.440 C  
BRANCH   8   9
HETATM    9  N   UNL     1     -12.524  11.554  71.018  1.00  0.00    -0.384 N  
HETATM   10  C   UNL     1     -12.964  12.702  71.645  1.00  0.00    -0.299 C  
HETATM   11  H   UNL     1     -11.828  11.645  70.279  1.00  0.00     0.000 HD 
HETATM   12  O   UNL     1     -13.832  12.724  72.502  1.00  0.00    -0.518 OA 
BRANCH  10  13
HETATM   13  C   UNL     1     -12.333  13.958  71.154  1.00  0.00    -0.440 A  
HETATM   14  C   UNL     1     -11.759  13.891  69.868  1.00  0.00    -0.358 A  
HETATM   15  C   UNL     1     -11.131  15.001  69.294  1.00  0.00    -0.272 A  
HETATM   16  C   UNL     1     -12.338  15.181  71.831  1.00  0.00    -0.352 A  
HETATM   17  C   UNL     1     -11.060  16.213  69.984  1.00  0.00    -0.363 A  
HETATM   18  N   UNL     1     -10.568  17.394  69.406  1.00  0.00    -0.361 NA 
HETATM   19  C   UNL     1     -11.733  16.295  71.213  1.00  0.00    -0.396 A  
HETATM   20  H2  UNL     1     -11.100  17.560  68.551  1.00  0.00     0.000 HD 
HETATM   21  H1  UNL     1     -10.517  18.279  69.910  1.00  0.00     0.000 HD 
BRANCH  15  22
HETATM   22  S   UNL     1     -10.282  14.748  67.744  1.00  0.00    -0.233 S  
HETATM   23  O   UNL     1     -10.594  13.403  67.297  1.00  0.00    -0.252 OA 
HETATM   24  O   UNL     1     -10.608  15.891  66.903  1.00  0.00    -0.311 OA 
BRANCH  22  25
HETATM   25  C   UNL     1      -8.553  14.830  68.149  1.00  0.00    -0.159 C  
HETATM   26  C   UNL     1      -8.055  13.484  68.655  1.00  0.00    -0.055 C  
ENDBRANCH  22  25
ENDBRANCH  15  22
BRANCH  16  27
HETATM   27  O   UNL     1     -12.931  15.496  73.022  1.00  0.00    -0.404 OA 
HETATM   28  C   UNL     1     -12.164  15.354  74.213  1.00  0.00    -0.613 C  
ENDBRANCH  16  27
ENDBRANCH  10  13
ENDBRANCH   8   9
ENDBRANCH   7   8
ENDBRANCH   2   3
TORSDOF 7
ENDMDL
MODEL       45
REMARK 921   NORMALIZED FREE ENERGY PREDICTED BY IDOCK:   -5.72 KCAL/MOL
REMARK 922        TOTAL FREE ENERGY PREDICTED BY IDOCK:   -9.09 KCAL/MOL
REMARK 923 INTER-LIGAND FREE ENERGY PREDICTED BY IDOCK:   -7.85 KCAL/MOL
REMARK 924 INTRA-LIGAND FREE ENERGY PREDICTED BY IDOCK:   -1.23 KCAL/MOL
REMARK 927      BINDING AFFINITY PREDICTED BY RF-SCORE:    0.00 PKD
ROOT
HETATM    1  C   UNL     1      -9.572  15.554  69.663  1.00  0.00    -0.264 C  
HETATM    2  C   UNL     1     -10.935  16.192  69.423  1.00  0.00    -0.333 C  
ENDROOT
BRANCH   2   3
HETATM    3  N   UNL     1     -11.094  16.715  68.059  1.00  0.00    -0.312 NA 
HETATM    4  C   UNL     1     -10.654  18.109  67.933  1.00  0.00    -0.371 C  
HETATM    5  C   UNL     1     -10.407  18.258  66.446  1.00  0.00    -0.418 C  
HETATM    6  C   UNL     1      -9.753  16.943  66.071  1.00  0.00    -0.260 C  
HETATM    7  C   UNL     1     -10.289  15.928  67.091  1.00  0.00    -0.300 C  
BRANCH   7   8
HETATM    8  C   UNL     1     -11.163  14.837  66.437  1.00  0.00    -0.342 C  
BRANCH   8   9
HETATM    9  N   UNL     1     -10.783  13.467  66.745  1.00  0.00    -0.277 N  
HETATM   10  C   UNL     1     -11.463  12.363  66.272  1.00  0.00    -0.371 C  
HETATM   11  H   UNL     1      -9.972  13.314  67.343  1.00  0.00     0.000 HD 
HETATM   12  O   UNL     1     -12.476  12.421  65.596  1.00  0.00    -0.640 OA 
BRANCH  10  13
HETATM   13  C   UNL     1     -10.894  11.055  66.699  1.00  0.00    -0.284 A  
HETATM   14  C   UNL     1     -11.125  10.697  68.042  1.00  0.00    -0.361 A  
HETATM   15  C   UNL     1     -10.640   9.496  68.568  1.00  0.00    -0.212 A  
HETATM   16  C   UNL     1     -10.231  10.152  65.861  1.00  0.00    -0.211 A  
HETATM   17  C   UNL     1      -9.913   8.612  67.768  1.00  0.00    -0.190 A  
HETATM   18  N   UNL     1      -9.522   7.335  68.200  1.00  0.00    -0.134 NA 
HETATM   19  C   UNL     1      -9.787   8.930  66.406  1.00  0.00    -0.353 A  
HETATM   20  H2  UNL     1     -10.363   6.846  68.508  1.00  0.00     0.000 HD 
HETATM   21  H1  UNL     1      -8.990   6.690  67.615  1.00  0.00     0.000 HD 
BRANCH  15  22
HETATM   22  S   UNL     1     -10.835   9.234  70.324  1.00  0.00    -0.259 S  
HETATM   23  O   UNL     1     -11.597   8.011  70.494  1.00  0.00    -0.241 OA 
HETATM   24  O   UNL     1      -9.509   9.356  70.909  1.00  0.00    -0.257 OA 
BRANCH  22  25
HETATM   25  C   UNL     1     -11.820  10.605  70.884  1.00  0.00    -0.331 C  
HETATM   26  C   UNL     1     -12.938  10.125  71.798  1.00  0.00    -0.567 C  
ENDBRANCH  22  25
ENDBRANCH  15  22
BRANCH  16  27
HETATM   27  O   UNL     1     -10.003  10.243  64.516  1.00  0.00    -0.339 OA 
HETATM   28  C   UNL     1      -8.794   9.695  64.002  1.00  0.00    -0.227 C  
ENDBRANCH  16  27
ENDBRANCH  10  13
ENDBRANCH   8   9
ENDBRANCH   7   8
ENDBRANCH   2   3
TORSDOF 7
ENDMDL
MODEL       46
REMARK 921   NORMALIZED FREE ENERGY PREDICTED BY IDOCK:   -5.71 KCAL/MOL
REMARK 922        TOTAL FREE ENERGY PREDICTED BY IDOCK:   -9.07 KCAL/MOL
REMARK 923 INTER-LIGAND FREE ENERGY PREDICTED BY IDOCK:   -8.15 KCAL/MOL
REMARK 924 INTRA-LIGAND FREE ENERGY PREDICTED BY IDOCK:   -0.91 KCAL/MOL
REMARK 927      BINDING AFFINITY PREDICTED BY RF-SCORE:    0.00 PKD
ROOT
HETATM    1  C   UNL     1      -9.374  15.771  65.744  1.00  0.00    -0.298 C  
HETATM    2  C   UNL     1      -8.316  16.490  66.573  1.00  0.00    -0.292 C  
ENDROOT
BRANCH   2   3
HETATM    3  N   UNL     1      -8.719  17.846  66.970  1.00  0.00    -0.239 NA 
HETATM    4  C   UNL     1      -8.152  18.882  66.101  1.00  0.00    -0.222 C  
HETATM    5  C   UNL     1      -9.068  20.065  66.334  1.00  0.00    -0.427 C  
HETATM    6  C   UNL     1     -10.443  19.431  66.402  1.00  0.00    -0.581 C  
HETATM    7  C   UNL     1     -10.195  18.001  66.907  1.00  0.00    -0.362 C  
BRANCH   7   8
HETATM    8  C   UNL     1     -10.815  17.749  68.297  1.00  0.00    -0.145 C  
BRANCH   8   9
HETATM    9  N   UNL     1     -11.183  16.369  68.574  1.00  0.00    -0.363 N  
HETATM   10  C   UNL     1     -11.372  15.871  69.847  1.00  0.00    -0.348 C  
HETATM   11  H   UNL     1     -11.307  15.735  67.785  1.00  0.00     0.000 HD 
HETATM   12  O   UNL     1     -11.199  16.517  70.867  1.00  0.00    -0.283 OA 
BRANCH  10  13
HETATM   13  C   UNL     1     -11.759  14.434  69.899  1.00  0.00    -0.363 A  
HETATM   14  C   UNL     1     -11.305  13.639  68.827  1.00  0.00    -0.326 A  
HETATM   15  C   UNL     1     -11.604  12.275  68.756  1.00  0.00    -0.330 A  
HETATM   16  C   UNL     1     -12.456  13.825  70.947  1.00  0.00    -0.377 A  
HETATM   17  C   UNL     1     -12.361  11.661  69.756  1.00  0.00    -0.133 A  
HETATM   18  N   UNL     1     -12.575  10.275  69.810  1.00  0.00    -0.545 NA 
HETATM   19  C   UNL     1     -12.710  12.439  70.871  1.00  0.00    -0.273 A  
HETATM   20  H2  UNL     1     -11.659   9.824  69.801  1.00  0.00     0.000 HD 
HETATM   21  H1  UNL     1     -13.128   9.826  70.541  1.00  0.00     0.000 HD 
BRANCH  15  22
HETATM   22  S   UNL     1     -11.134  11.412  67.266  1.00  0.00    -0.308 S  
HETATM   23  O   UNL     1     -10.878  10.031  67.631  1.00  0.00    -0.270 OA 
HETATM   24  O   UNL     1     -12.146  11.728  66.269  1.00  0.00    -0.446 OA 
BRANCH  22  25
HETATM   25  C   UNL     1      -9.603  12.165  66.763  1.00  0.00    -0.211 C  
HETATM   26  C   UNL     1      -8.535  11.106  66.531  1.00  0.00    -0.165 C  
ENDBRANCH  22  25
ENDBRANCH  15  22
BRANCH  16  27
HETATM   27  O   UNL     1     -12.884  14.375  72.123  1.00  0.00    -0.320 OA 
HETATM   28  C   UNL     1     -14.132  15.060  72.129  1.00  0.00    -0.529 C  
ENDBRANCH  16  27
ENDBRANCH  10  13
ENDBRANCH   8   9
ENDBRANCH   7   8
ENDBRANCH   2   3
TORSDOF 7
ENDMDL
MODEL       47
REMARK 921   NORMALIZED FREE ENERGY PREDICTED BY IDOCK:   -5.69 KCAL/MOL
REMARK 922        TOTAL FREE ENERGY PREDICTED BY IDOCK:   -9.04 KCAL/MOL
REMARK 923 INTER-LIGAND FREE ENERGY PREDICTED BY IDOCK:   -7.84 KCAL/MOL
REMARK 924 INTRA-LIGAND FREE ENERGY PREDICTED BY IDOCK:   -1.20 KCAL/MOL
REMARK 927      BINDING AFFINITY PREDICTED BY RF-SCORE:    0.00 PKD
ROOT
HETATM    1  C   UNL     1     -10.464  16.453  65.510  1.00  0.00    -0.349 C  
HETATM    2  C   UNL     1      -9.057  16.893  65.898  1.00  0.00    -0.056 C  
ENDROOT
BRANCH   2   3
HETATM    3  N   UNL     1      -9.046  17.953  66.917  1.00  0.00    -0.253 NA 
HETATM    4  C   UNL     1      -8.937  19.295  66.336  1.00  0.00    -0.352 C  
HETATM    5  C   UNL     1      -9.460  20.190  67.440  1.00  0.00    -0.531 C  
HETATM    6  C   UNL     1     -10.636  19.409  67.991  1.00  0.00    -0.453 C  
HETATM    7  C   UNL     1     -10.299  17.936  67.714  1.00  0.00    -0.387 C  
BRANCH   7   8
HETATM    8  C   UNL     1     -10.094  17.122  69.009  1.00  0.00    -0.297 C  
BRANCH   8   9
HETATM    9  N   UNL     1     -10.268  15.684  68.875  1.00  0.00    -0.205 N  
HETATM   10  C   UNL     1     -11.457  15.033  69.132  1.00  0.00    -0.301 C  
HETATM   11  H   UNL     1      -9.468  15.128  68.576  1.00  0.00     0.000 HD 
HETATM   12  O   UNL     1     -12.463  15.583  69.546  1.00  0.00    -0.232 OA 
BRANCH  10  13
HETATM   13  C   UNL     1     -11.416  13.560  68.916  1.00  0.00    -0.348 A  
HETATM   14  C   UNL     1     -10.766  13.132  67.741  1.00  0.00    -0.252 A  
HETATM   15  C   UNL     1     -10.663  11.775  67.421  1.00  0.00    -0.236 A  
HETATM   16  C   UNL     1     -11.899  12.601  69.812  1.00  0.00    -0.309 A  
HETATM   17  C   UNL     1     -11.202  10.802  68.266  1.00  0.00    -0.297 A  
HETATM   18  N   UNL     1     -11.010   9.426  68.068  1.00  0.00    -0.497 NA 
HETATM   19  C   UNL     1     -11.747  11.237  69.485  1.00  0.00    -0.415 A  
HETATM   20  H2  UNL     1     -10.004   9.263  68.018  1.00  0.00     0.000 HD 
HETATM   21  H1  UNL     1     -11.404   8.716  68.686  1.00  0.00     0.000 HD 
BRANCH  15  22
HETATM   22  S   UNL     1      -9.983  11.362  65.823  1.00  0.00    -0.241 S  
HETATM   23  O   UNL     1      -8.547  11.225  65.989  1.00  0.00    -0.175 OA 
HETATM   24  O   UNL     1     -10.769  10.247  65.315  1.00  0.00    -0.037 OA 
BRANCH  22  25
HETATM   25  C   UNL     1     -10.308  12.783  64.805  1.00  0.00    -0.322 C  
HETATM   26  C   UNL     1     -11.253  12.424  63.667  1.00  0.00    -0.544 C  
ENDBRANCH  22  25
ENDBRANCH  15  22
BRANCH  16  27
HETATM   27  O   UNL     1     -12.453  12.787  71.048  1.00  0.00    -0.376 OA 
HETATM   28  C   UNL     1     -12.940  11.645  71.744  1.00  0.00    -0.377 C  
ENDBRANCH  16  27
ENDBRANCH  10  13
ENDBRANCH   8   9
ENDBRANCH   7   8
ENDBRANCH   2   3
TORSDOF 7
ENDMDL
MODEL       48
REMARK 921   NORMALIZED FREE ENERGY PREDICTED BY IDOCK:   -5.68 KCAL/MOL
REMARK 922        TOTAL FREE ENERGY PREDICTED BY IDOCK:   -9.03 KCAL/MOL
REMARK 923 INTER-LIGAND FREE ENERGY PREDICTED BY IDOCK:   -8.09 KCAL/MOL
REMARK 924 INTRA-LIGAND FREE ENERGY PREDICTED BY IDOCK:   -0.93 KCAL/MOL
REMARK 927      BINDING AFFINITY PREDICTED BY RF-SCORE:    0.00 PKD
ROOT
HETATM    1  C   UNL     1     -12.898  10.522  71.537  1.00  0.00    -0.568 C  
HETATM    2  C   UNL     1     -12.684   9.013  71.490  1.00  0.00    -0.339 C  
ENDROOT
BRANCH   2   3
HETATM    3  N   UNL     1     -11.295   8.620  71.763  1.00  0.00    -0.299 NA 
HETATM    4  C   UNL     1     -11.200   7.386  72.549  1.00  0.00    -0.317 C  
HETATM    5  C   UNL     1      -9.793   6.904  72.263  1.00  0.00    -0.163 C  
HETATM    6  C   UNL     1      -9.625   7.186  70.784  1.00  0.00    -0.168 C  
HETATM    7  C   UNL     1     -10.555   8.374  70.498  1.00  0.00    -0.216 C  
BRANCH   7   8
HETATM    8  C   UNL     1      -9.783   9.643  70.079  1.00  0.00    -0.241 C  
BRANCH   8   9
HETATM    9  N   UNL     1     -10.145  10.192  68.782  1.00  0.00    -0.178 N  
HETATM   10  C   UNL     1      -9.322  10.140  67.676  1.00  0.00    -0.148 C  
HETATM   11  H   UNL     1     -11.055  10.640  68.685  1.00  0.00     0.000 HD 
HETATM   12  O   UNL     1      -8.192   9.680  67.684  1.00  0.00    -0.113 OA 
BRANCH  10  13
HETATM   13  C   UNL     1      -9.897  10.751  66.446  1.00  0.00    -0.254 A  
HETATM   14  C   UNL     1     -10.497  12.015  66.614  1.00  0.00    -0.247 A  
HETATM   15  C   UNL     1     -11.077  12.694  65.538  1.00  0.00    -0.294 A  
HETATM   16  C   UNL     1      -9.817  10.204  65.161  1.00  0.00    -0.325 A  
HETATM   17  C   UNL     1     -11.073  12.133  64.259  1.00  0.00    -0.346 A  
HETATM   18  N   UNL     1     -11.514  12.824  63.120  1.00  0.00    -0.795 NA 
HETATM   19  C   UNL     1     -10.374  10.927  64.086  1.00  0.00    -0.432 A  
HETATM   20  H2  UNL     1     -10.990  13.698  63.071  1.00  0.00     0.000 HD 
HETATM   21  H1  UNL     1     -11.510  12.414  62.185  1.00  0.00     0.000 HD 
BRANCH  15  22
HETATM   22  S   UNL     1     -11.966  14.198  65.904  1.00  0.00    -0.418 S  
HETATM   23  O   UNL     1     -13.275  14.085  65.287  1.00  0.00    -0.782 OA 
HETATM   24  O   UNL     1     -11.852  14.407  67.339  1.00  0.00    -0.382 OA 
BRANCH  22  25
HETATM   25  C   UNL     1     -11.054  15.482  65.079  1.00  0.00    -0.401 C  
HETATM   26  C   UNL     1      -9.755  15.775  65.815  1.00  0.00    -0.372 C  
ENDBRANCH  22  25
ENDBRANCH  15  22
BRANCH  16  27
HETATM   27  O   UNL     1      -9.186   9.061  64.756  1.00  0.00    -0.123 OA 
HETATM   28  C   UNL     1      -8.172   9.169  63.763  1.00  0.00    -0.173 C  
ENDBRANCH  16  27
ENDBRANCH  10  13
ENDBRANCH   8   9
ENDBRANCH   7   8
ENDBRANCH   2   3
TORSDOF 7
ENDMDL
MODEL       49
REMARK 921   NORMALIZED FREE ENERGY PREDICTED BY IDOCK:   -5.65 KCAL/MOL
REMARK 922        TOTAL FREE ENERGY PREDICTED BY IDOCK:   -8.99 KCAL/MOL
REMARK 923 INTER-LIGAND FREE ENERGY PREDICTED BY IDOCK:   -7.62 KCAL/MOL
REMARK 924 INTRA-LIGAND FREE ENERGY PREDICTED BY IDOCK:   -1.36 KCAL/MOL
REMARK 927      BINDING AFFINITY PREDICTED BY RF-SCORE:    0.00 PKD
ROOT
HETATM    1  C   UNL     1     -12.202  13.199  64.643  1.00  0.00    -0.471 C  
HETATM    2  C   UNL     1     -10.705  13.101  64.911  1.00  0.00    -0.346 C  
ENDROOT
BRANCH   2   3
HETATM    3  N   UNL     1     -10.354  12.002  65.821  1.00  0.00    -0.245 NA 
HETATM    4  C   UNL     1      -9.964  10.780  65.110  1.00  0.00    -0.291 C  
HETATM    5  C   UNL     1      -9.174  10.014  66.150  1.00  0.00    -0.205 C  
HETATM    6  C   UNL     1      -8.366  11.096  66.836  1.00  0.00    -0.147 C  
HETATM    7  C   UNL     1      -9.203  12.374  66.684  1.00  0.00    -0.218 C  
BRANCH   7   8
HETATM    8  C   UNL     1      -9.708  12.916  68.037  1.00  0.00    -0.224 C  
BRANCH   8   9
HETATM    9  N   UNL     1     -10.053  11.905  69.024  1.00  0.00    -0.419 N  
HETATM   10  C   UNL     1     -11.298  11.316  69.109  1.00  0.00    -0.282 C  
HETATM   11  H   UNL     1      -9.336  11.615  69.689  1.00  0.00     0.000 HD 
HETATM   12  O   UNL     1     -12.248  11.619  68.407  1.00  0.00    -0.498 OA 
BRANCH  10  13
HETATM   13  C   UNL     1     -11.429  10.294  70.185  1.00  0.00    -0.383 A  
HETATM   14  C   UNL     1     -10.420   9.311  70.219  1.00  0.00    -0.271 A  
HETATM   15  C   UNL     1     -10.430   8.293  71.177  1.00  0.00    -0.209 A  
HETATM   16  C   UNL     1     -12.414  10.290  71.177  1.00  0.00    -0.391 A  
HETATM   17  C   UNL     1     -11.445   8.227  72.134  1.00  0.00    -0.361 A  
HETATM   18  N   UNL     1     -11.432   7.315  73.201  1.00  0.00    -0.580 NA 
HETATM   19  C   UNL     1     -12.378   9.276  72.156  1.00  0.00    -0.398 A  
HETATM   20  H2  UNL     1     -10.551   7.441  73.699  1.00  0.00     0.000 HD 
HETATM   21  H1  UNL     1     -12.174   7.268  73.900  1.00  0.00     0.000 HD 
BRANCH  15  22
HETATM   22  S   UNL     1      -9.207   7.002  71.011  1.00  0.00    -0.155 S  
HETATM   23  O   UNL     1      -8.328   7.380  69.920  1.00  0.00    -0.130 OA 
HETATM   24  O   UNL     1      -8.663   6.774  72.341  1.00  0.00    -0.127 OA 
BRANCH  22  25
HETATM   25  C   UNL     1     -10.128   5.558  70.530  1.00  0.00    -0.226 C  
HETATM   26  C   UNL     1     -11.014   5.861  69.331  1.00  0.00    -0.421 C  
ENDBRANCH  22  25
ENDBRANCH  15  22
BRANCH  16  27
HETATM   27  O   UNL     1     -13.408  11.203  71.400  1.00  0.00    -0.261 OA 
HETATM   28  C   UNL     1     -13.058  12.439  72.012  1.00  0.00    -0.365 C  
ENDBRANCH  16  27
ENDBRANCH  10  13
ENDBRANCH   8   9
ENDBRANCH   7   8
ENDBRANCH   2   3
TORSDOF 7
ENDMDL
MODEL       50
REMARK 921   NORMALIZED FREE ENERGY PREDICTED BY IDOCK:   -5.65 KCAL/MOL
REMARK 922        TOTAL FREE ENERGY PREDICTED BY IDOCK:   -8.98 KCAL/MOL
REMARK 923 INTER-LIGAND FREE ENERGY PREDICTED BY IDOCK:   -7.65 KCAL/MOL
REMARK 924 INTRA-LIGAND FREE ENERGY PREDICTED BY IDOCK:   -1.33 KCAL/MOL
REMARK 927      BINDING AFFINITY PREDICTED BY RF-SCORE:    0.00 PKD
ROOT
HETATM    1  C   UNL     1      -9.618   8.742  71.989  1.00  0.00    -0.356 C  
HETATM    2  C   UNL     1     -10.288   8.825  70.623  1.00  0.00    -0.209 C  
ENDROOT
BRANCH   2   3
HETATM    3  N   UNL     1     -11.721   9.138  70.701  1.00  0.00    -0.249 NA 
HETATM    4  C   UNL     1     -12.412   8.370  71.743  1.00  0.00    -0.335 C  
HETATM    5  C   UNL     1     -13.661   9.187  72.000  1.00  0.00    -0.520 C  
HETATM    6  C   UNL     1     -13.157  10.615  71.951  1.00  0.00    -0.563 C  
HETATM    7  C   UNL     1     -11.935  10.573  71.021  1.00  0.00    -0.364 C  
BRANCH   7   8
HETATM    8  C   UNL     1     -12.150  11.379  69.724  1.00  0.00    -0.320 C  
BRANCH   8   9
HETATM    9  N   UNL     1     -10.985  12.102  69.239  1.00  0.00    -0.416 N  
HETATM   10  C   UNL     1     -11.050  13.115  68.304  1.00  0.00    -0.266 C  
HETATM   11  H   UNL     1     -10.070  11.846  69.609  1.00  0.00     0.000 HD 
HETATM   12  O   UNL     1     -12.077  13.471  67.751  1.00  0.00    -0.349 OA 
BRANCH  10  13
HETATM   13  C   UNL     1      -9.737  13.728  67.962  1.00  0.00    -0.232 A  
HETATM   14  C   UNL     1      -9.740  15.128  67.799  1.00  0.00    -0.211 A  
HETATM   15  C   UNL     1      -8.572  15.825  67.472  1.00  0.00    -0.166 A  
HETATM   16  C   UNL     1      -8.525  13.037  67.867  1.00  0.00    -0.185 A  
HETATM   17  C   UNL     1      -7.364  15.145  67.302  1.00  0.00    -0.181 A  
HETATM   18  N   UNL     1      -6.138  15.802  67.112  1.00  0.00    -0.320 NA 
HETATM   19  C   UNL     1      -7.354  13.768  67.576  1.00  0.00    -0.176 A  
HETATM   20  H2  UNL     1      -6.016  16.452  67.889  1.00  0.00     0.000 HD 
HETATM   21  H1  UNL     1      -5.255  15.305  66.987  1.00  0.00     0.000 HD 
BRANCH  15  22
HETATM   22  S   UNL     1      -8.733  17.566  67.113  1.00  0.00    -0.243 S  
HETATM   23  O   UNL     1      -8.112  18.290  68.207  1.00  0.00    -0.279 OA 
HETATM   24  O   UNL     1      -8.256  17.752  65.751  1.00  0.00    -0.538 OA 
BRANCH  22  25
HETATM   25  C   UNL     1     -10.483  17.880  67.139  1.00  0.00    -0.353 C  
HETATM   26  C   UNL     1     -10.760  19.376  67.158  1.00  0.00    -0.593 C  
ENDBRANCH  22  25
ENDBRANCH  15  22
BRANCH  16  27
HETATM   27  O   UNL     1      -8.275  11.713  68.098  1.00  0.00    -0.136 OA 
HETATM   28  C   UNL     1      -7.007  11.353  68.636  1.00  0.00    -0.087 C  
ENDBRANCH  16  27
ENDBRANCH  10  13
ENDBRANCH   8   9
ENDBRANCH   7   8
ENDBRANCH   2   3
TORSDOF 7
ENDMDL
MODEL       51
REMARK 921   NORMALIZED FREE ENERGY PREDICTED BY IDOCK:   -5.65 KCAL/MOL
REMARK 922        TOTAL FREE ENERGY PREDICTED BY IDOCK:   -8.98 KCAL/MOL
REMARK 923 INTER-LIGAND FREE ENERGY PREDICTED BY IDOCK:   -7.66 KCAL/MOL
REMARK 924 INTRA-LIGAND FREE ENERGY PREDICTED BY IDOCK:   -1.32 KCAL/MOL
REMARK 927      BINDING AFFINITY PREDICTED BY RF-SCORE:    0.00 PKD
ROOT
HETATM    1  C   UNL     1     -12.139  12.922  63.821  1.00  0.00    -0.583 C  
HETATM    2  C   UNL     1     -12.481  13.408  65.224  1.00  0.00    -0.483 C  
ENDROOT
BRANCH   2   3
HETATM    3  N   UNL     1     -11.304  13.856  65.981  1.00  0.00    -0.318 NA 
HETATM    4  C   UNL     1     -10.314  14.535  65.139  1.00  0.00    -0.411 C  
HETATM    5  C   UNL     1      -9.506  15.337  66.137  1.00  0.00    -0.361 C  
HETATM    6  C   UNL     1     -10.558  15.858  67.095  1.00  0.00    -0.316 C  
HETATM    7  C   UNL     1     -11.691  14.822  67.041  1.00  0.00    -0.315 C  
BRANCH   7   8
HETATM    8  C   UNL     1     -11.884  14.087  68.384  1.00  0.00    -0.362 C  
BRANCH   8   9
HETATM    9  N   UNL     1     -11.512  12.682  68.385  1.00  0.00    -0.285 N  
HETATM   10  C   UNL     1     -11.744  11.832  69.447  1.00  0.00    -0.341 C  
HETATM   11  H   UNL     1     -11.053  12.304  67.556  1.00  0.00     0.000 HD 
HETATM   12  O   UNL     1     -12.233  12.180  70.508  1.00  0.00    -0.356 OA 
BRANCH  10  13
HETATM   13  C   UNL     1     -11.294  10.429  69.228  1.00  0.00    -0.296 A  
HETATM   14  C   UNL     1     -11.374   9.580  70.350  1.00  0.00    -0.318 A  
HETATM   15  C   UNL     1     -10.979   8.240  70.278  1.00  0.00    -0.232 A  
HETATM   16  C   UNL     1     -10.881   9.896  68.003  1.00  0.00    -0.243 A  
HETATM   17  C   UNL     1     -10.495   7.706  69.082  1.00  0.00    -0.214 A  
HETATM   18  N   UNL     1     -10.214   6.342  68.912  1.00  0.00    -0.167 NA 
HETATM   19  C   UNL     1     -10.526   8.533  67.947  1.00  0.00    -0.262 A  
HETATM   20  H2  UNL     1     -11.059   5.824  69.158  1.00  0.00     0.000 HD 
HETATM   21  H1  UNL     1      -9.861   5.951  68.038  1.00  0.00     0.000 HD 
BRANCH  15  22
HETATM   22  S   UNL     1     -10.952   7.313  71.803  1.00  0.00    -0.231 S  
HETATM   23  O   UNL     1     -11.550   8.150  72.827  1.00  0.00    -0.411 OA 
HETATM   24  O   UNL     1     -11.521   6.008  71.503  1.00  0.00    -0.281 OA 
BRANCH  22  25
HETATM   25  C   UNL     1      -9.227   7.096  72.178  1.00  0.00    -0.129 C  
HETATM   26  C   UNL     1      -8.541   8.443  72.351  1.00  0.00    -0.261 C  
ENDBRANCH  22  25
ENDBRANCH  15  22
BRANCH  16  27
HETATM   27  O   UNL     1     -10.839  10.502  66.778  1.00  0.00    -0.224 OA 
HETATM   28  C   UNL     1      -9.876  10.043  65.835  1.00  0.00    -0.264 C  
ENDBRANCH  16  27
ENDBRANCH  10  13
ENDBRANCH   8   9
ENDBRANCH   7   8
ENDBRANCH   2   3
TORSDOF 7
ENDMDL
MODEL       52
REMARK 921   NORMALIZED FREE ENERGY PREDICTED BY IDOCK:   -5.63 KCAL/MOL
REMARK 922        TOTAL FREE ENERGY PREDICTED BY IDOCK:   -8.95 KCAL/MOL
REMARK 923 INTER-LIGAND FREE ENERGY PREDICTED BY IDOCK:   -7.70 KCAL/MOL
REMARK 924 INTRA-LIGAND FREE ENERGY PREDICTED BY IDOCK:   -1.25 KCAL/MOL
REMARK 927      BINDING AFFINITY PREDICTED BY RF-SCORE:    0.00 PKD
ROOT
HETATM    1  C   UNL     1     -12.035  12.919  63.729  1.00  0.00    -0.582 C  
HETATM    2  C   UNL     1     -12.263  12.902  65.236  1.00  0.00    -0.476 C  
ENDROOT
BRANCH   2   3
HETATM    3  N   UNL     1     -11.190  13.567  65.988  1.00  0.00    -0.294 NA 
HETATM    4  C   UNL     1     -10.147  14.121  65.119  1.00  0.00    -0.317 C  
HETATM    5  C   UNL     1      -9.481  15.158  65.998  1.00  0.00    -0.358 C  
HETATM    6  C   UNL     1     -10.647  15.795  66.726  1.00  0.00    -0.309 C  
HETATM    7  C   UNL     1     -11.724  14.702  66.785  1.00  0.00    -0.341 C  
BRANCH   7   8
HETATM    8  C   UNL     1     -12.024  14.244  68.227  1.00  0.00    -0.311 C  
BRANCH   8   9
HETATM    9  N   UNL     1     -11.688  12.860  68.524  1.00  0.00    -0.320 N  
HETATM   10  C   UNL     1     -11.835  12.291  69.773  1.00  0.00    -0.318 C  
HETATM   11  H   UNL     1     -11.323  12.280  67.770  1.00  0.00     0.000 HD 
HETATM   12  O   UNL     1     -12.208  12.899  70.762  1.00  0.00    -0.367 OA 
BRANCH  10  13
HETATM   13  C   UNL     1     -11.443  10.857  69.850  1.00  0.00    -0.402 A  
HETATM   14  C   UNL     1     -10.544  10.414  68.859  1.00  0.00    -0.241 A  
HETATM   15  C   UNL     1     -10.100   9.088  68.819  1.00  0.00    -0.199 A  
HETATM   16  C   UNL     1     -11.837   9.966  70.854  1.00  0.00    -0.356 A  
HETATM   17  C   UNL     1     -10.539   8.164  69.770  1.00  0.00    -0.231 A  
HETATM   18  N   UNL     1     -10.024   6.862  69.863  1.00  0.00    -0.175 NA 
HETATM   19  C   UNL     1     -11.345   8.645  70.814  1.00  0.00    -0.299 A  
HETATM   20  H2  UNL     1      -9.011   6.939  69.958  1.00  0.00     0.000 HD 
HETATM   21  H1  UNL     1     -10.345   6.186  70.558  1.00  0.00     0.000 HD 
BRANCH  15  22
HETATM   22  S   UNL     1      -9.110   8.600  67.416  1.00  0.00    -0.134 S  
HETATM   23  O   UNL     1      -7.850   8.098  67.933  1.00  0.00    -0.117 OA 
HETATM   24  O   UNL     1      -9.954   7.746  66.593  1.00  0.00    -0.238 OA 
BRANCH  22  25
HETATM   25  C   UNL     1      -8.803  10.107  66.524  1.00  0.00    -0.140 C  
HETATM   26  C   UNL     1      -9.631  10.154  65.248  1.00  0.00    -0.338 C  
ENDBRANCH  22  25
ENDBRANCH  15  22
BRANCH  16  27
HETATM   27  O   UNL     1     -12.601  10.210  71.962  1.00  0.00    -0.376 OA 
HETATM   28  C   UNL     1     -13.682   9.327  72.238  1.00  0.00    -0.462 C  
ENDBRANCH  16  27
ENDBRANCH  10  13
ENDBRANCH   8   9
ENDBRANCH   7   8
ENDBRANCH   2   3
TORSDOF 7
ENDMDL
MODEL       53
REMARK 921   NORMALIZED FREE ENERGY PREDICTED BY IDOCK:   -5.63 KCAL/MOL
REMARK 922        TOTAL FREE ENERGY PREDICTED BY IDOCK:   -8.95 KCAL/MOL
REMARK 923 INTER-LIGAND FREE ENERGY PREDICTED BY IDOCK:   -7.32 KCAL/MOL
REMARK 924 INTRA-LIGAND FREE ENERGY PREDICTED BY IDOCK:   -1.63 KCAL/MOL
REMARK 927      BINDING AFFINITY PREDICTED BY RF-SCORE:    0.00 PKD
ROOT
HETATM    1  C   UNL     1     -12.152  12.351  63.486  1.00  0.00    -0.651 C  
HETATM    2  C   UNL     1     -12.529  12.702  64.920  1.00  0.00    -0.494 C  
ENDROOT
BRANCH   2   3
HETATM    3  N   UNL     1     -11.433  13.336  65.666  1.00  0.00    -0.312 NA 
HETATM    4  C   UNL     1     -10.458  13.993  64.790  1.00  0.00    -0.421 C  
HETATM    5  C   UNL     1      -9.771  14.974  65.716  1.00  0.00    -0.375 C  
HETATM    6  C   UNL     1     -10.910  15.512  66.557  1.00  0.00    -0.284 C  
HETATM    7  C   UNL     1     -11.952  14.384  66.583  1.00  0.00    -0.392 C  
BRANCH   7   8
HETATM    8  C   UNL     1     -12.156  13.799  67.996  1.00  0.00    -0.280 C  
BRANCH   8   9
HETATM    9  N   UNL     1     -11.109  12.900  68.456  1.00  0.00    -0.252 N  
HETATM   10  C   UNL     1     -11.305  11.552  68.676  1.00  0.00    -0.269 C  
HETATM   11  H   UNL     1     -10.181  13.286  68.624  1.00  0.00     0.000 HD 
HETATM   12  O   UNL     1     -12.380  10.988  68.562  1.00  0.00    -0.536 OA 
BRANCH  10  13
HETATM   13  C   UNL     1     -10.092  10.816  69.131  1.00  0.00    -0.224 A  
HETATM   14  C   UNL     1     -10.299   9.877  70.162  1.00  0.00    -0.336 A  
HETATM   15  C   UNL     1      -9.241   9.123  70.681  1.00  0.00    -0.258 A  
HETATM   16  C   UNL     1      -8.818  10.937  68.570  1.00  0.00    -0.153 A  
HETATM   17  C   UNL     1      -7.946   9.281  70.184  1.00  0.00    -0.137 A  
HETATM   18  N   UNL     1      -6.875   8.458  70.567  1.00  0.00    -0.036 NA 
HETATM   19  C   UNL     1      -7.776  10.137  69.084  1.00  0.00    -0.112 A  
HETATM   20  H2  UNL     1      -7.154   7.493  70.391  1.00  0.00     0.000 HD 
HETATM   21  H1  UNL     1      -5.928   8.573  70.204  1.00  0.00     0.000 HD 
BRANCH  15  22
HETATM   22  S   UNL     1      -9.587   8.102  72.104  1.00  0.00    -0.271 S  
HETATM   23  O   UNL     1      -9.300   6.729  71.728  1.00  0.00    -0.148 OA 
HETATM   24  O   UNL     1      -8.892   8.711  73.228  1.00  0.00    -0.323 OA 
BRANCH  22  25
HETATM   25  C   UNL     1     -11.337   8.268  72.373  1.00  0.00    -0.388 C  
HETATM   26  C   UNL     1     -12.080   7.050  71.843  1.00  0.00    -0.358 C  
ENDBRANCH  22  25
ENDBRANCH  15  22
BRANCH  16  27
HETATM   27  O   UNL     1      -8.423  11.692  67.500  1.00  0.00    -0.140 OA 
HETATM   28  C   UNL     1      -8.558  11.132  66.198  1.00  0.00    -0.172 C  
ENDBRANCH  16  27
ENDBRANCH  10  13
ENDBRANCH   8   9
ENDBRANCH   7   8
ENDBRANCH   2   3
TORSDOF 7
ENDMDL
MODEL       54
REMARK 921   NORMALIZED FREE ENERGY PREDICTED BY IDOCK:   -5.62 KCAL/MOL
REMARK 922        TOTAL FREE ENERGY PREDICTED BY IDOCK:   -8.94 KCAL/MOL
REMARK 923 INTER-LIGAND FREE ENERGY PREDICTED BY IDOCK:   -7.49 KCAL/MOL
REMARK 924 INTRA-LIGAND FREE ENERGY PREDICTED BY IDOCK:   -1.45 KCAL/MOL
REMARK 927      BINDING AFFINITY PREDICTED BY RF-SCORE:    0.00 PKD
ROOT
HETATM    1  C   UNL     1     -10.400  19.599  67.941  1.00  0.00    -0.583 C  
HETATM    2  C   UNL     1     -10.552  18.726  66.701  1.00  0.00    -0.383 C  
ENDROOT
BRANCH   2   3
HETATM    3  N   UNL     1     -10.097  17.345  66.911  1.00  0.00    -0.303 NA 
HETATM    4  C   UNL     1      -8.670  17.168  66.620  1.00  0.00    -0.252 C  
HETATM    5  C   UNL     1      -8.320  15.902  67.373  1.00  0.00    -0.192 C  
HETATM    6  C   UNL     1      -9.086  16.050  68.673  1.00  0.00    -0.213 C  
HETATM    7  C   UNL     1     -10.296  16.928  68.323  1.00  0.00    -0.335 C  
BRANCH   7   8
HETATM    8  C   UNL     1     -11.635  16.177  68.471  1.00  0.00    -0.265 C  
BRANCH   8   9
HETATM    9  N   UNL     1     -11.527  14.781  68.864  1.00  0.00    -0.282 N  
HETATM   10  C   UNL     1     -11.866  13.728  68.040  1.00  0.00    -0.373 C  
HETATM   11  H   UNL     1     -11.181  14.569  69.799  1.00  0.00     0.000 HD 
HETATM   12  O   UNL     1     -12.341  13.858  66.924  1.00  0.00    -0.410 OA 
BRANCH  10  13
HETATM   13  C   UNL     1     -11.663  12.380  68.639  1.00  0.00    -0.372 A  
HETATM   14  C   UNL     1     -11.011  11.438  67.818  1.00  0.00    -0.301 A  
HETATM   15  C   UNL     1     -10.763  10.135  68.261  1.00  0.00    -0.238 A  
HETATM   16  C   UNL     1     -11.997  12.021  69.949  1.00  0.00    -0.318 A  
HETATM   17  C   UNL     1     -11.154   9.734  69.540  1.00  0.00    -0.192 A  
HETATM   18  N   UNL     1     -10.810   8.489  70.089  1.00  0.00    -0.236 NA 
HETATM   19  C   UNL     1     -11.700  10.714  70.385  1.00  0.00    -0.446 A  
HETATM   20  H2  UNL     1      -9.795   8.403  70.040  1.00  0.00     0.000 HD 
HETATM   21  H1  UNL     1     -11.096   8.195  71.024  1.00  0.00     0.000 HD 
BRANCH  15  22
HETATM   22  S   UNL     1     -10.099   8.980  67.073  1.00  0.00    -0.269 S  
HETATM   23  O   UNL     1     -10.743   7.701  67.310  1.00  0.00    -0.306 OA 
HETATM   24  O   UNL     1     -10.204   9.621  65.771  1.00  0.00    -0.261 OA 
BRANCH  22  25
HETATM   25  C   UNL     1      -8.375   8.837  67.486  1.00  0.00    -0.109 C  
HETATM   26  C   UNL     1      -7.606  10.063  67.014  1.00  0.00    -0.092 C  
ENDBRANCH  22  25
ENDBRANCH  15  22
BRANCH  16  27
HETATM   27  O   UNL     1     -12.523  12.801  70.941  1.00  0.00    -0.367 OA 
HETATM   28  C   UNL     1     -13.264  12.162  71.975  1.00  0.00    -0.391 C  
ENDBRANCH  16  27
ENDBRANCH  10  13
ENDBRANCH   8   9
ENDBRANCH   7   8
ENDBRANCH   2   3
TORSDOF 7
ENDMDL
MODEL       55
REMARK 921   NORMALIZED FREE ENERGY PREDICTED BY IDOCK:   -5.62 KCAL/MOL
REMARK 922        TOTAL FREE ENERGY PREDICTED BY IDOCK:   -8.94 KCAL/MOL
REMARK 923 INTER-LIGAND FREE ENERGY PREDICTED BY IDOCK:   -7.49 KCAL/MOL
REMARK 924 INTRA-LIGAND FREE ENERGY PREDICTED BY IDOCK:   -1.44 KCAL/MOL
REMARK 927      BINDING AFFINITY PREDICTED BY RF-SCORE:    0.00 PKD
ROOT
HETATM    1  C   UNL     1     -11.865  15.789  69.084  1.00  0.00    -0.367 C  
HETATM    2  C   UNL     1     -11.001  15.555  67.851  1.00  0.00    -0.316 C  
ENDROOT
BRANCH   2   3
HETATM    3  N   UNL     1     -11.113  14.190  67.319  1.00  0.00    -0.297 NA 
HETATM    4  C   UNL     1     -12.168  14.060  66.309  1.00  0.00    -0.462 C  
HETATM    5  C   UNL     1     -11.771  12.807  65.557  1.00  0.00    -0.436 C  
HETATM    6  C   UNL     1     -10.264  12.931  65.449  1.00  0.00    -0.301 C  
HETATM    7  C   UNL     1      -9.847  13.768  66.667  1.00  0.00    -0.284 C  
BRANCH   7   8
HETATM    8  C   UNL     1      -8.975  12.974  67.661  1.00  0.00    -0.192 C  
BRANCH   8   9
HETATM    9  N   UNL     1      -9.708  12.180  68.636  1.00  0.00    -0.380 N  
HETATM   10  C   UNL     1      -9.545  10.819  68.786  1.00  0.00    -0.189 C  
HETATM   11  H   UNL     1     -10.377  12.656  69.240  1.00  0.00     0.000 HD 
HETATM   12  O   UNL     1      -8.817  10.134  68.088  1.00  0.00    -0.124 OA 
BRANCH  10  13
HETATM   13  C   UNL     1     -10.385  10.208  69.855  1.00  0.00    -0.308 A  
HETATM   14  C   UNL     1      -9.850   9.059  70.471  1.00  0.00    -0.263 A  
HETATM   15  C   UNL     1     -10.542   8.390  71.485  1.00  0.00    -0.241 A  
HETATM   16  C   UNL     1     -11.596  10.728  70.323  1.00  0.00    -0.338 A  
HETATM   17  C   UNL     1     -11.787   8.849  71.919  1.00  0.00    -0.370 A  
HETATM   18  N   UNL     1     -12.461   8.304  73.022  1.00  0.00    -0.625 NA 
HETATM   19  C   UNL     1     -12.254  10.056  71.375  1.00  0.00    -0.510 A  
HETATM   20  H2  UNL     1     -11.826   8.346  73.819  1.00  0.00     0.000 HD 
HETATM   21  H1  UNL     1     -13.371   8.640  73.339  1.00  0.00     0.000 HD 
BRANCH  15  22
HETATM   22  S   UNL     1      -9.854   6.846  72.062  1.00  0.00    -0.161 S  
HETATM   23  O   UNL     1      -8.543   6.706  71.455  1.00  0.00    -0.125 OA 
HETATM   24  O   UNL     1      -9.991   6.849  73.511  1.00  0.00    -0.205 OA 
BRANCH  22  25
HETATM   25  C   UNL     1     -10.927   5.591  71.403  1.00  0.00    -0.137 C  
HETATM   26  C   UNL     1     -11.070   5.743  69.896  1.00  0.00    -0.327 C  
ENDBRANCH  22  25
ENDBRANCH  15  22
BRANCH  16  27
HETATM   27  O   UNL     1     -12.232  11.880  69.954  1.00  0.00    -0.265 OA 
HETATM   28  C   UNL     1     -12.539  12.831  70.967  1.00  0.00    -0.271 C  
ENDBRANCH  16  27
ENDBRANCH  10  13
ENDBRANCH   8   9
ENDBRANCH   7   8
ENDBRANCH   2   3
TORSDOF 7
ENDMDL
MODEL       56
REMARK 921   NORMALIZED FREE ENERGY PREDICTED BY IDOCK:   -5.56 KCAL/MOL
REMARK 922        TOTAL FREE ENERGY PREDICTED BY IDOCK:   -8.86 KCAL/MOL
REMARK 923 INTER-LIGAND FREE ENERGY PREDICTED BY IDOCK:   -7.69 KCAL/MOL
REMARK 924 INTRA-LIGAND FREE ENERGY PREDICTED BY IDOCK:   -1.17 KCAL/MOL
REMARK 927      BINDING AFFINITY PREDICTED BY RF-SCORE:    0.00 PKD
ROOT
HETATM    1  C   UNL     1      -9.476   8.345  72.460  1.00  0.00    -0.360 C  
HETATM    2  C   UNL     1     -10.520   7.638  71.604  1.00  0.00    -0.197 C  
ENDROOT
BRANCH   2   3
HETATM    3  N   UNL     1     -11.519   8.555  71.038  1.00  0.00    -0.269 NA 
HETATM    4  C   UNL     1     -12.521   8.978  72.022  1.00  0.00    -0.390 C  
HETATM    5  C   UNL     1     -13.080  10.249  71.418  1.00  0.00    -0.512 C  
HETATM    6  C   UNL     1     -11.851  10.934  70.854  1.00  0.00    -0.363 C  
HETATM    7  C   UNL     1     -10.874   9.794  70.530  1.00  0.00    -0.323 C  
BRANCH   7   8
HETATM    8  C   UNL     1     -10.595   9.665  69.019  1.00  0.00    -0.218 C  
BRANCH   8   9
HETATM    9  N   UNL     1     -10.628  10.912  68.271  1.00  0.00    -0.178 N  
HETATM   10  C   UNL     1     -10.133  11.046  66.990  1.00  0.00    -0.196 C  
HETATM   11  H   UNL     1     -11.038  11.732  68.717  1.00  0.00     0.000 HD 
HETATM   12  O   UNL     1      -9.572  10.155  66.376  1.00  0.00    -0.175 OA 
BRANCH  10  13
HETATM   13  C   UNL     1     -10.283  12.409  66.407  1.00  0.00    -0.253 A  
HETATM   14  C   UNL     1      -9.826  13.471  67.211  1.00  0.00    -0.237 A  
HETATM   15  C   UNL     1      -9.913  14.799  66.781  1.00  0.00    -0.251 A  
HETATM   16  C   UNL     1     -10.764  12.688  65.123  1.00  0.00    -0.292 A  
HETATM   17  C   UNL     1     -10.457  15.107  65.532  1.00  0.00    -0.379 A  
HETATM   18  N   UNL     1     -10.444  16.401  64.990  1.00  0.00    -0.649 NA 
HETATM   19  C   UNL     1     -10.805  14.032  64.698  1.00  0.00    -0.416 A  
HETATM   20  H2  UNL     1      -9.476  16.722  64.988  1.00  0.00     0.000 HD 
HETATM   21  H1  UNL     1     -10.841  16.626  64.077  1.00  0.00     0.000 HD 
BRANCH  15  22
HETATM   22  S   UNL     1      -9.473  16.070  67.955  1.00  0.00    -0.210 S  
HETATM   23  O   UNL     1      -8.898  15.407  69.111  1.00  0.00    -0.215 OA 
HETATM   24  O   UNL     1      -8.699  17.060  67.221  1.00  0.00    -0.195 OA 
BRANCH  22  25
HETATM   25  C   UNL     1     -11.018  16.811  68.430  1.00  0.00    -0.325 C  
HETATM   26  C   UNL     1     -11.877  15.816  69.197  1.00  0.00    -0.367 C  
ENDBRANCH  22  25
ENDBRANCH  15  22
BRANCH  16  27
HETATM   27  O   UNL     1     -11.147  11.813  64.145  1.00  0.00    -0.332 OA 
HETATM   28  C   UNL     1     -10.162  11.369  63.219  1.00  0.00    -0.385 C  
ENDBRANCH  16  27
ENDBRANCH  10  13
ENDBRANCH   8   9
ENDBRANCH   7   8
ENDBRANCH   2   3
TORSDOF 7
ENDMDL
MODEL       57
REMARK 921   NORMALIZED FREE ENERGY PREDICTED BY IDOCK:   -5.54 KCAL/MOL
REMARK 922        TOTAL FREE ENERGY PREDICTED BY IDOCK:   -8.83 KCAL/MOL
REMARK 923 INTER-LIGAND FREE ENERGY PREDICTED BY IDOCK:   -7.71 KCAL/MOL
REMARK 924 INTRA-LIGAND FREE ENERGY PREDICTED BY IDOCK:   -1.12 KCAL/MOL
REMARK 927      BINDING AFFINITY PREDICTED BY RF-SCORE:    0.00 PKD
ROOT
HETATM    1  C   UNL     1     -14.146   7.795  71.898  1.00  0.00    -0.462 C  
HETATM    2  C   UNL     1     -13.880   9.276  72.136  1.00  0.00    -0.413 C  
ENDROOT
BRANCH   2   3
HETATM    3  N   UNL     1     -12.459   9.632  72.026  1.00  0.00    -0.358 NA 
HETATM    4  C   UNL     1     -11.581   8.457  72.012  1.00  0.00    -0.351 C  
HETATM    5  C   UNL     1     -10.309   8.987  71.385  1.00  0.00    -0.396 C  
HETATM    6  C   UNL     1     -10.818   9.893  70.282  1.00  0.00    -0.367 C  
HETATM    7  C   UNL     1     -12.193  10.374  70.767  1.00  0.00    -0.359 C  
BRANCH   7   8
HETATM    8  C   UNL     1     -12.230  11.894  71.028  1.00  0.00    -0.169 C  
BRANCH   8   9
HETATM    9  N   UNL     1     -11.748  12.726  69.937  1.00  0.00    -0.484 N  
HETATM   10  C   UNL     1     -11.431  14.061  70.080  1.00  0.00    -0.168 C  
HETATM   11  H   UNL     1     -11.638  12.300  69.018  1.00  0.00     0.000 HD 
HETATM   12  O   UNL     1     -11.572  14.692  71.114  1.00  0.00    -0.303 OA 
BRANCH  10  13
HETATM   13  C   UNL     1     -10.941  14.718  68.836  1.00  0.00    -0.262 A  
HETATM   14  C   UNL     1      -9.795  15.525  68.982  1.00  0.00    -0.235 A  
HETATM   15  C   UNL     1      -9.238  16.201  67.891  1.00  0.00    -0.200 A  
HETATM   16  C   UNL     1     -11.482  14.533  67.560  1.00  0.00    -0.356 A  
HETATM   17  C   UNL     1      -9.805  16.088  66.620  1.00  0.00    -0.260 A  
HETATM   18  N   UNL     1      -9.213  16.627  65.468  1.00  0.00    -0.349 NA 
HETATM   19  C   UNL     1     -10.878  15.194  66.470  1.00  0.00    -0.317 A  
HETATM   20  H2  UNL     1      -8.263  16.258  65.412  1.00  0.00     0.000 HD 
HETATM   21  H1  UNL     1      -9.628  16.545  64.539  1.00  0.00     0.000 HD 
BRANCH  15  22
HETATM   22  S   UNL     1      -7.901  17.335  68.228  1.00  0.00    -0.253 S  
HETATM   23  O   UNL     1      -7.296  16.926  69.483  1.00  0.00    -0.130 OA 
HETATM   24  O   UNL     1      -7.098  17.399  67.017  1.00  0.00    -0.161 OA 
BRANCH  22  25
HETATM   25  C   UNL     1      -8.686  18.913  68.460  1.00  0.00    -0.347 C  
HETATM   26  C   UNL     1      -8.628  19.735  67.181  1.00  0.00    -0.376 C  
ENDBRANCH  22  25
ENDBRANCH  15  22
BRANCH  16  27
HETATM   27  O   UNL     1     -12.508  13.714  67.176  1.00  0.00    -0.263 OA 
HETATM   28  C   UNL     1     -12.736  13.533  65.783  1.00  0.00    -0.374 C  
ENDBRANCH  16  27
ENDBRANCH  10  13
ENDBRANCH   8   9
ENDBRANCH   7   8
ENDBRANCH   2   3
TORSDOF 7
ENDMDL
MODEL       58
REMARK 921   NORMALIZED FREE ENERGY PREDICTED BY IDOCK:   -5.53 KCAL/MOL
REMARK 922        TOTAL FREE ENERGY PREDICTED BY IDOCK:   -8.82 KCAL/MOL
REMARK 923 INTER-LIGAND FREE ENERGY PREDICTED BY IDOCK:   -7.29 KCAL/MOL
REMARK 924 INTRA-LIGAND FREE ENERGY PREDICTED BY IDOCK:   -1.53 KCAL/MOL
REMARK 927      BINDING AFFINITY PREDICTED BY RF-SCORE:    0.00 PKD
ROOT
HETATM    1  C   UNL     1     -10.953  15.477  65.402  1.00  0.00    -0.365 C  
HETATM    2  C   UNL     1     -11.891  14.327  65.747  1.00  0.00    -0.374 C  
ENDROOT
BRANCH   2   3
HETATM    3  N   UNL     1     -11.238  13.262  66.521  1.00  0.00    -0.298 NA 
HETATM    4  C   UNL     1     -10.071  12.697  65.834  1.00  0.00    -0.264 C  
HETATM    5  C   UNL     1      -9.288  12.056  66.960  1.00  0.00    -0.191 C  
HETATM    6  C   UNL     1      -9.420  13.059  68.089  1.00  0.00    -0.218 C  
HETATM    7  C   UNL     1     -10.752  13.777  67.827  1.00  0.00    -0.246 C  
BRANCH   7   8
HETATM    8  C   UNL     1     -11.798  13.504  68.927  1.00  0.00    -0.345 C  
BRANCH   8   9
HETATM    9  N   UNL     1     -11.507  12.377  69.798  1.00  0.00    -0.486 N  
HETATM   10  C   UNL     1     -11.768  11.065  69.460  1.00  0.00    -0.329 C  
HETATM   11  H   UNL     1     -11.088  12.565  70.708  1.00  0.00     0.000 HD 
HETATM   12  O   UNL     1     -12.314  10.720  68.425  1.00  0.00    -0.396 OA 
BRANCH  10  13
HETATM   13  C   UNL     1     -11.376  10.068  70.494  1.00  0.00    -0.409 A  
HETATM   14  C   UNL     1     -10.001   9.768  70.565  1.00  0.00    -0.258 A  
HETATM   15  C   UNL     1      -9.504   8.845  71.491  1.00  0.00    -0.277 A  
HETATM   16  C   UNL     1     -12.246   9.484  71.421  1.00  0.00    -0.371 A  
HETATM   17  C   UNL     1     -10.365   8.196  72.378  1.00  0.00    -0.311 A  
HETATM   18  N   UNL     1      -9.911   7.368  73.417  1.00  0.00    -0.284 NA 
HETATM   19  C   UNL     1     -11.714   8.587  72.371  1.00  0.00    -0.429 A  
HETATM   20  H2  UNL     1      -9.252   7.912  73.974  1.00  0.00     0.000 HD 
HETATM   21  H1  UNL     1     -10.540   6.894  74.065  1.00  0.00     0.000 HD 
BRANCH  15  22
HETATM   22  S   UNL     1      -7.777   8.410  71.366  1.00  0.00    -0.108 S  
HETATM   23  O   UNL     1      -7.146   8.790  72.617  1.00  0.00    -0.310 OA 
HETATM   24  O   UNL     1      -7.732   7.027  70.916  1.00  0.00    -0.092 OA 
BRANCH  22  25
HETATM   25  C   UNL     1      -7.138   9.441  70.066  1.00  0.00    -0.083 C  
HETATM   26  C   UNL     1      -6.833   8.613  68.826  1.00  0.00    -0.062 C  
ENDBRANCH  22  25
ENDBRANCH  15  22
BRANCH  16  27
HETATM   27  O   UNL     1     -13.580   9.717  71.606  1.00  0.00    -0.353 OA 
HETATM   28  C   UNL     1     -14.384   8.653  72.103  1.00  0.00    -0.427 C  
ENDBRANCH  16  27
ENDBRANCH  10  13
ENDBRANCH   8   9
ENDBRANCH   7   8
ENDBRANCH   2   3
TORSDOF 7
ENDMDL
MODEL       59
REMARK 921   NORMALIZED FREE ENERGY PREDICTED BY IDOCK:   -5.52 KCAL/MOL
REMARK 922        TOTAL FREE ENERGY PREDICTED BY IDOCK:   -8.80 KCAL/MOL
REMARK 923 INTER-LIGAND FREE ENERGY PREDICTED BY IDOCK:   -7.46 KCAL/MOL
REMARK 924 INTRA-LIGAND FREE ENERGY PREDICTED BY IDOCK:   -1.34 KCAL/MOL
REMARK 927      BINDING AFFINITY PREDICTED BY RF-SCORE:    0.00 PKD
ROOT
HETATM    1  C   UNL     1     -12.507  12.089  63.522  1.00  0.00    -0.654 C  
HETATM    2  C   UNL     1     -11.073  12.598  63.615  1.00  0.00    -0.443 C  
ENDROOT
BRANCH   2   3
HETATM    3  N   UNL     1     -10.767  13.224  64.909  1.00  0.00    -0.331 NA 
HETATM    4  C   UNL     1     -11.343  14.566  65.039  1.00  0.00    -0.377 C  
HETATM    5  C   UNL     1     -11.372  14.784  66.537  1.00  0.00    -0.344 C  
HETATM    6  C   UNL     1     -11.801  13.434  67.075  1.00  0.00    -0.443 C  
HETATM    7  C   UNL     1     -11.314  12.418  66.031  1.00  0.00    -0.353 C  
BRANCH   7   8
HETATM    8  C   UNL     1     -10.228  11.474  66.586  1.00  0.00    -0.219 C  
BRANCH   8   9
HETATM    9  N   UNL     1     -10.589  10.750  67.795  1.00  0.00    -0.211 N  
HETATM   10  C   UNL     1      -9.753  10.622  68.885  1.00  0.00    -0.202 C  
HETATM   11  H   UNL     1     -11.509  10.314  67.839  1.00  0.00     0.000 HD 
HETATM   12  O   UNL     1      -8.613  11.051  68.927  1.00  0.00    -0.161 OA 
BRANCH  10  13
HETATM   13  C   UNL     1     -10.330   9.852  70.021  1.00  0.00    -0.320 A  
HETATM   14  C   UNL     1      -9.558   8.765  70.478  1.00  0.00    -0.226 A  
HETATM   15  C   UNL     1      -9.991   7.960  71.537  1.00  0.00    -0.173 A  
HETATM   16  C   UNL     1     -11.515  10.172  70.693  1.00  0.00    -0.349 A  
HETATM   17  C   UNL     1     -11.205   8.217  72.175  1.00  0.00    -0.345 A  
HETATM   18  N   UNL     1     -11.624   7.533  73.326  1.00  0.00    -0.617 NA 
HETATM   19  C   UNL     1     -11.909   9.368  71.783  1.00  0.00    -0.452 A  
HETATM   20  H2  UNL     1     -10.887   7.630  74.024  1.00  0.00     0.000 HD 
HETATM   21  H1  UNL     1     -12.512   7.722  73.793  1.00  0.00     0.000 HD 
BRANCH  15  22
HETATM   22  S   UNL     1      -9.022   6.507  71.907  1.00  0.00    -0.136 S  
HETATM   23  O   UNL     1      -8.467   6.687  73.236  1.00  0.00    -0.119 OA 
HETATM   24  O   UNL     1      -9.870   5.360  71.619  1.00  0.00    -0.162 OA 
BRANCH  22  25
HETATM   25  C   UNL     1      -7.693   6.528  70.725  1.00  0.00    -0.101 C  
HETATM   26  C   UNL     1      -6.395   6.059  71.367  1.00  0.00    -0.048 C  
ENDBRANCH  22  25
ENDBRANCH  15  22
BRANCH  16  27
HETATM   27  O   UNL     1     -12.349  11.237  70.495  1.00  0.00    -0.333 OA 
HETATM   28  C   UNL     1     -13.044  11.763  71.620  1.00  0.00    -0.338 C  
ENDBRANCH  16  27
ENDBRANCH  10  13
ENDBRANCH   8   9
ENDBRANCH   7   8
ENDBRANCH   2   3
TORSDOF 7
ENDMDL
MODEL       60
REMARK 921   NORMALIZED FREE ENERGY PREDICTED BY IDOCK:   -5.52 KCAL/MOL
REMARK 922        TOTAL FREE ENERGY PREDICTED BY IDOCK:   -8.80 KCAL/MOL
REMARK 923 INTER-LIGAND FREE ENERGY PREDICTED BY IDOCK:   -7.39 KCAL/MOL
REMARK 924 INTRA-LIGAND FREE ENERGY PREDICTED BY IDOCK:   -1.40 KCAL/MOL
REMARK 927      BINDING AFFINITY PREDICTED BY RF-SCORE:    0.00 PKD
ROOT
HETATM    1  C   UNL     1      -8.590  15.896  66.329  1.00  0.00    -0.348 C  
HETATM    2  C   UNL     1     -10.009  16.450  66.360  1.00  0.00    -0.303 C  
ENDROOT
BRANCH   2   3
HETATM    3  N   UNL     1     -11.035  15.421  66.137  1.00  0.00    -0.310 NA 
HETATM    4  C   UNL     1     -11.355  15.240  64.718  1.00  0.00    -0.391 C  
HETATM    5  C   UNL     1     -11.977  13.860  64.680  1.00  0.00    -0.443 C  
HETATM    6  C   UNL     1     -11.116  13.065  65.641  1.00  0.00    -0.301 C  
HETATM    7  C   UNL     1     -10.579  14.100  66.641  1.00  0.00    -0.278 C  
BRANCH   7   8
HETATM    8  C   UNL     1     -11.105  13.868  68.072  1.00  0.00    -0.259 C  
BRANCH   8   9
HETATM    9  N   UNL     1     -10.542  12.719  68.764  1.00  0.00    -0.357 N  
HETATM   10  C   UNL     1     -11.187  11.505  68.876  1.00  0.00    -0.247 C  
HETATM   11  H   UNL     1      -9.620  12.816  69.190  1.00  0.00     0.000 HD 
HETATM   12  O   UNL     1     -12.311  11.286  68.457  1.00  0.00    -0.543 OA 
BRANCH  10  13
HETATM   13  C   UNL     1     -10.422  10.461  69.614  1.00  0.00    -0.279 A  
HETATM   14  C   UNL     1     -11.196   9.542  70.350  1.00  0.00    -0.323 A  
HETATM   15  C   UNL     1     -10.598   8.516  71.089  1.00  0.00    -0.220 A  
HETATM   16  C   UNL     1      -9.035  10.293  69.564  1.00  0.00    -0.157 A  
HETATM   17  C   UNL     1      -9.209   8.374  71.112  1.00  0.00    -0.174 A  
HETATM   18  N   UNL     1      -8.562   7.287  71.720  1.00  0.00    -0.116 NA 
HETATM   19  C   UNL     1      -8.460   9.227  70.286  1.00  0.00    -0.224 A  
HETATM   20  H2  UNL     1      -8.949   6.435  71.313  1.00  0.00     0.000 HD 
HETATM   21  H1  UNL     1      -7.547   7.183  71.737  1.00  0.00     0.000 HD 
BRANCH  15  22
HETATM   22  S   UNL     1     -11.664   7.528  72.126  1.00  0.00    -0.305 S  
HETATM   23  O   UNL     1     -11.788   6.225  71.498  1.00  0.00    -0.306 OA 
HETATM   24  O   UNL     1     -11.141   7.639  73.479  1.00  0.00    -0.315 OA 
BRANCH  22  25
HETATM   25  C   UNL     1     -13.243   8.343  72.069  1.00  0.00    -0.346 C  
HETATM   26  C   UNL     1     -14.327   7.383  71.602  1.00  0.00    -0.614 C  
ENDBRANCH  22  25
ENDBRANCH  15  22
BRANCH  16  27
HETATM   27  O   UNL     1      -8.114  10.989  68.830  1.00  0.00    -0.142 OA 
HETATM   28  C   UNL     1      -7.707  10.448  67.579  1.00  0.00    -0.094 C  
ENDBRANCH  16  27
ENDBRANCH  10  13
ENDBRANCH   8   9
ENDBRANCH   7   8
ENDBRANCH   2   3
TORSDOF 7
ENDMDL
MODEL       61
REMARK 921   NORMALIZED FREE ENERGY PREDICTED BY IDOCK:   -5.50 KCAL/MOL
REMARK 922        TOTAL FREE ENERGY PREDICTED BY IDOCK:   -8.77 KCAL/MOL
REMARK 923 INTER-LIGAND FREE ENERGY PREDICTED BY IDOCK:   -7.63 KCAL/MOL
REMARK 924 INTRA-LIGAND FREE ENERGY PREDICTED BY IDOCK:   -1.15 KCAL/MOL
REMARK 927      BINDING AFFINITY PREDICTED BY RF-SCORE:    0.00 PKD
ROOT
HETATM    1  C   UNL     1     -10.899  15.464  64.884  1.00  0.00    -0.445 C  
HETATM    2  C   UNL     1     -12.171  14.701  64.538  1.00  0.00    -0.456 C  
ENDROOT
BRANCH   2   3
HETATM    3  N   UNL     1     -12.056  13.254  64.768  1.00  0.00    -0.388 NA 
HETATM    4  C   UNL     1     -11.544  12.534  63.598  1.00  0.00    -0.504 C  
HETATM    5  C   UNL     1     -11.022  11.242  64.191  1.00  0.00    -0.376 C  
HETATM    6  C   UNL     1     -10.364  11.693  65.479  1.00  0.00    -0.309 C  
HETATM    7  C   UNL     1     -11.119  12.968  65.885  1.00  0.00    -0.280 C  
BRANCH   7   8
HETATM    8  C   UNL     1     -11.901  12.798  67.204  1.00  0.00    -0.350 C  
BRANCH   8   9
HETATM    9  N   UNL     1     -11.636  11.566  67.931  1.00  0.00    -0.295 N  
HETATM   10  C   UNL     1     -11.718  11.459  69.304  1.00  0.00    -0.337 C  
HETATM   11  H   UNL     1     -11.375  10.737  67.398  1.00  0.00     0.000 HD 
HETATM   12  O   UNL     1     -11.967  12.391  70.050  1.00  0.00    -0.328 OA 
BRANCH  10  13
HETATM   13  C   UNL     1     -11.420  10.101  69.839  1.00  0.00    -0.317 A  
HETATM   14  C   UNL     1     -10.410   9.387  69.165  1.00  0.00    -0.221 A  
HETATM   15  C   UNL     1     -10.038   8.100  69.566  1.00  0.00    -0.193 A  
HETATM   16  C   UNL     1     -12.006   9.537  70.977  1.00  0.00    -0.328 A  
HETATM   17  C   UNL     1     -10.661   7.488  70.655  1.00  0.00    -0.230 A  
HETATM   18  N   UNL     1     -10.238   6.260  71.188  1.00  0.00    -0.194 NA 
HETATM   19  C   UNL     1     -11.585   8.254  71.384  1.00  0.00    -0.322 A  
HETATM   20  H2  UNL     1      -9.247   6.351  71.415  1.00  0.00     0.000 HD 
HETATM   21  H1  UNL     1     -10.693   5.813  71.984  1.00  0.00     0.000 HD 
BRANCH  15  22
HETATM   22  S   UNL     1      -8.880   7.223  68.528  1.00  0.00    -0.127 S  
HETATM   23  O   UNL     1      -8.435   8.149  67.502  1.00  0.00    -0.124 OA 
HETATM   24  O   UNL     1      -7.912   6.604  69.421  1.00  0.00    -0.111 OA 
BRANCH  22  25
HETATM   25  C   UNL     1      -9.835   5.934  67.762  1.00  0.00    -0.124 C  
HETATM   26  C   UNL     1     -11.017   6.520  67.003  1.00  0.00    -0.466 C  
ENDBRANCH  22  25
ENDBRANCH  15  22
BRANCH  16  27
HETATM   27  O   UNL     1     -12.911  10.092  71.838  1.00  0.00    -0.416 OA 
HETATM   28  C   UNL     1     -13.837   9.228  72.488  1.00  0.00    -0.384 C  
ENDBRANCH  16  27
ENDBRANCH  10  13
ENDBRANCH   8   9
ENDBRANCH   7   8
ENDBRANCH   2   3
TORSDOF 7
ENDMDL
MODEL       62
REMARK 921   NORMALIZED FREE ENERGY PREDICTED BY IDOCK:   -5.49 KCAL/MOL
REMARK 922        TOTAL FREE ENERGY PREDICTED BY IDOCK:   -8.76 KCAL/MOL
REMARK 923 INTER-LIGAND FREE ENERGY PREDICTED BY IDOCK:   -7.55 KCAL/MOL
REMARK 924 INTRA-LIGAND FREE ENERGY PREDICTED BY IDOCK:   -1.21 KCAL/MOL
REMARK 927      BINDING AFFINITY PREDICTED BY RF-SCORE:    0.00 PKD
ROOT
HETATM    1  C   UNL     1     -10.988   5.808  69.954  1.00  0.00    -0.389 C  
HETATM    2  C   UNL     1     -10.096   6.625  69.027  1.00  0.00    -0.162 C  
ENDROOT
BRANCH   2   3
HETATM    3  N   UNL     1     -10.325   8.072  69.135  1.00  0.00    -0.218 NA 
HETATM    4  C   UNL     1     -10.057   8.589  70.481  1.00  0.00    -0.192 C  
HETATM    5  C   UNL     1      -9.839  10.068  70.244  1.00  0.00    -0.144 C  
HETATM    6  C   UNL     1      -9.033  10.098  68.961  1.00  0.00    -0.168 C  
HETATM    7  C   UNL     1      -9.436   8.821  68.210  1.00  0.00    -0.141 C  
BRANCH   7   8
HETATM    8  C   UNL     1     -10.175   9.120  66.889  1.00  0.00    -0.266 C  
BRANCH   8   9
HETATM    9  N   UNL     1     -10.263  10.526  66.528  1.00  0.00    -0.224 N  
HETATM   10  C   UNL     1     -11.234  11.378  67.013  1.00  0.00    -0.283 C  
HETATM   11  H   UNL     1      -9.570  10.903  65.882  1.00  0.00     0.000 HD 
HETATM   12  O   UNL     1     -12.145  11.031  67.746  1.00  0.00    -0.534 OA 
BRANCH  10  13
HETATM   13  C   UNL     1     -11.128  12.781  66.525  1.00  0.00    -0.321 A  
HETATM   14  C   UNL     1     -10.065  13.536  67.060  1.00  0.00    -0.244 A  
HETATM   15  C   UNL     1      -9.858  14.867  66.686  1.00  0.00    -0.260 A  
HETATM   16  C   UNL     1     -11.943  13.357  65.545  1.00  0.00    -0.398 A  
HETATM   17  C   UNL     1     -10.704  15.485  65.763  1.00  0.00    -0.353 A  
HETATM   18  N   UNL     1     -10.466  16.769  65.247  1.00  0.00    -0.662 NA 
HETATM   19  C   UNL     1     -11.689  14.689  65.156  1.00  0.00    -0.364 A  
HETATM   20  H2  UNL     1      -9.527  16.767  64.847  1.00  0.00     0.000 HD 
HETATM   21  H1  UNL     1     -11.084  17.220  64.572  1.00  0.00     0.000 HD 
BRANCH  15  22
HETATM   22  S   UNL     1      -8.596  15.776  67.563  1.00  0.00    -0.172 S  
HETATM   23  O   UNL     1      -7.579  16.143  66.595  1.00  0.00    -0.239 OA 
HETATM   24  O   UNL     1      -9.284  16.807  68.324  1.00  0.00    -0.215 OA 
BRANCH  22  25
HETATM   25  C   UNL     1      -7.901  14.607  68.708  1.00  0.00    -0.146 C  
HETATM   26  C   UNL     1      -6.906  15.289  69.635  1.00  0.00    -0.187 C  
ENDBRANCH  22  25
ENDBRANCH  15  22
BRANCH  16  27
HETATM   27  O   UNL     1     -12.946  12.778  64.819  1.00  0.00    -0.768 OA 
HETATM   28  C   UNL     1     -12.605  12.138  63.595  1.00  0.00    -0.504 C  
ENDBRANCH  16  27
ENDBRANCH  10  13
ENDBRANCH   8   9
ENDBRANCH   7   8
ENDBRANCH   2   3
TORSDOF 7
ENDMDL
MODEL       63
REMARK 921   NORMALIZED FREE ENERGY PREDICTED BY IDOCK:   -5.45 KCAL/MOL
REMARK 922        TOTAL FREE ENERGY PREDICTED BY IDOCK:   -8.70 KCAL/MOL
REMARK 923 INTER-LIGAND FREE ENERGY PREDICTED BY IDOCK:   -7.49 KCAL/MOL
REMARK 924 INTRA-LIGAND FREE ENERGY PREDICTED BY IDOCK:   -1.21 KCAL/MOL
REMARK 927      BINDING AFFINITY PREDICTED BY RF-SCORE:    0.00 PKD
ROOT
HETATM    1  C   UNL     1      -7.669  10.950  66.596  1.00  0.00    -0.146 C  
HETATM    2  C   UNL     1      -8.986  11.692  66.400  1.00  0.00    -0.198 C  
ENDROOT
BRANCH   2   3
HETATM    3  N   UNL     1      -9.045  12.965  67.132  1.00  0.00    -0.213 NA 
HETATM    4  C   UNL     1      -7.716  13.482  67.475  1.00  0.00    -0.175 C  
HETATM    5  C   UNL     1      -7.973  14.955  67.716  1.00  0.00    -0.161 C  
HETATM    6  C   UNL     1      -8.957  15.318  66.622  1.00  0.00    -0.324 C  
HETATM    7  C   UNL     1      -9.711  14.014  66.318  1.00  0.00    -0.295 C  
BRANCH   7   8
HETATM    8  C   UNL     1     -11.208  14.098  66.680  1.00  0.00    -0.325 C  
BRANCH   8   9
HETATM    9  N   UNL     1     -11.628  13.258  67.791  1.00  0.00    -0.320 N  
HETATM   10  C   UNL     1     -11.563  13.652  69.111  1.00  0.00    -0.309 C  
HETATM   11  H   UNL     1     -11.989  12.328  67.582  1.00  0.00     0.000 HD 
HETATM   12  O   UNL     1     -11.101  14.716  69.486  1.00  0.00    -0.255 OA 
BRANCH  10  13
HETATM   13  C   UNL     1     -12.059  12.640  70.085  1.00  0.00    -0.368 A  
HETATM   14  C   UNL     1     -11.447  11.373  70.015  1.00  0.00    -0.331 A  
HETATM   15  C   UNL     1     -11.825  10.334  70.872  1.00  0.00    -0.377 A  
HETATM   16  C   UNL     1     -13.009  12.880  71.083  1.00  0.00    -0.174 A  
HETATM   17  C   UNL     1     -12.824  10.530  71.828  1.00  0.00    -0.454 A  
HETATM   18  N   UNL     1     -13.147   9.574  72.803  1.00  0.00    -0.427 NA 
HETATM   19  C   UNL     1     -13.345  11.828  71.960  1.00  0.00    -0.417 A  
HETATM   20  H2  UNL     1     -12.288   9.343  73.302  1.00  0.00     0.000 HD 
HETATM   21  H1  UNL     1     -13.877   9.717  73.501  1.00  0.00     0.000 HD 
BRANCH  15  22
HETATM   22  S   UNL     1     -11.113   8.725  70.570  1.00  0.00    -0.237 S  
HETATM   23  O   UNL     1     -12.103   7.737  70.955  1.00  0.00    -0.302 OA 
HETATM   24  O   UNL     1     -10.598   8.751  69.209  1.00  0.00    -0.225 OA 
BRANCH  22  25
HETATM   25  C   UNL     1      -9.733   8.618  71.686  1.00  0.00    -0.278 C  
HETATM   26  C   UNL     1     -10.115   7.845  72.940  1.00  0.00    -0.376 C  
ENDBRANCH  22  25
ENDBRANCH  15  22
BRANCH  16  27
HETATM   27  O   UNL     1     -13.637  14.052  71.402  1.00  0.00    -0.324 OA 
HETATM   28  C   UNL     1     -13.338  14.653  72.657  1.00  0.00    -0.482 C  
ENDBRANCH  16  27
ENDBRANCH  10  13
ENDBRANCH   8   9
ENDBRANCH   7   8
ENDBRANCH   2   3
TORSDOF 7
ENDMDL
MODEL       64
REMARK 921   NORMALIZED FREE ENERGY PREDICTED BY IDOCK:   -5.44 KCAL/MOL
REMARK 922        TOTAL FREE ENERGY PREDICTED BY IDOCK:   -8.69 KCAL/MOL
REMARK 923 INTER-LIGAND FREE ENERGY PREDICTED BY IDOCK:   -7.60 KCAL/MOL
REMARK 924 INTRA-LIGAND FREE ENERGY PREDICTED BY IDOCK:   -1.09 KCAL/MOL
REMARK 927      BINDING AFFINITY PREDICTED BY RF-SCORE:    0.00 PKD
ROOT
HETATM    1  C   UNL     1     -11.866  14.266  67.038  1.00  0.00    -0.455 C  
HETATM    2  C   UNL     1     -11.785  12.745  67.101  1.00  0.00    -0.380 C  
ENDROOT
BRANCH   2   3
HETATM    3  N   UNL     1     -11.950  12.104  65.789  1.00  0.00    -0.550 NA 
HETATM    4  C   UNL     1     -12.756  12.907  64.864  1.00  0.00    -0.403 C  
HETATM    5  C   UNL     1     -12.365  12.362  63.506  1.00  0.00    -0.648 C  
HETATM    6  C   UNL     1     -10.871  12.150  63.636  1.00  0.00    -0.523 C  
HETATM    7  C   UNL     1     -10.634  11.895  65.132  1.00  0.00    -0.287 C  
BRANCH   7   8
HETATM    8  C   UNL     1     -10.120  10.468  65.414  1.00  0.00    -0.291 C  
BRANCH   8   9
HETATM    9  N   UNL     1      -9.761  10.198  66.798  1.00  0.00    -0.180 N  
HETATM   10  C   UNL     1     -10.086   9.029  67.455  1.00  0.00    -0.230 C  
HETATM   11  H   UNL     1      -9.243  10.910  67.310  1.00  0.00     0.000 HD 
HETATM   12  O   UNL     1     -10.749   8.130  66.965  1.00  0.00    -0.321 OA 
BRANCH  10  13
HETATM   13  C   UNL     1      -9.607   8.956  68.863  1.00  0.00    -0.160 A  
HETATM   14  C   UNL     1     -10.401   8.187  69.739  1.00  0.00    -0.216 A  
HETATM   15  C   UNL     1     -10.062   8.042  71.088  1.00  0.00    -0.188 A  
HETATM   16  C   UNL     1      -8.420   9.519  69.342  1.00  0.00    -0.146 A  
HETATM   17  C   UNL     1      -8.920   8.657  71.604  1.00  0.00    -0.235 A  
HETATM   18  N   UNL     1      -8.456   8.436  72.910  1.00  0.00    -0.341 NA 
HETATM   19  C   UNL     1      -8.082   9.325  70.697  1.00  0.00    -0.207 A  
HETATM   20  H2  UNL     1      -8.340   7.429  73.026  1.00  0.00     0.000 HD 
HETATM   21  H1  UNL     1      -7.621   8.885  73.287  1.00  0.00     0.000 HD 
BRANCH  15  22
HETATM   22  S   UNL     1     -11.235   7.201  72.139  1.00  0.00    -0.265 S  
HETATM   23  O   UNL     1     -11.165   5.788  71.817  1.00  0.00    -0.264 OA 
HETATM   24  O   UNL     1     -10.973   7.655  73.496  1.00  0.00    -0.326 OA 
BRANCH  22  25
HETATM   25  C   UNL     1     -12.825   7.823  71.641  1.00  0.00    -0.340 C  
HETATM   26  C   UNL     1     -13.074   9.201  72.236  1.00  0.00    -0.509 C  
ENDBRANCH  22  25
ENDBRANCH  15  22
BRANCH  16  27
HETATM   27  O   UNL     1      -7.456  10.197  68.649  1.00  0.00    -0.079 OA 
HETATM   28  C   UNL     1      -6.368   9.453  68.112  1.00  0.00    -0.054 C  
ENDBRANCH  16  27
ENDBRANCH  10  13
ENDBRANCH   8   9
ENDBRANCH   7   8
ENDBRANCH   2   3
TORSDOF 7
ENDMDL
MODEL       65
REMARK 921   NORMALIZED FREE ENERGY PREDICTED BY IDOCK:   -5.44 KCAL/MOL
REMARK 922        TOTAL FREE ENERGY PREDICTED BY IDOCK:   -8.69 KCAL/MOL
REMARK 923 INTER-LIGAND FREE ENERGY PREDICTED BY IDOCK:   -7.22 KCAL/MOL
REMARK 924 INTRA-LIGAND FREE ENERGY PREDICTED BY IDOCK:   -1.47 KCAL/MOL
REMARK 927      BINDING AFFINITY PREDICTED BY RF-SCORE:    0.00 PKD
ROOT
HETATM    1  C   UNL     1     -11.989  12.758  63.547  1.00  0.00    -0.633 C  
HETATM    2  C   UNL     1     -12.432  13.334  64.886  1.00  0.00    -0.409 C  
ENDROOT
BRANCH   2   3
HETATM    3  N   UNL     1     -11.308  13.759  65.731  1.00  0.00    -0.301 NA 
HETATM    4  C   UNL     1     -10.426  14.720  65.060  1.00  0.00    -0.416 C  
HETATM    5  C   UNL     1      -9.708  15.390  66.212  1.00  0.00    -0.325 C  
HETATM    6  C   UNL     1     -10.800  15.560  67.249  1.00  0.00    -0.313 C  
HETATM    7  C   UNL     1     -11.794  14.423  66.968  1.00  0.00    -0.412 C  
BRANCH   7   8
HETATM    8  C   UNL     1     -11.870  13.404  68.123  1.00  0.00    -0.361 C  
BRANCH   8   9
HETATM    9  N   UNL     1     -11.249  12.115  67.859  1.00  0.00    -0.252 N  
HETATM   10  C   UNL     1     -11.486  10.986  68.616  1.00  0.00    -0.308 C  
HETATM   11  H   UNL     1     -10.604  12.042  67.073  1.00  0.00     0.000 HD 
HETATM   12  O   UNL     1     -12.192  10.963  69.610  1.00  0.00    -0.328 OA 
BRANCH  10  13
HETATM   13  C   UNL     1     -10.756   9.770  68.160  1.00  0.00    -0.280 A  
HETATM   14  C   UNL     1     -10.643   8.733  69.108  1.00  0.00    -0.200 A  
HETATM   15  C   UNL     1      -9.979   7.541  68.806  1.00  0.00    -0.172 A  
HETATM   16  C   UNL     1     -10.258   9.565  66.869  1.00  0.00    -0.249 A  
HETATM   17  C   UNL     1      -9.410   7.344  67.546  1.00  0.00    -0.130 A  
HETATM   18  N   UNL     1      -8.854   6.121  67.140  1.00  0.00    -0.109 NA 
HETATM   19  C   UNL     1      -9.627   8.338  66.578  1.00  0.00    -0.312 A  
HETATM   20  H2  UNL     1      -9.569   5.404  67.267  1.00  0.00     0.000 HD 
HETATM   21  H1  UNL     1      -8.438   5.978  66.219  1.00  0.00     0.000 HD 
BRANCH  15  22
HETATM   22  S   UNL     1      -9.739   6.378  70.139  1.00  0.00    -0.167 S  
HETATM   23  O   UNL     1     -10.451   5.164  69.784  1.00  0.00    -0.285 OA 
HETATM   24  O   UNL     1      -8.308   6.336  70.399  1.00  0.00    -0.122 OA 
BRANCH  22  25
HETATM   25  C   UNL     1     -10.539   7.120  71.543  1.00  0.00    -0.207 C  
HETATM   26  C   UNL     1     -11.856   6.419  71.844  1.00  0.00    -0.380 C  
ENDBRANCH  22  25
ENDBRANCH  15  22
BRANCH  16  27
HETATM   27  O   UNL     1     -10.359  10.379  65.775  1.00  0.00    -0.248 OA 
HETATM   28  C   UNL     1      -9.517  10.110  64.659  1.00  0.00    -0.297 C  
ENDBRANCH  16  27
ENDBRANCH  10  13
ENDBRANCH   8   9
ENDBRANCH   7   8
ENDBRANCH   2   3
TORSDOF 7
ENDMDL
MODEL       66
REMARK 921   NORMALIZED FREE ENERGY PREDICTED BY IDOCK:   -5.43 KCAL/MOL
REMARK 922        TOTAL FREE ENERGY PREDICTED BY IDOCK:   -8.68 KCAL/MOL
REMARK 923 INTER-LIGAND FREE ENERGY PREDICTED BY IDOCK:   -7.25 KCAL/MOL
REMARK 924 INTRA-LIGAND FREE ENERGY PREDICTED BY IDOCK:   -1.43 KCAL/MOL
REMARK 927      BINDING AFFINITY PREDICTED BY RF-SCORE:    0.00 PKD
ROOT
HETATM    1  C   UNL     1     -10.870  16.124  65.009  1.00  0.00    -0.380 C  
HETATM    2  C   UNL     1      -9.743  15.489  65.813  1.00  0.00    -0.348 C  
ENDROOT
BRANCH   2   3
HETATM    3  N   UNL     1     -10.123  15.188  67.200  1.00  0.00    -0.238 NA 
HETATM    4  C   UNL     1     -11.054  16.174  67.758  1.00  0.00    -0.254 C  
HETATM    5  C   UNL     1     -11.693  15.428  68.911  1.00  0.00    -0.377 C  
HETATM    6  C   UNL     1     -11.897  14.035  68.351  1.00  0.00    -0.397 C  
HETATM    7  C   UNL     1     -10.798  13.868  67.291  1.00  0.00    -0.286 C  
BRANCH   7   8
HETATM    8  C   UNL     1      -9.778  12.773  67.664  1.00  0.00    -0.205 C  
BRANCH   8   9
HETATM    9  N   UNL     1     -10.183  11.884  68.740  1.00  0.00    -0.348 N  
HETATM   10  C   UNL     1     -10.595  10.582  68.540  1.00  0.00    -0.206 C  
HETATM   11  H   UNL     1     -10.163  12.241  69.695  1.00  0.00     0.000 HD 
HETATM   12  O   UNL     1     -10.712  10.063  67.443  1.00  0.00    -0.268 OA 
BRANCH  10  13
HETATM   13  C   UNL     1     -10.951   9.845  69.784  1.00  0.00    -0.304 A  
HETATM   14  C   UNL     1     -10.234   8.654  70.015  1.00  0.00    -0.201 A  
HETATM   15  C   UNL     1     -10.477   7.867  71.146  1.00  0.00    -0.204 A  
HETATM   16  C   UNL     1     -11.867  10.283  70.745  1.00  0.00    -0.365 A  
HETATM   17  C   UNL     1     -11.440   8.248  72.083  1.00  0.00    -0.361 A  
HETATM   18  N   UNL     1     -11.629   7.576  73.300  1.00  0.00    -0.617 NA 
HETATM   19  C   UNL     1     -12.065   9.492  71.896  1.00  0.00    -0.409 A  
HETATM   20  H2  UNL     1     -10.729   7.554  73.780  1.00  0.00     0.000 HD 
HETATM   21  H1  UNL     1     -12.333   7.855  73.985  1.00  0.00     0.000 HD 
BRANCH  15  22
HETATM   22  S   UNL     1      -9.642   6.292  71.240  1.00  0.00    -0.174 S  
HETATM   23  O   UNL     1      -8.614   6.410  72.258  1.00  0.00    -0.118 OA 
HETATM   24  O   UNL     1     -10.681   5.281  71.365  1.00  0.00    -0.211 OA 
BRANCH  22  25
HETATM   25  C   UNL     1      -8.859   6.093  69.656  1.00  0.00    -0.134 C  
HETATM   26  C   UNL     1      -9.723   5.247  68.732  1.00  0.00    -0.203 C  
ENDBRANCH  22  25
ENDBRANCH  15  22
BRANCH  16  27
HETATM   27  O   UNL     1     -12.579  11.450  70.780  1.00  0.00    -0.343 OA 
HETATM   28  C   UNL     1     -13.359  11.726  71.938  1.00  0.00    -0.296 C  
ENDBRANCH  16  27
ENDBRANCH  10  13
ENDBRANCH   8   9
ENDBRANCH   7   8
ENDBRANCH   2   3
TORSDOF 7
ENDMDL
MODEL       67
REMARK 921   NORMALIZED FREE ENERGY PREDICTED BY IDOCK:   -5.42 KCAL/MOL
REMARK 922        TOTAL FREE ENERGY PREDICTED BY IDOCK:   -8.65 KCAL/MOL
REMARK 923 INTER-LIGAND FREE ENERGY PREDICTED BY IDOCK:   -7.56 KCAL/MOL
REMARK 924 INTRA-LIGAND FREE ENERGY PREDICTED BY IDOCK:   -1.09 KCAL/MOL
REMARK 927      BINDING AFFINITY PREDICTED BY RF-SCORE:    0.00 PKD
ROOT
HETATM    1  C   UNL     1      -7.728   5.729  72.404  1.00  0.00    -0.102 C  
HETATM    2  C   UNL     1      -8.837   6.674  72.852  1.00  0.00    -0.125 C  
ENDROOT
BRANCH   2   3
HETATM    3  N   UNL     1      -9.549   7.299  71.729  1.00  0.00    -0.151 NA 
HETATM    4  C   UNL     1      -9.102   6.799  70.425  1.00  0.00    -0.153 C  
HETATM    5  C   UNL     1     -10.258   7.142  69.510  1.00  0.00    -0.201 C  
HETATM    6  C   UNL     1     -11.475   6.832  70.359  1.00  0.00    -0.419 C  
HETATM    7  C   UNL     1     -11.008   7.028  71.808  1.00  0.00    -0.234 C  
BRANCH   7   8
HETATM    8  C   UNL     1     -11.728   8.199  72.509  1.00  0.00    -0.394 C  
BRANCH   8   9
HETATM    9  N   UNL     1     -11.672   9.473  71.809  1.00  0.00    -0.383 N  
HETATM   10  C   UNL     1     -12.789  10.140  71.350  1.00  0.00    -0.428 C  
HETATM   11  H   UNL     1     -10.758   9.896  71.649  1.00  0.00     0.000 HD 
HETATM   12  O   UNL     1     -13.927   9.708  71.434  1.00  0.00    -0.202 OA 
BRANCH  10  13
HETATM   13  C   UNL     1     -12.504  11.436  70.674  1.00  0.00    -0.419 A  
HETATM   14  C   UNL     1     -11.928  11.342  69.391  1.00  0.00    -0.410 A  
HETATM   15  C   UNL     1     -11.608  12.486  68.652  1.00  0.00    -0.314 A  
HETATM   16  C   UNL     1     -12.828  12.698  71.181  1.00  0.00    -0.220 A  
HETATM   17  C   UNL     1     -11.856  13.758  69.170  1.00  0.00    -0.354 A  
HETATM   18  N   UNL     1     -11.686  14.934  68.423  1.00  0.00    -0.381 NA 
HETATM   19  C   UNL     1     -12.531  13.834  70.399  1.00  0.00    -0.384 A  
HETATM   20  H2  UNL     1     -12.239  14.838  67.571  1.00  0.00     0.000 HD 
HETATM   21  H1  UNL     1     -11.868  15.864  68.802  1.00  0.00     0.000 HD 
BRANCH  15  22
HETATM   22  S   UNL     1     -10.717  12.248  67.123  1.00  0.00    -0.240 S  
HETATM   23  O   UNL     1     -11.571  11.470  66.245  1.00  0.00    -0.382 OA 
HETATM   24  O   UNL     1     -10.249  13.562  66.710  1.00  0.00    -0.256 OA 
BRANCH  22  25
HETATM   25  C   UNL     1      -9.302  11.265  67.565  1.00  0.00    -0.162 C  
HETATM   26  C   UNL     1      -9.508   9.814  67.157  1.00  0.00    -0.189 C  
ENDBRANCH  22  25
ENDBRANCH  15  22
BRANCH  16  27
HETATM   27  O   UNL     1     -13.487  13.012  72.337  1.00  0.00    -0.567 OA 
HETATM   28  C   UNL     1     -13.627  14.387  72.678  1.00  0.00    -0.490 C  
ENDBRANCH  16  27
ENDBRANCH  10  13
ENDBRANCH   8   9
ENDBRANCH   7   8
ENDBRANCH   2   3
TORSDOF 7
ENDMDL
MODEL       68
REMARK 921   NORMALIZED FREE ENERGY PREDICTED BY IDOCK:   -5.41 KCAL/MOL
REMARK 922        TOTAL FREE ENERGY PREDICTED BY IDOCK:   -8.64 KCAL/MOL
REMARK 923 INTER-LIGAND FREE ENERGY PREDICTED BY IDOCK:   -7.39 KCAL/MOL
REMARK 924 INTRA-LIGAND FREE ENERGY PREDICTED BY IDOCK:   -1.25 KCAL/MOL
REMARK 927      BINDING AFFINITY PREDICTED BY RF-SCORE:    0.00 PKD
ROOT
HETATM    1  C   UNL     1      -9.926   4.500  71.379  1.00  0.00    -0.259 C  
HETATM    2  C   UNL     1     -10.729   5.794  71.347  1.00  0.00    -0.256 C  
ENDROOT
BRANCH   2   3
HETATM    3  N   UNL     1     -10.030   6.889  70.660  1.00  0.00    -0.187 NA 
HETATM    4  C   UNL     1      -9.317   6.441  69.460  1.00  0.00    -0.143 C  
HETATM    5  C   UNL     1      -9.143   7.719  68.667  1.00  0.00    -0.136 C  
HETATM    6  C   UNL     1     -10.467   8.430  68.861  1.00  0.00    -0.208 C  
HETATM    7  C   UNL     1     -10.987   7.936  70.219  1.00  0.00    -0.248 C  
BRANCH   7   8
HETATM    8  C   UNL     1     -11.065   9.063  71.269  1.00  0.00    -0.312 C  
BRANCH   8   9
HETATM    9  N   UNL     1     -11.109  10.413  70.732  1.00  0.00    -0.391 N  
HETATM   10  C   UNL     1     -12.168  11.277  70.928  1.00  0.00    -0.356 C  
HETATM   11  H   UNL     1     -10.316  10.740  70.181  1.00  0.00     0.000 HD 
HETATM   12  O   UNL     1     -13.192  10.981  71.520  1.00  0.00    -0.388 OA 
BRANCH  10  13
HETATM   13  C   UNL     1     -11.998  12.617  70.301  1.00  0.00    -0.363 A  
HETATM   14  C   UNL     1     -11.354  12.629  69.048  1.00  0.00    -0.345 A  
HETATM   15  C   UNL     1     -11.130  13.823  68.356  1.00  0.00    -0.263 A  
HETATM   16  C   UNL     1     -12.488  13.819  70.822  1.00  0.00    -0.370 A  
HETATM   17  C   UNL     1     -11.546  15.043  68.893  1.00  0.00    -0.326 A  
HETATM   18  N   UNL     1     -11.474  16.254  68.186  1.00  0.00    -0.257 NA 
HETATM   19  C   UNL     1     -12.285  15.004  70.086  1.00  0.00    -0.392 A  
HETATM   20  H2  UNL     1     -11.971  16.123  67.305  1.00  0.00     0.000 HD 
HETATM   21  H1  UNL     1     -11.778  17.145  68.578  1.00  0.00     0.000 HD 
BRANCH  15  22
HETATM   22  S   UNL     1     -10.144  13.735  66.870  1.00  0.00    -0.265 S  
HETATM   23  O   UNL     1     -10.972  14.210  65.776  1.00  0.00    -0.293 OA 
HETATM   24  O   UNL     1      -8.883  14.396  67.171  1.00  0.00    -0.206 OA 
BRANCH  22  25
HETATM   25  C   UNL     1      -9.824  12.002  66.634  1.00  0.00    -0.204 C  
HETATM   26  C   UNL     1     -10.665  11.450  65.492  1.00  0.00    -0.313 C  
ENDBRANCH  22  25
ENDBRANCH  15  22
BRANCH  16  27
HETATM   27  O   UNL     1     -13.234  14.020  71.951  1.00  0.00    -0.345 OA 
HETATM   28  C   UNL     1     -14.393  14.840  71.851  1.00  0.00    -0.570 C  
ENDBRANCH  16  27
ENDBRANCH  10  13
ENDBRANCH   8   9
ENDBRANCH   7   8
ENDBRANCH   2   3
TORSDOF 7
ENDMDL
MODEL       69
REMARK 921   NORMALIZED FREE ENERGY PREDICTED BY IDOCK:   -5.39 KCAL/MOL
REMARK 922        TOTAL FREE ENERGY PREDICTED BY IDOCK:   -8.62 KCAL/MOL
REMARK 923 INTER-LIGAND FREE ENERGY PREDICTED BY IDOCK:   -7.50 KCAL/MOL
REMARK 924 INTRA-LIGAND FREE ENERGY PREDICTED BY IDOCK:   -1.12 KCAL/MOL
REMARK 927      BINDING AFFINITY PREDICTED BY RF-SCORE:    0.00 PKD
ROOT
HETATM    1  C   UNL     1     -10.105  10.754  63.984  1.00  0.00    -0.410 C  
HETATM    2  C   UNL     1      -9.089   9.995  64.828  1.00  0.00    -0.224 C  
ENDROOT
BRANCH   2   3
HETATM    3  N   UNL     1      -9.710   9.042  65.758  1.00  0.00    -0.242 NA 
HETATM    4  C   UNL     1      -9.012   7.752  65.796  1.00  0.00    -0.066 C  
HETATM    5  C   UNL     1      -9.452   7.163  67.119  1.00  0.00    -0.180 C  
HETATM    6  C   UNL     1      -9.439   8.357  68.052  1.00  0.00    -0.157 C  
HETATM    7  C   UNL     1      -9.698   9.570  67.146  1.00  0.00    -0.171 C  
BRANCH   7   8
HETATM    8  C   UNL     1     -11.038  10.267  67.460  1.00  0.00    -0.232 C  
BRANCH   8   9
HETATM    9  N   UNL     1     -10.932  11.642  67.924  1.00  0.00    -0.211 N  
HETATM   10  C   UNL     1     -11.559  12.705  67.306  1.00  0.00    -0.364 C  
HETATM   11  H   UNL     1     -10.365  11.830  68.749  1.00  0.00     0.000 HD 
HETATM   12  O   UNL     1     -12.217  12.612  66.284  1.00  0.00    -0.562 OA 
BRANCH  10  13
HETATM   13  C   UNL     1     -11.326  14.024  67.957  1.00  0.00    -0.320 A  
HETATM   14  C   UNL     1     -10.663  14.986  67.169  1.00  0.00    -0.303 A  
HETATM   15  C   UNL     1     -10.381  16.263  67.665  1.00  0.00    -0.284 A  
HETATM   16  C   UNL     1     -11.775  14.385  69.232  1.00  0.00    -0.317 A  
HETATM   17  C   UNL     1     -10.756  16.621  68.961  1.00  0.00    -0.343 A  
HETATM   18  N   UNL     1     -10.625  17.925  69.463  1.00  0.00    -0.203 NA 
HETATM   19  C   UNL     1     -11.513  15.692  69.693  1.00  0.00    -0.345 A  
HETATM   20  H2  UNL     1     -11.113  18.549  68.821  1.00  0.00     0.000 HD 
HETATM   21  H1  UNL     1     -10.899  18.186  70.411  1.00  0.00     0.000 HD 
BRANCH  15  22
HETATM   22  S   UNL     1      -9.377  17.332  66.646  1.00  0.00    -0.270 S  
HETATM   23  O   UNL     1      -8.492  18.065  67.533  1.00  0.00    -0.233 OA 
HETATM   24  O   UNL     1      -8.825  16.497  65.590  1.00  0.00    -0.428 OA 
BRANCH  22  25
HETATM   25  C   UNL     1     -10.525  18.474  65.911  1.00  0.00    -0.347 C  
HETATM   26  C   UNL     1     -10.420  19.841  66.570  1.00  0.00    -0.615 C  
ENDBRANCH  22  25
ENDBRANCH  15  22
BRANCH  16  27
HETATM   27  O   UNL     1     -12.530  13.657  70.110  1.00  0.00    -0.308 OA 
HETATM   28  C   UNL     1     -12.747  14.192  71.411  1.00  0.00    -0.364 C  
ENDBRANCH  16  27
ENDBRANCH  10  13
ENDBRANCH   8   9
ENDBRANCH   7   8
ENDBRANCH   2   3
TORSDOF 7
ENDMDL
MODEL       70
REMARK 921   NORMALIZED FREE ENERGY PREDICTED BY IDOCK:   -5.38 KCAL/MOL
REMARK 922        TOTAL FREE ENERGY PREDICTED BY IDOCK:   -8.61 KCAL/MOL
REMARK 923 INTER-LIGAND FREE ENERGY PREDICTED BY IDOCK:   -7.24 KCAL/MOL
REMARK 924 INTRA-LIGAND FREE ENERGY PREDICTED BY IDOCK:   -1.37 KCAL/MOL
REMARK 927      BINDING AFFINITY PREDICTED BY RF-SCORE:    0.00 PKD
ROOT
HETATM    1  C   UNL     1      -7.366   7.539  72.443  1.00  0.00    -0.079 C  
HETATM    2  C   UNL     1      -8.883   7.519  72.298  1.00  0.00    -0.129 C  
ENDROOT
BRANCH   2   3
HETATM    3  N   UNL     1      -9.327   7.290  70.917  1.00  0.00    -0.159 NA 
HETATM    4  C   UNL     1      -8.810   6.038  70.356  1.00  0.00    -0.148 C  
HETATM    5  C   UNL     1      -9.763   5.753  69.214  1.00  0.00    -0.188 C  
HETATM    6  C   UNL     1     -11.113   6.132  69.788  1.00  0.00    -0.486 C  
HETATM    7  C   UNL     1     -10.809   7.207  70.842  1.00  0.00    -0.244 C  
BRANCH   7   8
HETATM    8  C   UNL     1     -11.400   8.583  70.472  1.00  0.00    -0.217 C  
BRANCH   8   9
HETATM    9  N   UNL     1     -11.204   8.994  69.091  1.00  0.00    -0.430 N  
HETATM   10  C   UNL     1     -10.591  10.176  68.727  1.00  0.00    -0.213 C  
HETATM   11  H   UNL     1     -11.537   8.377  68.351  1.00  0.00     0.000 HD 
HETATM   12  O   UNL     1     -10.202  11.017  69.519  1.00  0.00    -0.139 OA 
BRANCH  10  13
HETATM   13  C   UNL     1     -10.482  10.391  67.257  1.00  0.00    -0.304 A  
HETATM   14  C   UNL     1     -10.929  11.642  66.788  1.00  0.00    -0.341 A  
HETATM   15  C   UNL     1     -10.883  11.968  65.429  1.00  0.00    -0.291 A  
HETATM   16  C   UNL     1      -9.913   9.490  66.351  1.00  0.00    -0.269 A  
HETATM   17  C   UNL     1     -10.386  11.055  64.496  1.00  0.00    -0.354 A  
HETATM   18  N   UNL     1     -10.188  11.374  63.144  1.00  0.00    -0.574 NA 
HETATM   19  C   UNL     1      -9.843   9.858  64.991  1.00  0.00    -0.323 A  
HETATM   20  H2  UNL     1      -9.590  12.200  63.110  1.00  0.00     0.000 HD 
HETATM   21  H1  UNL     1      -9.825  10.707  62.463  1.00  0.00     0.000 HD 
BRANCH  15  22
HETATM   22  S   UNL     1     -11.643  13.504  64.930  1.00  0.00    -0.352 S  
HETATM   23  O   UNL     1     -10.599  14.334  64.357  1.00  0.00    -0.311 OA 
HETATM   24  O   UNL     1     -12.811  13.149  64.138  1.00  0.00    -0.651 OA 
BRANCH  22  25
HETATM   25  C   UNL     1     -12.202  14.252  66.444  1.00  0.00    -0.401 C  
HETATM   26  C   UNL     1     -11.130  15.165  67.019  1.00  0.00    -0.328 C  
ENDBRANCH  22  25
ENDBRANCH  15  22
BRANCH  16  27
HETATM   27  O   UNL     1      -9.320   8.284  66.602  1.00  0.00    -0.166 OA 
HETATM   28  C   UNL     1      -8.391   7.783  65.648  1.00  0.00    -0.139 C  
ENDBRANCH  16  27
ENDBRANCH  10  13
ENDBRANCH   8   9
ENDBRANCH   7   8
ENDBRANCH   2   3
TORSDOF 7
ENDMDL
MODEL       71
REMARK 921   NORMALIZED FREE ENERGY PREDICTED BY IDOCK:   -5.35 KCAL/MOL
REMARK 922        TOTAL FREE ENERGY PREDICTED BY IDOCK:   -8.56 KCAL/MOL
REMARK 923 INTER-LIGAND FREE ENERGY PREDICTED BY IDOCK:   -7.67 KCAL/MOL
REMARK 924 INTRA-LIGAND FREE ENERGY PREDICTED BY IDOCK:   -0.89 KCAL/MOL
REMARK 927      BINDING AFFINITY PREDICTED BY RF-SCORE:    0.00 PKD
ROOT
HETATM    1  C   UNL     1      -9.318   8.168  72.290  1.00  0.00    -0.290 C  
HETATM    2  C   UNL     1      -9.917   8.987  71.154  1.00  0.00    -0.295 C  
ENDROOT
BRANCH   2   3
HETATM    3  N   UNL     1     -11.329   8.671  70.898  1.00  0.00    -0.268 NA 
HETATM    4  C   UNL     1     -11.681   7.299  71.279  1.00  0.00    -0.296 C  
HETATM    5  C   UNL     1     -13.186   7.361  71.435  1.00  0.00    -0.395 C  
HETATM    6  C   UNL     1     -13.409   8.697  72.114  1.00  0.00    -0.431 C  
HETATM    7  C   UNL     1     -12.223   9.568  71.675  1.00  0.00    -0.398 C  
BRANCH   7   8
HETATM    8  C   UNL     1     -12.658  10.766  70.806  1.00  0.00    -0.383 C  
BRANCH   8   9
HETATM    9  N   UNL     1     -12.172  10.752  69.435  1.00  0.00    -0.522 N  
HETATM   10  C   UNL     1     -11.846  11.892  68.730  1.00  0.00    -0.313 C  
HETATM   11  H   UNL     1     -12.065   9.850  68.971  1.00  0.00     0.000 HD 
HETATM   12  O   UNL     1     -11.983  13.025  69.159  1.00  0.00    -0.303 OA 
BRANCH  10  13
HETATM   13  C   UNL     1     -11.354  11.645  67.346  1.00  0.00    -0.367 A  
HETATM   14  C   UNL     1     -10.581  10.480  67.171  1.00  0.00    -0.319 A  
HETATM   15  C   UNL     1     -10.056  10.136  65.921  1.00  0.00    -0.254 A  
HETATM   16  C   UNL     1     -11.661  12.429  66.229  1.00  0.00    -0.393 A  
HETATM   17  C   UNL     1     -10.289  10.944  64.806  1.00  0.00    -0.323 A  
HETATM   18  N   UNL     1      -9.907  10.580  63.506  1.00  0.00    -0.411 NA 
HETATM   19  C   UNL     1     -11.152  12.039  64.973  1.00  0.00    -0.368 A  
HETATM   20  H2  UNL     1     -10.317   9.666  63.311  1.00  0.00     0.000 HD 
HETATM   21  H1  UNL     1     -10.079  11.171  62.691  1.00  0.00     0.000 HD 
BRANCH  15  22
HETATM   22  S   UNL     1      -8.943   8.741  65.857  1.00  0.00    -0.203 S  
HETATM   23  O   UNL     1      -9.364   7.808  66.886  1.00  0.00    -0.150 OA 
HETATM   24  O   UNL     1      -8.890   8.319  64.466  1.00  0.00     0.065 OA 
BRANCH  22  25
HETATM   25  C   UNL     1      -7.353   9.402  66.301  1.00  0.00    -0.096 C  
HETATM   26  C   UNL     1      -6.624   9.920  65.069  1.00  0.00    -0.110 C  
ENDBRANCH  22  25
ENDBRANCH  15  22
BRANCH  16  27
HETATM   27  O   UNL     1     -12.478  13.523  66.151  1.00  0.00    -0.417 OA 
HETATM   28  C   UNL     1     -12.393  14.340  64.989  1.00  0.00    -0.428 C  
ENDBRANCH  16  27
ENDBRANCH  10  13
ENDBRANCH   8   9
ENDBRANCH   7   8
ENDBRANCH   2   3
TORSDOF 7
ENDMDL
MODEL       72
REMARK 921   NORMALIZED FREE ENERGY PREDICTED BY IDOCK:   -5.33 KCAL/MOL
REMARK 922        TOTAL FREE ENERGY PREDICTED BY IDOCK:   -8.53 KCAL/MOL
REMARK 923 INTER-LIGAND FREE ENERGY PREDICTED BY IDOCK:   -7.35 KCAL/MOL
REMARK 924 INTRA-LIGAND FREE ENERGY PREDICTED BY IDOCK:   -1.18 KCAL/MOL
REMARK 927      BINDING AFFINITY PREDICTED BY RF-SCORE:    0.00 PKD
ROOT
HETATM    1  C   UNL     1      -9.304   5.621  70.603  1.00  0.00    -0.191 C  
HETATM    2  C   UNL     1     -10.169   6.376  69.600  1.00  0.00    -0.189 C  
ENDROOT
BRANCH   2   3
HETATM    3  N   UNL     1      -9.960   7.830  69.638  1.00  0.00    -0.186 NA 
HETATM    4  C   UNL     1      -8.923   8.228  70.596  1.00  0.00    -0.151 C  
HETATM    5  C   UNL     1      -8.516   9.603  70.109  1.00  0.00    -0.231 C  
HETATM    6  C   UNL     1      -8.507   9.448  68.602  1.00  0.00    -0.119 C  
HETATM    7  C   UNL     1      -9.528   8.339  68.311  1.00  0.00    -0.138 C  
BRANCH   7   8
HETATM    8  C   UNL     1     -10.747   8.850  67.516  1.00  0.00    -0.152 C  
BRANCH   8   9
HETATM    9  N   UNL     1     -10.639  10.211  67.016  1.00  0.00    -0.242 N  
HETATM   10  C   UNL     1     -11.338  11.276  67.545  1.00  0.00    -0.288 C  
HETATM   11  H   UNL     1     -10.012  10.389  66.231  1.00  0.00     0.000 HD 
HETATM   12  O   UNL     1     -12.156  11.179  68.445  1.00  0.00    -0.605 OA 
BRANCH  10  13
HETATM   13  C   UNL     1     -11.065  12.585  66.889  1.00  0.00    -0.323 A  
HETATM   14  C   UNL     1     -10.853  13.672  67.761  1.00  0.00    -0.266 A  
HETATM   15  C   UNL     1     -10.590  14.956  67.271  1.00  0.00    -0.272 A  
HETATM   16  C   UNL     1     -10.935  12.785  65.511  1.00  0.00    -0.280 A  
HETATM   17  C   UNL     1     -10.528  15.193  65.897  1.00  0.00    -0.336 A  
HETATM   18  N   UNL     1     -10.133  16.424  65.350  1.00  0.00    -0.563 NA 
HETATM   19  C   UNL     1     -10.630  14.081  65.045  1.00  0.00    -0.426 A  
HETATM   20  H2  UNL     1      -9.218  16.652  65.741  1.00  0.00     0.000 HD 
HETATM   21  H1  UNL     1     -10.087  16.597  64.345  1.00  0.00     0.000 HD 
BRANCH  15  22
HETATM   22  S   UNL     1     -10.520  16.286  68.460  1.00  0.00    -0.296 S  
HETATM   23  O   UNL     1      -9.296  16.117  69.222  1.00  0.00    -0.250 OA 
HETATM   24  O   UNL     1     -10.755  17.515  67.719  1.00  0.00    -0.380 OA 
BRANCH  22  25
HETATM   25  C   UNL     1     -11.907  16.010  69.538  1.00  0.00    -0.237 C  
HETATM   26  C   UNL     1     -11.436  15.612  70.929  1.00  0.00    -0.425 C  
ENDBRANCH  22  25
ENDBRANCH  15  22
BRANCH  16  27
HETATM   27  O   UNL     1     -10.985  11.861  64.505  1.00  0.00    -0.296 OA 
HETATM   28  C   UNL     1     -12.012  11.989  63.528  1.00  0.00    -0.507 C  
ENDBRANCH  16  27
ENDBRANCH  10  13
ENDBRANCH   8   9
ENDBRANCH   7   8
ENDBRANCH   2   3
TORSDOF 7
ENDMDL
MODEL       73
REMARK 921   NORMALIZED FREE ENERGY PREDICTED BY IDOCK:   -5.33 KCAL/MOL
REMARK 922        TOTAL FREE ENERGY PREDICTED BY IDOCK:   -8.53 KCAL/MOL
REMARK 923 INTER-LIGAND FREE ENERGY PREDICTED BY IDOCK:   -7.44 KCAL/MOL
REMARK 924 INTRA-LIGAND FREE ENERGY PREDICTED BY IDOCK:   -1.09 KCAL/MOL
REMARK 927      BINDING AFFINITY PREDICTED BY RF-SCORE:    0.00 PKD
ROOT
HETATM    1  C   UNL     1      -9.239   4.381  70.889  1.00  0.00    -0.202 C  
HETATM    2  C   UNL     1      -9.039   5.861  71.191  1.00  0.00    -0.143 C  
ENDROOT
BRANCH   2   3
HETATM    3  N   UNL     1     -10.245   6.666  70.953  1.00  0.00    -0.195 NA 
HETATM    4  C   UNL     1     -11.463   5.852  70.879  1.00  0.00    -0.052 C  
HETATM    5  C   UNL     1     -12.563   6.855  71.160  1.00  0.00    -0.366 C  
HETATM    6  C   UNL     1     -11.975   7.713  72.262  1.00  0.00    -0.329 C  
HETATM    7  C   UNL     1     -10.456   7.644  72.051  1.00  0.00    -0.213 C  
BRANCH   7   8
HETATM    8  C   UNL     1      -9.849   9.010  71.668  1.00  0.00    -0.296 C  
BRANCH   8   9
HETATM    9  N   UNL     1      -9.906   9.343  70.254  1.00  0.00    -0.226 N  
HETATM   10  C   UNL     1     -10.971   9.994  69.666  1.00  0.00    -0.264 C  
HETATM   11  H   UNL     1      -9.116   9.082  69.664  1.00  0.00     0.000 HD 
HETATM   12  O   UNL     1     -11.992  10.307  70.255  1.00  0.00    -0.264 OA 
BRANCH  10  13
HETATM   13  C   UNL     1     -10.814  10.248  68.207  1.00  0.00    -0.300 A  
HETATM   14  C   UNL     1     -11.279  11.498  67.751  1.00  0.00    -0.343 A  
HETATM   15  C   UNL     1     -11.193  11.858  66.402  1.00  0.00    -0.331 A  
HETATM   16  C   UNL     1     -10.187   9.387  67.301  1.00  0.00    -0.246 A  
HETATM   17  C   UNL     1     -10.636  10.983  65.468  1.00  0.00    -0.200 A  
HETATM   18  N   UNL     1     -10.397  11.341  64.132  1.00  0.00    -0.322 NA 
HETATM   19  C   UNL     1     -10.077   9.790  65.954  1.00  0.00    -0.314 A  
HETATM   20  H2  UNL     1      -9.823  12.184  64.140  1.00  0.00     0.000 HD 
HETATM   21  H1  UNL     1      -9.990  10.701  63.449  1.00  0.00     0.000 HD 
BRANCH  15  22
HETATM   22  S   UNL     1     -11.978  13.385  65.912  1.00  0.00    -0.434 S  
HETATM   23  O   UNL     1     -13.050  13.042  64.995  1.00  0.00    -0.761 OA 
HETATM   24  O   UNL     1     -12.271  14.111  67.138  1.00  0.00    -0.421 OA 
BRANCH  22  25
HETATM   25  C   UNL     1     -10.726  14.278  65.020  1.00  0.00    -0.420 C  
HETATM   26  C   UNL     1     -11.105  15.746  64.887  1.00  0.00    -0.411 C  
ENDBRANCH  22  25
ENDBRANCH  15  22
BRANCH  16  27
HETATM   27  O   UNL     1      -9.569   8.192  67.546  1.00  0.00    -0.148 OA 
HETATM   28  C   UNL     1     -10.314   6.997  67.341  1.00  0.00    -0.244 C  
ENDBRANCH  16  27
ENDBRANCH  10  13
ENDBRANCH   8   9
ENDBRANCH   7   8
ENDBRANCH   2   3
TORSDOF 7
ENDMDL
MODEL       74
REMARK 921   NORMALIZED FREE ENERGY PREDICTED BY IDOCK:   -5.33 KCAL/MOL
REMARK 922        TOTAL FREE ENERGY PREDICTED BY IDOCK:   -8.53 KCAL/MOL
REMARK 923 INTER-LIGAND FREE ENERGY PREDICTED BY IDOCK:   -7.25 KCAL/MOL
REMARK 924 INTRA-LIGAND FREE ENERGY PREDICTED BY IDOCK:   -1.28 KCAL/MOL
REMARK 927      BINDING AFFINITY PREDICTED BY RF-SCORE:    0.00 PKD
ROOT
HETATM    1  C   UNL     1     -10.159   9.318  66.002  1.00  0.00    -0.262 C  
HETATM    2  C   UNL     1      -9.130   9.862  65.018  1.00  0.00    -0.218 C  
ENDROOT
BRANCH   2   3
HETATM    3  N   UNL     1      -9.436  11.224  64.559  1.00  0.00    -0.215 NA 
HETATM    4  C   UNL     1     -10.400  11.246  63.454  1.00  0.00    -0.391 C  
HETATM    5  C   UNL     1     -10.948  12.657  63.504  1.00  0.00    -0.413 C  
HETATM    6  C   UNL     1     -11.093  12.919  64.989  1.00  0.00    -0.320 C  
HETATM    7  C   UNL     1     -10.030  12.032  65.654  1.00  0.00    -0.245 C  
BRANCH   7   8
HETATM    8  C   UNL     1      -8.933  12.854  66.362  1.00  0.00    -0.005 C  
BRANCH   8   9
HETATM    9  N   UNL     1      -9.190  14.282  66.461  1.00  0.00    -0.394 N  
HETATM   10  C   UNL     1      -8.277  15.189  66.958  1.00  0.00    -0.228 C  
HETATM   11  H   UNL     1     -10.094  14.633  66.146  1.00  0.00     0.000 HD 
HETATM   12  O   UNL     1      -7.188  14.883  67.414  1.00  0.00    -0.194 OA 
BRANCH  10  13
HETATM   13  C   UNL     1      -8.742  16.604  66.954  1.00  0.00    -0.241 A  
HETATM   14  C   UNL     1      -7.749  17.573  66.706  1.00  0.00    -0.264 A  
HETATM   15  C   UNL     1      -8.056  18.937  66.679  1.00  0.00    -0.280 A  
HETATM   16  C   UNL     1     -10.070  17.016  67.102  1.00  0.00    -0.292 A  
HETATM   17  C   UNL     1      -9.363  19.376  66.896  1.00  0.00    -0.329 A  
HETATM   18  N   UNL     1      -9.755  20.715  66.745  1.00  0.00    -0.655 NA 
HETATM   19  C   UNL     1     -10.359  18.395  67.031  1.00  0.00    -0.419 A  
HETATM   20  H2  UNL     1      -9.487  21.007  65.805  1.00  0.00     0.000 HD 
HETATM   21  H1  UNL     1     -10.711  21.035  66.904  1.00  0.00     0.000 HD 
BRANCH  15  22
HETATM   22  S   UNL     1      -6.690  20.079  66.538  1.00  0.00    -0.220 S  
HETATM   23  O   UNL     1      -7.060  21.283  67.260  1.00  0.00    -0.522 OA 
HETATM   24  O   UNL     1      -5.494  19.340  66.914  1.00  0.00    -0.164 OA 
BRANCH  22  25
HETATM   25  C   UNL     1      -6.588  20.459  64.804  1.00  0.00    -0.270 C  
HETATM   26  C   UNL     1      -5.193  20.947  64.443  1.00  0.00    -0.234 C  
ENDBRANCH  22  25
ENDBRANCH  15  22
BRANCH  16  27
HETATM   27  O   UNL     1     -11.194  16.248  67.234  1.00  0.00    -0.128 OA 
HETATM   28  C   UNL     1     -11.654  15.955  68.549  1.00  0.00    -0.349 C  
ENDBRANCH  16  27
ENDBRANCH  10  13
ENDBRANCH   8   9
ENDBRANCH   7   8
ENDBRANCH   2   3
TORSDOF 7
ENDMDL
MODEL       75
REMARK 921   NORMALIZED FREE ENERGY PREDICTED BY IDOCK:   -5.29 KCAL/MOL
REMARK 922        TOTAL FREE ENERGY PREDICTED BY IDOCK:   -8.48 KCAL/MOL
REMARK 923 INTER-LIGAND FREE ENERGY PREDICTED BY IDOCK:   -7.34 KCAL/MOL
REMARK 924 INTRA-LIGAND FREE ENERGY PREDICTED BY IDOCK:   -1.14 KCAL/MOL
REMARK 927      BINDING AFFINITY PREDICTED BY RF-SCORE:    0.00 PKD
ROOT
HETATM    1  C   UNL     1      -8.420   6.117  66.167  1.00  0.00    -0.137 C  
HETATM    2  C   UNL     1      -8.235   7.117  67.302  1.00  0.00    -0.119 C  
ENDROOT
BRANCH   2   3
HETATM    3  N   UNL     1      -9.129   8.278  67.198  1.00  0.00    -0.136 NA 
HETATM    4  C   UNL     1     -10.512   7.963  67.572  1.00  0.00    -0.262 C  
HETATM    5  C   UNL     1     -11.097   9.321  67.899  1.00  0.00     0.068 C  
HETATM    6  C   UNL     1      -9.972  10.012  68.643  1.00  0.00    -0.176 C  
HETATM    7  C   UNL     1      -8.686   9.372  68.101  1.00  0.00    -0.124 C  
BRANCH   7   8
HETATM    8  C   UNL     1      -7.806  10.375  67.327  1.00  0.00    -0.106 C  
BRANCH   8   9
HETATM    9  N   UNL     1      -8.521  11.471  66.692  1.00  0.00    -0.171 N  
HETATM   10  C   UNL     1      -8.604  12.739  67.228  1.00  0.00    -0.197 C  
HETATM   11  H   UNL     1      -8.987  11.292  65.803  1.00  0.00     0.000 HD 
HETATM   12  O   UNL     1      -8.136  13.058  68.308  1.00  0.00    -0.143 OA 
BRANCH  10  13
HETATM   13  C   UNL     1      -9.374  13.712  66.404  1.00  0.00    -0.203 A  
HETATM   14  C   UNL     1      -9.078  15.071  66.628  1.00  0.00    -0.309 A  
HETATM   15  C   UNL     1      -9.734  16.084  65.921  1.00  0.00    -0.343 A  
HETATM   16  C   UNL     1     -10.287  13.373  65.400  1.00  0.00    -0.312 A  
HETATM   17  C   UNL     1     -10.703  15.771  64.965  1.00  0.00    -0.421 A  
HETATM   18  N   UNL     1     -11.292  16.732  64.130  1.00  0.00    -1.400 NA 
HETATM   19  C   UNL     1     -10.906  14.412  64.674  1.00  0.00    -0.363 A  
HETATM   20  H2  UNL     1     -10.538  17.223  63.650  1.00  0.00     0.000 HD 
HETATM   21  H1  UNL     1     -12.000  16.503  63.432  1.00  0.00     0.000 HD 
BRANCH  15  22
HETATM   22  S   UNL     1      -9.411  17.768  66.418  1.00  0.00    -0.233 S  
HETATM   23  O   UNL     1      -8.185  18.183  65.761  1.00  0.00    -0.509 OA 
HETATM   24  O   UNL     1     -10.644  18.508  66.195  1.00  0.00    -0.424 OA 
BRANCH  22  25
HETATM   25  C   UNL     1      -9.121  17.682  68.170  1.00  0.00    -0.276 C  
HETATM   26  C   UNL     1     -10.423  17.439  68.919  1.00  0.00    -0.312 C  
ENDBRANCH  22  25
ENDBRANCH  15  22
BRANCH  16  27
HETATM   27  O   UNL     1     -10.633  12.132  64.942  1.00  0.00    -0.272 OA 
HETATM   28  C   UNL     1     -10.498  11.869  63.550  1.00  0.00    -0.459 C  
ENDBRANCH  16  27
ENDBRANCH  10  13
ENDBRANCH   8   9
ENDBRANCH   7   8
ENDBRANCH   2   3
TORSDOF 7
ENDMDL
MODEL       76
REMARK 921   NORMALIZED FREE ENERGY PREDICTED BY IDOCK:   -5.29 KCAL/MOL
REMARK 922        TOTAL FREE ENERGY PREDICTED BY IDOCK:   -8.48 KCAL/MOL
REMARK 923 INTER-LIGAND FREE ENERGY PREDICTED BY IDOCK:   -7.17 KCAL/MOL
REMARK 924 INTRA-LIGAND FREE ENERGY PREDICTED BY IDOCK:   -1.30 KCAL/MOL
REMARK 927      BINDING AFFINITY PREDICTED BY RF-SCORE:    0.00 PKD
ROOT
HETATM    1  C   UNL     1     -10.618   8.076  67.076  1.00  0.00    -0.364 C  
HETATM    2  C   UNL     1      -9.484   8.674  66.251  1.00  0.00    -0.241 C  
ENDROOT
BRANCH   2   3
HETATM    3  N   UNL     1      -9.626  10.121  66.040  1.00  0.00    -0.195 NA 
HETATM    4  C   UNL     1     -10.156  10.451  64.714  1.00  0.00    -0.317 C  
HETATM    5  C   UNL     1     -10.698  11.853  64.900  1.00  0.00    -0.350 C  
HETATM    6  C   UNL     1     -11.342  11.796  66.270  1.00  0.00    -0.350 C  
HETATM    7  C   UNL     1     -10.562  10.713  67.030  1.00  0.00    -0.262 C  
BRANCH   7   8
HETATM    8  C   UNL     1      -9.777  11.281  68.231  1.00  0.00    -0.198 C  
BRANCH   8   9
HETATM    9  N   UNL     1      -9.913  12.713  68.443  1.00  0.00    -0.265 N  
HETATM   10  C   UNL     1      -8.987  13.639  68.008  1.00  0.00    -0.188 C  
HETATM   11  H   UNL     1     -10.737  13.051  68.939  1.00  0.00     0.000 HD 
HETATM   12  O   UNL     1      -7.940  13.352  67.454  1.00  0.00    -0.167 OA 
BRANCH  10  13
HETATM   13  C   UNL     1      -9.333  15.054  68.319  1.00  0.00    -0.192 A  
HETATM   14  C   UNL     1      -8.743  16.024  67.484  1.00  0.00    -0.193 A  
HETATM   15  C   UNL     1      -8.984  17.389  67.673  1.00  0.00    -0.233 A  
HETATM   16  C   UNL     1     -10.233  15.466  69.306  1.00  0.00    -0.250 A  
HETATM   17  C   UNL     1      -9.824  17.827  68.699  1.00  0.00    -0.359 A  
HETATM   18  N   UNL     1     -10.211  19.167  68.851  1.00  0.00    -0.534 NA 
HETATM   19  C   UNL     1     -10.490  16.845  69.451  1.00  0.00    -0.283 A  
HETATM   20  H2  UNL     1     -10.626  19.467  67.969  1.00  0.00     0.000 HD 
HETATM   21  H1  UNL     1     -10.825  19.487  69.601  1.00  0.00     0.000 HD 
BRANCH  15  22
HETATM   22  S   UNL     1      -8.042  18.531  66.675  1.00  0.00    -0.272 S  
HETATM   23  O   UNL     1      -7.466  17.772  65.581  1.00  0.00    -0.533 OA 
HETATM   24  O   UNL     1      -8.920  19.658  66.398  1.00  0.00    -0.349 OA 
BRANCH  22  25
HETATM   25  C   UNL     1      -6.730  19.094  67.735  1.00  0.00    -0.209 C  
HETATM   26  C   UNL     1      -6.881  20.578  68.035  1.00  0.00    -0.316 C  
ENDBRANCH  22  25
ENDBRANCH  15  22
BRANCH  16  27
HETATM   27  O   UNL     1     -10.996  14.698  70.142  1.00  0.00    -0.188 OA 
HETATM   28  C   UNL     1     -12.226  15.238  70.613  1.00  0.00    -0.364 C  
ENDBRANCH  16  27
ENDBRANCH  10  13
ENDBRANCH   8   9
ENDBRANCH   7   8
ENDBRANCH   2   3
TORSDOF 7
ENDMDL
MODEL       77
REMARK 921   NORMALIZED FREE ENERGY PREDICTED BY IDOCK:   -5.26 KCAL/MOL
REMARK 922        TOTAL FREE ENERGY PREDICTED BY IDOCK:   -8.44 KCAL/MOL
REMARK 923 INTER-LIGAND FREE ENERGY PREDICTED BY IDOCK:   -7.23 KCAL/MOL
REMARK 924 INTRA-LIGAND FREE ENERGY PREDICTED BY IDOCK:   -1.21 KCAL/MOL
REMARK 927      BINDING AFFINITY PREDICTED BY RF-SCORE:    0.00 PKD
ROOT
HETATM    1  C   UNL     1      -8.977  15.375  69.491  1.00  0.00    -0.229 C  
HETATM    2  C   UNL     1     -10.392  15.931  69.593  1.00  0.00    -0.299 C  
ENDROOT
BRANCH   2   3
HETATM    3  N   UNL     1     -10.850  16.573  68.354  1.00  0.00    -0.335 NA 
HETATM    4  C   UNL     1     -10.392  17.961  68.233  1.00  0.00    -0.383 C  
HETATM    5  C   UNL     1     -10.503  18.231  66.747  1.00  0.00    -0.387 C  
HETATM    6  C   UNL     1     -10.017  16.938  66.123  1.00  0.00    -0.332 C  
HETATM    7  C   UNL     1     -10.336  15.852  67.161  1.00  0.00    -0.300 C  
BRANCH   7   8
HETATM    8  C   UNL     1     -11.388  14.843  66.656  1.00  0.00    -0.326 C  
BRANCH   8   9
HETATM    9  N   UNL     1     -10.899  13.491  66.434  1.00  0.00    -0.289 N  
HETATM   10  C   UNL     1     -11.365  12.389  67.121  1.00  0.00    -0.329 C  
HETATM   11  H   UNL     1     -10.172  13.350  65.733  1.00  0.00     0.000 HD 
HETATM   12  O   UNL     1     -12.191  12.440  68.017  1.00  0.00    -0.356 OA 
BRANCH  10  13
HETATM   13  C   UNL     1     -10.735  11.099  66.724  1.00  0.00    -0.326 A  
HETATM   14  C   UNL     1     -10.892  10.037  67.637  1.00  0.00    -0.336 A  
HETATM   15  C   UNL     1     -10.345   8.775  67.384  1.00  0.00    -0.280 A  
HETATM   16  C   UNL     1     -10.084  10.860  65.510  1.00  0.00    -0.267 A  
HETATM   17  C   UNL     1      -9.628   8.533  66.211  1.00  0.00    -0.236 A  
HETATM   18  N   UNL     1      -9.177   7.257  65.839  1.00  0.00    -0.379 NA 
HETATM   19  C   UNL     1      -9.576   9.568  65.262  1.00  0.00    -0.314 A  
HETATM   20  H2  UNL     1      -9.986   6.636  65.835  1.00  0.00     0.000 HD 
HETATM   21  H1  UNL     1      -8.653   7.081  64.981  1.00  0.00     0.000 HD 
BRANCH  15  22
HETATM   22  S   UNL     1     -10.449   7.562  68.691  1.00  0.00    -0.151 S  
HETATM   23  O   UNL     1     -11.085   8.206  69.826  1.00  0.00    -0.183 OA 
HETATM   24  O   UNL     1     -11.041   6.371  68.102  1.00  0.00    -0.311 OA 
BRANCH  22  25
HETATM   25  C   UNL     1      -8.760   7.196  69.112  1.00  0.00    -0.133 C  
HETATM   26  C   UNL     1      -8.267   8.127  70.210  1.00  0.00    -0.122 C  
ENDBRANCH  22  25
ENDBRANCH  15  22
BRANCH  16  27
HETATM   27  O   UNL     1      -9.923  11.703  64.446  1.00  0.00    -0.251 OA 
HETATM   28  C   UNL     1     -10.891  11.660  63.403  1.00  0.00    -0.379 C  
ENDBRANCH  16  27
ENDBRANCH  10  13
ENDBRANCH   8   9
ENDBRANCH   7   8
ENDBRANCH   2   3
TORSDOF 7
ENDMDL
MODEL       78
REMARK 921   NORMALIZED FREE ENERGY PREDICTED BY IDOCK:   -5.23 KCAL/MOL
REMARK 922        TOTAL FREE ENERGY PREDICTED BY IDOCK:   -8.40 KCAL/MOL
REMARK 923 INTER-LIGAND FREE ENERGY PREDICTED BY IDOCK:   -7.46 KCAL/MOL
REMARK 924 INTRA-LIGAND FREE ENERGY PREDICTED BY IDOCK:   -0.94 KCAL/MOL
REMARK 927      BINDING AFFINITY PREDICTED BY RF-SCORE:    0.00 PKD
ROOT
HETATM    1  C   UNL     1     -10.124  19.962  67.821  1.00  0.00    -0.565 C  
HETATM    2  C   UNL     1     -10.348  19.284  66.475  1.00  0.00    -0.450 C  
ENDROOT
BRANCH   2   3
HETATM    3  N   UNL     1      -9.653  17.995  66.355  1.00  0.00    -0.373 NA 
HETATM    4  C   UNL     1      -8.199  18.145  66.242  1.00  0.00    -0.212 C  
HETATM    5  C   UNL     1      -7.680  16.783  66.655  1.00  0.00    -0.308 C  
HETATM    6  C   UNL     1      -8.580  16.408  67.815  1.00  0.00    -0.172 C  
HETATM    7  C   UNL     1      -9.900  17.146  67.549  1.00  0.00    -0.266 C  
BRANCH   7   8
HETATM    8  C   UNL     1     -11.074  16.182  67.281  1.00  0.00    -0.091 C  
BRANCH   8   9
HETATM    9  N   UNL     1     -10.699  14.864  66.793  1.00  0.00    -0.306 N  
HETATM   10  C   UNL     1     -11.292  13.695  67.223  1.00  0.00    -0.323 C  
HETATM   11  H   UNL     1      -9.958  14.801  66.095  1.00  0.00     0.000 HD 
HETATM   12  O   UNL     1     -12.147  13.640  68.090  1.00  0.00    -0.359 OA 
BRANCH  10  13
HETATM   13  C   UNL     1     -10.764  12.459  66.581  1.00  0.00    -0.263 A  
HETATM   14  C   UNL     1     -10.562  11.362  67.441  1.00  0.00    -0.257 A  
HETATM   15  C   UNL     1     -10.066  10.144  66.963  1.00  0.00    -0.223 A  
HETATM   16  C   UNL     1     -10.534  12.298  65.211  1.00  0.00    -0.282 A  
HETATM   17  C   UNL     1      -9.761   9.984  65.610  1.00  0.00    -0.272 A  
HETATM   18  N   UNL     1      -9.394   8.751  65.049  1.00  0.00    -0.402 NA 
HETATM   19  C   UNL     1     -10.073  11.048  64.748  1.00  0.00    -0.367 A  
HETATM   20  H2  UNL     1     -10.130   8.081  65.278  1.00  0.00     0.000 HD 
HETATM   21  H1  UNL     1      -9.172   8.634  64.060  1.00  0.00     0.000 HD 
BRANCH  15  22
HETATM   22  S   UNL     1      -9.679   8.888  68.171  1.00  0.00    -0.166 S  
HETATM   23  O   UNL     1      -8.248   8.656  68.107  1.00  0.00    -0.114 OA 
HETATM   24  O   UNL     1     -10.294   9.312  69.419  1.00  0.00    -0.201 OA 
BRANCH  22  25
HETATM   25  C   UNL     1     -10.521   7.429  67.602  1.00  0.00    -0.241 C  
HETATM   26  C   UNL     1     -11.030   6.609  68.778  1.00  0.00    -0.322 C  
ENDBRANCH  22  25
ENDBRANCH  15  22
BRANCH  16  27
HETATM   27  O   UNL     1     -10.770  13.182  64.194  1.00  0.00    -0.402 OA 
HETATM   28  C   UNL     1     -11.919  12.976  63.379  1.00  0.00    -0.520 C  
ENDBRANCH  16  27
ENDBRANCH  10  13
ENDBRANCH   8   9
ENDBRANCH   7   8
ENDBRANCH   2   3
TORSDOF 7
ENDMDL
MODEL       79
REMARK 921   NORMALIZED FREE ENERGY PREDICTED BY IDOCK:   -5.22 KCAL/MOL
REMARK 922        TOTAL FREE ENERGY PREDICTED BY IDOCK:   -8.37 KCAL/MOL
REMARK 923 INTER-LIGAND FREE ENERGY PREDICTED BY IDOCK:   -7.08 KCAL/MOL
REMARK 924 INTRA-LIGAND FREE ENERGY PREDICTED BY IDOCK:   -1.29 KCAL/MOL
REMARK 927      BINDING AFFINITY PREDICTED BY RF-SCORE:    0.00 PKD
ROOT
HETATM    1  C   UNL     1      -9.730  19.548  68.624  1.00  0.00    -0.514 C  
HETATM    2  C   UNL     1     -10.609  18.924  67.547  1.00  0.00    -0.451 C  
ENDROOT
BRANCH   2   3
HETATM    3  N   UNL     1      -9.970  17.789  66.868  1.00  0.00    -0.317 NA 
HETATM    4  C   UNL     1      -8.561  18.040  66.550  1.00  0.00    -0.258 C  
HETATM    5  C   UNL     1      -7.996  16.647  66.368  1.00  0.00    -0.360 C  
HETATM    6  C   UNL     1      -8.667  15.855  67.472  1.00  0.00    -0.189 C  
HETATM    7  C   UNL     1     -10.002  16.573  67.721  1.00  0.00    -0.253 C  
BRANCH   7   8
HETATM    8  C   UNL     1     -11.221  15.700  67.357  1.00  0.00    -0.219 C  
BRANCH   8   9
HETATM    9  N   UNL     1     -10.937  14.289  67.149  1.00  0.00    -0.296 N  
HETATM   10  C   UNL     1     -11.285  13.602  66.004  1.00  0.00    -0.296 C  
HETATM   11  H   UNL     1     -10.454  13.780  67.889  1.00  0.00     0.000 HD 
HETATM   12  O   UNL     1     -11.911  14.089  65.077  1.00  0.00    -0.344 OA 
BRANCH  10  13
HETATM   13  C   UNL     1     -10.885  12.168  65.996  1.00  0.00    -0.318 A  
HETATM   14  C   UNL     1     -10.005  11.785  64.963  1.00  0.00    -0.287 A  
HETATM   15  C   UNL     1      -9.557  10.466  64.842  1.00  0.00    -0.289 A  
HETATM   16  C   UNL     1     -11.253  11.222  66.958  1.00  0.00    -0.255 A  
HETATM   17  C   UNL     1      -9.970   9.489  65.750  1.00  0.00    -0.245 A  
HETATM   18  N   UNL     1      -9.447   8.186  65.762  1.00  0.00    -0.432 NA 
HETATM   19  C   UNL     1     -10.755   9.908  66.836  1.00  0.00    -0.195 A  
HETATM   20  H2  UNL     1      -8.433   8.265  65.839  1.00  0.00     0.000 HD 
HETATM   21  H1  UNL     1      -9.749   7.472  66.426  1.00  0.00     0.000 HD 
BRANCH  15  22
HETATM   22  S   UNL     1      -8.595  10.059  63.394  1.00  0.00    -0.225 S  
HETATM   23  O   UNL     1      -8.944   8.703  63.012  1.00  0.00     0.071 OA 
HETATM   24  O   UNL     1      -8.783  11.153  62.453  1.00  0.00    -0.305 OA 
BRANCH  22  25
HETATM   25  C   UNL     1      -6.905  10.083  63.944  1.00  0.00    -0.126 C  
HETATM   26  C   UNL     1      -5.970   9.632  62.831  1.00  0.00    -0.101 C  
ENDBRANCH  22  25
ENDBRANCH  15  22
BRANCH  16  27
HETATM   27  O   UNL     1     -11.994  11.401  68.093  1.00  0.00    -0.594 OA 
HETATM   28  C   UNL     1     -11.403  11.056  69.341  1.00  0.00    -0.284 C  
ENDBRANCH  16  27
ENDBRANCH  10  13
ENDBRANCH   8   9
ENDBRANCH   7   8
ENDBRANCH   2   3
TORSDOF 7
ENDMDL
MODEL       80
REMARK 921   NORMALIZED FREE ENERGY PREDICTED BY IDOCK:   -5.20 KCAL/MOL
REMARK 922        TOTAL FREE ENERGY PREDICTED BY IDOCK:   -8.35 KCAL/MOL
REMARK 923 INTER-LIGAND FREE ENERGY PREDICTED BY IDOCK:   -7.03 KCAL/MOL
REMARK 924 INTRA-LIGAND FREE ENERGY PREDICTED BY IDOCK:   -1.33 KCAL/MOL
REMARK 927      BINDING AFFINITY PREDICTED BY RF-SCORE:    0.00 PKD
ROOT
HETATM    1  C   UNL     1     -10.240  19.608  68.553  1.00  0.00    -0.529 C  
HETATM    2  C   UNL     1     -10.689  18.663  67.445  1.00  0.00    -0.402 C  
ENDROOT
BRANCH   2   3
HETATM    3  N   UNL     1     -10.098  17.322  67.557  1.00  0.00    -0.304 NA 
HETATM    4  C   UNL     1      -8.646  17.359  67.761  1.00  0.00    -0.227 C  
HETATM    5  C   UNL     1      -8.349  15.998  68.356  1.00  0.00    -0.178 C  
HETATM    6  C   UNL     1      -9.507  15.776  69.307  1.00  0.00    -0.270 C  
HETATM    7  C   UNL     1     -10.670  16.585  68.713  1.00  0.00    -0.339 C  
BRANCH   7   8
HETATM    8  C   UNL     1     -11.836  15.689  68.247  1.00  0.00    -0.140 C  
BRANCH   8   9
HETATM    9  N   UNL     1     -11.461  14.354  67.809  1.00  0.00    -0.318 N  
HETATM   10  C   UNL     1     -11.190  14.031  66.495  1.00  0.00    -0.322 C  
HETATM   11  H   UNL     1     -11.394  13.617  68.510  1.00  0.00     0.000 HD 
HETATM   12  O   UNL     1     -11.290  14.812  65.563  1.00  0.00    -0.335 OA 
BRANCH  10  13
HETATM   13  C   UNL     1     -10.811  12.608  66.272  1.00  0.00    -0.300 A  
HETATM   14  C   UNL     1     -10.581  11.848  67.436  1.00  0.00    -0.257 A  
HETATM   15  C   UNL     1     -10.215  10.500  67.363  1.00  0.00    -0.211 A  
HETATM   16  C   UNL     1     -10.743  11.978  65.026  1.00  0.00    -0.296 A  
HETATM   17  C   UNL     1     -10.071   9.869  66.126  1.00  0.00    -0.245 A  
HETATM   18  N   UNL     1      -9.842   8.490  65.993  1.00  0.00    -0.472 NA 
HETATM   19  C   UNL     1     -10.411  10.608  64.981  1.00  0.00    -0.341 A  
HETATM   20  H2  UNL     1     -10.586   8.007  66.496  1.00  0.00     0.000 HD 
HETATM   21  H1  UNL     1      -9.736   8.030  65.088  1.00  0.00     0.000 HD 
BRANCH  15  22
HETATM   22  S   UNL     1      -9.773   9.689  68.891  1.00  0.00    -0.168 S  
HETATM   23  O   UNL     1     -10.253  10.525  69.976  1.00  0.00    -0.163 OA 
HETATM   24  O   UNL     1     -10.227   8.312  68.774  1.00  0.00    -0.202 OA 
BRANCH  22  25
HETATM   25  C   UNL     1      -7.995   9.690  68.913  1.00  0.00    -0.089 C  
HETATM   26  C   UNL     1      -7.462  11.069  69.272  1.00  0.00    -0.100 C  
ENDBRANCH  22  25
ENDBRANCH  15  22
BRANCH  16  27
HETATM   27  O   UNL     1     -11.036  12.489  63.792  1.00  0.00    -0.384 OA 
HETATM   28  C   UNL     1     -12.292  12.157  63.209  1.00  0.00    -0.436 C  
ENDBRANCH  16  27
ENDBRANCH  10  13
ENDBRANCH   8   9
ENDBRANCH   7   8
ENDBRANCH   2   3
TORSDOF 7
ENDMDL
MODEL       81
REMARK 921   NORMALIZED FREE ENERGY PREDICTED BY IDOCK:   -5.19 KCAL/MOL
REMARK 922        TOTAL FREE ENERGY PREDICTED BY IDOCK:   -8.33 KCAL/MOL
REMARK 923 INTER-LIGAND FREE ENERGY PREDICTED BY IDOCK:   -7.30 KCAL/MOL
REMARK 924 INTRA-LIGAND FREE ENERGY PREDICTED BY IDOCK:   -1.03 KCAL/MOL
REMARK 927      BINDING AFFINITY PREDICTED BY RF-SCORE:    0.00 PKD
ROOT
HETATM    1  C   UNL     1     -10.243   7.399  73.428  1.00  0.00    -0.402 C  
HETATM    2  C   UNL     1     -11.564   6.902  72.853  1.00  0.00    -0.004 C  
ENDROOT
BRANCH   2   3
HETATM    3  N   UNL     1     -12.128   7.806  71.841  1.00  0.00    -0.293 NA 
HETATM    4  C   UNL     1     -12.971   8.854  72.425  1.00  0.00    -0.404 C  
HETATM    5  C   UNL     1     -12.996   9.915  71.345  1.00  0.00    -0.504 C  
HETATM    6  C   UNL     1     -11.570   9.921  70.832  1.00  0.00    -0.456 C  
HETATM    7  C   UNL     1     -11.051   8.498  71.088  1.00  0.00    -0.260 C  
BRANCH   7   8
HETATM    8  C   UNL     1     -10.741   7.737  69.782  1.00  0.00    -0.236 C  
BRANCH   8   9
HETATM    9  N   UNL     1     -10.552   8.570  68.605  1.00  0.00    -0.369 N  
HETATM   10  C   UNL     1      -9.573   8.343  67.660  1.00  0.00    -0.153 C  
HETATM   11  H   UNL     1     -11.176   9.365  68.471  1.00  0.00     0.000 HD 
HETATM   12  O   UNL     1      -8.736   7.459  67.740  1.00  0.00    -0.126 OA 
BRANCH  10  13
HETATM   13  C   UNL     1      -9.568   9.310  66.528  1.00  0.00    -0.285 A  
HETATM   14  C   UNL     1     -10.055  10.599  66.823  1.00  0.00    -0.272 A  
HETATM   15  C   UNL     1     -10.107  11.598  65.846  1.00  0.00    -0.230 A  
HETATM   16  C   UNL     1      -9.057   9.055  65.251  1.00  0.00    -0.167 A  
HETATM   17  C   UNL     1      -9.669  11.343  64.545  1.00  0.00    -0.233 A  
HETATM   18  N   UNL     1      -9.568  12.340  63.563  1.00  0.00    -0.674 NA 
HETATM   19  C   UNL     1      -9.084  10.091  64.295  1.00  0.00    -0.296 A  
HETATM   20  H2  UNL     1      -8.980  13.083  63.942  1.00  0.00     0.000 HD 
HETATM   21  H1  UNL     1      -9.248  12.153  62.612  1.00  0.00     0.000 HD 
BRANCH  15  22
HETATM   22  S   UNL     1     -10.911  13.130  66.285  1.00  0.00    -0.283 S  
HETATM   23  O   UNL     1     -11.265  13.043  67.690  1.00  0.00    -0.256 OA 
HETATM   24  O   UNL     1     -10.045  14.201  65.816  1.00  0.00    -0.310 OA 
BRANCH  22  25
HETATM   25  C   UNL     1     -12.404  13.158  65.320  1.00  0.00    -0.481 C  
HETATM   26  C   UNL     1     -12.410  14.349  64.373  1.00  0.00    -0.428 C  
ENDBRANCH  22  25
ENDBRANCH  15  22
BRANCH  16  27
HETATM   27  O   UNL     1      -8.438   7.926  64.788  1.00  0.00    -0.108 OA 
HETATM   28  C   UNL     1      -7.027   7.961  64.608  1.00  0.00    -0.067 C  
ENDBRANCH  16  27
ENDBRANCH  10  13
ENDBRANCH   8   9
ENDBRANCH   7   8
ENDBRANCH   2   3
TORSDOF 7
ENDMDL
MODEL       82
REMARK 921   NORMALIZED FREE ENERGY PREDICTED BY IDOCK:   -5.17 KCAL/MOL
REMARK 922        TOTAL FREE ENERGY PREDICTED BY IDOCK:   -8.31 KCAL/MOL
REMARK 923 INTER-LIGAND FREE ENERGY PREDICTED BY IDOCK:   -7.08 KCAL/MOL
REMARK 924 INTRA-LIGAND FREE ENERGY PREDICTED BY IDOCK:   -1.23 KCAL/MOL
REMARK 927      BINDING AFFINITY PREDICTED BY RF-SCORE:    0.00 PKD
ROOT
HETATM    1  C   UNL     1      -8.109  10.062  68.988  1.00  0.00    -0.118 C  
HETATM    2  C   UNL     1      -8.952   9.954  70.252  1.00  0.00    -0.042 C  
ENDROOT
BRANCH   2   3
HETATM    3  N   UNL     1     -10.247   9.297  70.027  1.00  0.00    -0.201 NA 
HETATM    4  C   UNL     1     -10.118   7.855  69.796  1.00  0.00    -0.199 C  
HETATM    5  C   UNL     1     -11.502   7.330  70.114  1.00  0.00    -0.197 C  
HETATM    6  C   UNL     1     -11.906   8.136  71.332  1.00  0.00    -0.329 C  
HETATM    7  C   UNL     1     -11.136   9.459  71.207  1.00  0.00    -0.376 C  
BRANCH   7   8
HETATM    8  C   UNL     1     -12.070  10.670  71.005  1.00  0.00    -0.368 C  
BRANCH   8   9
HETATM    9  N   UNL     1     -11.766  11.508  69.856  1.00  0.00    -0.327 N  
HETATM   10  C   UNL     1     -11.784  12.887  69.891  1.00  0.00    -0.254 C  
HETATM   11  H   UNL     1     -11.526  11.051  68.976  1.00  0.00     0.000 HD 
HETATM   12  O   UNL     1     -12.107  13.542  70.867  1.00  0.00    -0.332 OA 
BRANCH  10  13
HETATM   13  C   UNL     1     -11.426  13.545  68.604  1.00  0.00    -0.343 A  
HETATM   14  C   UNL     1     -10.901  14.849  68.710  1.00  0.00    -0.254 A  
HETATM   15  C   UNL     1     -10.529  15.577  67.575  1.00  0.00    -0.282 A  
HETATM   16  C   UNL     1     -11.503  12.945  67.343  1.00  0.00    -0.336 A  
HETATM   17  C   UNL     1     -10.666  15.024  66.300  1.00  0.00    -0.322 A  
HETATM   18  N   UNL     1     -10.183  15.650  65.140  1.00  0.00    -0.429 NA 
HETATM   19  C   UNL     1     -11.084  13.686  66.219  1.00  0.00    -0.304 A  
HETATM   20  H2  UNL     1      -9.191  15.839  65.286  1.00  0.00     0.000 HD 
HETATM   21  H1  UNL     1     -10.283  15.246  64.209  1.00  0.00     0.000 HD 
BRANCH  15  22
HETATM   22  S   UNL     1     -10.051  17.280  67.818  1.00  0.00    -0.326 S  
HETATM   23  O   UNL     1     -10.633  18.049  66.733  1.00  0.00    -0.344 OA 
HETATM   24  O   UNL     1     -10.373  17.607  69.198  1.00  0.00    -0.353 OA 
BRANCH  22  25
HETATM   25  C   UNL     1      -8.282  17.289  67.641  1.00  0.00    -0.193 C  
HETATM   26  C   UNL     1      -7.656  16.157  68.444  1.00  0.00    -0.158 C  
ENDBRANCH  22  25
ENDBRANCH  15  22
BRANCH  16  27
HETATM   27  O   UNL     1     -11.868  11.666  67.026  1.00  0.00    -0.591 OA 
HETATM   28  C   UNL     1     -10.892  10.819  66.428  1.00  0.00    -0.104 C  
ENDBRANCH  16  27
ENDBRANCH  10  13
ENDBRANCH   8   9
ENDBRANCH   7   8
ENDBRANCH   2   3
TORSDOF 7
ENDMDL
MODEL       83
REMARK 921   NORMALIZED FREE ENERGY PREDICTED BY IDOCK:   -5.17 KCAL/MOL
REMARK 922        TOTAL FREE ENERGY PREDICTED BY IDOCK:   -8.30 KCAL/MOL
REMARK 923 INTER-LIGAND FREE ENERGY PREDICTED BY IDOCK:   -7.02 KCAL/MOL
REMARK 924 INTRA-LIGAND FREE ENERGY PREDICTED BY IDOCK:   -1.28 KCAL/MOL
REMARK 927      BINDING AFFINITY PREDICTED BY RF-SCORE:    0.00 PKD
ROOT
HETATM    1  C   UNL     1      -8.412   7.842  74.449  1.00  0.00    -0.251 C  
HETATM    2  C   UNL     1      -8.431   6.716  73.421  1.00  0.00    -0.118 C  
ENDROOT
BRANCH   2   3
HETATM    3  N   UNL     1      -9.624   6.740  72.563  1.00  0.00    -0.153 NA 
HETATM    4  C   UNL     1     -10.787   6.106  73.193  1.00  0.00    -0.254 C  
HETATM    5  C   UNL     1     -11.954   6.687  72.423  1.00  0.00    -0.181 C  
HETATM    6  C   UNL     1     -11.558   8.138  72.239  1.00  0.00    -0.436 C  
HETATM    7  C   UNL     1     -10.022   8.135  72.246  1.00  0.00    -0.263 C  
BRANCH   7   8
HETATM    8  C   UNL     1      -9.424   8.563  70.890  1.00  0.00    -0.180 C  
BRANCH   8   9
HETATM    9  N   UNL     1      -9.904   9.834  70.370  1.00  0.00    -0.334 N  
HETATM   10  C   UNL     1     -10.563   9.964  69.165  1.00  0.00    -0.220 C  
HETATM   11  H   UNL     1      -9.744  10.674  70.926  1.00  0.00     0.000 HD 
HETATM   12  O   UNL     1     -10.763   9.043  68.391  1.00  0.00    -0.186 OA 
BRANCH  10  13
HETATM   13  C   UNL     1     -10.980  11.355  68.834  1.00  0.00    -0.276 A  
HETATM   14  C   UNL     1     -10.675  11.789  67.528  1.00  0.00    -0.262 A  
HETATM   15  C   UNL     1     -11.010  13.076  67.093  1.00  0.00    -0.269 A  
HETATM   16  C   UNL     1     -11.697  12.205  69.681  1.00  0.00    -0.325 A  
HETATM   17  C   UNL     1     -11.662  13.967  67.947  1.00  0.00    -0.362 A  
HETATM   18  N   UNL     1     -12.144  15.216  67.525  1.00  0.00    -0.321 NA 
HETATM   19  C   UNL     1     -12.057  13.483  69.205  1.00  0.00    -0.331 A  
HETATM   20  H2  UNL     1     -12.760  15.052  66.728  1.00  0.00     0.000 HD 
HETATM   21  H1  UNL     1     -12.621  15.867  68.150  1.00  0.00     0.000 HD 
BRANCH  15  22
HETATM   22  S   UNL     1     -10.413  13.576  65.486  1.00  0.00    -0.308 S  
HETATM   23  O   UNL     1      -9.823  14.894  65.638  1.00  0.00    -0.328 OA 
HETATM   24  O   UNL     1      -9.612  12.472  64.981  1.00  0.00    -0.057 OA 
BRANCH  22  25
HETATM   25  C   UNL     1     -11.872  13.714  64.478  1.00  0.00    -0.412 C  
HETATM   26  C   UNL     1     -12.517  12.351  64.277  1.00  0.00    -0.529 C  
ENDBRANCH  22  25
ENDBRANCH  15  22
BRANCH  16  27
HETATM   27  O   UNL     1     -12.191  11.950  70.930  1.00  0.00    -0.357 OA 
HETATM   28  C   UNL     1     -12.934  12.975  71.580  1.00  0.00    -0.305 C  
ENDBRANCH  16  27
ENDBRANCH  10  13
ENDBRANCH   8   9
ENDBRANCH   7   8
ENDBRANCH   2   3
TORSDOF 7
ENDMDL
MODEL       84
REMARK 921   NORMALIZED FREE ENERGY PREDICTED BY IDOCK:   -5.16 KCAL/MOL
REMARK 922        TOTAL FREE ENERGY PREDICTED BY IDOCK:   -8.29 KCAL/MOL
REMARK 923 INTER-LIGAND FREE ENERGY PREDICTED BY IDOCK:   -7.00 KCAL/MOL
REMARK 924 INTRA-LIGAND FREE ENERGY PREDICTED BY IDOCK:   -1.29 KCAL/MOL
REMARK 927      BINDING AFFINITY PREDICTED BY RF-SCORE:    0.00 PKD
ROOT
HETATM    1  C   UNL     1     -11.788  15.577  70.262  1.00  0.00    -0.381 C  
HETATM    2  C   UNL     1     -12.401  14.347  69.603  1.00  0.00    -0.255 C  
ENDROOT
BRANCH   2   3
HETATM    3  N   UNL     1     -11.928  13.085  70.188  1.00  0.00    -0.335 NA 
HETATM    4  C   UNL     1     -12.829  12.569  71.224  1.00  0.00    -0.241 C  
HETATM    5  C   UNL     1     -12.467  11.100  71.293  1.00  0.00    -0.466 C  
HETATM    6  C   UNL     1     -12.264  10.725  69.839  1.00  0.00    -0.384 C  
HETATM    7  C   UNL     1     -11.825  12.026  69.151  1.00  0.00    -0.311 C  
BRANCH   7   8
HETATM    8  C   UNL     1     -10.383  11.951  68.609  1.00  0.00    -0.203 C  
BRANCH   8   9
HETATM    9  N   UNL     1      -9.579  13.147  68.810  1.00  0.00    -0.411 N  
HETATM   10  C   UNL     1      -9.216  14.001  67.789  1.00  0.00    -0.195 C  
HETATM   11  H   UNL     1      -9.267  13.365  69.755  1.00  0.00     0.000 HD 
HETATM   12  O   UNL     1      -9.482  13.816  66.614  1.00  0.00    -0.267 OA 
BRANCH  10  13
HETATM   13  C   UNL     1      -8.404  15.173  68.221  1.00  0.00    -0.149 A  
HETATM   14  C   UNL     1      -8.962  16.437  67.945  1.00  0.00    -0.196 A  
HETATM   15  C   UNL     1      -8.298  17.617  68.296  1.00  0.00    -0.274 A  
HETATM   16  C   UNL     1      -7.199  15.102  68.926  1.00  0.00    -0.133 A  
HETATM   17  C   UNL     1      -7.058  17.570  68.937  1.00  0.00    -0.253 A  
HETATM   18  N   UNL     1      -6.411  18.712  69.435  1.00  0.00    -0.267 NA 
HETATM   19  C   UNL     1      -6.568  16.306  69.303  1.00  0.00    -0.197 A  
HETATM   20  H2  UNL     1      -7.063  19.181  70.065  1.00  0.00     0.000 HD 
HETATM   21  H1  UNL     1      -5.505  18.678  69.903  1.00  0.00     0.000 HD 
BRANCH  15  22
HETATM   22  S   UNL     1      -9.011  19.155  67.735  1.00  0.00    -0.303 S  
HETATM   23  O   UNL     1      -9.911  19.616  68.776  1.00  0.00    -0.433 OA 
HETATM   24  O   UNL     1      -7.901  19.992  67.305  1.00  0.00    -0.273 OA 
BRANCH  22  25
HETATM   25  C   UNL     1      -9.969  18.719  66.302  1.00  0.00    -0.385 C  
HETATM   26  C   UNL     1     -10.657  19.947  65.722  1.00  0.00    -0.490 C  
ENDBRANCH  22  25
ENDBRANCH  15  22
BRANCH  16  27
HETATM   27  O   UNL     1      -6.545  13.996  69.393  1.00  0.00    -0.112 OA 
HETATM   28  C   UNL     1      -5.472  13.474  68.617  1.00  0.00    -0.083 C  
ENDBRANCH  16  27
ENDBRANCH  10  13
ENDBRANCH   8   9
ENDBRANCH   7   8
ENDBRANCH   2   3
TORSDOF 7
ENDMDL
MODEL       85
REMARK 921   NORMALIZED FREE ENERGY PREDICTED BY IDOCK:   -5.14 KCAL/MOL
REMARK 922        TOTAL FREE ENERGY PREDICTED BY IDOCK:   -8.27 KCAL/MOL
REMARK 923 INTER-LIGAND FREE ENERGY PREDICTED BY IDOCK:   -6.77 KCAL/MOL
REMARK 924 INTRA-LIGAND FREE ENERGY PREDICTED BY IDOCK:   -1.50 KCAL/MOL
REMARK 927      BINDING AFFINITY PREDICTED BY RF-SCORE:    0.00 PKD
ROOT
HETATM    1  C   UNL     1      -9.796  18.219  68.598  1.00  0.00    -0.400 C  
HETATM    2  C   UNL     1     -10.391  17.479  67.406  1.00  0.00    -0.351 C  
ENDROOT
BRANCH   2   3
HETATM    3  N   UNL     1     -10.583  16.044  67.656  1.00  0.00    -0.304 NA 
HETATM    4  C   UNL     1     -11.535  15.780  68.740  1.00  0.00    -0.388 C  
HETATM    5  C   UNL     1     -11.967  14.352  68.477  1.00  0.00    -0.333 C  
HETATM    6  C   UNL     1     -12.100  14.303  66.969  1.00  0.00    -0.424 C  
HETATM    7  C   UNL     1     -11.116  15.361  66.449  1.00  0.00    -0.230 C  
BRANCH   7   8
HETATM    8  C   UNL     1      -9.960  14.745  65.633  1.00  0.00    -0.360 C  
BRANCH   8   9
HETATM    9  N   UNL     1      -9.894  13.292  65.645  1.00  0.00    -0.446 N  
HETATM   10  C   UNL     1      -9.232  12.567  66.614  1.00  0.00    -0.223 C  
HETATM   11  H   UNL     1     -10.363  12.782  64.897  1.00  0.00     0.000 HD 
HETATM   12  O   UNL     1      -8.592  13.065  67.524  1.00  0.00    -0.169 OA 
BRANCH  10  13
HETATM   13  C   UNL     1      -9.304  11.090  66.440  1.00  0.00    -0.204 A  
HETATM   14  C   UNL     1      -9.485  10.344  67.622  1.00  0.00    -0.165 A  
HETATM   15  C   UNL     1      -9.565   8.948  67.596  1.00  0.00    -0.148 A  
HETATM   16  C   UNL     1      -9.281  10.420  65.213  1.00  0.00    -0.199 A  
HETATM   17  C   UNL     1      -9.471   8.253  66.388  1.00  0.00    -0.221 A  
HETATM   18  N   UNL     1      -9.682   6.870  66.283  1.00  0.00    -0.396 NA 
HETATM   19  C   UNL     1      -9.404   9.015  65.210  1.00  0.00    -0.158 A  
HETATM   20  H2  UNL     1     -10.601   6.670  66.679  1.00  0.00     0.000 HD 
HETATM   21  H1  UNL     1      -9.614   6.363  65.400  1.00  0.00     0.000 HD 
BRANCH  15  22
HETATM   22  S   UNL     1      -9.610   8.102  69.168  1.00  0.00    -0.158 S  
HETATM   23  O   UNL     1     -10.896   7.436  69.261  1.00  0.00    -0.213 OA 
HETATM   24  O   UNL     1      -8.380   7.329  69.256  1.00  0.00    -0.129 OA 
BRANCH  22  25
HETATM   25  C   UNL     1      -9.544   9.395  70.386  1.00  0.00    -0.266 C  
HETATM   26  C   UNL     1     -10.288   8.982  71.648  1.00  0.00    -0.420 C  
ENDBRANCH  22  25
ENDBRANCH  15  22
BRANCH  16  27
HETATM   27  O   UNL     1      -9.231  10.947  63.952  1.00  0.00    -0.205 OA 
HETATM   28  C   UNL     1      -9.007  10.059  62.863  1.00  0.00    -0.262 C  
ENDBRANCH  16  27
ENDBRANCH  10  13
ENDBRANCH   8   9
ENDBRANCH   7   8
ENDBRANCH   2   3
TORSDOF 7
ENDMDL
MODEL       86
REMARK 921   NORMALIZED FREE ENERGY PREDICTED BY IDOCK:   -5.14 KCAL/MOL
REMARK 922        TOTAL FREE ENERGY PREDICTED BY IDOCK:   -8.27 KCAL/MOL
REMARK 923 INTER-LIGAND FREE ENERGY PREDICTED BY IDOCK:   -6.72 KCAL/MOL
REMARK 924 INTRA-LIGAND FREE ENERGY PREDICTED BY IDOCK:   -1.55 KCAL/MOL
REMARK 927      BINDING AFFINITY PREDICTED BY RF-SCORE:    0.00 PKD
ROOT
HETATM    1  C   UNL     1      -9.926  20.547  66.597  1.00  0.00    -0.378 C  
HETATM    2  C   UNL     1     -10.058  19.080  66.205  1.00  0.00    -0.422 C  
ENDROOT
BRANCH   2   3
HETATM    3  N   UNL     1      -8.973  18.242  66.733  1.00  0.00    -0.276 NA 
HETATM    4  C   UNL     1      -7.644  18.728  66.347  1.00  0.00    -0.259 C  
HETATM    5  C   UNL     1      -6.733  18.090  67.375  1.00  0.00    -0.194 C  
HETATM    6  C   UNL     1      -7.527  18.205  68.660  1.00  0.00    -0.300 C  
HETATM    7  C   UNL     1      -8.998  18.214  68.218  1.00  0.00    -0.296 C  
BRANCH   7   8
HETATM    8  C   UNL     1      -9.772  16.974  68.712  1.00  0.00    -0.273 C  
BRANCH   8   9
HETATM    9  N   UNL     1      -9.991  15.938  67.716  1.00  0.00    -0.227 N  
HETATM   10  C   UNL     1      -9.204  14.810  67.603  1.00  0.00    -0.191 C  
HETATM   11  H   UNL     1     -10.768  16.050  67.065  1.00  0.00     0.000 HD 
HETATM   12  O   UNL     1      -8.218  14.593  68.286  1.00  0.00    -0.132 OA 
BRANCH  10  13
HETATM   13  C   UNL     1      -9.615  13.872  66.522  1.00  0.00    -0.299 A  
HETATM   14  C   UNL     1      -9.335  12.511  66.755  1.00  0.00    -0.230 A  
HETATM   15  C   UNL     1      -9.668  11.529  65.816  1.00  0.00    -0.235 A  
HETATM   16  C   UNL     1     -10.307  14.233  65.361  1.00  0.00    -0.370 A  
HETATM   17  C   UNL     1     -10.294  11.876  64.617  1.00  0.00    -0.284 A  
HETATM   18  N   UNL     1     -10.775  10.925  63.703  1.00  0.00    -0.538 NA 
HETATM   19  C   UNL     1     -10.667  13.219  64.449  1.00  0.00    -0.432 A  
HETATM   20  H2  UNL     1     -11.408  10.307  64.210  1.00  0.00     0.000 HD 
HETATM   21  H1  UNL     1     -11.233  11.179  62.827  1.00  0.00     0.000 HD 
BRANCH  15  22
HETATM   22  S   UNL     1      -9.101   9.866  66.136  1.00  0.00    -0.166 S  
HETATM   23  O   UNL     1     -10.278   9.046  66.356  1.00  0.00    -0.288 OA 
HETATM   24  O   UNL     1      -8.169   9.535  65.069  1.00  0.00    -0.124 OA 
BRANCH  22  25
HETATM   25  C   UNL     1      -8.189   9.978  67.658  1.00  0.00    -0.114 C  
HETATM   26  C   UNL     1      -9.115   9.809  68.854  1.00  0.00    -0.148 C  
ENDBRANCH  22  25
ENDBRANCH  15  22
BRANCH  16  27
HETATM   27  O   UNL     1     -10.777  15.463  64.994  1.00  0.00    -0.405 OA 
HETATM   28  C   UNL     1     -12.074  15.540  64.413  1.00  0.00    -0.139 C  
ENDBRANCH  16  27
ENDBRANCH  10  13
ENDBRANCH   8   9
ENDBRANCH   7   8
ENDBRANCH   2   3
TORSDOF 7
ENDMDL
MODEL       87
REMARK 921   NORMALIZED FREE ENERGY PREDICTED BY IDOCK:   -5.13 KCAL/MOL
REMARK 922        TOTAL FREE ENERGY PREDICTED BY IDOCK:   -8.25 KCAL/MOL
REMARK 923 INTER-LIGAND FREE ENERGY PREDICTED BY IDOCK:   -7.07 KCAL/MOL
REMARK 924 INTRA-LIGAND FREE ENERGY PREDICTED BY IDOCK:   -1.18 KCAL/MOL
REMARK 927      BINDING AFFINITY PREDICTED BY RF-SCORE:    0.00 PKD
ROOT
HETATM    1  C   UNL     1     -13.935  14.217  71.713  1.00  0.00    -0.526 C  
HETATM    2  C   UNL     1     -12.432  14.312  71.479  1.00  0.00    -0.356 C  
ENDROOT
BRANCH   2   3
HETATM    3  N   UNL     1     -12.086  15.011  70.234  1.00  0.00    -0.306 NA 
HETATM    4  C   UNL     1     -11.408  16.290  70.473  1.00  0.00    -0.299 C  
HETATM    5  C   UNL     1     -10.704  16.556  69.159  1.00  0.00    -0.335 C  
HETATM    6  C   UNL     1     -10.189  15.188  68.759  1.00  0.00    -0.235 C  
HETATM    7  C   UNL     1     -11.164  14.192  69.405  1.00  0.00    -0.255 C  
BRANCH   7   8
HETATM    8  C   UNL     1     -11.965  13.386  68.361  1.00  0.00    -0.324 C  
BRANCH   8   9
HETATM    9  N   UNL     1     -11.727  11.951  68.365  1.00  0.00    -0.318 N  
HETATM   10  C   UNL     1     -10.586  11.366  67.857  1.00  0.00    -0.189 C  
HETATM   11  H   UNL     1     -12.443  11.345  68.766  1.00  0.00     0.000 HD 
HETATM   12  O   UNL     1      -9.688  11.981  67.306  1.00  0.00    -0.183 OA 
BRANCH  10  13
HETATM   13  C   UNL     1     -10.543   9.882  67.978  1.00  0.00    -0.288 A  
HETATM   14  C   UNL     1     -10.910   9.361  69.235  1.00  0.00    -0.190 A  
HETATM   15  C   UNL     1     -10.908   7.984  69.480  1.00  0.00    -0.129 A  
HETATM   16  C   UNL     1     -10.246   8.997  66.938  1.00  0.00    -0.269 A  
HETATM   17  C   UNL     1     -10.544   7.085  68.476  1.00  0.00    -0.202 A  
HETATM   18  N   UNL     1     -10.655   5.693  68.619  1.00  0.00    -0.215 NA 
HETATM   19  C   UNL     1     -10.290   7.611  67.199  1.00  0.00    -0.385 A  
HETATM   20  H2  UNL     1     -11.622   5.489  68.875  1.00  0.00     0.000 HD 
HETATM   21  H1  UNL     1     -10.389   5.036  67.885  1.00  0.00     0.000 HD 
BRANCH  15  22
HETATM   22  S   UNL     1     -11.212   7.451  71.157  1.00  0.00    -0.265 S  
HETATM   23  O   UNL     1     -12.353   6.555  71.124  1.00  0.00    -0.305 OA 
HETATM   24  O   UNL     1      -9.935   6.989  71.681  1.00  0.00    -0.179 OA 
BRANCH  22  25
HETATM   25  C   UNL     1     -11.670   8.930  72.031  1.00  0.00    -0.367 C  
HETATM   26  C   UNL     1     -13.172   8.966  72.274  1.00  0.00    -0.498 C  
ENDBRANCH  22  25
ENDBRANCH  15  22
BRANCH  16  27
HETATM   27  O   UNL     1      -9.980   9.277  65.626  1.00  0.00    -0.277 OA 
HETATM   28  C   UNL     1      -8.686   8.965  65.122  1.00  0.00    -0.178 C  
ENDBRANCH  16  27
ENDBRANCH  10  13
ENDBRANCH   8   9
ENDBRANCH   7   8
ENDBRANCH   2   3
TORSDOF 7
ENDMDL
MODEL       88
REMARK 921   NORMALIZED FREE ENERGY PREDICTED BY IDOCK:   -5.12 KCAL/MOL
REMARK 922        TOTAL FREE ENERGY PREDICTED BY IDOCK:   -8.24 KCAL/MOL
REMARK 923 INTER-LIGAND FREE ENERGY PREDICTED BY IDOCK:   -7.04 KCAL/MOL
REMARK 924 INTRA-LIGAND FREE ENERGY PREDICTED BY IDOCK:   -1.19 KCAL/MOL
REMARK 927      BINDING AFFINITY PREDICTED BY RF-SCORE:    0.00 PKD
ROOT
HETATM    1  C   UNL     1     -11.256  15.228  64.839  1.00  0.00    -0.422 C  
HETATM    2  C   UNL     1     -11.957  14.193  65.710  1.00  0.00    -0.402 C  
ENDROOT
BRANCH   2   3
HETATM    3  N   UNL     1     -11.329  14.028  67.028  1.00  0.00    -0.316 NA 
HETATM    4  C   UNL     1     -11.462  15.220  67.872  1.00  0.00    -0.316 C  
HETATM    5  C   UNL     1     -11.247  14.677  69.269  1.00  0.00    -0.306 C  
HETATM    6  C   UNL     1     -11.989  13.356  69.246  1.00  0.00    -0.367 C  
HETATM    7  C   UNL     1     -11.952  12.907  67.777  1.00  0.00    -0.283 C  
BRANCH   7   8
HETATM    8  C   UNL     1     -11.136  11.614  67.574  1.00  0.00    -0.276 C  
BRANCH   8   9
HETATM    9  N   UNL     1     -11.416  10.545  68.520  1.00  0.00    -0.455 N  
HETATM   10  C   UNL     1     -10.553  10.176  69.532  1.00  0.00    -0.245 C  
HETATM   11  H   UNL     1     -12.298  10.041  68.431  1.00  0.00     0.000 HD 
HETATM   12  O   UNL     1      -9.450  10.668  69.704  1.00  0.00    -0.091 OA 
BRANCH  10  13
HETATM   13  C   UNL     1     -11.046   9.067  70.394  1.00  0.00    -0.279 A  
HETATM   14  C   UNL     1     -10.117   8.042  70.663  1.00  0.00    -0.203 A  
HETATM   15  C   UNL     1     -10.456   6.942  71.456  1.00  0.00    -0.212 A  
HETATM   16  C   UNL     1     -12.307   9.013  70.997  1.00  0.00    -0.193 A  
HETATM   17  C   UNL     1     -11.734   6.832  72.009  1.00  0.00    -0.306 A  
HETATM   18  N   UNL     1     -12.088   5.827  72.922  1.00  0.00    -0.518 NA 
HETATM   19  C   UNL     1     -12.611   7.913  71.825  1.00  0.00    -0.353 A  
HETATM   20  H2  UNL     1     -11.424   5.869  73.695  1.00  0.00     0.000 HD 
HETATM   21  H1  UNL     1     -13.022   5.747  73.326  1.00  0.00     0.000 HD 
BRANCH  15  22
HETATM   22  S   UNL     1      -9.261   5.621  71.577  1.00  0.00    -0.143 S  
HETATM   23  O   UNL     1      -9.965   4.379  71.320  1.00  0.00    -0.187 OA 
HETATM   24  O   UNL     1      -8.133   6.008  70.743  1.00  0.00    -0.115 OA 
BRANCH  22  25
HETATM   25  C   UNL     1      -8.730   5.637  73.274  1.00  0.00    -0.118 C  
HETATM   26  C   UNL     1      -8.455   7.060  73.738  1.00  0.00    -0.164 C  
ENDBRANCH  22  25
ENDBRANCH  15  22
BRANCH  16  27
HETATM   27  O   UNL     1     -13.310   9.943  70.966  1.00  0.00    -0.374 OA 
HETATM   28  C   UNL     1     -13.237  11.037  71.874  1.00  0.00    -0.398 C  
ENDBRANCH  16  27
ENDBRANCH  10  13
ENDBRANCH   8   9
ENDBRANCH   7   8
ENDBRANCH   2   3
TORSDOF 7
ENDMDL
MODEL       89
REMARK 921   NORMALIZED FREE ENERGY PREDICTED BY IDOCK:   -5.12 KCAL/MOL
REMARK 922        TOTAL FREE ENERGY PREDICTED BY IDOCK:   -8.23 KCAL/MOL
REMARK 923 INTER-LIGAND FREE ENERGY PREDICTED BY IDOCK:   -7.26 KCAL/MOL
REMARK 924 INTRA-LIGAND FREE ENERGY PREDICTED BY IDOCK:   -0.98 KCAL/MOL
REMARK 927      BINDING AFFINITY PREDICTED BY RF-SCORE:    0.00 PKD
ROOT
HETATM    1  C   UNL     1     -10.739  15.923  65.143  1.00  0.00    -0.449 C  
HETATM    2  C   UNL     1      -9.494  15.884  66.021  1.00  0.00    -0.354 C  
ENDROOT
BRANCH   2   3
HETATM    3  N   UNL     1      -9.371  17.057  66.898  1.00  0.00    -0.243 NA 
HETATM    4  C   UNL     1      -8.996  18.272  66.169  1.00  0.00    -0.095 C  
HETATM    5  C   UNL     1      -9.432  19.382  67.103  1.00  0.00    -0.398 C  
HETATM    6  C   UNL     1     -10.759  18.882  67.637  1.00  0.00    -0.469 C  
HETATM    7  C   UNL     1     -10.660  17.350  67.575  1.00  0.00    -0.330 C  
BRANCH   7   8
HETATM    8  C   UNL     1     -10.687  16.699  68.973  1.00  0.00    -0.343 C  
BRANCH   8   9
HETATM    9  N   UNL     1     -10.631  15.245  68.985  1.00  0.00    -0.235 N  
HETATM   10  C   UNL     1     -11.694  14.445  69.349  1.00  0.00    -0.317 C  
HETATM   11  H   UNL     1      -9.760  14.793  68.708  1.00  0.00     0.000 HD 
HETATM   12  O   UNL     1     -12.765  14.869  69.750  1.00  0.00    -0.174 OA 
BRANCH  10  13
HETATM   13  C   UNL     1     -11.423  12.982  69.274  1.00  0.00    -0.348 A  
HETATM   14  C   UNL     1     -12.099  12.186  70.221  1.00  0.00    -0.385 A  
HETATM   15  C   UNL     1     -11.928  10.799  70.259  1.00  0.00    -0.351 A  
HETATM   16  C   UNL     1     -10.627  12.358  68.309  1.00  0.00    -0.222 A  
HETATM   17  C   UNL     1     -11.080  10.163  69.350  1.00  0.00    -0.243 A  
HETATM   18  N   UNL     1     -10.976   8.766  69.250  1.00  0.00    -0.422 NA 
HETATM   19  C   UNL     1     -10.503  10.954  68.344  1.00  0.00    -0.206 A  
HETATM   20  H2  UNL     1     -11.916   8.400  69.099  1.00  0.00     0.000 HD 
HETATM   21  H1  UNL     1     -10.356   8.302  68.586  1.00  0.00     0.000 HD 
BRANCH  15  22
HETATM   22  S   UNL     1     -12.688   9.918  71.613  1.00  0.00    -0.455 S  
HETATM   23  O   UNL     1     -11.644   9.152  72.269  1.00  0.00    -0.293 OA 
HETATM   24  O   UNL     1     -13.454  10.900  72.366  1.00  0.00    -0.212 OA 
BRANCH  22  25
HETATM   25  C   UNL     1     -13.828   8.791  70.845  1.00  0.00     0.233 C  
HETATM   26  C   UNL     1     -13.890   7.480  71.615  1.00  0.00    -0.486 C  
ENDBRANCH  22  25
ENDBRANCH  15  22
BRANCH  16  27
HETATM   27  O   UNL     1      -9.981  12.918  67.241  1.00  0.00    -0.219 OA 
HETATM   28  C   UNL     1      -9.763  12.109  66.090  1.00  0.00    -0.240 C  
ENDBRANCH  16  27
ENDBRANCH  10  13
ENDBRANCH   8   9
ENDBRANCH   7   8
ENDBRANCH   2   3
TORSDOF 7
ENDMDL
MODEL       90
REMARK 921   NORMALIZED FREE ENERGY PREDICTED BY IDOCK:   -5.11 KCAL/MOL
REMARK 922        TOTAL FREE ENERGY PREDICTED BY IDOCK:   -8.23 KCAL/MOL
REMARK 923 INTER-LIGAND FREE ENERGY PREDICTED BY IDOCK:   -7.18 KCAL/MOL
REMARK 924 INTRA-LIGAND FREE ENERGY PREDICTED BY IDOCK:   -1.04 KCAL/MOL
REMARK 927      BINDING AFFINITY PREDICTED BY RF-SCORE:    0.00 PKD
ROOT
HETATM    1  C   UNL     1     -11.876  12.173  63.618  1.00  0.00    -0.608 C  
HETATM    2  C   UNL     1     -12.058  12.898  64.946  1.00  0.00    -0.432 C  
ENDROOT
BRANCH   2   3
HETATM    3  N   UNL     1     -10.912  13.747  65.301  1.00  0.00    -0.310 NA 
HETATM    4  C   UNL     1     -11.041  15.115  64.789  1.00  0.00    -0.382 C  
HETATM    5  C   UNL     1     -10.094  15.902  65.670  1.00  0.00    -0.388 C  
HETATM    6  C   UNL     1     -10.320  15.303  67.043  1.00  0.00    -0.277 C  
HETATM    7  C   UNL     1     -10.772  13.859  66.776  1.00  0.00    -0.281 C  
BRANCH   7   8
HETATM    8  C   UNL     1      -9.759  12.817  67.294  1.00  0.00    -0.206 C  
BRANCH   8   9
HETATM    9  N   UNL     1     -10.236  11.966  68.373  1.00  0.00    -0.201 N  
HETATM   10  C   UNL     1      -9.857  10.649  68.530  1.00  0.00    -0.168 C  
HETATM   11  H   UNL     1     -10.887  12.365  69.049  1.00  0.00     0.000 HD 
HETATM   12  O   UNL     1      -9.130  10.049  67.757  1.00  0.00    -0.131 OA 
BRANCH  10  13
HETATM   13  C   UNL     1     -10.455   9.969  69.712  1.00  0.00    -0.291 A  
HETATM   14  C   UNL     1      -9.754   8.842  70.188  1.00  0.00    -0.199 A  
HETATM   15  C   UNL     1     -10.213   8.112  71.289  1.00  0.00    -0.195 A  
HETATM   16  C   UNL     1     -11.589  10.405  70.405  1.00  0.00    -0.337 A  
HETATM   17  C   UNL     1     -11.383   8.487  71.952  1.00  0.00    -0.329 A  
HETATM   18  N   UNL     1     -11.817   7.880  73.141  1.00  0.00    -0.620 NA 
HETATM   19  C   UNL     1     -12.008   9.674  71.537  1.00  0.00    -0.485 A  
HETATM   20  H2  UNL     1     -11.051   7.945  73.813  1.00  0.00     0.000 HD 
HETATM   21  H1  UNL     1     -12.672   8.155  73.625  1.00  0.00     0.000 HD 
BRANCH  15  22
HETATM   22  S   UNL     1      -9.348   6.602  71.687  1.00  0.00    -0.147 S  
HETATM   23  O   UNL     1      -8.171   6.545  70.840  1.00  0.00    -0.121 OA 
HETATM   24  O   UNL     1      -9.206   6.577  73.135  1.00  0.00    -0.129 OA 
BRANCH  22  25
HETATM   25  C   UNL     1     -10.459   5.298  71.212  1.00  0.00    -0.204 C  
HETATM   26  C   UNL     1      -9.882   3.939  71.581  1.00  0.00    -0.247 C  
ENDBRANCH  22  25
ENDBRANCH  15  22
BRANCH  16  27
HETATM   27  O   UNL     1     -12.344  11.524  70.191  1.00  0.00    -0.288 OA 
HETATM   28  C   UNL     1     -13.030  12.093  71.300  1.00  0.00    -0.207 C  
ENDBRANCH  16  27
ENDBRANCH  10  13
ENDBRANCH   8   9
ENDBRANCH   7   8
ENDBRANCH   2   3
TORSDOF 7
ENDMDL
MODEL       91
REMARK 921   NORMALIZED FREE ENERGY PREDICTED BY IDOCK:   -5.09 KCAL/MOL
REMARK 922        TOTAL FREE ENERGY PREDICTED BY IDOCK:   -8.19 KCAL/MOL
REMARK 923 INTER-LIGAND FREE ENERGY PREDICTED BY IDOCK:   -7.28 KCAL/MOL
REMARK 924 INTRA-LIGAND FREE ENERGY PREDICTED BY IDOCK:   -0.91 KCAL/MOL
REMARK 927      BINDING AFFINITY PREDICTED BY RF-SCORE:    0.00 PKD
ROOT
HETATM    1  C   UNL     1     -10.634  13.757  67.354  1.00  0.00    -0.260 C  
HETATM    2  C   UNL     1     -11.648  12.619  67.340  1.00  0.00    -0.360 C  
ENDROOT
BRANCH   2   3
HETATM    3  N   UNL     1     -11.801  11.999  66.017  1.00  0.00    -0.531 NA 
HETATM    4  C   UNL     1     -12.434  12.893  65.043  1.00  0.00    -0.492 C  
HETATM    5  C   UNL     1     -12.022  12.299  63.712  1.00  0.00    -0.609 C  
HETATM    6  C   UNL     1     -10.578  11.901  63.944  1.00  0.00    -0.444 C  
HETATM    7  C   UNL     1     -10.479  11.624  65.451  1.00  0.00    -0.275 C  
BRANCH   7   8
HETATM    8  C   UNL     1     -10.169  10.145  65.761  1.00  0.00    -0.213 C  
BRANCH   8   9
HETATM    9  N   UNL     1     -10.469   9.717  67.118  1.00  0.00    -0.255 N  
HETATM   10  C   UNL     1      -9.509   9.549  68.095  1.00  0.00    -0.133 C  
HETATM   11  H   UNL     1     -11.442   9.530  67.362  1.00  0.00     0.000 HD 
HETATM   12  O   UNL     1      -8.312   9.688  67.909  1.00  0.00    -0.116 OA 
BRANCH  10  13
HETATM   13  C   UNL     1     -10.039   9.118  69.418  1.00  0.00    -0.198 A  
HETATM   14  C   UNL     1      -9.594   7.862  69.875  1.00  0.00    -0.168 A  
HETATM   15  C   UNL     1     -10.021   7.341  71.101  1.00  0.00    -0.186 A  
HETATM   16  C   UNL     1     -10.863   9.888  70.245  1.00  0.00    -0.310 A  
HETATM   17  C   UNL     1     -10.902   8.061  71.911  1.00  0.00    -0.257 A  
HETATM   18  N   UNL     1     -11.255   7.655  73.207  1.00  0.00    -0.570 NA 
HETATM   19  C   UNL     1     -11.248   9.357  71.494  1.00  0.00    -0.457 A  
HETATM   20  H2  UNL     1     -10.390   7.530  73.734  1.00  0.00     0.000 HD 
HETATM   21  H1  UNL     1     -11.899   8.182  73.798  1.00  0.00     0.000 HD 
BRANCH  15  22
HETATM   22  S   UNL     1      -9.539   5.667  71.491  1.00  0.00    -0.153 S  
HETATM   23  O   UNL     1      -8.372   5.745  72.351  1.00  0.00    -0.117 OA 
HETATM   24  O   UNL     1     -10.740   4.987  71.951  1.00  0.00    -0.195 OA 
BRANCH  22  25
HETATM   25  C   UNL     1      -9.056   4.955  69.935  1.00  0.00    -0.117 C  
HETATM   26  C   UNL     1      -9.512   3.506  69.842  1.00  0.00    -0.254 C  
ENDBRANCH  22  25
ENDBRANCH  15  22
BRANCH  16  27
HETATM   27  O   UNL     1     -11.314  11.165  70.054  1.00  0.00    -0.279 OA 
HETATM   28  C   UNL     1     -12.379  11.630  70.875  1.00  0.00    -0.336 C  
ENDBRANCH  16  27
ENDBRANCH  10  13
ENDBRANCH   8   9
ENDBRANCH   7   8
ENDBRANCH   2   3
TORSDOF 7
ENDMDL
MODEL       92
REMARK 921   NORMALIZED FREE ENERGY PREDICTED BY IDOCK:   -5.08 KCAL/MOL
REMARK 922        TOTAL FREE ENERGY PREDICTED BY IDOCK:   -8.19 KCAL/MOL
REMARK 923 INTER-LIGAND FREE ENERGY PREDICTED BY IDOCK:   -7.18 KCAL/MOL
REMARK 924 INTRA-LIGAND FREE ENERGY PREDICTED BY IDOCK:   -1.01 KCAL/MOL
REMARK 927      BINDING AFFINITY PREDICTED BY RF-SCORE:    0.00 PKD
ROOT
HETATM    1  C   UNL     1     -10.956   5.869  69.636  1.00  0.00    -0.447 C  
HETATM    2  C   UNL     1     -11.789   6.732  70.575  1.00  0.00    -0.362 C  
ENDROOT
BRANCH   2   3
HETATM    3  N   UNL     1     -10.975   7.620  71.417  1.00  0.00    -0.230 NA 
HETATM    4  C   UNL     1     -10.214   6.891  72.437  1.00  0.00    -0.187 C  
HETATM    5  C   UNL     1      -9.110   7.861  72.800  1.00  0.00    -0.272 C  
HETATM    6  C   UNL     1      -8.714   8.452  71.462  1.00  0.00    -0.227 C  
HETATM    7  C   UNL     1      -9.982   8.363  70.599  1.00  0.00    -0.185 C  
BRANCH   7   8
HETATM    8  C   UNL     1     -10.538   9.751  70.220  1.00  0.00    -0.292 C  
BRANCH   8   9
HETATM    9  N   UNL     1     -10.321  10.153  68.839  1.00  0.00    -0.194 N  
HETATM   10  C   UNL     1     -11.259  10.826  68.084  1.00  0.00    -0.302 C  
HETATM   11  H   UNL     1      -9.426   9.926  68.406  1.00  0.00     0.000 HD 
HETATM   12  O   UNL     1     -12.381  11.103  68.474  1.00  0.00    -0.561 OA 
BRANCH  10  13
HETATM   13  C   UNL     1     -10.822  11.153  66.699  1.00  0.00    -0.308 A  
HETATM   14  C   UNL     1      -9.979  10.206  66.084  1.00  0.00    -0.310 A  
HETATM   15  C   UNL     1      -9.495  10.397  64.786  1.00  0.00    -0.273 A  
HETATM   16  C   UNL     1     -11.239  12.267  65.963  1.00  0.00    -0.332 A  
HETATM   17  C   UNL     1      -9.841  11.538  64.060  1.00  0.00    -0.274 A  
HETATM   18  N   UNL     1      -9.501  11.717  62.710  1.00  0.00    -0.598 NA 
HETATM   19  C   UNL     1     -10.769  12.416  64.642  1.00  0.00    -0.339 A  
HETATM   20  H2  UNL     1      -9.855  10.910  62.196  1.00  0.00     0.000 HD 
HETATM   21  H1  UNL     1      -9.755  12.551  62.179  1.00  0.00     0.000 HD 
BRANCH  15  22
HETATM   22  S   UNL     1      -8.292   9.224  64.181  1.00  0.00    -0.184 S  
HETATM   23  O   UNL     1      -8.688   8.857  62.834  1.00  0.00    -0.186 OA 
HETATM   24  O   UNL     1      -6.984   9.814  64.422  1.00  0.00    -0.114 OA 
BRANCH  22  25
HETATM   25  C   UNL     1      -8.466   7.803  65.236  1.00  0.00    -0.084 C  
HETATM   26  C   UNL     1      -8.014   6.541  64.516  1.00  0.00    -0.110 C  
ENDBRANCH  22  25
ENDBRANCH  15  22
BRANCH  16  27
HETATM   27  O   UNL     1     -12.134  13.239  66.317  1.00  0.00    -0.407 OA 
HETATM   28  C   UNL     1     -12.903  13.849  65.287  1.00  0.00    -0.398 C  
ENDBRANCH  16  27
ENDBRANCH  10  13
ENDBRANCH   8   9
ENDBRANCH   7   8
ENDBRANCH   2   3
TORSDOF 7
ENDMDL
MODEL       93
REMARK 921   NORMALIZED FREE ENERGY PREDICTED BY IDOCK:   -5.08 KCAL/MOL
REMARK 922        TOTAL FREE ENERGY PREDICTED BY IDOCK:   -8.18 KCAL/MOL
REMARK 923 INTER-LIGAND FREE ENERGY PREDICTED BY IDOCK:   -7.18 KCAL/MOL
REMARK 924 INTRA-LIGAND FREE ENERGY PREDICTED BY IDOCK:   -1.00 KCAL/MOL
REMARK 927      BINDING AFFINITY PREDICTED BY RF-SCORE:    0.00 PKD
ROOT
HETATM    1  C   UNL     1      -9.610   8.576  72.094  1.00  0.00    -0.382 C  
HETATM    2  C   UNL     1     -10.233   8.690  70.708  1.00  0.00    -0.204 C  
ENDROOT
BRANCH   2   3
HETATM    3  N   UNL     1     -11.698   8.583  70.724  1.00  0.00    -0.250 NA 
HETATM    4  C   UNL     1     -12.165   7.236  71.066  1.00  0.00    -0.313 C  
HETATM    5  C   UNL     1     -13.586   7.472  71.530  1.00  0.00    -0.439 C  
HETATM    6  C   UNL     1     -13.479   8.749  72.339  1.00  0.00    -0.446 C  
HETATM    7  C   UNL     1     -12.286   9.503  71.732  1.00  0.00    -0.387 C  
BRANCH   7   8
HETATM    8  C   UNL     1     -12.702  10.829  71.063  1.00  0.00    -0.415 C  
BRANCH   8   9
HETATM    9  N   UNL     1     -11.630  11.559  70.406  1.00  0.00    -0.503 N  
HETATM   10  C   UNL     1     -11.501  11.655  69.036  1.00  0.00    -0.294 C  
HETATM   11  H   UNL     1     -10.936  12.025  70.989  1.00  0.00     0.000 HD 
HETATM   12  O   UNL     1     -12.235  11.097  68.238  1.00  0.00    -0.613 OA 
BRANCH  10  13
HETATM   13  C   UNL     1     -10.337  12.464  68.578  1.00  0.00    -0.232 A  
HETATM   14  C   UNL     1     -10.485  13.861  68.684  1.00  0.00    -0.249 A  
HETATM   15  C   UNL     1      -9.466  14.732  68.284  1.00  0.00    -0.207 A  
HETATM   16  C   UNL     1      -9.118  11.942  68.133  1.00  0.00    -0.190 A  
HETATM   17  C   UNL     1      -8.268  14.235  67.769  1.00  0.00    -0.174 A  
HETATM   18  N   UNL     1      -7.162  15.050  67.482  1.00  0.00    -0.190 NA 
HETATM   19  C   UNL     1      -8.093  12.841  67.773  1.00  0.00    -0.168 A  
HETATM   20  H2  UNL     1      -6.937  15.569  68.331  1.00  0.00     0.000 HD 
HETATM   21  H1  UNL     1      -6.286  14.686  67.105  1.00  0.00     0.000 HD 
BRANCH  15  22
HETATM   22  S   UNL     1      -9.834  16.479  68.293  1.00  0.00    -0.251 S  
HETATM   23  O   UNL     1     -11.111  16.646  68.963  1.00  0.00    -0.301 OA 
HETATM   24  O   UNL     1      -8.648  17.148  68.807  1.00  0.00    -0.268 OA 
BRANCH  22  25
HETATM   25  C   UNL     1     -10.024  16.917  66.581  1.00  0.00    -0.296 C  
HETATM   26  C   UNL     1      -9.082  18.052  66.209  1.00  0.00    -0.197 C  
ENDBRANCH  22  25
ENDBRANCH  15  22
BRANCH  16  27
HETATM   27  O   UNL     1      -8.722  10.636  68.061  1.00  0.00    -0.122 OA 
HETATM   28  C   UNL     1      -7.392  10.360  67.638  1.00  0.00    -0.088 C  
ENDBRANCH  16  27
ENDBRANCH  10  13
ENDBRANCH   8   9
ENDBRANCH   7   8
ENDBRANCH   2   3
TORSDOF 7
ENDMDL
MODEL       94
REMARK 921   NORMALIZED FREE ENERGY PREDICTED BY IDOCK:   -5.06 KCAL/MOL
REMARK 922        TOTAL FREE ENERGY PREDICTED BY IDOCK:   -8.15 KCAL/MOL
REMARK 923 INTER-LIGAND FREE ENERGY PREDICTED BY IDOCK:   -7.39 KCAL/MOL
REMARK 924 INTRA-LIGAND FREE ENERGY PREDICTED BY IDOCK:   -0.76 KCAL/MOL
REMARK 927      BINDING AFFINITY PREDICTED BY RF-SCORE:    0.00 PKD
ROOT
HETATM    1  C   UNL     1      -8.613   5.254  70.568  1.00  0.00    -0.125 C  
HETATM    2  C   UNL     1      -9.382   6.569  70.610  1.00  0.00    -0.162 C  
ENDROOT
BRANCH   2   3
HETATM    3  N   UNL     1      -9.271   7.340  69.364  1.00  0.00    -0.149 NA 
HETATM    4  C   UNL     1      -9.256   6.489  68.170  1.00  0.00    -0.112 C  
HETATM    5  C   UNL     1      -9.664   7.440  67.065  1.00  0.00    -0.248 C  
HETATM    6  C   UNL     1     -10.753   8.274  67.709  1.00  0.00    -0.165 C  
HETATM    7  C   UNL     1     -10.422   8.266  69.209  1.00  0.00    -0.210 C  
BRANCH   7   8
HETATM    8  C   UNL     1     -10.053   9.667  69.741  1.00  0.00    -0.233 C  
BRANCH   8   9
HETATM    9  N   UNL     1     -10.206  10.755  68.788  1.00  0.00    -0.184 N  
HETATM   10  C   UNL     1     -11.028  11.843  69.000  1.00  0.00    -0.219 C  
HETATM   11  H   UNL     1      -9.678  10.712  67.917  1.00  0.00     0.000 HD 
HETATM   12  O   UNL     1     -11.747  11.978  69.975  1.00  0.00    -0.312 OA 
BRANCH  10  13
HETATM   13  C   UNL     1     -11.023  12.848  67.900  1.00  0.00    -0.266 A  
HETATM   14  C   UNL     1     -11.617  12.433  66.691  1.00  0.00    -0.447 A  
HETATM   15  C   UNL     1     -11.673  13.281  65.580  1.00  0.00    -0.356 A  
HETATM   16  C   UNL     1     -10.549  14.159  68.008  1.00  0.00    -0.239 A  
HETATM   17  C   UNL     1     -11.141  14.570  65.643  1.00  0.00    -0.327 A  
HETATM   18  N   UNL     1     -11.290  15.510  64.612  1.00  0.00    -0.613 NA 
HETATM   19  C   UNL     1     -10.654  15.007  66.886  1.00  0.00    -0.297 A  
HETATM   20  H2  UNL     1     -12.289  15.601  64.424  1.00  0.00     0.000 HD 
HETATM   21  H1  UNL     1     -10.901  16.452  64.658  1.00  0.00     0.000 HD 
BRANCH  15  22
HETATM   22  S   UNL     1     -12.282  12.587  64.053  1.00  0.00    -0.501 S  
HETATM   23  O   UNL     1     -13.285  11.596  64.400  1.00  0.00    -0.138 OA 
HETATM   24  O   UNL     1     -12.632  13.712  63.199  1.00  0.00    -0.792 OA 
BRANCH  22  25
HETATM   25  C   UNL     1     -10.882  11.757  63.336  1.00  0.00    -0.388 C  
HETATM   26  C   UNL     1     -10.239  10.817  64.346  1.00  0.00    -0.432 C  
ENDBRANCH  22  25
ENDBRANCH  15  22
BRANCH  16  27
HETATM   27  O   UNL     1     -10.046  14.799  69.107  1.00  0.00    -0.224 OA 
HETATM   28  C   UNL     1      -9.705  16.175  68.984  1.00  0.00    -0.248 C  
ENDBRANCH  16  27
ENDBRANCH  10  13
ENDBRANCH   8   9
ENDBRANCH   7   8
ENDBRANCH   2   3
TORSDOF 7
ENDMDL
MODEL       95
REMARK 921   NORMALIZED FREE ENERGY PREDICTED BY IDOCK:   -5.01 KCAL/MOL
REMARK 922        TOTAL FREE ENERGY PREDICTED BY IDOCK:   -8.09 KCAL/MOL
REMARK 923 INTER-LIGAND FREE ENERGY PREDICTED BY IDOCK:   -7.27 KCAL/MOL
REMARK 924 INTRA-LIGAND FREE ENERGY PREDICTED BY IDOCK:   -0.82 KCAL/MOL
REMARK 927      BINDING AFFINITY PREDICTED BY RF-SCORE:    0.00 PKD
ROOT
HETATM    1  C   UNL     1     -10.217  12.682  67.641  1.00  0.00    -0.217 C  
HETATM    2  C   UNL     1     -11.524  11.995  67.261  1.00  0.00    -0.335 C  
ENDROOT
BRANCH   2   3
HETATM    3  N   UNL     1     -11.708  11.869  65.809  1.00  0.00    -0.405 NA 
HETATM    4  C   UNL     1     -12.413  13.015  65.226  1.00  0.00    -0.499 C  
HETATM    5  C   UNL     1     -12.034  12.943  63.762  1.00  0.00    -0.582 C  
HETATM    6  C   UNL     1     -10.569  12.559  63.802  1.00  0.00    -0.471 C  
HETATM    7  C   UNL     1     -10.399  11.779  65.114  1.00  0.00    -0.279 C  
BRANCH   7   8
HETATM    8  C   UNL     1     -10.023  10.301  64.879  1.00  0.00    -0.323 C  
BRANCH   8   9
HETATM    9  N   UNL     1     -10.263   9.410  66.003  1.00  0.00    -0.254 N  
HETATM   10  C   UNL     1      -9.281   8.637  66.586  1.00  0.00    -0.181 C  
HETATM   11  H   UNL     1     -11.209   9.354  66.381  1.00  0.00     0.000 HD 
HETATM   12  O   UNL     1      -8.130   8.578  66.189  1.00  0.00    -0.099 OA 
BRANCH  10  13
HETATM   13  C   UNL     1      -9.744   7.809  67.735  1.00  0.00    -0.186 A  
HETATM   14  C   UNL     1     -10.270   8.523  68.830  1.00  0.00    -0.221 A  
HETATM   15  C   UNL     1     -10.735   7.863  69.972  1.00  0.00    -0.244 A  
HETATM   16  C   UNL     1      -9.760   6.411  67.766  1.00  0.00    -0.121 A  
HETATM   17  C   UNL     1     -10.693   6.470  70.054  1.00  0.00    -0.249 A  
HETATM   18  N   UNL     1     -11.270   5.749  71.111  1.00  0.00    -0.201 NA 
HETATM   19  C   UNL     1     -10.271   5.769  68.913  1.00  0.00    -0.267 A  
HETATM   20  H2  UNL     1     -12.249   6.029  71.173  1.00  0.00     0.000 HD 
HETATM   21  H1  UNL     1     -11.239   4.731  71.171  1.00  0.00     0.000 HD 
BRANCH  15  22
HETATM   22  S   UNL     1     -11.207   8.875  71.365  1.00  0.00    -0.342 S  
HETATM   23  O   UNL     1     -10.391   8.464  72.492  1.00  0.00    -0.315 OA 
HETATM   24  O   UNL     1     -11.173  10.255  70.904  1.00  0.00    -0.336 OA 
BRANCH  22  25
HETATM   25  C   UNL     1     -12.899   8.440  71.695  1.00  0.00    -0.334 C  
HETATM   26  C   UNL     1     -13.682   9.653  72.178  1.00  0.00    -0.399 C  
ENDBRANCH  22  25
ENDBRANCH  15  22
BRANCH  16  27
HETATM   27  O   UNL     1      -9.410   5.529  66.781  1.00  0.00    -0.125 OA 
HETATM   28  C   UNL     1     -10.452   4.870  66.070  1.00  0.00    -0.283 C  
ENDBRANCH  16  27
ENDBRANCH  10  13
ENDBRANCH   8   9
ENDBRANCH   7   8
ENDBRANCH   2   3
TORSDOF 7
ENDMDL
MODEL       96
REMARK 921   NORMALIZED FREE ENERGY PREDICTED BY IDOCK:   -5.00 KCAL/MOL
REMARK 922        TOTAL FREE ENERGY PREDICTED BY IDOCK:   -8.07 KCAL/MOL
REMARK 923 INTER-LIGAND FREE ENERGY PREDICTED BY IDOCK:   -6.63 KCAL/MOL
REMARK 924 INTRA-LIGAND FREE ENERGY PREDICTED BY IDOCK:   -1.44 KCAL/MOL
REMARK 927      BINDING AFFINITY PREDICTED BY RF-SCORE:    0.00 PKD
ROOT
HETATM    1  C   UNL     1     -12.659   9.035  71.373  1.00  0.00    -0.370 C  
HETATM    2  C   UNL     1     -11.216   9.503  71.525  1.00  0.00    -0.367 C  
ENDROOT
BRANCH   2   3
HETATM    3  N   UNL     1     -10.646  10.027  70.276  1.00  0.00    -0.291 NA 
HETATM    4  C   UNL     1     -10.106   8.971  69.413  1.00  0.00    -0.198 C  
HETATM    5  C   UNL     1     -10.074   9.625  68.048  1.00  0.00    -0.213 C  
HETATM    6  C   UNL     1     -11.370  10.410  68.010  1.00  0.00    -0.277 C  
HETATM    7  C   UNL     1     -11.678  10.738  69.479  1.00  0.00    -0.312 C  
BRANCH   7   8
HETATM    8  C   UNL     1     -11.625  12.252  69.771  1.00  0.00    -0.243 C  
BRANCH   8   9
HETATM    9  N   UNL     1     -10.459  12.947  69.249  1.00  0.00    -0.419 N  
HETATM   10  C   UNL     1     -10.480  14.258  68.822  1.00  0.00    -0.249 C  
HETATM   11  H   UNL     1      -9.577  12.437  69.195  1.00  0.00     0.000 HD 
HETATM   12  O   UNL     1     -11.484  14.950  68.787  1.00  0.00    -0.277 OA 
BRANCH  10  13
HETATM   13  C   UNL     1      -9.170  14.775  68.339  1.00  0.00    -0.189 A  
HETATM   14  C   UNL     1      -9.099  16.168  68.138  1.00  0.00    -0.189 A  
HETATM   15  C   UNL     1      -7.925  16.778  67.683  1.00  0.00    -0.176 A  
HETATM   16  C   UNL     1      -8.019  14.003  68.150  1.00  0.00    -0.149 A  
HETATM   17  C   UNL     1      -6.786  16.017  67.418  1.00  0.00    -0.190 A  
HETATM   18  N   UNL     1      -5.544  16.585  67.093  1.00  0.00    -0.244 NA 
HETATM   19  C   UNL     1      -6.838  14.648  67.729  1.00  0.00    -0.193 A  
HETATM   20  H2  UNL     1      -5.306  17.243  67.837  1.00  0.00     0.000 HD 
HETATM   21  H1  UNL     1      -4.711  16.029  66.900  1.00  0.00     0.000 HD 
BRANCH  15  22
HETATM   22  S   UNL     1      -8.008  18.518  67.290  1.00  0.00    -0.239 S  
HETATM   23  O   UNL     1      -7.103  19.206  68.193  1.00  0.00    -0.245 OA 
HETATM   24  O   UNL     1      -7.825  18.626  65.851  1.00  0.00    -0.464 OA 
BRANCH  22  25
HETATM   25  C   UNL     1      -9.676  18.996  67.677  1.00  0.00    -0.315 C  
HETATM   26  C   UNL     1     -10.275  19.819  66.546  1.00  0.00    -0.606 C  
ENDBRANCH  22  25
ENDBRANCH  15  22
BRANCH  16  27
HETATM   27  O   UNL     1      -7.834  12.671  68.394  1.00  0.00    -0.136 OA 
HETATM   28  C   UNL     1      -6.642  12.060  67.911  1.00  0.00    -0.076 C  
ENDBRANCH  16  27
ENDBRANCH  10  13
ENDBRANCH   8   9
ENDBRANCH   7   8
ENDBRANCH   2   3
TORSDOF 7
ENDMDL
MODEL       97
REMARK 921   NORMALIZED FREE ENERGY PREDICTED BY IDOCK:   -4.95 KCAL/MOL
REMARK 922        TOTAL FREE ENERGY PREDICTED BY IDOCK:   -8.00 KCAL/MOL
REMARK 923 INTER-LIGAND FREE ENERGY PREDICTED BY IDOCK:   -6.64 KCAL/MOL
REMARK 924 INTRA-LIGAND FREE ENERGY PREDICTED BY IDOCK:   -1.36 KCAL/MOL
REMARK 927      BINDING AFFINITY PREDICTED BY RF-SCORE:    0.00 PKD
ROOT
HETATM    1  C   UNL     1      -8.636   5.331  67.268  1.00  0.00    -0.105 C  
HETATM    2  C   UNL     1     -10.157   5.269  67.200  1.00  0.00    -0.203 C  
ENDROOT
BRANCH   2   3
HETATM    3  N   UNL     1     -10.813   6.265  68.058  1.00  0.00    -0.302 NA 
HETATM    4  C   UNL     1     -10.999   5.793  69.434  1.00  0.00    -0.282 C  
HETATM    5  C   UNL     1     -11.173   7.077  70.218  1.00  0.00    -0.339 C  
HETATM    6  C   UNL     1     -10.157   8.007  69.588  1.00  0.00    -0.198 C  
HETATM    7  C   UNL     1     -10.004   7.508  68.143  1.00  0.00    -0.172 C  
BRANCH   7   8
HETATM    8  C   UNL     1     -10.499   8.537  67.106  1.00  0.00    -0.299 C  
BRANCH   8   9
HETATM    9  N   UNL     1     -10.843   9.845  67.640  1.00  0.00    -0.341 N  
HETATM   10  C   UNL     1     -10.060  10.968  67.471  1.00  0.00    -0.180 C  
HETATM   11  H   UNL     1     -11.711   9.937  68.169  1.00  0.00     0.000 HD 
HETATM   12  O   UNL     1      -8.979  10.969  66.907  1.00  0.00    -0.152 OA 
BRANCH  10  13
HETATM   13  C   UNL     1     -10.609  12.206  68.090  1.00  0.00    -0.236 A  
HETATM   14  C   UNL     1     -10.042  13.416  67.642  1.00  0.00    -0.229 A  
HETATM   15  C   UNL     1     -10.467  14.649  68.147  1.00  0.00    -0.237 A  
HETATM   16  C   UNL     1     -11.669  12.250  69.001  1.00  0.00    -0.324 A  
HETATM   17  C   UNL     1     -11.475  14.712  69.111  1.00  0.00    -0.294 A  
HETATM   18  N   UNL     1     -12.037  15.921  69.552  1.00  0.00    -0.396 NA 
HETATM   19  C   UNL     1     -12.106  13.509  69.465  1.00  0.00    -0.352 A  
HETATM   20  H2  UNL     1     -12.372  16.420  68.727  1.00  0.00     0.000 HD 
HETATM   21  H1  UNL     1     -12.773  15.967  70.257  1.00  0.00     0.000 HD 
BRANCH  15  22
HETATM   22  S   UNL     1      -9.553  16.098  67.643  1.00  0.00    -0.223 S  
HETATM   23  O   UNL     1      -9.523  17.003  68.776  1.00  0.00    -0.260 OA 
HETATM   24  O   UNL     1      -8.310  15.619  67.058  1.00  0.00    -0.187 OA 
BRANCH  22  25
HETATM   25  C   UNL     1     -10.531  16.830  66.351  1.00  0.00    -0.269 C  
HETATM   26  C   UNL     1     -10.592  15.914  65.138  1.00  0.00    -0.421 C  
ENDBRANCH  22  25
ENDBRANCH  15  22
BRANCH  16  27
HETATM   27  O   UNL     1     -12.432  11.220  69.476  1.00  0.00    -0.224 OA 
HETATM   28  C   UNL     1     -12.533  11.055  70.886  1.00  0.00    -0.410 C  
ENDBRANCH  16  27
ENDBRANCH  10  13
ENDBRANCH   8   9
ENDBRANCH   7   8
ENDBRANCH   2   3
TORSDOF 7
ENDMDL
MODEL       98
REMARK 921   NORMALIZED FREE ENERGY PREDICTED BY IDOCK:   -4.94 KCAL/MOL
REMARK 922        TOTAL FREE ENERGY PREDICTED BY IDOCK:   -7.99 KCAL/MOL
REMARK 923 INTER-LIGAND FREE ENERGY PREDICTED BY IDOCK:   -6.89 KCAL/MOL
REMARK 924 INTRA-LIGAND FREE ENERGY PREDICTED BY IDOCK:   -1.10 KCAL/MOL
REMARK 927      BINDING AFFINITY PREDICTED BY RF-SCORE:    0.00 PKD
ROOT
HETATM    1  C   UNL     1     -14.257   8.666  71.941  1.00  0.00    -0.507 C  
HETATM    2  C   UNL     1     -13.496   7.404  71.554  1.00  0.00    -0.372 C  
ENDROOT
BRANCH   2   3
HETATM    3  N   UNL     1     -12.082   7.440  71.951  1.00  0.00    -0.298 NA 
HETATM    4  C   UNL     1     -11.551   6.112  72.278  1.00  0.00    -0.313 C  
HETATM    5  C   UNL     1     -10.055   6.295  72.134  1.00  0.00    -0.203 C  
HETATM    6  C   UNL     1      -9.930   7.169  70.902  1.00  0.00    -0.193 C  
HETATM    7  C   UNL     1     -11.236   7.975  70.853  1.00  0.00    -0.266 C  
BRANCH   7   8
HETATM    8  C   UNL     1     -11.005   9.488  71.050  1.00  0.00    -0.353 C  
BRANCH   8   9
HETATM    9  N   UNL     1     -10.988  10.280  69.830  1.00  0.00    -0.282 N  
HETATM   10  C   UNL     1      -9.833  10.611  69.153  1.00  0.00    -0.200 C  
HETATM   11  H   UNL     1     -11.878  10.608  69.455  1.00  0.00     0.000 HD 
HETATM   12  O   UNL     1      -8.710  10.324  69.532  1.00  0.00    -0.175 OA 
BRANCH  10  13
HETATM   13  C   UNL     1     -10.047  11.417  67.918  1.00  0.00    -0.198 A  
HETATM   14  C   UNL     1      -9.695  12.778  68.008  1.00  0.00    -0.220 A  
HETATM   15  C   UNL     1      -9.852  13.643  66.920  1.00  0.00    -0.261 A  
HETATM   16  C   UNL     1     -10.490  10.910  66.692  1.00  0.00    -0.254 A  
HETATM   17  C   UNL     1     -10.361  13.174  65.707  1.00  0.00    -0.289 A  
HETATM   18  N   UNL     1     -10.411  13.958  64.544  1.00  0.00    -0.652 NA 
HETATM   19  C   UNL     1     -10.602  11.795  65.599  1.00  0.00    -0.314 A  
HETATM   20  H2  UNL     1      -9.466  14.300  64.366  1.00  0.00     0.000 HD 
HETATM   21  H1  UNL     1     -10.783  13.615  63.658  1.00  0.00     0.000 HD 
BRANCH  15  22
HETATM   22  S   UNL     1      -9.546  15.379  67.205  1.00  0.00    -0.215 S  
HETATM   23  O   UNL     1      -8.364  15.738  66.442  1.00  0.00    -0.284 OA 
HETATM   24  O   UNL     1     -10.806  16.065  66.964  1.00  0.00    -0.309 OA 
BRANCH  22  25
HETATM   25  C   UNL     1      -9.167  15.499  68.938  1.00  0.00    -0.218 C  
HETATM   26  C   UNL     1      -7.862  16.252  69.152  1.00  0.00    -0.231 C  
ENDBRANCH  22  25
ENDBRANCH  15  22
BRANCH  16  27
HETATM   27  O   UNL     1     -10.774   9.616  66.354  1.00  0.00    -0.075 OA 
HETATM   28  C   UNL     1      -9.686   8.741  66.079  1.00  0.00    -0.206 C  
ENDBRANCH  16  27
ENDBRANCH  10  13
ENDBRANCH   8   9
ENDBRANCH   7   8
ENDBRANCH   2   3
TORSDOF 7
ENDMDL
MODEL       99
REMARK 921   NORMALIZED FREE ENERGY PREDICTED BY IDOCK:   -4.94 KCAL/MOL
REMARK 922        TOTAL FREE ENERGY PREDICTED BY IDOCK:   -7.99 KCAL/MOL
REMARK 923 INTER-LIGAND FREE ENERGY PREDICTED BY IDOCK:   -7.14 KCAL/MOL
REMARK 924 INTRA-LIGAND FREE ENERGY PREDICTED BY IDOCK:   -0.84 KCAL/MOL
REMARK 927      BINDING AFFINITY PREDICTED BY RF-SCORE:    0.00 PKD
ROOT
HETATM    1  C   UNL     1      -9.647   2.698  64.207  1.00  0.00    -0.144 C  
HETATM    2  C   UNL     1      -8.987   3.704  65.143  1.00  0.00    -0.133 C  
ENDROOT
BRANCH   2   3
HETATM    3  N   UNL     1      -9.608   3.745  66.474  1.00  0.00    -0.194 NA 
HETATM    4  C   UNL     1      -8.938   2.868  67.439  1.00  0.00    -0.162 C  
HETATM    5  C   UNL     1      -9.362   3.439  68.775  1.00  0.00    -0.234 C  
HETATM    6  C   UNL     1      -9.304   4.936  68.546  1.00  0.00    -0.175 C  
HETATM    7  C   UNL     1      -9.556   5.117  67.041  1.00  0.00    -0.147 C  
BRANCH   7   8
HETATM    8  C   UNL     1     -10.874   5.864  66.748  1.00  0.00    -0.270 C  
BRANCH   8   9
HETATM    9  N   UNL     1     -11.036   7.136  67.434  1.00  0.00    -0.539 N  
HETATM   10  C   UNL     1     -10.396   8.296  67.050  1.00  0.00    -0.323 C  
HETATM   11  H   UNL     1     -11.655   7.172  68.244  1.00  0.00     0.000 HD 
HETATM   12  O   UNL     1      -9.592   8.364  66.135  1.00  0.00    -0.221 OA 
BRANCH  10  13
HETATM   13  C   UNL     1     -10.717   9.487  67.885  1.00  0.00    -0.285 A  
HETATM   14  C   UNL     1     -11.106  10.642  67.178  1.00  0.00    -0.267 A  
HETATM   15  C   UNL     1     -11.430  11.828  67.845  1.00  0.00    -0.317 A  
HETATM   16  C   UNL     1     -10.729   9.511  69.283  1.00  0.00    -0.222 A  
HETATM   17  C   UNL     1     -11.379  11.896  69.238  1.00  0.00    -0.277 A  
HETATM   18  N   UNL     1     -11.824  13.011  69.966  1.00  0.00    -0.472 NA 
HETATM   19  C   UNL     1     -11.098  10.708  69.932  1.00  0.00    -0.364 A  
HETATM   20  H2  UNL     1     -12.788  13.192  69.687  1.00  0.00     0.000 HD 
HETATM   21  H1  UNL     1     -11.786  13.060  70.985  1.00  0.00     0.000 HD 
BRANCH  15  22
HETATM   22  S   UNL     1     -11.730  13.274  66.841  1.00  0.00    -0.399 S  
HETATM   23  O   UNL     1     -12.482  12.841  65.677  1.00  0.00    -0.586 OA 
HETATM   24  O   UNL     1     -12.280  14.286  67.730  1.00  0.00    -0.325 OA 
BRANCH  22  25
HETATM   25  C   UNL     1     -10.118  13.810  66.315  1.00  0.00    -0.300 C  
HETATM   26  C   UNL     1     -10.030  15.329  66.318  1.00  0.00    -0.304 C  
ENDBRANCH  22  25
ENDBRANCH  15  22
BRANCH  16  27
HETATM   27  O   UNL     1     -10.501   8.486  70.158  1.00  0.00    -0.210 OA 
HETATM   28  C   UNL     1     -11.437   8.282  71.211  1.00  0.00    -0.274 C  
ENDBRANCH  16  27
ENDBRANCH  10  13
ENDBRANCH   8   9
ENDBRANCH   7   8
ENDBRANCH   2   3
TORSDOF 7
ENDMDL
MODEL      100
REMARK 921   NORMALIZED FREE ENERGY PREDICTED BY IDOCK:   -4.94 KCAL/MOL
REMARK 922        TOTAL FREE ENERGY PREDICTED BY IDOCK:   -7.98 KCAL/MOL
REMARK 923 INTER-LIGAND FREE ENERGY PREDICTED BY IDOCK:   -6.53 KCAL/MOL
REMARK 924 INTRA-LIGAND FREE ENERGY PREDICTED BY IDOCK:   -1.45 KCAL/MOL
REMARK 927      BINDING AFFINITY PREDICTED BY RF-SCORE:    0.00 PKD
ROOT
HETATM    1  C   UNL     1     -10.649   6.078  69.476  1.00  0.00    -0.363 C  
HETATM    2  C   UNL     1     -11.876   6.629  70.194  1.00  0.00    -0.284 C  
ENDROOT
BRANCH   2   3
HETATM    3  N   UNL     1     -11.550   7.300  71.460  1.00  0.00    -0.264 NA 
HETATM    4  C   UNL     1     -11.533   6.379  72.601  1.00  0.00    -0.198 C  
HETATM    5  C   UNL     1     -10.700   7.117  73.626  1.00  0.00    -0.302 C  
HETATM    6  C   UNL     1      -9.591   7.730  72.795  1.00  0.00    -0.281 C  
HETATM    7  C   UNL     1     -10.202   7.922  71.399  1.00  0.00    -0.190 C  
BRANCH   7   8
HETATM    8  C   UNL     1     -10.321   9.409  71.004  1.00  0.00    -0.312 C  
BRANCH   8   9
HETATM    9  N   UNL     1     -10.080   9.702  69.600  1.00  0.00    -0.209 N  
HETATM   10  C   UNL     1     -11.051  10.180  68.744  1.00  0.00    -0.203 C  
HETATM   11  H   UNL     1      -9.144   9.546  69.228  1.00  0.00     0.000 HD 
HETATM   12  O   UNL     1     -12.216  10.353  69.058  1.00  0.00    -0.177 OA 
BRANCH  10  13
HETATM   13  C   UNL     1     -10.583  10.425  67.351  1.00  0.00    -0.321 A  
HETATM   14  C   UNL     1     -10.906  11.686  66.812  1.00  0.00    -0.322 A  
HETATM   15  C   UNL     1     -10.527  12.040  65.512  1.00  0.00    -0.269 A  
HETATM   16  C   UNL     1      -9.805   9.543  66.595  1.00  0.00    -0.231 A  
HETATM   17  C   UNL     1      -9.812  11.146  64.713  1.00  0.00    -0.277 A  
HETATM   18  N   UNL     1      -9.287  11.494  63.459  1.00  0.00    -0.487 NA 
HETATM   19  C   UNL     1      -9.403   9.939  65.302  1.00  0.00    -0.309 A  
HETATM   20  H2  UNL     1      -8.703  12.320  63.590  1.00  0.00     0.000 HD 
HETATM   21  H1  UNL     1      -8.765  10.840  62.874  1.00  0.00     0.000 HD 
BRANCH  15  22
HETATM   22  S   UNL     1     -11.147  13.587  64.873  1.00  0.00    -0.366 S  
HETATM   23  O   UNL     1     -11.975  14.179  65.908  1.00  0.00    -0.376 OA 
HETATM   24  O   UNL     1      -9.996  14.311  64.356  1.00  0.00    -0.062 OA 
BRANCH  22  25
HETATM   25  C   UNL     1     -12.183  13.134  63.500  1.00  0.00    -0.476 C  
HETATM   26  C   UNL     1     -13.266  12.161  63.942  1.00  0.00    -0.002 C  
ENDBRANCH  22  25
ENDBRANCH  15  22
BRANCH  16  27
HETATM   27  O   UNL     1      -9.287   8.331  66.960  1.00  0.00    -0.145 OA 
HETATM   28  C   UNL     1      -7.952   8.028  66.570  1.00  0.00    -0.102 C  
ENDBRANCH  16  27
ENDBRANCH  10  13
ENDBRANCH   8   9
ENDBRANCH   7   8
ENDBRANCH   2   3
TORSDOF 7
ENDMDL
MODEL      101
REMARK 921   NORMALIZED FREE ENERGY PREDICTED BY IDOCK:   -4.92 KCAL/MOL
REMARK 922        TOTAL FREE ENERGY PREDICTED BY IDOCK:   -7.96 KCAL/MOL
REMARK 923 INTER-LIGAND FREE ENERGY PREDICTED BY IDOCK:   -6.90 KCAL/MOL
REMARK 924 INTRA-LIGAND FREE ENERGY PREDICTED BY IDOCK:   -1.06 KCAL/MOL
REMARK 927      BINDING AFFINITY PREDICTED BY RF-SCORE:    0.00 PKD
ROOT
HETATM    1  C   UNL     1      -9.022  19.833  66.742  1.00  0.00    -0.431 C  
HETATM    2  C   UNL     1      -9.933  18.782  66.120  1.00  0.00    -0.345 C  
ENDROOT
BRANCH   2   3
HETATM    3  N   UNL     1      -9.761  17.447  66.710  1.00  0.00    -0.277 NA 
HETATM    4  C   UNL     1      -9.707  17.479  68.175  1.00  0.00    -0.302 C  
HETATM    5  C   UNL     1     -10.056  16.057  68.562  1.00  0.00    -0.233 C  
HETATM    6  C   UNL     1     -11.160  15.694  67.590  1.00  0.00    -0.305 C  
HETATM    7  C   UNL     1     -10.893  16.557  66.347  1.00  0.00    -0.042 C  
BRANCH   7   8
HETATM    8  C   UNL     1     -10.529  15.712  65.108  1.00  0.00    -0.389 C  
BRANCH   8   9
HETATM    9  N   UNL     1     -10.255  14.308  65.369  1.00  0.00    -0.356 N  
HETATM   10  C   UNL     1     -10.968  13.274  64.800  1.00  0.00    -0.350 C  
HETATM   11  H   UNL     1      -9.494  14.076  66.008  1.00  0.00     0.000 HD 
HETATM   12  O   UNL     1     -11.930  13.427  64.067  1.00  0.00    -0.427 OA 
BRANCH  10  13
HETATM   13  C   UNL     1     -10.508  11.913  65.195  1.00  0.00    -0.330 A  
HETATM   14  C   UNL     1     -10.708  11.569  66.547  1.00  0.00    -0.318 A  
HETATM   15  C   UNL     1     -10.317  10.322  67.046  1.00  0.00    -0.243 A  
HETATM   16  C   UNL     1      -9.978  10.957  64.324  1.00  0.00    -0.333 A  
HETATM   17  C   UNL     1      -9.718   9.379  66.209  1.00  0.00    -0.264 A  
HETATM   18  N   UNL     1      -9.433   8.066  66.617  1.00  0.00    -0.197 NA 
HETATM   19  C   UNL     1      -9.628   9.693  64.843  1.00  0.00    -0.244 A  
HETATM   20  H2  UNL     1     -10.301   7.659  66.964  1.00  0.00     0.000 HD 
HETATM   21  H1  UNL     1      -8.995   7.377  66.005  1.00  0.00     0.000 HD 
BRANCH  15  22
HETATM   22  S   UNL     1     -10.452  10.068  68.808  1.00  0.00    -0.219 S  
HETATM   23  O   UNL     1     -10.428   8.635  69.039  1.00  0.00    -0.216 OA 
HETATM   24  O   UNL     1      -9.450  10.923  69.426  1.00  0.00    -0.096 OA 
BRANCH  22  25
HETATM   25  C   UNL     1     -12.060  10.691  69.239  1.00  0.00    -0.134 C  
HETATM   26  C   UNL     1     -11.944  11.830  70.242  1.00  0.00    -0.429 C  
ENDBRANCH  22  25
ENDBRANCH  15  22
BRANCH  16  27
HETATM   27  O   UNL     1      -9.807  11.035  62.969  1.00  0.00    -0.324 OA 
HETATM   28  C   UNL     1      -8.504  11.320  62.473  1.00  0.00    -0.097 C  
ENDBRANCH  16  27
ENDBRANCH  10  13
ENDBRANCH   8   9
ENDBRANCH   7   8
ENDBRANCH   2   3
TORSDOF 7
ENDMDL
MODEL      102
REMARK 921   NORMALIZED FREE ENERGY PREDICTED BY IDOCK:   -4.92 KCAL/MOL
REMARK 922        TOTAL FREE ENERGY PREDICTED BY IDOCK:   -7.95 KCAL/MOL
REMARK 923 INTER-LIGAND FREE ENERGY PREDICTED BY IDOCK:   -6.43 KCAL/MOL
REMARK 924 INTRA-LIGAND FREE ENERGY PREDICTED BY IDOCK:   -1.52 KCAL/MOL
REMARK 927      BINDING AFFINITY PREDICTED BY RF-SCORE:    0.00 PKD
ROOT
HETATM    1  C   UNL     1     -12.282  14.834  64.271  1.00  0.00    -0.402 C  
HETATM    2  C   UNL     1     -12.455  14.062  65.573  1.00  0.00    -0.509 C  
ENDROOT
BRANCH   2   3
HETATM    3  N   UNL     1     -11.674  12.818  65.614  1.00  0.00    -0.376 NA 
HETATM    4  C   UNL     1     -11.727  12.075  64.350  1.00  0.00    -0.320 C  
HETATM    5  C   UNL     1     -10.505  11.184  64.424  1.00  0.00    -0.418 C  
HETATM    6  C   UNL     1      -9.452  12.089  65.031  1.00  0.00     0.028 C  
HETATM    7  C   UNL     1     -10.239  13.100  65.878  1.00  0.00    -0.291 C  
BRANCH   7   8
HETATM    8  C   UNL     1      -9.941  12.967  67.386  1.00  0.00    -0.217 C  
BRANCH   8   9
HETATM    9  N   UNL     1      -9.885  11.604  67.892  1.00  0.00    -0.179 N  
HETATM   10  C   UNL     1     -10.931  10.993  68.552  1.00  0.00    -0.228 C  
HETATM   11  H   UNL     1      -9.027  11.073  67.752  1.00  0.00     0.000 HD 
HETATM   12  O   UNL     1     -11.984  11.544  68.826  1.00  0.00    -0.372 OA 
BRANCH  10  13
HETATM   13  C   UNL     1     -10.664   9.589  68.972  1.00  0.00    -0.224 A  
HETATM   14  C   UNL     1     -11.351   9.154  70.123  1.00  0.00    -0.164 A  
HETATM   15  C   UNL     1     -11.184   7.859  70.623  1.00  0.00    -0.263 A  
HETATM   16  C   UNL     1      -9.859   8.680  68.278  1.00  0.00    -0.165 A  
HETATM   17  C   UNL     1     -10.329   6.956  69.987  1.00  0.00    -0.200 A  
HETATM   18  N   UNL     1     -10.227   5.607  70.360  1.00  0.00    -0.217 NA 
HETATM   19  C   UNL     1      -9.739   7.367  68.781  1.00  0.00    -0.149 A  
HETATM   20  H2  UNL     1     -11.167   5.210  70.329  1.00  0.00     0.000 HD 
HETATM   21  H1  UNL     1      -9.602   4.948  69.895  1.00  0.00     0.000 HD 
BRANCH  15  22
HETATM   22  S   UNL     1     -11.960   7.480  72.186  1.00  0.00    -0.264 S  
HETATM   23  O   UNL     1     -12.924   8.531  72.454  1.00  0.00    -0.351 OA 
HETATM   24  O   UNL     1     -12.396   6.094  72.105  1.00  0.00    -0.299 OA 
BRANCH  22  25
HETATM   25  C   UNL     1     -10.651   7.583  73.385  1.00  0.00    -0.354 C  
HETATM   26  C   UNL     1     -10.324   6.206  73.943  1.00  0.00    -0.302 C  
ENDBRANCH  22  25
ENDBRANCH  15  22
BRANCH  16  27
HETATM   27  O   UNL     1      -9.201   8.852  67.092  1.00  0.00    -0.134 OA 
HETATM   28  C   UNL     1      -9.409   7.889  66.064  1.00  0.00    -0.063 C  
ENDBRANCH  16  27
ENDBRANCH  10  13
ENDBRANCH   8   9
ENDBRANCH   7   8
ENDBRANCH   2   3
TORSDOF 7
ENDMDL
MODEL      103
REMARK 921   NORMALIZED FREE ENERGY PREDICTED BY IDOCK:   -4.91 KCAL/MOL
REMARK 922        TOTAL FREE ENERGY PREDICTED BY IDOCK:   -7.94 KCAL/MOL
REMARK 923 INTER-LIGAND FREE ENERGY PREDICTED BY IDOCK:   -6.79 KCAL/MOL
REMARK 924 INTRA-LIGAND FREE ENERGY PREDICTED BY IDOCK:   -1.15 KCAL/MOL
REMARK 927      BINDING AFFINITY PREDICTED BY RF-SCORE:    0.00 PKD
ROOT
HETATM    1  C   UNL     1      -6.491  11.035  66.933  1.00  0.00    -0.108 C  
HETATM    2  C   UNL     1      -7.953  11.455  66.831  1.00  0.00    -0.158 C  
ENDROOT
BRANCH   2   3
HETATM    3  N   UNL     1      -8.796  10.450  66.168  1.00  0.00    -0.153 NA 
HETATM    4  C   UNL     1      -8.157   9.868  64.983  1.00  0.00    -0.140 C  
HETATM    5  C   UNL     1      -8.908   8.567  64.792  1.00  0.00     0.017 C  
HETATM    6  C   UNL     1      -9.085   8.059  66.209  1.00  0.00    -0.232 C  
HETATM    7  C   UNL     1      -9.097   9.321  67.085  1.00  0.00    -0.130 C  
BRANCH   7   8
HETATM    8  C   UNL     1     -10.456   9.547  67.778  1.00  0.00    -0.254 C  
BRANCH   8   9
HETATM    9  N   UNL     1     -10.601  10.822  68.463  1.00  0.00    -0.182 N  
HETATM   10  C   UNL     1     -11.450  11.823  68.038  1.00  0.00    -0.319 C  
HETATM   11  H   UNL     1     -10.047  10.984  69.303  1.00  0.00     0.000 HD 
HETATM   12  O   UNL     1     -12.120  11.767  67.021  1.00  0.00    -0.575 OA 
BRANCH  10  13
HETATM   13  C   UNL     1     -11.452  13.040  68.898  1.00  0.00    -0.345 A  
HETATM   14  C   UNL     1     -10.929  14.207  68.307  1.00  0.00    -0.266 A  
HETATM   15  C   UNL     1     -10.871  15.415  69.009  1.00  0.00    -0.244 A  
HETATM   16  C   UNL     1     -11.992  13.115  70.186  1.00  0.00    -0.310 A  
HETATM   17  C   UNL     1     -11.338  15.496  70.323  1.00  0.00    -0.332 A  
HETATM   18  N   UNL     1     -11.434  16.706  71.027  1.00  0.00    -0.480 NA 
HETATM   19  C   UNL     1     -11.958  14.355  70.858  1.00  0.00    -0.393 A  
HETATM   20  H2  UNL     1     -11.997  17.343  70.463  1.00  0.00     0.000 HD 
HETATM   21  H1  UNL     1     -11.775  16.764  71.987  1.00  0.00     0.000 HD 
BRANCH  15  22
HETATM   22  S   UNL     1     -10.023  16.776  68.226  1.00  0.00    -0.288 S  
HETATM   23  O   UNL     1     -11.019  17.788  67.926  1.00  0.00    -0.308 OA 
HETATM   24  O   UNL     1      -8.887  17.099  69.076  1.00  0.00    -0.220 OA 
BRANCH  22  25
HETATM   25  C   UNL     1      -9.403  16.112  66.697  1.00  0.00    -0.242 C  
HETATM   26  C   UNL     1      -8.089  16.777  66.316  1.00  0.00    -0.365 C  
ENDBRANCH  22  25
ENDBRANCH  15  22
BRANCH  16  27
HETATM   27  O   UNL     1     -12.646  12.148  70.897  1.00  0.00    -0.336 OA 
HETATM   28  C   UNL     1     -13.371  12.542  72.057  1.00  0.00    -0.426 C  
ENDBRANCH  16  27
ENDBRANCH  10  13
ENDBRANCH   8   9
ENDBRANCH   7   8
ENDBRANCH   2   3
TORSDOF 7
ENDMDL
MODEL      104
REMARK 921   NORMALIZED FREE ENERGY PREDICTED BY IDOCK:   -4.89 KCAL/MOL
REMARK 922        TOTAL FREE ENERGY PREDICTED BY IDOCK:   -7.91 KCAL/MOL
REMARK 923 INTER-LIGAND FREE ENERGY PREDICTED BY IDOCK:   -6.89 KCAL/MOL
REMARK 924 INTRA-LIGAND FREE ENERGY PREDICTED BY IDOCK:   -1.02 KCAL/MOL
REMARK 927      BINDING AFFINITY PREDICTED BY RF-SCORE:    0.00 PKD
ROOT
HETATM    1  C   UNL     1      -9.986  19.438  68.709  1.00  0.00    -0.522 C  
HETATM    2  C   UNL     1     -10.672  18.596  67.640  1.00  0.00    -0.376 C  
ENDROOT
BRANCH   2   3
HETATM    3  N   UNL     1     -10.083  17.258  67.495  1.00  0.00    -0.304 NA 
HETATM    4  C   UNL     1      -9.203  17.151  66.327  1.00  0.00    -0.231 C  
HETATM    5  C   UNL     1      -8.339  15.951  66.657  1.00  0.00    -0.328 C  
HETATM    6  C   UNL     1      -8.056  16.125  68.136  1.00  0.00    -0.149 C  
HETATM    7  C   UNL     1      -9.259  16.909  68.680  1.00  0.00    -0.265 C  
BRANCH   7   8
HETATM    8  C   UNL     1     -10.094  16.090  69.686  1.00  0.00    -0.244 C  
BRANCH   8   9
HETATM    9  N   UNL     1     -10.145  14.658  69.432  1.00  0.00    -0.407 N  
HETATM   10  C   UNL     1     -11.246  14.017  68.902  1.00  0.00    -0.272 C  
HETATM   11  H   UNL     1      -9.324  14.098  69.659  1.00  0.00     0.000 HD 
HETATM   12  O   UNL     1     -12.302  14.570  68.643  1.00  0.00    -0.176 OA 
BRANCH  10  13
HETATM   13  C   UNL     1     -11.077  12.550  68.712  1.00  0.00    -0.314 A  
HETATM   14  C   UNL     1     -10.369  12.161  67.557  1.00  0.00    -0.219 A  
HETATM   15  C   UNL     1     -10.145  10.813  67.261  1.00  0.00    -0.196 A  
HETATM   16  C   UNL     1     -11.495  11.566  69.613  1.00  0.00    -0.301 A  
HETATM   17  C   UNL     1     -10.618   9.811  68.110  1.00  0.00    -0.231 A  
HETATM   18  N   UNL     1     -10.306   8.453  67.939  1.00  0.00    -0.232 NA 
HETATM   19  C   UNL     1     -11.223  10.216  69.311  1.00  0.00    -0.247 A  
HETATM   20  H2  UNL     1      -9.290   8.375  67.911  1.00  0.00     0.000 HD 
HETATM   21  H1  UNL     1     -10.652   7.721  68.561  1.00  0.00     0.000 HD 
BRANCH  15  22
HETATM   22  S   UNL     1      -9.400  10.435  65.683  1.00  0.00    -0.215 S  
HETATM   23  O   UNL     1      -8.239  11.295  65.539  1.00  0.00     0.016 OA 
HETATM   24  O   UNL     1      -9.247   8.989  65.633  1.00  0.00    -0.216 OA 
BRANCH  22  25
HETATM   25  C   UNL     1     -10.616  10.909  64.476  1.00  0.00    -0.265 C  
HETATM   26  C   UNL     1     -10.290  12.276  63.891  1.00  0.00    -0.455 C  
ENDBRANCH  22  25
ENDBRANCH  15  22
BRANCH  16  27
HETATM   27  O   UNL     1     -12.089  11.723  70.835  1.00  0.00    -0.330 OA 
HETATM   28  C   UNL     1     -12.985  10.711  71.280  1.00  0.00    -0.414 C  
ENDBRANCH  16  27
ENDBRANCH  10  13
ENDBRANCH   8   9
ENDBRANCH   7   8
ENDBRANCH   2   3
TORSDOF 7
ENDMDL
MODEL      105
REMARK 921   NORMALIZED FREE ENERGY PREDICTED BY IDOCK:   -4.88 KCAL/MOL
REMARK 922        TOTAL FREE ENERGY PREDICTED BY IDOCK:   -7.89 KCAL/MOL
REMARK 923 INTER-LIGAND FREE ENERGY PREDICTED BY IDOCK:   -7.38 KCAL/MOL
REMARK 924 INTRA-LIGAND FREE ENERGY PREDICTED BY IDOCK:   -0.51 KCAL/MOL
REMARK 927      BINDING AFFINITY PREDICTED BY RF-SCORE:    0.00 PKD
ROOT
HETATM    1  C   UNL     1     -10.397   6.144  69.120  1.00  0.00    -0.271 C  
HETATM    2  C   UNL     1     -11.631   6.497  69.942  1.00  0.00    -0.368 C  
ENDROOT
BRANCH   2   3
HETATM    3  N   UNL     1     -11.327   7.343  71.104  1.00  0.00    -0.262 NA 
HETATM    4  C   UNL     1     -10.300   6.761  71.975  1.00  0.00    -0.196 C  
HETATM    5  C   UNL     1      -9.786   7.958  72.747  1.00  0.00    -0.322 C  
HETATM    6  C   UNL     1      -9.734   9.050  71.698  1.00  0.00    -0.347 C  
HETATM    7  C   UNL     1     -10.816   8.670  70.676  1.00  0.00    -0.229 C  
BRANCH   7   8
HETATM    8  C   UNL     1     -11.971   9.693  70.629  1.00  0.00    -0.229 C  
BRANCH   8   9
HETATM    9  N   UNL     1     -11.763  10.827  69.742  1.00  0.00    -0.296 N  
HETATM   10  C   UNL     1     -11.430  10.701  68.409  1.00  0.00    -0.259 C  
HETATM   11  H   UNL     1     -11.868  11.765  70.125  1.00  0.00     0.000 HD 
HETATM   12  O   UNL     1     -11.223   9.635  67.852  1.00  0.00    -0.143 OA 
BRANCH  10  13
HETATM   13  C   UNL     1     -11.279  11.992  67.682  1.00  0.00    -0.343 A  
HETATM   14  C   UNL     1     -11.093  13.130  68.492  1.00  0.00    -0.296 A  
HETATM   15  C   UNL     1     -10.942  14.404  67.933  1.00  0.00    -0.262 A  
HETATM   16  C   UNL     1     -11.236  12.135  66.292  1.00  0.00    -0.334 A  
HETATM   17  C   UNL     1     -10.969  14.579  66.548  1.00  0.00    -0.321 A  
HETATM   18  N   UNL     1     -10.687  15.806  65.927  1.00  0.00    -0.325 NA 
HETATM   19  C   UNL     1     -11.043  13.424  65.753  1.00  0.00    -0.295 A  
HETATM   20  H2  UNL     1      -9.770  16.110  66.256  1.00  0.00     0.000 HD 
HETATM   21  H1  UNL     1     -10.706  15.934  64.915  1.00  0.00     0.000 HD 
BRANCH  15  22
HETATM   22  S   UNL     1     -10.897  15.790  69.058  1.00  0.00    -0.270 S  
HETATM   23  O   UNL     1      -9.627  15.735  69.757  1.00  0.00    -0.265 OA 
HETATM   24  O   UNL     1     -11.251  16.966  68.278  1.00  0.00    -0.303 OA 
BRANCH  22  25
HETATM   25  C   UNL     1     -12.205  15.478  70.222  1.00  0.00    -0.400 C  
HETATM   26  C   UNL     1     -11.821  15.977  71.607  1.00  0.00    -0.582 C  
ENDBRANCH  22  25
ENDBRANCH  15  22
BRANCH  16  27
HETATM   27  O   UNL     1     -11.279  11.163  65.331  1.00  0.00    -0.080 OA 
HETATM   28  C   UNL     1     -10.980  11.533  63.989  1.00  0.00    -0.383 C  
ENDBRANCH  16  27
ENDBRANCH  10  13
ENDBRANCH   8   9
ENDBRANCH   7   8
ENDBRANCH   2   3
TORSDOF 7
ENDMDL
MODEL      106
REMARK 921   NORMALIZED FREE ENERGY PREDICTED BY IDOCK:   -4.87 KCAL/MOL
REMARK 922        TOTAL FREE ENERGY PREDICTED BY IDOCK:   -7.88 KCAL/MOL
REMARK 923 INTER-LIGAND FREE ENERGY PREDICTED BY IDOCK:   -7.17 KCAL/MOL
REMARK 924 INTRA-LIGAND FREE ENERGY PREDICTED BY IDOCK:   -0.71 KCAL/MOL
REMARK 927      BINDING AFFINITY PREDICTED BY RF-SCORE:    0.00 PKD
ROOT
HETATM    1  C   UNL     1     -12.500  12.101  63.483  1.00  0.00    -0.666 C  
HETATM    2  C   UNL     1     -12.400  13.127  64.605  1.00  0.00    -0.405 C  
ENDROOT
BRANCH   2   3
HETATM    3  N   UNL     1     -11.038  13.645  64.793  1.00  0.00    -0.352 NA 
HETATM    4  C   UNL     1     -11.013  15.086  65.062  1.00  0.00    -0.423 C  
HETATM    5  C   UNL     1      -9.664  15.289  65.719  1.00  0.00    -0.385 C  
HETATM    6  C   UNL     1      -9.535  14.081  66.624  1.00  0.00    -0.300 C  
HETATM    7  C   UNL     1     -10.375  12.987  65.948  1.00  0.00    -0.288 C  
BRANCH   7   8
HETATM    8  C   UNL     1      -9.519  11.799  65.463  1.00  0.00    -0.168 C  
BRANCH   8   9
HETATM    9  N   UNL     1      -9.487  10.649  66.353  1.00  0.00    -0.167 N  
HETATM   10  C   UNL     1     -10.528  10.304  67.191  1.00  0.00    -0.254 C  
HETATM   11  H   UNL     1      -8.650  10.066  66.359  1.00  0.00     0.000 HD 
HETATM   12  O   UNL     1     -11.553  10.953  67.311  1.00  0.00    -0.475 OA 
BRANCH  10  13
HETATM   13  C   UNL     1     -10.289   9.081  68.006  1.00  0.00    -0.275 A  
HETATM   14  C   UNL     1     -10.869   9.079  69.290  1.00  0.00    -0.131 A  
HETATM   15  C   UNL     1     -10.716   7.992  70.156  1.00  0.00    -0.244 A  
HETATM   16  C   UNL     1      -9.611   7.939  67.566  1.00  0.00    -0.152 A  
HETATM   17  C   UNL     1      -9.981   6.871  69.765  1.00  0.00    -0.178 A  
HETATM   18  N   UNL     1      -9.909   5.698  70.532  1.00  0.00    -0.182 NA 
HETATM   19  C   UNL     1      -9.505   6.840  68.444  1.00  0.00    -0.126 A  
HETATM   20  H2  UNL     1     -10.866   5.390  70.709  1.00  0.00     0.000 HD 
HETATM   21  H1  UNL     1      -9.373   4.878  70.246  1.00  0.00     0.000 HD 
BRANCH  15  22
HETATM   22  S   UNL     1     -11.337   8.177  71.819  1.00  0.00    -0.298 S  
HETATM   23  O   UNL     1     -12.206   7.045  72.082  1.00  0.00    -0.285 OA 
HETATM   24  O   UNL     1     -10.181   8.423  72.667  1.00  0.00    -0.302 OA 
BRANCH  22  25
HETATM   25  C   UNL     1     -12.323   9.657  71.778  1.00  0.00    -0.392 C  
HETATM   26  C   UNL     1     -13.805   9.317  71.834  1.00  0.00    -0.414 C  
ENDBRANCH  22  25
ENDBRANCH  15  22
BRANCH  16  27
HETATM   27  O   UNL     1      -9.077   7.683  66.334  1.00  0.00    -0.161 OA 
HETATM   28  C   UNL     1      -8.680   6.348  66.039  1.00  0.00    -0.151 C  
ENDBRANCH  16  27
ENDBRANCH  10  13
ENDBRANCH   8   9
ENDBRANCH   7   8
ENDBRANCH   2   3
TORSDOF 7
ENDMDL
MODEL      107
REMARK 921   NORMALIZED FREE ENERGY PREDICTED BY IDOCK:   -4.87 KCAL/MOL
REMARK 922        TOTAL FREE ENERGY PREDICTED BY IDOCK:   -7.88 KCAL/MOL
REMARK 923 INTER-LIGAND FREE ENERGY PREDICTED BY IDOCK:   -6.69 KCAL/MOL
REMARK 924 INTRA-LIGAND FREE ENERGY PREDICTED BY IDOCK:   -1.19 KCAL/MOL
REMARK 927      BINDING AFFINITY PREDICTED BY RF-SCORE:    0.00 PKD
ROOT
HETATM    1  C   UNL     1      -9.968   6.863  67.104  1.00  0.00    -0.239 C  
HETATM    2  C   UNL     1      -8.591   7.490  67.287  1.00  0.00    -0.118 C  
ENDROOT
BRANCH   2   3
HETATM    3  N   UNL     1      -8.228   8.411  66.201  1.00  0.00    -0.108 NA 
HETATM    4  C   UNL     1      -8.213   7.759  64.888  1.00  0.00    -0.107 C  
HETATM    5  C   UNL     1      -8.346   8.922  63.926  1.00  0.00    -0.162 C  
HETATM    6  C   UNL     1      -9.359   9.820  64.608  1.00  0.00    -0.318 C  
HETATM    7  C   UNL     1      -9.200   9.530  66.108  1.00  0.00    -0.177 C  
BRANCH   7   8
HETATM    8  C   UNL     1      -8.681  10.751  66.895  1.00  0.00    -0.141 C  
BRANCH   8   9
HETATM    9  N   UNL     1      -9.202  12.039  66.462  1.00  0.00    -0.214 N  
HETATM   10  C   UNL     1      -8.960  13.222  67.129  1.00  0.00    -0.229 C  
HETATM   11  H   UNL     1      -9.776  12.068  65.620  1.00  0.00     0.000 HD 
HETATM   12  O   UNL     1      -8.336  13.304  68.173  1.00  0.00    -0.147 OA 
BRANCH  10  13
HETATM   13  C   UNL     1      -9.578  14.424  66.503  1.00  0.00    -0.310 A  
HETATM   14  C   UNL     1      -9.228  15.661  67.080  1.00  0.00    -0.226 A  
HETATM   15  C   UNL     1      -9.743  16.865  66.588  1.00  0.00    -0.271 A  
HETATM   16  C   UNL     1     -10.396  14.412  65.369  1.00  0.00    -0.378 A  
HETATM   17  C   UNL     1     -10.620  16.870  65.501  1.00  0.00    -0.202 A  
HETATM   18  N   UNL     1     -11.058  18.049  64.879  1.00  0.00    -0.484 NA 
HETATM   19  C   UNL     1     -10.870  15.642  64.868  1.00  0.00    -0.438 A  
HETATM   20  H2  UNL     1     -10.229  18.576  64.604  1.00  0.00     0.000 HD 
HETATM   21  H1  UNL     1     -11.699  18.053  64.084  1.00  0.00     0.000 HD 
BRANCH  15  22
HETATM   22  S   UNL     1      -9.376  18.349  67.510  1.00  0.00    -0.267 S  
HETATM   23  O   UNL     1     -10.584  19.153  67.528  1.00  0.00    -0.434 OA 
HETATM   24  O   UNL     1      -8.767  17.919  68.759  1.00  0.00    -0.279 OA 
BRANCH  22  25
HETATM   25  C   UNL     1      -8.141  19.192  66.549  1.00  0.00    -0.298 C  
HETATM   26  C   UNL     1      -7.605  20.400  67.304  1.00  0.00    -0.371 C  
ENDBRANCH  22  25
ENDBRANCH  15  22
BRANCH  16  27
HETATM   27  O   UNL     1     -10.764  13.349  64.591  1.00  0.00    -0.365 OA 
HETATM   28  C   UNL     1     -12.152  13.124  64.376  1.00  0.00    -0.410 C  
ENDBRANCH  16  27
ENDBRANCH  10  13
ENDBRANCH   8   9
ENDBRANCH   7   8
ENDBRANCH   2   3
TORSDOF 7
ENDMDL
MODEL      108
REMARK 921   NORMALIZED FREE ENERGY PREDICTED BY IDOCK:   -4.86 KCAL/MOL
REMARK 922        TOTAL FREE ENERGY PREDICTED BY IDOCK:   -7.87 KCAL/MOL
REMARK 923 INTER-LIGAND FREE ENERGY PREDICTED BY IDOCK:   -7.22 KCAL/MOL
REMARK 924 INTRA-LIGAND FREE ENERGY PREDICTED BY IDOCK:   -0.64 KCAL/MOL
REMARK 927      BINDING AFFINITY PREDICTED BY RF-SCORE:    0.00 PKD
ROOT
HETATM    1  C   UNL     1      -8.276  12.627  67.319  1.00  0.00    -0.184 C  
HETATM    2  C   UNL     1      -9.361  12.374  66.279  1.00  0.00    -0.189 C  
ENDROOT
BRANCH   2   3
HETATM    3  N   UNL     1     -10.322  13.480  66.169  1.00  0.00    -0.290 NA 
HETATM    4  C   UNL     1     -10.486  13.952  64.790  1.00  0.00    -0.429 C  
HETATM    5  C   UNL     1     -11.823  14.661  64.827  1.00  0.00    -0.444 C  
HETATM    6  C   UNL     1     -12.669  13.761  65.704  1.00  0.00    -0.523 C  
HETATM    7  C   UNL     1     -11.669  13.061  66.636  1.00  0.00    -0.381 C  
BRANCH   7   8
HETATM    8  C   UNL     1     -11.863  13.455  68.115  1.00  0.00    -0.361 C  
BRANCH   8   9
HETATM    9  N   UNL     1     -11.433  12.461  69.086  1.00  0.00    -0.284 N  
HETATM   10  C   UNL     1     -11.472  11.102  68.855  1.00  0.00    -0.295 C  
HETATM   11  H   UNL     1     -11.083  12.787  69.987  1.00  0.00     0.000 HD 
HETATM   12  O   UNL     1     -11.919  10.593  67.841  1.00  0.00    -0.420 OA 
BRANCH  10  13
HETATM   13  C   UNL     1     -10.969  10.266  69.980  1.00  0.00    -0.371 A  
HETATM   14  C   UNL     1      -9.571  10.092  70.035  1.00  0.00    -0.205 A  
HETATM   15  C   UNL     1      -8.973   9.326  71.040  1.00  0.00    -0.156 A  
HETATM   16  C   UNL     1     -11.760   9.723  70.997  1.00  0.00    -0.370 A  
HETATM   17  C   UNL     1      -9.751   8.714  72.025  1.00  0.00    -0.321 A  
HETATM   18  N   UNL     1      -9.200   8.052  73.133  1.00  0.00    -0.266 NA 
HETATM   19  C   UNL     1     -11.128   8.988  72.022  1.00  0.00    -0.371 A  
HETATM   20  H2  UNL     1      -8.576   8.709  73.602  1.00  0.00     0.000 HD 
HETATM   21  H1  UNL     1      -9.769   7.604  73.853  1.00  0.00     0.000 HD 
BRANCH  15  22
HETATM   22  S   UNL     1      -7.218   9.025  70.903  1.00  0.00    -0.106 S  
HETATM   23  O   UNL     1      -6.709   9.909  69.872  1.00  0.00    -0.063 OA 
HETATM   24  O   UNL     1      -6.681   9.092  72.254  1.00  0.00    -0.305 OA 
BRANCH  22  25
HETATM   25  C   UNL     1      -7.085   7.345  70.334  1.00  0.00    -0.064 C  
HETATM   26  C   UNL     1      -5.976   7.215  69.299  1.00  0.00    -0.029 C  
ENDBRANCH  22  25
ENDBRANCH  15  22
BRANCH  16  27
HETATM   27  O   UNL     1     -13.104   9.864  71.202  1.00  0.00    -0.367 OA 
HETATM   28  C   UNL     1     -13.648   9.395  72.431  1.00  0.00    -0.429 C  
ENDBRANCH  16  27
ENDBRANCH  10  13
ENDBRANCH   8   9
ENDBRANCH   7   8
ENDBRANCH   2   3
TORSDOF 7
ENDMDL
MODEL      109
REMARK 921   NORMALIZED FREE ENERGY PREDICTED BY IDOCK:   -4.85 KCAL/MOL
REMARK 922        TOTAL FREE ENERGY PREDICTED BY IDOCK:   -7.86 KCAL/MOL
REMARK 923 INTER-LIGAND FREE ENERGY PREDICTED BY IDOCK:   -6.53 KCAL/MOL
REMARK 924 INTRA-LIGAND FREE ENERGY PREDICTED BY IDOCK:   -1.33 KCAL/MOL
REMARK 927      BINDING AFFINITY PREDICTED BY RF-SCORE:    0.00 PKD
ROOT
HETATM    1  C   UNL     1     -12.504  12.514  64.604  1.00  0.00    -0.539 C  
HETATM    2  C   UNL     1     -12.585  13.516  65.750  1.00  0.00    -0.434 C  
ENDROOT
BRANCH   2   3
HETATM    3  N   UNL     1     -11.351  13.584  66.545  1.00  0.00    -0.311 NA 
HETATM    4  C   UNL     1     -10.189  13.997  65.752  1.00  0.00    -0.328 C  
HETATM    5  C   UNL     1      -9.218  14.497  66.801  1.00  0.00    -0.286 C  
HETATM    6  C   UNL     1     -10.110  15.246  67.770  1.00  0.00    -0.230 C  
HETATM    7  C   UNL     1     -11.484  14.570  67.648  1.00  0.00    -0.353 C  
BRANCH   7   8
HETATM    8  C   UNL     1     -11.911  13.858  68.948  1.00  0.00    -0.358 C  
BRANCH   8   9
HETATM    9  N   UNL     1     -11.034  12.785  69.388  1.00  0.00    -0.450 N  
HETATM   10  C   UNL     1     -11.287  11.449  69.154  1.00  0.00    -0.288 C  
HETATM   11  H   UNL     1     -10.186  13.032  69.897  1.00  0.00     0.000 HD 
HETATM   12  O   UNL     1     -12.293  11.029  68.606  1.00  0.00    -0.539 OA 
BRANCH  10  13
HETATM   13  C   UNL     1     -10.249  10.519  69.679  1.00  0.00    -0.207 A  
HETATM   14  C   UNL     1      -9.014  10.536  69.000  1.00  0.00    -0.183 A  
HETATM   15  C   UNL     1      -7.958   9.708  69.392  1.00  0.00    -0.111 A  
HETATM   16  C   UNL     1     -10.389   9.711  70.811  1.00  0.00    -0.286 A  
HETATM   17  C   UNL     1      -8.101   8.839  70.476  1.00  0.00    -0.124 A  
HETATM   18  N   UNL     1      -7.037   8.088  70.999  1.00  0.00    -0.048 NA 
HETATM   19  C   UNL     1      -9.296   8.914  71.209  1.00  0.00    -0.336 A  
HETATM   20  H2  UNL     1      -6.286   8.741  71.228  1.00  0.00     0.000 HD 
HETATM   21  H1  UNL     1      -7.141   7.454  71.792  1.00  0.00     0.000 HD 
BRANCH  15  22
HETATM   22  S   UNL     1      -6.509   9.682  68.349  1.00  0.00    -0.052 S  
HETATM   23  O   UNL     1      -5.358   9.904  69.205  1.00  0.00    -0.036 OA 
HETATM   24  O   UNL     1      -6.599   8.472  67.546  1.00  0.00    -0.057 OA 
BRANCH  22  25
HETATM   25  C   UNL     1      -6.697  11.082  67.269  1.00  0.00    -0.086 C  
HETATM   26  C   UNL     1      -5.338  11.631  66.860  1.00  0.00    -0.125 C  
ENDBRANCH  22  25
ENDBRANCH  15  22
BRANCH  16  27
HETATM   27  O   UNL     1     -11.445   9.626  71.676  1.00  0.00    -0.380 OA 
HETATM   28  C   UNL     1     -11.650   8.398  72.366  1.00  0.00    -0.380 C  
ENDBRANCH  16  27
ENDBRANCH  10  13
ENDBRANCH   8   9
ENDBRANCH   7   8
ENDBRANCH   2   3
TORSDOF 7
ENDMDL
MODEL      110
REMARK 921   NORMALIZED FREE ENERGY PREDICTED BY IDOCK:   -4.85 KCAL/MOL
REMARK 922        TOTAL FREE ENERGY PREDICTED BY IDOCK:   -7.86 KCAL/MOL
REMARK 923 INTER-LIGAND FREE ENERGY PREDICTED BY IDOCK:   -6.48 KCAL/MOL
REMARK 924 INTRA-LIGAND FREE ENERGY PREDICTED BY IDOCK:   -1.38 KCAL/MOL
REMARK 927      BINDING AFFINITY PREDICTED BY RF-SCORE:    0.00 PKD
ROOT
HETATM    1  C   UNL     1     -10.892  19.446  67.134  1.00  0.00    -0.561 C  
HETATM    2  C   UNL     1      -9.978  18.991  68.266  1.00  0.00    -0.394 C  
ENDROOT
BRANCH   2   3
HETATM    3  N   UNL     1      -9.469  17.625  68.082  1.00  0.00    -0.277 NA 
HETATM    4  C   UNL     1      -8.021  17.527  68.288  1.00  0.00    -0.259 C  
HETATM    5  C   UNL     1      -7.813  16.055  68.572  1.00  0.00    -0.160 C  
HETATM    6  C   UNL     1      -8.994  15.702  69.454  1.00  0.00    -0.265 C  
HETATM    7  C   UNL     1     -10.098  16.690  69.051  1.00  0.00    -0.293 C  
BRANCH   7   8
HETATM    8  C   UNL     1     -11.311  15.990  68.403  1.00  0.00    -0.355 C  
BRANCH   8   9
HETATM    9  N   UNL     1     -11.019  14.735  67.728  1.00  0.00    -0.282 N  
HETATM   10  C   UNL     1     -10.677  14.648  66.395  1.00  0.00    -0.309 C  
HETATM   11  H   UNL     1     -11.070  13.873  68.271  1.00  0.00     0.000 HD 
HETATM   12  O   UNL     1     -10.637  15.600  65.634  1.00  0.00    -0.334 OA 
BRANCH  10  13
HETATM   13  C   UNL     1     -10.405  13.264  65.914  1.00  0.00    -0.293 A  
HETATM   14  C   UNL     1      -9.268  12.639  66.463  1.00  0.00    -0.200 A  
HETATM   15  C   UNL     1      -8.901  11.342  66.091  1.00  0.00    -0.190 A  
HETATM   16  C   UNL     1     -11.220  12.541  65.037  1.00  0.00    -0.306 A  
HETATM   17  C   UNL     1      -9.660  10.627  65.162  1.00  0.00    -0.251 A  
HETATM   18  N   UNL     1      -9.422   9.279  64.856  1.00  0.00    -0.449 NA 
HETATM   19  C   UNL     1     -10.850  11.220  64.709  1.00  0.00    -0.314 A  
HETATM   20  H2  UNL     1      -9.444   8.758  65.733  1.00  0.00     0.000 HD 
HETATM   21  H1  UNL     1      -9.977   8.757  64.177  1.00  0.00     0.000 HD 
BRANCH  15  22
HETATM   22  S   UNL     1      -7.345  10.723  66.711  1.00  0.00    -0.136 S  
HETATM   23  O   UNL     1      -6.697  10.018  65.621  1.00  0.00    -0.091 OA 
HETATM   24  O   UNL     1      -6.679  11.847  67.351  1.00  0.00    -0.099 OA 
BRANCH  22  25
HETATM   25  C   UNL     1      -7.788   9.548  67.970  1.00  0.00    -0.087 C  
HETATM   26  C   UNL     1      -7.494   8.128  67.507  1.00  0.00    -0.094 C  
ENDBRANCH  22  25
ENDBRANCH  15  22
BRANCH  16  27
HETATM   27  O   UNL     1     -12.416  12.906  64.483  1.00  0.00    -0.512 OA 
HETATM   28  C   UNL     1     -12.393  13.650  63.270  1.00  0.00     0.033 C  
ENDBRANCH  16  27
ENDBRANCH  10  13
ENDBRANCH   8   9
ENDBRANCH   7   8
ENDBRANCH   2   3
TORSDOF 7
ENDMDL
MODEL      111
REMARK 921   NORMALIZED FREE ENERGY PREDICTED BY IDOCK:   -4.85 KCAL/MOL
REMARK 922        TOTAL FREE ENERGY PREDICTED BY IDOCK:   -7.85 KCAL/MOL
REMARK 923 INTER-LIGAND FREE ENERGY PREDICTED BY IDOCK:   -6.71 KCAL/MOL
REMARK 924 INTRA-LIGAND FREE ENERGY PREDICTED BY IDOCK:   -1.14 KCAL/MOL
REMARK 927      BINDING AFFINITY PREDICTED BY RF-SCORE:    0.00 PKD
ROOT
HETATM    1  C   UNL     1     -10.162  17.477  68.735  1.00  0.00    -0.373 C  
HETATM    2  C   UNL     1     -11.301  16.465  68.763  1.00  0.00    -0.277 C  
ENDROOT
BRANCH   2   3
HETATM    3  N   UNL     1     -11.180  15.491  69.856  1.00  0.00    -0.286 NA 
HETATM    4  C   UNL     1     -11.724  15.992  71.123  1.00  0.00    -0.439 C  
HETATM    5  C   UNL     1     -11.979  14.725  71.912  1.00  0.00    -0.391 C  
HETATM    6  C   UNL     1     -12.533  13.774  70.870  1.00  0.00    -0.451 C  
HETATM    7  C   UNL     1     -11.923  14.244  69.541  1.00  0.00    -0.336 C  
BRANCH   7   8
HETATM    8  C   UNL     1     -10.970  13.199  68.925  1.00  0.00    -0.230 C  
BRANCH   8   9
HETATM    9  N   UNL     1     -11.085  11.854  69.467  1.00  0.00    -0.447 N  
HETATM   10  C   UNL     1     -10.619  10.729  68.819  1.00  0.00    -0.200 C  
HETATM   11  H   UNL     1     -11.535  11.736  70.374  1.00  0.00     0.000 HD 
HETATM   12  O   UNL     1     -10.114  10.737  67.709  1.00  0.00    -0.168 OA 
BRANCH  10  13
HETATM   13  C   UNL     1     -10.828   9.455  69.561  1.00  0.00    -0.231 A  
HETATM   14  C   UNL     1     -10.244   8.309  68.985  1.00  0.00    -0.226 A  
HETATM   15  C   UNL     1     -10.371   7.050  69.581  1.00  0.00    -0.209 A  
HETATM   16  C   UNL     1     -11.481   9.337  70.792  1.00  0.00    -0.292 A  
HETATM   17  C   UNL     1     -11.080   6.897  70.774  1.00  0.00    -0.275 A  
HETATM   18  N   UNL     1     -11.124   5.690  71.488  1.00  0.00    -0.213 NA 
HETATM   19  C   UNL     1     -11.560   8.063  71.393  1.00  0.00    -0.301 A  
HETATM   20  H2  UNL     1     -10.160   5.407  71.669  1.00  0.00     0.000 HD 
HETATM   21  H1  UNL     1     -11.643   5.579  72.360  1.00  0.00     0.000 HD 
BRANCH  15  22
HETATM   22  S   UNL     1      -9.748   5.647  68.669  1.00  0.00    -0.145 S  
HETATM   23  O   UNL     1      -9.355   4.642  69.640  1.00  0.00    -0.116 OA 
HETATM   24  O   UNL     1     -10.748   5.335  67.659  1.00  0.00    -0.121 OA 
BRANCH  22  25
HETATM   25  C   UNL     1      -8.291   6.246  67.845  1.00  0.00    -0.118 C  
HETATM   26  C   UNL     1      -8.446   6.140  66.334  1.00  0.00    -0.123 C  
ENDBRANCH  22  25
ENDBRANCH  15  22
BRANCH  16  27
HETATM   27  O   UNL     1     -12.013  10.323  71.576  1.00  0.00    -0.358 OA 
HETATM   28  C   UNL     1     -13.344  10.157  72.051  1.00  0.00    -0.387 C  
ENDBRANCH  16  27
ENDBRANCH  10  13
ENDBRANCH   8   9
ENDBRANCH   7   8
ENDBRANCH   2   3
TORSDOF 7
ENDMDL
MODEL      112
REMARK 921   NORMALIZED FREE ENERGY PREDICTED BY IDOCK:   -4.84 KCAL/MOL
REMARK 922        TOTAL FREE ENERGY PREDICTED BY IDOCK:   -7.85 KCAL/MOL
REMARK 923 INTER-LIGAND FREE ENERGY PREDICTED BY IDOCK:   -7.02 KCAL/MOL
REMARK 924 INTRA-LIGAND FREE ENERGY PREDICTED BY IDOCK:   -0.83 KCAL/MOL
REMARK 927      BINDING AFFINITY PREDICTED BY RF-SCORE:    0.00 PKD
ROOT
HETATM    1  C   UNL     1     -12.130  12.886  63.557  1.00  0.00    -0.633 C  
HETATM    2  C   UNL     1     -12.187  13.971  64.625  1.00  0.00    -0.435 C  
ENDROOT
BRANCH   2   3
HETATM    3  N   UNL     1     -10.859  14.377  65.106  1.00  0.00    -0.361 NA 
HETATM    4  C   UNL     1     -10.765  15.817  65.362  1.00  0.00    -0.404 C  
HETATM    5  C   UNL     1      -9.581  15.923  66.300  1.00  0.00    -0.345 C  
HETATM    6  C   UNL     1      -9.763  14.733  67.221  1.00  0.00    -0.230 C  
HETATM    7  C   UNL     1     -10.527  13.697  66.385  1.00  0.00    -0.288 C  
BRANCH   7   8
HETATM    8  C   UNL     1      -9.695  12.427  66.111  1.00  0.00    -0.246 C  
BRANCH   8   9
HETATM    9  N   UNL     1      -9.394  11.616  67.280  1.00  0.00    -0.167 N  
HETATM   10  C   UNL     1     -10.352  10.931  68.000  1.00  0.00    -0.185 C  
HETATM   11  H   UNL     1      -8.423  11.549  67.584  1.00  0.00     0.000 HD 
HETATM   12  O   UNL     1     -11.548  10.979  67.767  1.00  0.00    -0.510 OA 
BRANCH  10  13
HETATM   13  C   UNL     1      -9.821  10.151  69.152  1.00  0.00    -0.225 A  
HETATM   14  C   UNL     1     -10.787   9.512  69.955  1.00  0.00    -0.272 A  
HETATM   15  C   UNL     1     -10.419   8.751  71.069  1.00  0.00    -0.230 A  
HETATM   16  C   UNL     1      -8.466   9.954  69.437  1.00  0.00    -0.165 A  
HETATM   17  C   UNL     1      -9.075   8.601  71.414  1.00  0.00    -0.229 A  
HETATM   18  N   UNL     1      -8.638   7.741  72.434  1.00  0.00    -0.121 NA 
HETATM   19  C   UNL     1      -8.120   9.150  70.543  1.00  0.00    -0.182 A  
HETATM   20  H2  UNL     1      -9.005   6.812  72.227  1.00  0.00     0.000 HD 
HETATM   21  H1  UNL     1      -7.655   7.632  72.686  1.00  0.00     0.000 HD 
BRANCH  15  22
HETATM   22  S   UNL     1     -11.733   8.143  72.113  1.00  0.00    -0.384 S  
HETATM   23  O   UNL     1     -12.380   7.056  71.402  1.00  0.00    -0.339 OA 
HETATM   24  O   UNL     1     -11.145   7.909  73.424  1.00  0.00    -0.277 OA 
BRANCH  22  25
HETATM   25  C   UNL     1     -12.876   9.498  72.249  1.00  0.00    -0.346 C  
HETATM   26  C   UNL     1     -14.262   9.081  71.780  1.00  0.00    -0.326 C  
ENDBRANCH  22  25
ENDBRANCH  15  22
BRANCH  16  27
HETATM   27  O   UNL     1      -7.374  10.379  68.732  1.00  0.00    -0.079 OA 
HETATM   28  C   UNL     1      -6.176   9.616  68.827  1.00  0.00    -0.042 C  
ENDBRANCH  16  27
ENDBRANCH  10  13
ENDBRANCH   8   9
ENDBRANCH   7   8
ENDBRANCH   2   3
TORSDOF 7
ENDMDL
MODEL      113
REMARK 921   NORMALIZED FREE ENERGY PREDICTED BY IDOCK:   -4.78 KCAL/MOL
REMARK 922        TOTAL FREE ENERGY PREDICTED BY IDOCK:   -7.76 KCAL/MOL
REMARK 923 INTER-LIGAND FREE ENERGY PREDICTED BY IDOCK:   -6.73 KCAL/MOL
REMARK 924 INTRA-LIGAND FREE ENERGY PREDICTED BY IDOCK:   -1.03 KCAL/MOL
REMARK 927      BINDING AFFINITY PREDICTED BY RF-SCORE:    0.00 PKD
ROOT
HETATM    1  C   UNL     1      -6.815  15.383  67.650  1.00  0.00    -0.208 C  
HETATM    2  C   UNL     1      -7.715  16.372  66.919  1.00  0.00    -0.241 C  
ENDROOT
BRANCH   2   3
HETATM    3  N   UNL     1      -8.630  17.091  67.817  1.00  0.00    -0.211 NA 
HETATM    4  C   UNL     1      -8.268  18.502  67.983  1.00  0.00    -0.268 C  
HETATM    5  C   UNL     1      -9.558  19.133  68.465  1.00  0.00    -0.454 C  
HETATM    6  C   UNL     1     -10.615  18.443  67.627  1.00  0.00    -0.437 C  
HETATM    7  C   UNL     1     -10.018  17.069  67.288  1.00  0.00    -0.275 C  
BRANCH   7   8
HETATM    8  C   UNL     1     -10.810  15.907  67.922  1.00  0.00    -0.327 C  
BRANCH   8   9
HETATM    9  N   UNL     1     -10.500  14.584  67.401  1.00  0.00    -0.263 N  
HETATM   10  C   UNL     1     -11.015  14.091  66.220  1.00  0.00    -0.300 C  
HETATM   11  H   UNL     1      -9.870  13.990  67.938  1.00  0.00     0.000 HD 
HETATM   12  O   UNL     1     -11.818  14.686  65.522  1.00  0.00    -0.349 OA 
BRANCH  10  13
HETATM   13  C   UNL     1     -10.554  12.719  65.868  1.00  0.00    -0.295 A  
HETATM   14  C   UNL     1      -9.922  12.002  66.904  1.00  0.00    -0.218 A  
HETATM   15  C   UNL     1      -9.440  10.705  66.702  1.00  0.00    -0.167 A  
HETATM   16  C   UNL     1     -10.768  12.087  64.639  1.00  0.00    -0.309 A  
HETATM   17  C   UNL     1      -9.578  10.082  65.460  1.00  0.00    -0.266 A  
HETATM   18  N   UNL     1      -9.241   8.738  65.238  1.00  0.00    -0.433 NA 
HETATM   19  C   UNL     1     -10.307  10.764  64.473  1.00  0.00    -0.401 A  
HETATM   20  H2  UNL     1      -9.754   8.178  65.919  1.00  0.00     0.000 HD 
HETATM   21  H1  UNL     1      -9.342   8.282  64.330  1.00  0.00     0.000 HD 
BRANCH  15  22
HETATM   22  S   UNL     1      -8.498   9.967  68.027  1.00  0.00    -0.118 S  
HETATM   23  O   UNL     1      -8.617  10.842  69.179  1.00  0.00    -0.138 OA 
HETATM   24  O   UNL     1      -8.927   8.580  68.116  1.00  0.00    -0.141 OA 
BRANCH  22  25
HETATM   25  C   UNL     1      -6.812   9.994  67.461  1.00  0.00    -0.081 C  
HETATM   26  C   UNL     1      -6.372  11.417  67.151  1.00  0.00    -0.109 C  
ENDBRANCH  22  25
ENDBRANCH  15  22
BRANCH  16  27
HETATM   27  O   UNL     1     -11.451  12.548  63.548  1.00  0.00    -0.452 OA 
HETATM   28  C   UNL     1     -12.710  11.957  63.247  1.00  0.00    -0.271 C  
ENDBRANCH  16  27
ENDBRANCH  10  13
ENDBRANCH   8   9
ENDBRANCH   7   8
ENDBRANCH   2   3
TORSDOF 7
ENDMDL
MODEL      114
REMARK 921   NORMALIZED FREE ENERGY PREDICTED BY IDOCK:   -4.74 KCAL/MOL
REMARK 922        TOTAL FREE ENERGY PREDICTED BY IDOCK:   -7.70 KCAL/MOL
REMARK 923 INTER-LIGAND FREE ENERGY PREDICTED BY IDOCK:   -6.46 KCAL/MOL
REMARK 924 INTRA-LIGAND FREE ENERGY PREDICTED BY IDOCK:   -1.24 KCAL/MOL
REMARK 927      BINDING AFFINITY PREDICTED BY RF-SCORE:    0.00 PKD
ROOT
HETATM    1  C   UNL     1      -8.141   6.120  73.481  1.00  0.00    -0.108 C  
HETATM    2  C   UNL     1      -9.298   7.110  73.408  1.00  0.00    -0.180 C  
ENDROOT
BRANCH   2   3
HETATM    3  N   UNL     1      -9.904   7.189  72.072  1.00  0.00    -0.159 NA 
HETATM    4  C   UNL     1      -9.694   5.972  71.281  1.00  0.00    -0.172 C  
HETATM    5  C   UNL     1     -10.786   6.049  70.235  1.00  0.00    -0.398 C  
HETATM    6  C   UNL     1     -11.978   6.564  71.017  1.00  0.00    -0.358 C  
HETATM    7  C   UNL     1     -11.374   7.384  72.167  1.00  0.00    -0.271 C  
BRANCH   7   8
HETATM    8  C   UNL     1     -11.719   8.884  72.069  1.00  0.00    -0.367 C  
BRANCH   8   9
HETATM    9  N   UNL     1     -10.929   9.644  71.113  1.00  0.00    -0.360 N  
HETATM   10  C   UNL     1     -11.479  10.376  70.081  1.00  0.00    -0.319 C  
HETATM   11  H   UNL     1      -9.914   9.635  71.210  1.00  0.00     0.000 HD 
HETATM   12  O   UNL     1     -12.672  10.418  69.832  1.00  0.00    -0.156 OA 
BRANCH  10  13
HETATM   13  C   UNL     1     -10.488  11.089  69.229  1.00  0.00    -0.210 A  
HETATM   14  C   UNL     1     -10.944  12.278  68.625  1.00  0.00    -0.276 A  
HETATM   15  C   UNL     1     -10.112  13.039  67.798  1.00  0.00    -0.229 A  
HETATM   16  C   UNL     1      -9.153  10.709  69.055  1.00  0.00    -0.166 A  
HETATM   17  C   UNL     1      -8.797  12.640  67.552  1.00  0.00    -0.186 A  
HETATM   18  N   UNL     1      -7.876  13.431  66.847  1.00  0.00    -0.370 NA 
HETATM   19  C   UNL     1      -8.323  11.516  68.249  1.00  0.00    -0.154 A  
HETATM   20  H2  UNL     1      -7.837  14.339  67.310  1.00  0.00     0.000 HD 
HETATM   21  H1  UNL     1      -6.915  13.138  66.668  1.00  0.00     0.000 HD 
BRANCH  15  22
HETATM   22  S   UNL     1     -10.851  14.422  66.944  1.00  0.00    -0.307 S  
HETATM   23  O   UNL     1     -12.273  14.397  67.235  1.00  0.00    -0.383 OA 
HETATM   24  O   UNL     1     -10.057  15.592  67.286  1.00  0.00    -0.244 OA 
BRANCH  22  25
HETATM   25  C   UNL     1     -10.615  14.073  65.217  1.00  0.00    -0.363 C  
HETATM   26  C   UNL     1     -11.842  13.388  64.634  1.00  0.00    -0.430 C  
ENDBRANCH  22  25
ENDBRANCH  15  22
BRANCH  16  27
HETATM   27  O   UNL     1      -8.477   9.671  69.633  1.00  0.00    -0.141 OA 
HETATM   28  C   UNL     1      -7.229   9.947  70.257  1.00  0.00    -0.154 C  
ENDBRANCH  16  27
ENDBRANCH  10  13
ENDBRANCH   8   9
ENDBRANCH   7   8
ENDBRANCH   2   3
TORSDOF 7
ENDMDL
MODEL      115
REMARK 921   NORMALIZED FREE ENERGY PREDICTED BY IDOCK:   -4.73 KCAL/MOL
REMARK 922        TOTAL FREE ENERGY PREDICTED BY IDOCK:   -7.69 KCAL/MOL
REMARK 923 INTER-LIGAND FREE ENERGY PREDICTED BY IDOCK:   -6.67 KCAL/MOL
REMARK 924 INTRA-LIGAND FREE ENERGY PREDICTED BY IDOCK:   -1.02 KCAL/MOL
REMARK 927      BINDING AFFINITY PREDICTED BY RF-SCORE:    0.00 PKD
ROOT
HETATM    1  C   UNL     1      -7.824  12.294  68.439  1.00  0.00    -0.151 C  
HETATM    2  C   UNL     1      -9.239  12.671  68.016  1.00  0.00    -0.208 C  
ENDROOT
BRANCH   2   3
HETATM    3  N   UNL     1      -9.683  13.957  68.571  1.00  0.00    -0.220 NA 
HETATM    4  C   UNL     1      -8.929  15.096  68.036  1.00  0.00    -0.172 C  
HETATM    5  C   UNL     1      -9.847  16.270  68.302  1.00  0.00    -0.227 C  
HETATM    6  C   UNL     1     -11.221  15.716  67.983  1.00  0.00    -0.339 C  
HETATM    7  C   UNL     1     -11.112  14.208  68.253  1.00  0.00    -0.254 C  
BRANCH   7   8
HETATM    8  C   UNL     1     -12.006  13.750  69.424  1.00  0.00    -0.347 C  
BRANCH   8   9
HETATM    9  N   UNL     1     -11.575  12.536  70.099  1.00  0.00    -0.543 N  
HETATM   10  C   UNL     1     -11.856  11.267  69.638  1.00  0.00    -0.360 C  
HETATM   11  H   UNL     1     -11.036  12.628  70.960  1.00  0.00     0.000 HD 
HETATM   12  O   UNL     1     -12.535  11.031  68.653  1.00  0.00    -0.462 OA 
BRANCH  10  13
HETATM   13  C   UNL     1     -11.305  10.166  70.477  1.00  0.00    -0.416 A  
HETATM   14  C   UNL     1      -9.997   9.750  70.157  1.00  0.00    -0.315 A  
HETATM   15  C   UNL     1      -9.367   8.723  70.867  1.00  0.00    -0.214 A  
HETATM   16  C   UNL     1     -11.952   9.589  71.574  1.00  0.00    -0.399 A  
HETATM   17  C   UNL     1     -10.023   8.082  71.921  1.00  0.00    -0.195 A  
HETATM   18  N   UNL     1      -9.394   7.144  72.755  1.00  0.00    -0.138 NA 
HETATM   19  C   UNL     1     -11.279   8.582  72.298  1.00  0.00    -0.432 A  
HETATM   20  H2  UNL     1      -8.560   7.589  73.140  1.00  0.00     0.000 HD 
HETATM   21  H1  UNL     1      -9.873   6.676  73.525  1.00  0.00     0.000 HD 
BRANCH  15  22
HETATM   22  S   UNL     1      -7.787   8.158  70.258  1.00  0.00    -0.096 S  
HETATM   23  O   UNL     1      -7.745   6.718  70.441  1.00  0.00    -0.096 OA 
HETATM   24  O   UNL     1      -7.629   8.730  68.929  1.00  0.00    -0.088 OA 
BRANCH  22  25
HETATM   25  C   UNL     1      -6.586   8.907  71.334  1.00  0.00    -0.081 C  
HETATM   26  C   UNL     1      -5.579   9.719  70.533  1.00  0.00    -0.052 C  
ENDBRANCH  22  25
ENDBRANCH  15  22
BRANCH  16  27
HETATM   27  O   UNL     1     -13.160   9.916  72.125  1.00  0.00    -0.427 OA 
HETATM   28  C   UNL     1     -14.126   8.883  72.284  1.00  0.00    -0.442 C  
ENDBRANCH  16  27
ENDBRANCH  10  13
ENDBRANCH   8   9
ENDBRANCH   7   8
ENDBRANCH   2   3
TORSDOF 7
ENDMDL
MODEL      116
REMARK 921   NORMALIZED FREE ENERGY PREDICTED BY IDOCK:   -4.73 KCAL/MOL
REMARK 922        TOTAL FREE ENERGY PREDICTED BY IDOCK:   -7.69 KCAL/MOL
REMARK 923 INTER-LIGAND FREE ENERGY PREDICTED BY IDOCK:   -6.40 KCAL/MOL
REMARK 924 INTRA-LIGAND FREE ENERGY PREDICTED BY IDOCK:   -1.28 KCAL/MOL
REMARK 927      BINDING AFFINITY PREDICTED BY RF-SCORE:    0.00 PKD
ROOT
HETATM    1  C   UNL     1     -11.262  14.665  64.955  1.00  0.00    -0.400 C  
HETATM    2  C   UNL     1     -12.331  13.581  64.887  1.00  0.00    -0.407 C  
ENDROOT
BRANCH   2   3
HETATM    3  N   UNL     1     -11.782  12.223  65.007  1.00  0.00    -0.360 NA 
HETATM    4  C   UNL     1     -11.048  11.802  63.810  1.00  0.00    -0.436 C  
HETATM    5  C   UNL     1     -10.169  10.681  64.323  1.00  0.00    -0.391 C  
HETATM    6  C   UNL     1      -9.710  11.191  65.674  1.00  0.00    -0.267 C  
HETATM    7  C   UNL     1     -10.828  12.134  66.142  1.00  0.00    -0.282 C  
BRANCH   7   8
HETATM    8  C   UNL     1     -11.551  11.616  67.403  1.00  0.00    -0.254 C  
BRANCH   8   9
HETATM    9  N   UNL     1     -11.309  10.219  67.730  1.00  0.00    -0.446 N  
HETATM   10  C   UNL     1     -10.782   9.798  68.933  1.00  0.00    -0.217 C  
HETATM   11  H   UNL     1     -11.542   9.513  67.032  1.00  0.00     0.000 HD 
HETATM   12  O   UNL     1     -10.415  10.549  69.821  1.00  0.00    -0.244 OA 
BRANCH  10  13
HETATM   13  C   UNL     1     -10.632   8.321  69.061  1.00  0.00    -0.167 A  
HETATM   14  C   UNL     1      -9.893   7.691  68.040  1.00  0.00    -0.188 A  
HETATM   15  C   UNL     1      -9.683   6.309  68.042  1.00  0.00    -0.122 A  
HETATM   16  C   UNL     1     -11.098   7.554  70.134  1.00  0.00    -0.231 A  
HETATM   17  C   UNL     1     -10.201   5.513  69.066  1.00  0.00    -0.228 A  
HETATM   18  N   UNL     1      -9.907   4.147  69.195  1.00  0.00    -0.127 NA 
HETATM   19  C   UNL     1     -10.838   6.168  70.132  1.00  0.00    -0.395 A  
HETATM   20  H2  UNL     1      -8.892   4.054  69.222  1.00  0.00     0.000 HD 
HETATM   21  H1  UNL     1     -10.286   3.565  69.944  1.00  0.00     0.000 HD 
BRANCH  15  22
HETATM   22  S   UNL     1      -8.891   5.600  66.607  1.00  0.00    -0.122 S  
HETATM   23  O   UNL     1      -9.685   4.456  66.199  1.00  0.00    -0.176 OA 
HETATM   24  O   UNL     1      -8.661   6.697  65.679  1.00  0.00    -0.152 OA 
BRANCH  22  25
HETATM   25  C   UNL     1      -7.314   5.024  67.192  1.00  0.00    -0.082 C  
HETATM   26  C   UNL     1      -6.594   6.119  67.965  1.00  0.00    -0.062 C  
ENDBRANCH  22  25
ENDBRANCH  15  22
BRANCH  16  27
HETATM   27  O   UNL     1     -11.729   7.971  71.273  1.00  0.00    -0.275 OA 
HETATM   28  C   UNL     1     -12.943   7.326  71.640  1.00  0.00    -0.372 C  
ENDBRANCH  16  27
ENDBRANCH  10  13
ENDBRANCH   8   9
ENDBRANCH   7   8
ENDBRANCH   2   3
TORSDOF 7
ENDMDL
MODEL      117
REMARK 921   NORMALIZED FREE ENERGY PREDICTED BY IDOCK:   -4.71 KCAL/MOL
REMARK 922        TOTAL FREE ENERGY PREDICTED BY IDOCK:   -7.65 KCAL/MOL
REMARK 923 INTER-LIGAND FREE ENERGY PREDICTED BY IDOCK:   -6.10 KCAL/MOL
REMARK 924 INTRA-LIGAND FREE ENERGY PREDICTED BY IDOCK:   -1.55 KCAL/MOL
REMARK 927      BINDING AFFINITY PREDICTED BY RF-SCORE:    0.00 PKD
ROOT
HETATM    1  C   UNL     1      -6.015   9.242  66.593  1.00  0.00    -0.060 C  
HETATM    2  C   UNL     1      -7.056   9.868  67.513  1.00  0.00    -0.088 C  
ENDROOT
BRANCH   2   3
HETATM    3  N   UNL     1      -8.303   9.093  67.584  1.00  0.00    -0.116 NA 
HETATM    4  C   UNL     1      -8.845   8.772  66.260  1.00  0.00    -0.157 C  
HETATM    5  C   UNL     1      -9.755   7.594  66.537  1.00  0.00    -0.251 C  
HETATM    6  C   UNL     1      -8.967   6.778  67.542  1.00  0.00    -0.115 C  
HETATM    7  C   UNL     1      -8.085   7.798  68.277  1.00  0.00    -0.124 C  
BRANCH   7   8
HETATM    8  C   UNL     1      -8.449   7.927  69.771  1.00  0.00    -0.132 C  
BRANCH   8   9
HETATM    9  N   UNL     1      -9.366   9.007  70.097  1.00  0.00    -0.178 N  
HETATM   10  C   UNL     1     -10.735   8.848  70.176  1.00  0.00    -0.225 C  
HETATM   11  H   UNL     1      -8.978   9.933  70.278  1.00  0.00     0.000 HD 
HETATM   12  O   UNL     1     -11.318   7.806  69.929  1.00  0.00    -0.139 OA 
BRANCH  10  13
HETATM   13  C   UNL     1     -11.483  10.084  70.539  1.00  0.00    -0.407 A  
HETATM   14  C   UNL     1     -11.211  11.218  69.748  1.00  0.00    -0.294 A  
HETATM   15  C   UNL     1     -11.844  12.441  69.989  1.00  0.00    -0.288 A  
HETATM   16  C   UNL     1     -12.462  10.170  71.534  1.00  0.00    -0.427 A  
HETATM   17  C   UNL     1     -12.772  12.569  71.024  1.00  0.00    -0.225 A  
HETATM   18  N   UNL     1     -13.539  13.727  71.225  1.00  0.00    -0.178 NA 
HETATM   19  C   UNL     1     -13.115  11.405  71.730  1.00  0.00    -0.523 A  
HETATM   20  H2  UNL     1     -14.028  13.925  70.351  1.00  0.00     0.000 HD 
HETATM   21  H1  UNL     1     -14.217  13.820  71.982  1.00  0.00     0.000 HD 
BRANCH  15  22
HETATM   22  S   UNL     1     -11.287  13.850  69.044  1.00  0.00    -0.300 S  
HETATM   23  O   UNL     1     -12.228  14.037  67.955  1.00  0.00    -0.319 OA 
HETATM   24  O   UNL     1     -11.054  14.922  70.000  1.00  0.00    -0.249 OA 
BRANCH  22  25
HETATM   25  C   UNL     1      -9.719  13.356  68.367  1.00  0.00    -0.201 C  
HETATM   26  C   UNL     1      -9.822  13.161  66.861  1.00  0.00    -0.249 C  
ENDBRANCH  22  25
ENDBRANCH  15  22
BRANCH  16  27
HETATM   27  O   UNL     1     -12.960   9.178  72.332  1.00  0.00    -0.410 OA 
HETATM   28  C   UNL     1     -14.119   8.479  71.890  1.00  0.00    -0.447 C  
ENDBRANCH  16  27
ENDBRANCH  10  13
ENDBRANCH   8   9
ENDBRANCH   7   8
ENDBRANCH   2   3
TORSDOF 7
ENDMDL
MODEL      118
REMARK 921   NORMALIZED FREE ENERGY PREDICTED BY IDOCK:   -4.69 KCAL/MOL
REMARK 922        TOTAL FREE ENERGY PREDICTED BY IDOCK:   -7.63 KCAL/MOL
REMARK 923 INTER-LIGAND FREE ENERGY PREDICTED BY IDOCK:   -6.39 KCAL/MOL
REMARK 924 INTRA-LIGAND FREE ENERGY PREDICTED BY IDOCK:   -1.25 KCAL/MOL
REMARK 927      BINDING AFFINITY PREDICTED BY RF-SCORE:    0.00 PKD
ROOT
HETATM    1  C   UNL     1     -11.209   6.151  69.727  1.00  0.00    -0.494 C  
HETATM    2  C   UNL     1     -11.059   5.731  68.269  1.00  0.00     0.096 C  
ENDROOT
BRANCH   2   3
HETATM    3  N   UNL     1      -9.676   5.393  67.907  1.00  0.00    -0.130 NA 
HETATM    4  C   UNL     1      -9.542   4.024  67.399  1.00  0.00    -0.177 C  
HETATM    5  C   UNL     1      -8.240   4.069  66.628  1.00  0.00    -0.101 C  
HETATM    6  C   UNL     1      -8.296   5.414  65.932  1.00  0.00    -0.123 C  
HETATM    7  C   UNL     1      -9.173   6.293  66.837  1.00  0.00    -0.130 C  
BRANCH   7   8
HETATM    8  C   UNL     1      -8.391   7.469  67.456  1.00  0.00    -0.117 C  
BRANCH   8   9
HETATM    9  N   UNL     1      -9.168   8.674  67.701  1.00  0.00    -0.134 N  
HETATM   10  C   UNL     1      -8.966   9.861  67.028  1.00  0.00    -0.138 C  
HETATM   11  H   UNL     1      -9.901   8.640  68.409  1.00  0.00     0.000 HD 
HETATM   12  O   UNL     1      -8.087  10.039  66.202  1.00  0.00    -0.117 OA 
BRANCH  10  13
HETATM   13  C   UNL     1      -9.885  10.964  67.426  1.00  0.00    -0.199 A  
HETATM   14  C   UNL     1     -10.372  11.764  66.373  1.00  0.00    -0.257 A  
HETATM   15  C   UNL     1     -11.240  12.834  66.615  1.00  0.00    -0.301 A  
HETATM   16  C   UNL     1     -10.341  11.203  68.727  1.00  0.00    -0.205 A  
HETATM   17  C   UNL     1     -11.650  13.136  67.915  1.00  0.00    -0.336 A  
HETATM   18  N   UNL     1     -12.623  14.106  68.203  1.00  0.00    -0.310 NA 
HETATM   19  C   UNL     1     -11.246  12.264  68.938  1.00  0.00    -0.323 A  
HETATM   20  H2  UNL     1     -13.458  13.869  67.667  1.00  0.00     0.000 HD 
HETATM   21  H1  UNL     1     -12.923  14.326  69.153  1.00  0.00     0.000 HD 
BRANCH  15  22
HETATM   22  S   UNL     1     -11.645  13.886  65.230  1.00  0.00    -0.342 S  
HETATM   23  O   UNL     1     -13.056  14.207  65.332  1.00  0.00    -0.743 OA 
HETATM   24  O   UNL     1     -10.653  14.951  65.217  1.00  0.00    -0.341 OA 
BRANCH  22  25
HETATM   25  C   UNL     1     -11.391  12.871  63.793  1.00  0.00    -0.435 C  
HETATM   26  C   UNL     1     -12.579  11.946  63.571  1.00  0.00    -0.579 C  
ENDBRANCH  22  25
ENDBRANCH  15  22
BRANCH  16  27
HETATM   27  O   UNL     1     -10.091  10.488  69.865  1.00  0.00    -0.165 OA 
HETATM   28  C   UNL     1     -11.166  10.279  70.775  1.00  0.00    -0.293 C  
ENDBRANCH  16  27
ENDBRANCH  10  13
ENDBRANCH   8   9
ENDBRANCH   7   8
ENDBRANCH   2   3
TORSDOF 7
ENDMDL
MODEL      119
REMARK 921   NORMALIZED FREE ENERGY PREDICTED BY IDOCK:   -4.69 KCAL/MOL
REMARK 922        TOTAL FREE ENERGY PREDICTED BY IDOCK:   -7.63 KCAL/MOL
REMARK 923 INTER-LIGAND FREE ENERGY PREDICTED BY IDOCK:   -6.56 KCAL/MOL
REMARK 924 INTRA-LIGAND FREE ENERGY PREDICTED BY IDOCK:   -1.07 KCAL/MOL
REMARK 927      BINDING AFFINITY PREDICTED BY RF-SCORE:    0.00 PKD
ROOT
HETATM    1  C   UNL     1     -12.076  13.810  66.704  1.00  0.00    -0.471 C  
HETATM    2  C   UNL     1     -11.694  15.186  67.235  1.00  0.00    -0.157 C  
ENDROOT
BRANCH   2   3
HETATM    3  N   UNL     1     -10.273  15.504  67.040  1.00  0.00    -0.265 NA 
HETATM    4  C   UNL     1     -10.055  16.503  65.988  1.00  0.00    -0.348 C  
HETATM    5  C   UNL     1      -8.679  17.047  66.310  1.00  0.00    -0.285 C  
HETATM    6  C   UNL     1      -8.691  17.144  67.823  1.00  0.00    -0.220 C  
HETATM    7  C   UNL     1      -9.678  16.061  68.282  1.00  0.00    -0.214 C  
BRANCH   7   8
HETATM    8  C   UNL     1      -8.993  14.941  69.092  1.00  0.00    -0.140 C  
BRANCH   8   9
HETATM    9  N   UNL     1      -9.397  13.587  68.748  1.00  0.00    -0.399 N  
HETATM   10  C   UNL     1      -8.624  12.729  67.993  1.00  0.00    -0.186 C  
HETATM   11  H   UNL     1     -10.301  13.253  69.083  1.00  0.00     0.000 HD 
HETATM   12  O   UNL     1      -7.554  13.033  67.493  1.00  0.00    -0.147 OA 
BRANCH  10  13
HETATM   13  C   UNL     1      -9.225  11.384  67.773  1.00  0.00    -0.159 A  
HETATM   14  C   UNL     1      -9.409  10.601  68.930  1.00  0.00    -0.191 A  
HETATM   15  C   UNL     1      -9.960   9.317  68.859  1.00  0.00    -0.181 A  
HETATM   16  C   UNL     1      -9.673  10.893  66.543  1.00  0.00    -0.198 A  
HETATM   17  C   UNL     1     -10.348   8.778  67.631  1.00  0.00    -0.254 A  
HETATM   18  N   UNL     1     -11.030   7.557  67.514  1.00  0.00    -0.538 NA 
HETATM   19  C   UNL     1     -10.261   9.611  66.504  1.00  0.00    -0.294 A  
HETATM   20  H2  UNL     1     -11.865   7.617  68.098  1.00  0.00     0.000 HD 
HETATM   21  H1  UNL     1     -11.313   7.163  66.616  1.00  0.00     0.000 HD 
BRANCH  15  22
HETATM   22  S   UNL     1      -9.975   8.350  70.360  1.00  0.00    -0.188 S  
HETATM   23  O   UNL     1      -9.612   6.992  70.000  1.00  0.00    -0.164 OA 
HETATM   24  O   UNL     1      -9.181   9.085  71.333  1.00  0.00    -0.247 OA 
BRANCH  22  25
HETATM   25  C   UNL     1     -11.670   8.366  70.898  1.00  0.00    -0.246 C  
HETATM   26  C   UNL     1     -12.053   9.741  71.427  1.00  0.00    -0.486 C  
ENDBRANCH  22  25
ENDBRANCH  15  22
BRANCH  16  27
HETATM   27  O   UNL     1      -9.699  11.521  65.329  1.00  0.00    -0.232 OA 
HETATM   28  C   UNL     1     -10.098  10.766  64.191  1.00  0.00    -0.353 C  
ENDBRANCH  16  27
ENDBRANCH  10  13
ENDBRANCH   8   9
ENDBRANCH   7   8
ENDBRANCH   2   3
TORSDOF 7
ENDMDL
MODEL      120
REMARK 921   NORMALIZED FREE ENERGY PREDICTED BY IDOCK:   -4.69 KCAL/MOL
REMARK 922        TOTAL FREE ENERGY PREDICTED BY IDOCK:   -7.62 KCAL/MOL
REMARK 923 INTER-LIGAND FREE ENERGY PREDICTED BY IDOCK:   -6.75 KCAL/MOL
REMARK 924 INTRA-LIGAND FREE ENERGY PREDICTED BY IDOCK:   -0.87 KCAL/MOL
REMARK 927      BINDING AFFINITY PREDICTED BY RF-SCORE:    0.00 PKD
ROOT
HETATM    1  C   UNL     1     -10.659  15.749  65.452  1.00  0.00    -0.441 C  
HETATM    2  C   UNL     1      -9.204  15.859  65.892  1.00  0.00    -0.297 C  
ENDROOT
BRANCH   2   3
HETATM    3  N   UNL     1      -8.955  17.006  66.777  1.00  0.00    -0.233 NA 
HETATM    4  C   UNL     1      -9.074  18.292  66.083  1.00  0.00    -0.105 C  
HETATM    5  C   UNL     1      -9.307  19.272  67.214  1.00  0.00    -0.366 C  
HETATM    6  C   UNL     1     -10.245  18.520  68.136  1.00  0.00    -0.412 C  
HETATM    7  C   UNL     1      -9.933  17.035  67.895  1.00  0.00    -0.281 C  
BRANCH   7   8
HETATM    8  C   UNL     1      -9.337  16.346  69.140  1.00  0.00    -0.224 C  
BRANCH   8   9
HETATM    9  N   UNL     1      -9.828  15.003  69.403  1.00  0.00    -0.349 N  
HETATM   10  C   UNL     1     -11.167  14.670  69.418  1.00  0.00    -0.279 C  
HETATM   11  H   UNL     1      -9.146  14.267  69.588  1.00  0.00     0.000 HD 
HETATM   12  O   UNL     1     -12.073  15.471  69.266  1.00  0.00    -0.332 OA 
BRANCH  10  13
HETATM   13  C   UNL     1     -11.446  13.233  69.695  1.00  0.00    -0.267 A  
HETATM   14  C   UNL     1     -10.515  12.317  69.166  1.00  0.00     0.043 A  
HETATM   15  C   UNL     1     -10.664  10.939  69.352  1.00  0.00    -0.225 A  
HETATM   16  C   UNL     1     -12.496  12.753  70.483  1.00  0.00    -0.202 A  
HETATM   17  C   UNL     1     -11.746  10.433  70.075  1.00  0.00    -0.286 A  
HETATM   18  N   UNL     1     -11.874   9.077  70.411  1.00  0.00    -0.468 NA 
HETATM   19  C   UNL     1     -12.602  11.362  70.689  1.00  0.00    -0.360 A  
HETATM   20  H2  UNL     1     -11.024   8.803  70.903  1.00  0.00     0.000 HD 
HETATM   21  H1  UNL     1     -12.665   8.707  70.940  1.00  0.00     0.000 HD 
BRANCH  15  22
HETATM   22  S   UNL     1      -9.529   9.869  68.484  1.00  0.00    -0.149 S  
HETATM   23  O   UNL     1      -8.475  10.708  67.944  1.00  0.00    -0.118 OA 
HETATM   24  O   UNL     1      -9.202   8.785  69.398  1.00  0.00    -0.144 OA 
BRANCH  22  25
HETATM   25  C   UNL     1     -10.472   9.196  67.136  1.00  0.00    -0.255 C  
HETATM   26  C   UNL     1      -9.758   9.426  65.812  1.00  0.00    -0.354 C  
ENDBRANCH  22  25
ENDBRANCH  15  22
BRANCH  16  27
HETATM   27  O   UNL     1     -13.435  13.462  71.180  1.00  0.00    -0.118 OA 
HETATM   28  C   UNL     1     -13.560  13.218  72.576  1.00  0.00    -0.532 C  
ENDBRANCH  16  27
ENDBRANCH  10  13
ENDBRANCH   8   9
ENDBRANCH   7   8
ENDBRANCH   2   3
TORSDOF 7
ENDMDL
MODEL      121
REMARK 921   NORMALIZED FREE ENERGY PREDICTED BY IDOCK:   -4.66 KCAL/MOL
REMARK 922        TOTAL FREE ENERGY PREDICTED BY IDOCK:   -7.59 KCAL/MOL
REMARK 923 INTER-LIGAND FREE ENERGY PREDICTED BY IDOCK:   -6.08 KCAL/MOL
REMARK 924 INTRA-LIGAND FREE ENERGY PREDICTED BY IDOCK:   -1.51 KCAL/MOL
REMARK 927      BINDING AFFINITY PREDICTED BY RF-SCORE:    0.00 PKD
ROOT
HETATM    1  C   UNL     1      -6.572  10.012  66.623  1.00  0.00    -0.073 C  
HETATM    2  C   UNL     1      -8.076  10.143  66.419  1.00  0.00    -0.122 C  
ENDROOT
BRANCH   2   3
HETATM    3  N   UNL     1      -8.654  11.298  67.120  1.00  0.00    -0.142 NA 
HETATM    4  C   UNL     1      -7.656  12.323  67.440  1.00  0.00    -0.159 C  
HETATM    5  C   UNL     1      -8.495  13.567  67.646  1.00  0.00    -0.184 C  
HETATM    6  C   UNL     1      -9.538  13.466  66.552  1.00  0.00    -0.277 C  
HETATM    7  C   UNL     1      -9.689  11.961  66.285  1.00  0.00    -0.229 C  
BRANCH   7   8
HETATM    8  C   UNL     1     -11.090  11.432  66.657  1.00  0.00    -0.271 C  
BRANCH   8   9
HETATM    9  N   UNL     1     -11.155  10.646  67.879  1.00  0.00    -0.291 N  
HETATM   10  C   UNL     1     -11.381  11.191  69.126  1.00  0.00    -0.273 C  
HETATM   11  H   UNL     1     -11.027   9.636  67.810  1.00  0.00     0.000 HD 
HETATM   12  O   UNL     1     -11.494  12.386  69.340  1.00  0.00    -0.272 OA 
BRANCH  10  13
HETATM   13  C   UNL     1     -11.423  10.201  70.238  1.00  0.00    -0.381 A  
HETATM   14  C   UNL     1     -10.309   9.343  70.334  1.00  0.00    -0.318 A  
HETATM   15  C   UNL     1     -10.228   8.366  71.332  1.00  0.00    -0.220 A  
HETATM   16  C   UNL     1     -12.427  10.119  71.207  1.00  0.00    -0.406 A  
HETATM   17  C   UNL     1     -11.254   8.219  72.267  1.00  0.00    -0.374 A  
HETATM   18  N   UNL     1     -11.166   7.354  73.369  1.00  0.00    -0.596 NA 
HETATM   19  C   UNL     1     -12.303   9.152  72.226  1.00  0.00    -0.379 A  
HETATM   20  H2  UNL     1     -10.319   7.599  73.882  1.00  0.00     0.000 HD 
HETATM   21  H1  UNL     1     -11.917   7.247  74.052  1.00  0.00     0.000 HD 
BRANCH  15  22
HETATM   22  S   UNL     1      -8.861   7.221  71.245  1.00  0.00    -0.135 S  
HETATM   23  O   UNL     1      -7.954   7.549  72.329  1.00  0.00    -0.096 OA 
HETATM   24  O   UNL     1      -9.443   5.890  71.157  1.00  0.00    -0.159 OA 
BRANCH  22  25
HETATM   25  C   UNL     1      -8.059   7.581  69.699  1.00  0.00    -0.127 C  
HETATM   26  C   UNL     1      -6.733   8.290  69.935  1.00  0.00    -0.043 C  
ENDBRANCH  22  25
ENDBRANCH  15  22
BRANCH  16  27
HETATM   27  O   UNL     1     -13.525  10.918  71.370  1.00  0.00    -0.192 OA 
HETATM   28  C   UNL     1     -13.365  12.142  72.080  1.00  0.00    -0.365 C  
ENDBRANCH  16  27
ENDBRANCH  10  13
ENDBRANCH   8   9
ENDBRANCH   7   8
ENDBRANCH   2   3
TORSDOF 7
ENDMDL
MODEL      122
REMARK 921   NORMALIZED FREE ENERGY PREDICTED BY IDOCK:   -4.66 KCAL/MOL
REMARK 922        TOTAL FREE ENERGY PREDICTED BY IDOCK:   -7.59 KCAL/MOL
REMARK 923 INTER-LIGAND FREE ENERGY PREDICTED BY IDOCK:   -6.44 KCAL/MOL
REMARK 924 INTRA-LIGAND FREE ENERGY PREDICTED BY IDOCK:   -1.15 KCAL/MOL
REMARK 927      BINDING AFFINITY PREDICTED BY RF-SCORE:    0.00 PKD
ROOT
HETATM    1  C   UNL     1      -8.934   9.875  63.208  1.00  0.00    -0.276 C  
HETATM    2  C   UNL     1      -8.641   9.257  64.569  1.00  0.00    -0.195 C  
ENDROOT
BRANCH   2   3
HETATM    3  N   UNL     1      -9.689   9.528  65.563  1.00  0.00    -0.293 NA 
HETATM    4  C   UNL     1      -9.929   8.390  66.457  1.00  0.00    -0.265 C  
HETATM    5  C   UNL     1     -10.599   9.030  67.654  1.00  0.00    -0.298 C  
HETATM    6  C   UNL     1      -9.829  10.323  67.833  1.00  0.00    -0.181 C  
HETATM    7  C   UNL     1      -9.315  10.676  66.429  1.00  0.00    -0.169 C  
BRANCH   7   8
HETATM    8  C   UNL     1      -9.936  11.978  65.882  1.00  0.00    -0.236 C  
BRANCH   8   9
HETATM    9  N   UNL     1      -9.130  13.175  66.059  1.00  0.00    -0.444 N  
HETATM   10  C   UNL     1      -9.477  14.210  66.903  1.00  0.00    -0.267 C  
HETATM   11  H   UNL     1      -8.261  13.254  65.532  1.00  0.00     0.000 HD 
HETATM   12  O   UNL     1     -10.515  14.253  67.542  1.00  0.00    -0.250 OA 
BRANCH  10  13
HETATM   13  C   UNL     1      -8.499  15.332  66.943  1.00  0.00    -0.286 A  
HETATM   14  C   UNL     1      -9.033  16.616  66.713  1.00  0.00    -0.263 A  
HETATM   15  C   UNL     1      -8.220  17.754  66.720  1.00  0.00    -0.250 A  
HETATM   16  C   UNL     1      -7.143  15.209  67.258  1.00  0.00    -0.126 A  
HETATM   17  C   UNL     1      -6.849  17.645  66.961  1.00  0.00    -0.171 A  
HETATM   18  N   UNL     1      -6.009  18.759  67.117  1.00  0.00    -0.162 NA 
HETATM   19  C   UNL     1      -6.352  16.376  67.298  1.00  0.00    -0.215 A  
HETATM   20  H2  UNL     1      -6.404  19.337  67.859  1.00  0.00     0.000 HD 
HETATM   21  H1  UNL     1      -5.007  18.679  67.293  1.00  0.00     0.000 HD 
BRANCH  15  22
HETATM   22  S   UNL     1      -8.972  19.299  66.237  1.00  0.00    -0.273 S  
HETATM   23  O   UNL     1      -8.008  20.009  65.416  1.00  0.00    -0.270 OA 
HETATM   24  O   UNL     1     -10.284  18.970  65.702  1.00  0.00    -0.499 OA 
BRANCH  22  25
HETATM   25  C   UNL     1      -9.198  20.194  67.757  1.00  0.00    -0.316 C  
HETATM   26  C   UNL     1     -10.261  19.530  68.619  1.00  0.00    -0.481 C  
ENDBRANCH  22  25
ENDBRANCH  15  22
BRANCH  16  27
HETATM   27  O   UNL     1      -6.448  14.089  67.624  1.00  0.00    -0.171 OA 
HETATM   28  C   UNL     1      -5.899  14.039  68.936  1.00  0.00    -0.083 C  
ENDBRANCH  16  27
ENDBRANCH  10  13
ENDBRANCH   8   9
ENDBRANCH   7   8
ENDBRANCH   2   3
TORSDOF 7
ENDMDL
MODEL      123
REMARK 921   NORMALIZED FREE ENERGY PREDICTED BY IDOCK:   -4.63 KCAL/MOL
REMARK 922        TOTAL FREE ENERGY PREDICTED BY IDOCK:   -7.55 KCAL/MOL
REMARK 923 INTER-LIGAND FREE ENERGY PREDICTED BY IDOCK:   -6.40 KCAL/MOL
REMARK 924 INTRA-LIGAND FREE ENERGY PREDICTED BY IDOCK:   -1.15 KCAL/MOL
REMARK 927      BINDING AFFINITY PREDICTED BY RF-SCORE:    0.00 PKD
ROOT
HETATM    1  C   UNL     1      -7.081   7.653  74.357  1.00  0.00    -0.139 C  
HETATM    2  C   UNL     1      -7.161   6.630  73.230  1.00  0.00    -0.077 C  
ENDROOT
BRANCH   2   3
HETATM    3  N   UNL     1      -8.539   6.248  72.895  1.00  0.00    -0.122 NA 
HETATM    4  C   UNL     1      -9.161   5.408  73.924  1.00  0.00    -0.122 C  
HETATM    5  C   UNL     1     -10.642   5.578  73.658  1.00  0.00    -0.316 C  
HETATM    6  C   UNL     1     -10.767   7.053  73.333  1.00  0.00    -0.379 C  
HETATM    7  C   UNL     1      -9.402   7.449  72.751  1.00  0.00    -0.156 C  
BRANCH   7   8
HETATM    8  C   UNL     1      -9.490   7.866  71.268  1.00  0.00    -0.157 C  
BRANCH   8   9
HETATM    9  N   UNL     1     -10.088   9.168  71.021  1.00  0.00    -0.278 N  
HETATM   10  C   UNL     1     -10.652   9.531  69.815  1.00  0.00    -0.236 C  
HETATM   11  H   UNL     1     -10.092   9.849  71.779  1.00  0.00     0.000 HD 
HETATM   12  O   UNL     1     -10.659   8.823  68.822  1.00  0.00    -0.211 OA 
BRANCH  10  13
HETATM   13  C   UNL     1     -11.221  10.907  69.786  1.00  0.00    -0.351 A  
HETATM   14  C   UNL     1     -10.870  11.690  68.668  1.00  0.00    -0.253 A  
HETATM   15  C   UNL     1     -11.335  13.001  68.523  1.00  0.00    -0.288 A  
HETATM   16  C   UNL     1     -12.113  11.431  70.727  1.00  0.00    -0.332 A  
HETATM   17  C   UNL     1     -12.169  13.569  69.488  1.00  0.00    -0.236 A  
HETATM   18  N   UNL     1     -12.776  14.825  69.330  1.00  0.00    -0.509 NA 
HETATM   19  C   UNL     1     -12.599  12.741  70.537  1.00  0.00    -0.191 A  
HETATM   20  H2  UNL     1     -13.296  14.804  68.452  1.00  0.00     0.000 HD 
HETATM   21  H1  UNL     1     -13.386  15.240  70.036  1.00  0.00     0.000 HD 
BRANCH  15  22
HETATM   22  S   UNL     1     -10.678  13.956  67.165  1.00  0.00    -0.284 S  
HETATM   23  O   UNL     1     -10.053  13.023  66.246  1.00  0.00    -0.270 OA 
HETATM   24  O   UNL     1     -11.757  14.819  66.708  1.00  0.00    -0.366 OA 
BRANCH  22  25
HETATM   25  C   UNL     1      -9.416  14.977  67.890  1.00  0.00    -0.195 C  
HETATM   26  C   UNL     1      -8.071  14.719  67.228  1.00  0.00    -0.232 C  
ENDBRANCH  22  25
ENDBRANCH  15  22
BRANCH  16  27
HETATM   27  O   UNL     1     -12.671  10.813  71.812  1.00  0.00    -0.413 OA 
HETATM   28  C   UNL     1     -13.645   9.802  71.581  1.00  0.00    -0.291 C  
ENDBRANCH  16  27
ENDBRANCH  10  13
ENDBRANCH   8   9
ENDBRANCH   7   8
ENDBRANCH   2   3
TORSDOF 7
ENDMDL
MODEL      124
REMARK 921   NORMALIZED FREE ENERGY PREDICTED BY IDOCK:   -4.62 KCAL/MOL
REMARK 922        TOTAL FREE ENERGY PREDICTED BY IDOCK:   -7.53 KCAL/MOL
REMARK 923 INTER-LIGAND FREE ENERGY PREDICTED BY IDOCK:   -6.32 KCAL/MOL
REMARK 924 INTRA-LIGAND FREE ENERGY PREDICTED BY IDOCK:   -1.22 KCAL/MOL
REMARK 927      BINDING AFFINITY PREDICTED BY RF-SCORE:    0.00 PKD
ROOT
HETATM    1  C   UNL     1      -9.507  17.931  68.510  1.00  0.00    -0.316 C  
HETATM    2  C   UNL     1     -10.704  17.598  67.628  1.00  0.00    -0.314 C  
ENDROOT
BRANCH   2   3
HETATM    3  N   UNL     1     -10.677  16.221  67.115  1.00  0.00    -0.288 NA 
HETATM    4  C   UNL     1      -9.889  16.090  65.886  1.00  0.00    -0.348 C  
HETATM    5  C   UNL     1      -9.563  14.612  65.843  1.00  0.00    -0.303 C  
HETATM    6  C   UNL     1      -9.257  14.283  67.291  1.00  0.00    -0.218 C  
HETATM    7  C   UNL     1     -10.070  15.298  68.108  1.00  0.00    -0.229 C  
BRANCH   7   8
HETATM    8  C   UNL     1     -11.173  14.628  68.954  1.00  0.00    -0.267 C  
BRANCH   8   9
HETATM    9  N   UNL     1     -10.867  13.288  69.429  1.00  0.00    -0.450 N  
HETATM   10  C   UNL     1     -11.420  12.144  68.892  1.00  0.00    -0.297 C  
HETATM   11  H   UNL     1     -10.209  13.189  70.202  1.00  0.00     0.000 HD 
HETATM   12  O   UNL     1     -12.257  12.139  68.005  1.00  0.00    -0.419 OA 
BRANCH  10  13
HETATM   13  C   UNL     1     -10.955  10.876  69.521  1.00  0.00    -0.306 A  
HETATM   14  C   UNL     1      -9.678  10.431  69.127  1.00  0.00    -0.234 A  
HETATM   15  C   UNL     1      -9.128   9.252  69.641  1.00  0.00    -0.167 A  
HETATM   16  C   UNL     1     -11.649  10.162  70.502  1.00  0.00    -0.329 A  
HETATM   17  C   UNL     1      -9.835   8.484  70.568  1.00  0.00    -0.180 A  
HETATM   18  N   UNL     1      -9.281   7.372  71.221  1.00  0.00    -0.150 NA 
HETATM   19  C   UNL     1     -11.056   8.998  71.034  1.00  0.00    -0.356 A  
HETATM   20  H2  UNL     1      -8.421   7.681  71.674  1.00  0.00     0.000 HD 
HETATM   21  H1  UNL     1      -9.798   6.811  71.898  1.00  0.00     0.000 HD 
BRANCH  15  22
HETATM   22  S   UNL     1      -7.587   8.693  68.934  1.00  0.00    -0.093 S  
HETATM   23  O   UNL     1      -6.530   9.061  69.859  1.00  0.00    -0.037 OA 
HETATM   24  O   UNL     1      -7.783   7.298  68.568  1.00  0.00    -0.115 OA 
BRANCH  22  25
HETATM   25  C   UNL     1      -7.397   9.640  67.441  1.00  0.00    -0.087 C  
HETATM   26  C   UNL     1      -6.391  10.764  67.642  1.00  0.00    -0.056 C  
ENDBRANCH  22  25
ENDBRANCH  15  22
BRANCH  16  27
HETATM   27  O   UNL     1     -12.836  10.472  71.107  1.00  0.00    -0.357 OA 
HETATM   28  C   UNL     1     -13.237   9.698  72.232  1.00  0.00    -0.404 C  
ENDBRANCH  16  27
ENDBRANCH  10  13
ENDBRANCH   8   9
ENDBRANCH   7   8
ENDBRANCH   2   3
TORSDOF 7
ENDMDL
MODEL      125
REMARK 921   NORMALIZED FREE ENERGY PREDICTED BY IDOCK:   -4.61 KCAL/MOL
REMARK 922        TOTAL FREE ENERGY PREDICTED BY IDOCK:   -7.52 KCAL/MOL
REMARK 923 INTER-LIGAND FREE ENERGY PREDICTED BY IDOCK:   -6.21 KCAL/MOL
REMARK 924 INTRA-LIGAND FREE ENERGY PREDICTED BY IDOCK:   -1.31 KCAL/MOL
REMARK 927      BINDING AFFINITY PREDICTED BY RF-SCORE:    0.00 PKD
ROOT
HETATM    1  C   UNL     1      -8.181   8.868  65.181  1.00  0.00    -0.143 C  
HETATM    2  C   UNL     1      -7.971   9.458  66.570  1.00  0.00    -0.108 C  
ENDROOT
BRANCH   2   3
HETATM    3  N   UNL     1      -8.947  10.504  66.905  1.00  0.00    -0.140 NA 
HETATM    4  C   UNL     1     -10.332  10.026  66.844  1.00  0.00    -0.234 C  
HETATM    5  C   UNL     1     -11.080  11.031  67.695  1.00  0.00    -0.363 C  
HETATM    6  C   UNL     1     -10.136  11.273  68.855  1.00  0.00    -0.185 C  
HETATM    7  C   UNL     1      -8.734  11.007  68.287  1.00  0.00    -0.144 C  
BRANCH   7   8
HETATM    8  C   UNL     1      -7.855  12.274  68.261  1.00  0.00    -0.153 C  
BRANCH   8   9
HETATM    9  N   UNL     1      -8.517  13.483  67.797  1.00  0.00    -0.169 N  
HETATM   10  C   UNL     1      -7.843  14.625  67.420  1.00  0.00    -0.202 C  
HETATM   11  H   UNL     1      -9.536  13.486  67.748  1.00  0.00     0.000 HD 
HETATM   12  O   UNL     1      -6.632  14.759  67.486  1.00  0.00    -0.209 OA 
BRANCH  10  13
HETATM   13  C   UNL     1      -8.718  15.740  66.963  1.00  0.00    -0.251 A  
HETATM   14  C   UNL     1      -8.100  17.003  66.870  1.00  0.00    -0.252 A  
HETATM   15  C   UNL     1      -8.813  18.133  66.457  1.00  0.00    -0.271 A  
HETATM   16  C   UNL     1     -10.051  15.607  66.562  1.00  0.00    -0.282 A  
HETATM   17  C   UNL     1     -10.165  18.036  66.121  1.00  0.00    -0.363 A  
HETATM   18  N   UNL     1     -10.894  19.101  65.570  1.00  0.00    -0.462 NA 
HETATM   19  C   UNL     1     -10.737  16.754  66.112  1.00  0.00    -0.116 A  
HETATM   20  H2  UNL     1     -10.395  19.415  64.738  1.00  0.00     0.000 HD 
HETATM   21  H1  UNL     1     -11.882  19.030  65.325  1.00  0.00     0.000 HD 
BRANCH  15  22
HETATM   22  S   UNL     1      -7.977  19.708  66.552  1.00  0.00    -0.319 S  
HETATM   23  O   UNL     1      -7.379  19.957  65.253  1.00  0.00    -0.362 OA 
HETATM   24  O   UNL     1      -8.935  20.652  67.107  1.00  0.00    -0.328 OA 
BRANCH  22  25
HETATM   25  C   UNL     1      -6.679  19.466  67.743  1.00  0.00    -0.224 C  
HETATM   26  C   UNL     1      -7.116  19.947  69.119  1.00  0.00    -0.296 C  
ENDBRANCH  22  25
ENDBRANCH  15  22
BRANCH  16  27
HETATM   27  O   UNL     1     -10.804  14.470  66.463  1.00  0.00    -0.303 OA 
HETATM   28  C   UNL     1     -12.043  14.422  67.163  1.00  0.00    -0.333 C  
ENDBRANCH  16  27
ENDBRANCH  10  13
ENDBRANCH   8   9
ENDBRANCH   7   8
ENDBRANCH   2   3
TORSDOF 7
ENDMDL
MODEL      126
REMARK 921   NORMALIZED FREE ENERGY PREDICTED BY IDOCK:   -4.57 KCAL/MOL
REMARK 922        TOTAL FREE ENERGY PREDICTED BY IDOCK:   -7.46 KCAL/MOL
REMARK 923 INTER-LIGAND FREE ENERGY PREDICTED BY IDOCK:   -6.38 KCAL/MOL
REMARK 924 INTRA-LIGAND FREE ENERGY PREDICTED BY IDOCK:   -1.08 KCAL/MOL
REMARK 927      BINDING AFFINITY PREDICTED BY RF-SCORE:    0.00 PKD
ROOT
HETATM    1  C   UNL     1     -10.908   5.954  68.846  1.00  0.00    -0.373 C  
HETATM    2  C   UNL     1      -9.929   6.100  70.004  1.00  0.00    -0.173 C  
ENDROOT
BRANCH   2   3
HETATM    3  N   UNL     1     -10.561   6.597  71.234  1.00  0.00    -0.220 NA 
HETATM    4  C   UNL     1     -10.291   5.743  72.394  1.00  0.00    -0.200 C  
HETATM    5  C   UNL     1     -10.552   6.664  73.567  1.00  0.00    -0.334 C  
HETATM    6  C   UNL     1      -9.960   7.982  73.111  1.00  0.00    -0.316 C  
HETATM    7  C   UNL     1     -10.058   7.952  71.579  1.00  0.00    -0.180 C  
BRANCH   7   8
HETATM    8  C   UNL     1     -11.012   9.030  71.025  1.00  0.00    -0.284 C  
BRANCH   8   9
HETATM    9  N   UNL     1     -10.376  10.096  70.268  1.00  0.00    -0.407 N  
HETATM   10  C   UNL     1     -10.410  10.178  68.891  1.00  0.00    -0.206 C  
HETATM   11  H   UNL     1      -9.878  10.822  70.782  1.00  0.00     0.000 HD 
HETATM   12  O   UNL     1     -10.926   9.343  68.168  1.00  0.00    -0.166 OA 
BRANCH  10  13
HETATM   13  C   UNL     1      -9.705  11.361  68.323  1.00  0.00    -0.202 A  
HETATM   14  C   UNL     1     -10.529  12.441  67.949  1.00  0.00    -0.227 A  
HETATM   15  C   UNL     1      -9.991  13.609  67.399  1.00  0.00    -0.234 A  
HETATM   16  C   UNL     1      -8.318  11.495  68.209  1.00  0.00    -0.154 A  
HETATM   17  C   UNL     1      -8.613  13.736  67.209  1.00  0.00    -0.212 A  
HETATM   18  N   UNL     1      -8.006  14.931  66.793  1.00  0.00    -0.331 NA 
HETATM   19  C   UNL     1      -7.798  12.698  67.689  1.00  0.00    -0.162 A  
HETATM   20  H2  UNL     1      -8.292  15.662  67.444  1.00  0.00     0.000 HD 
HETATM   21  H1  UNL     1      -6.999  15.023  66.655  1.00  0.00     0.000 HD 
BRANCH  15  22
HETATM   22  S   UNL     1     -11.141  14.834  66.795  1.00  0.00    -0.342 S  
HETATM   23  O   UNL     1     -12.478  14.345  67.079  1.00  0.00    -0.260 OA 
HETATM   24  O   UNL     1     -10.703  16.113  67.332  1.00  0.00    -0.312 OA 
BRANCH  22  25
HETATM   25  C   UNL     1     -10.903  14.857  65.033  1.00  0.00    -0.423 C  
HETATM   26  C   UNL     1     -11.732  13.770  64.364  1.00  0.00    -0.436 C  
ENDBRANCH  22  25
ENDBRANCH  15  22
BRANCH  16  27
HETATM   27  O   UNL     1      -7.339  10.630  68.613  1.00  0.00    -0.083 OA 
HETATM   28  C   UNL     1      -6.731  10.850  69.881  1.00  0.00    -0.147 C  
ENDBRANCH  16  27
ENDBRANCH  10  13
ENDBRANCH   8   9
ENDBRANCH   7   8
ENDBRANCH   2   3
TORSDOF 7
ENDMDL
MODEL      127
REMARK 921   NORMALIZED FREE ENERGY PREDICTED BY IDOCK:   -4.57 KCAL/MOL
REMARK 922        TOTAL FREE ENERGY PREDICTED BY IDOCK:   -7.46 KCAL/MOL
REMARK 923 INTER-LIGAND FREE ENERGY PREDICTED BY IDOCK:   -6.48 KCAL/MOL
REMARK 924 INTRA-LIGAND FREE ENERGY PREDICTED BY IDOCK:   -0.98 KCAL/MOL
REMARK 927      BINDING AFFINITY PREDICTED BY RF-SCORE:    0.00 PKD
ROOT
HETATM    1  C   UNL     1     -13.089  11.195  71.787  1.00  0.00    -0.536 C  
HETATM    2  C   UNL     1     -12.967  10.002  70.847  1.00  0.00    -0.318 C  
ENDROOT
BRANCH   2   3
HETATM    3  N   UNL     1     -12.219   8.881  71.432  1.00  0.00    -0.308 NA 
HETATM    4  C   UNL     1     -13.065   7.713  71.697  1.00  0.00    -0.353 C  
HETATM    5  C   UNL     1     -12.067   6.577  71.776  1.00  0.00    -0.393 C  
HETATM    6  C   UNL     1     -11.089   6.897  70.663  1.00  0.00    -0.322 C  
HETATM    7  C   UNL     1     -11.142   8.425  70.517  1.00  0.00    -0.252 C  
BRANCH   7   8
HETATM    8  C   UNL     1      -9.806   9.101  70.889  1.00  0.00    -0.291 C  
BRANCH   8   9
HETATM    9  N   UNL     1      -9.472  10.288  70.117  1.00  0.00    -0.357 N  
HETATM   10  C   UNL     1      -8.843  10.246  68.890  1.00  0.00    -0.157 C  
HETATM   11  H   UNL     1      -9.715  11.199  70.504  1.00  0.00     0.000 HD 
HETATM   12  O   UNL     1      -8.456   9.222  68.353  1.00  0.00    -0.119 OA 
BRANCH  10  13
HETATM   13  C   UNL     1      -8.609  11.579  68.267  1.00  0.00    -0.161 A  
HETATM   14  C   UNL     1      -9.755  12.228  67.764  1.00  0.00    -0.199 A  
HETATM   15  C   UNL     1      -9.670  13.482  67.152  1.00  0.00    -0.244 A  
HETATM   16  C   UNL     1      -7.379  12.241  68.218  1.00  0.00    -0.108 A  
HETATM   17  C   UNL     1      -8.439  14.130  67.028  1.00  0.00    -0.156 A  
HETATM   18  N   UNL     1      -8.312  15.444  66.550  1.00  0.00    -0.378 NA 
HETATM   19  C   UNL     1      -7.327  13.523  67.632  1.00  0.00    -0.180 A  
HETATM   20  H2  UNL     1      -8.911  16.037  67.125  1.00  0.00     0.000 HD 
HETATM   21  H1  UNL     1      -7.412  15.917  66.459  1.00  0.00     0.000 HD 
BRANCH  15  22
HETATM   22  S   UNL     1     -11.153  14.123  66.391  1.00  0.00    -0.327 S  
HETATM   23  O   UNL     1     -10.760  15.250  65.565  1.00  0.00    -0.324 OA 
HETATM   24  O   UNL     1     -11.836  12.984  65.796  1.00  0.00    -0.361 OA 
BRANCH  22  25
HETATM   25  C   UNL     1     -12.140  14.721  67.744  1.00  0.00    -0.106 C  
HETATM   26  C   UNL     1     -11.410  15.825  68.495  1.00  0.00    -0.374 C  
ENDBRANCH  22  25
ENDBRANCH  15  22
BRANCH  16  27
HETATM   27  O   UNL     1      -6.177  11.852  68.742  1.00  0.00    -0.052 OA 
HETATM   28  C   UNL     1      -5.622  12.630  69.797  1.00  0.00    -0.101 C  
ENDBRANCH  16  27
ENDBRANCH  10  13
ENDBRANCH   8   9
ENDBRANCH   7   8
ENDBRANCH   2   3
TORSDOF 7
ENDMDL
MODEL      128
REMARK 921   NORMALIZED FREE ENERGY PREDICTED BY IDOCK:   -4.55 KCAL/MOL
REMARK 922        TOTAL FREE ENERGY PREDICTED BY IDOCK:   -7.43 KCAL/MOL
REMARK 923 INTER-LIGAND FREE ENERGY PREDICTED BY IDOCK:   -6.02 KCAL/MOL
REMARK 924 INTRA-LIGAND FREE ENERGY PREDICTED BY IDOCK:   -1.41 KCAL/MOL
REMARK 927      BINDING AFFINITY PREDICTED BY RF-SCORE:    0.00 PKD
ROOT
HETATM    1  C   UNL     1     -10.916   6.172  67.733  1.00  0.00    -0.400 C  
HETATM    2  C   UNL     1     -11.257   6.288  69.214  1.00  0.00    -0.389 C  
ENDROOT
BRANCH   2   3
HETATM    3  N   UNL     1     -10.089   6.116  70.089  1.00  0.00    -0.177 NA 
HETATM    4  C   UNL     1      -9.959   4.747  70.597  1.00  0.00    -0.230 C  
HETATM    5  C   UNL     1      -8.500   4.665  70.995  1.00  0.00    -0.115 C  
HETATM    6  C   UNL     1      -7.795   5.410  69.880  1.00  0.00    -0.081 C  
HETATM    7  C   UNL     1      -8.830   6.418  69.360  1.00  0.00    -0.132 C  
BRANCH   7   8
HETATM    8  C   UNL     1      -8.409   7.881  69.610  1.00  0.00    -0.131 C  
BRANCH   8   9
HETATM    9  N   UNL     1      -8.738   8.815  68.544  1.00  0.00    -0.134 N  
HETATM   10  C   UNL     1      -9.772   9.725  68.621  1.00  0.00    -0.155 C  
HETATM   11  H   UNL     1      -8.174   8.796  67.695  1.00  0.00     0.000 HD 
HETATM   12  O   UNL     1     -10.546   9.805  69.559  1.00  0.00    -0.208 OA 
BRANCH  10  13
HETATM   13  C   UNL     1      -9.922  10.595  67.421  1.00  0.00    -0.213 A  
HETATM   14  C   UNL     1     -10.053  11.975  67.680  1.00  0.00    -0.205 A  
HETATM   15  C   UNL     1     -10.205  12.898  66.640  1.00  0.00    -0.247 A  
HETATM   16  C   UNL     1      -9.866  10.156  66.095  1.00  0.00    -0.237 A  
HETATM   17  C   UNL     1     -10.226  12.473  65.310  1.00  0.00    -0.282 A  
HETATM   18  N   UNL     1     -10.235  13.361  64.224  1.00  0.00    -0.706 NA 
HETATM   19  C   UNL     1      -9.982  11.112  65.064  1.00  0.00    -0.325 A  
HETATM   20  H2  UNL     1      -9.435  13.985  64.332  1.00  0.00     0.000 HD 
HETATM   21  H1  UNL     1     -10.250  13.051  63.252  1.00  0.00     0.000 HD 
BRANCH  15  22
HETATM   22  S   UNL     1     -10.546  14.591  67.093  1.00  0.00    -0.277 S  
HETATM   23  O   UNL     1     -11.617  15.059  66.233  1.00  0.00    -0.286 OA 
HETATM   24  O   UNL     1     -10.711  14.606  68.539  1.00  0.00    -0.234 OA 
BRANCH  22  25
HETATM   25  C   UNL     1      -9.060  15.481  66.693  1.00  0.00    -0.279 C  
HETATM   26  C   UNL     1      -8.693  16.445  67.812  1.00  0.00    -0.182 C  
ENDBRANCH  22  25
ENDBRANCH  15  22
BRANCH  16  27
HETATM   27  O   UNL     1      -9.632   8.896  65.620  1.00  0.00    -0.220 OA 
HETATM   28  C   UNL     1      -8.385   8.639  64.985  1.00  0.00    -0.171 C  
ENDBRANCH  16  27
ENDBRANCH  10  13
ENDBRANCH   8   9
ENDBRANCH   7   8
ENDBRANCH   2   3
TORSDOF 7
ENDMDL
MODEL      129
REMARK 921   NORMALIZED FREE ENERGY PREDICTED BY IDOCK:   -4.50 KCAL/MOL
REMARK 922        TOTAL FREE ENERGY PREDICTED BY IDOCK:   -7.37 KCAL/MOL
REMARK 923 INTER-LIGAND FREE ENERGY PREDICTED BY IDOCK:   -6.22 KCAL/MOL
REMARK 924 INTRA-LIGAND FREE ENERGY PREDICTED BY IDOCK:   -1.15 KCAL/MOL
REMARK 927      BINDING AFFINITY PREDICTED BY RF-SCORE:    0.00 PKD
ROOT
HETATM    1  C   UNL     1     -13.914  13.587  72.246  1.00  0.00    -0.638 C  
HETATM    2  C   UNL     1     -12.580  14.168  71.796  1.00  0.00    -0.315 C  
ENDROOT
BRANCH   2   3
HETATM    3  N   UNL     1     -12.521  14.422  70.349  1.00  0.00    -0.342 NA 
HETATM    4  C   UNL     1     -12.152  15.805  70.031  1.00  0.00    -0.324 C  
HETATM    5  C   UNL     1     -11.649  15.707  68.606  1.00  0.00    -0.391 C  
HETATM    6  C   UNL     1     -10.858  14.415  68.606  1.00  0.00    -0.260 C  
HETATM    7  C   UNL     1     -11.506  13.553  69.700  1.00  0.00    -0.217 C  
BRANCH   7   8
HETATM    8  C   UNL     1     -12.177  12.284  69.133  1.00  0.00    -0.023 C  
BRANCH   8   9
HETATM    9  N   UNL     1     -11.554  11.728  67.942  1.00  0.00    -0.311 N  
HETATM   10  C   UNL     1     -10.465  10.883  67.976  1.00  0.00    -0.191 C  
HETATM   11  H   UNL     1     -11.943  11.977  67.033  1.00  0.00     0.000 HD 
HETATM   12  O   UNL     1      -9.881  10.558  68.997  1.00  0.00    -0.194 OA 
BRANCH  10  13
HETATM   13  C   UNL     1      -9.997  10.420  66.640  1.00  0.00    -0.262 A  
HETATM   14  C   UNL     1      -9.383   9.152  66.613  1.00  0.00    -0.228 A  
HETATM   15  C   UNL     1      -8.896   8.604  65.422  1.00  0.00    -0.155 A  
HETATM   16  C   UNL     1     -10.188  11.106  65.437  1.00  0.00    -0.271 A  
HETATM   17  C   UNL     1      -9.012   9.305  64.219  1.00  0.00    -0.096 A  
HETATM   18  N   UNL     1      -8.670   8.751  62.976  1.00  0.00    -0.423 NA 
HETATM   19  C   UNL     1      -9.724  10.515  64.244  1.00  0.00    -0.391 A  
HETATM   20  H2  UNL     1      -9.194   7.882  62.874  1.00  0.00     0.000 HD 
HETATM   21  H1  UNL     1      -8.754   9.263  62.097  1.00  0.00     0.000 HD 
BRANCH  15  22
HETATM   22  S   UNL     1      -7.977   7.078  65.539  1.00  0.00    -0.136 S  
HETATM   23  O   UNL     1      -8.220   6.335  64.315  1.00  0.00    -0.106 OA 
HETATM   24  O   UNL     1      -6.620   7.442  65.915  1.00  0.00    -0.044 OA 
BRANCH  22  25
HETATM   25  C   UNL     1      -8.716   6.201  66.897  1.00  0.00    -0.109 C  
HETATM   26  C   UNL     1      -7.856   6.322  68.146  1.00  0.00    -0.104 C  
ENDBRANCH  22  25
ENDBRANCH  15  22
BRANCH  16  27
HETATM   27  O   UNL     1     -10.853  12.281  65.219  1.00  0.00    -0.276 OA 
HETATM   28  C   UNL     1     -10.841  12.824  63.903  1.00  0.00    -0.411 C  
ENDBRANCH  16  27
ENDBRANCH  10  13
ENDBRANCH   8   9
ENDBRANCH   7   8
ENDBRANCH   2   3
TORSDOF 7
ENDMDL
MODEL      130
REMARK 921   NORMALIZED FREE ENERGY PREDICTED BY IDOCK:   -4.50 KCAL/MOL
REMARK 922        TOTAL FREE ENERGY PREDICTED BY IDOCK:   -7.37 KCAL/MOL
REMARK 923 INTER-LIGAND FREE ENERGY PREDICTED BY IDOCK:   -6.21 KCAL/MOL
REMARK 924 INTRA-LIGAND FREE ENERGY PREDICTED BY IDOCK:   -1.16 KCAL/MOL
REMARK 927      BINDING AFFINITY PREDICTED BY RF-SCORE:    0.00 PKD
ROOT
HETATM    1  C   UNL     1     -10.646  14.557  67.182  1.00  0.00    -0.274 C  
HETATM    2  C   UNL     1     -10.260  14.141  65.768  1.00  0.00    -0.332 C  
ENDROOT
BRANCH   2   3
HETATM    3  N   UNL     1     -11.105  13.064  65.234  1.00  0.00    -0.283 NA 
HETATM    4  C   UNL     1     -12.407  13.547  64.762  1.00  0.00    -0.392 C  
HETATM    5  C   UNL     1     -12.859  12.450  63.821  1.00  0.00    -0.379 C  
HETATM    6  C   UNL     1     -11.585  12.073  63.091  1.00  0.00    -0.265 C  
HETATM    7  C   UNL     1     -10.453  12.403  64.074  1.00  0.00    -0.416 C  
BRANCH   7   8
HETATM    8  C   UNL     1      -9.688  11.146  64.540  1.00  0.00    -0.265 C  
BRANCH   8   9
HETATM    9  N   UNL     1      -9.837  10.813  65.948  1.00  0.00    -0.227 N  
HETATM   10  C   UNL     1      -9.738   9.528  66.441  1.00  0.00    -0.232 C  
HETATM   11  H   UNL     1     -10.024  11.569  66.606  1.00  0.00     0.000 HD 
HETATM   12  O   UNL     1      -9.572   8.539  65.747  1.00  0.00    -0.152 OA 
BRANCH  10  13
HETATM   13  C   UNL     1      -9.909   9.415  67.917  1.00  0.00    -0.197 A  
HETATM   14  C   UNL     1     -10.199   8.124  68.401  1.00  0.00    -0.240 A  
HETATM   15  C   UNL     1     -10.386   7.885  69.767  1.00  0.00    -0.219 A  
HETATM   16  C   UNL     1      -9.733  10.459  68.830  1.00  0.00    -0.198 A  
HETATM   17  C   UNL     1     -10.286   8.928  70.690  1.00  0.00    -0.215 A  
HETATM   18  N   UNL     1     -10.326   8.725  72.079  1.00  0.00    -0.343 NA 
HETATM   19  C   UNL     1      -9.888  10.184  70.205  1.00  0.00    -0.108 A  
HETATM   20  H2  UNL     1      -9.603   8.044  72.309  1.00  0.00     0.000 HD 
HETATM   21  H1  UNL     1     -10.253   9.487  72.754  1.00  0.00     0.000 HD 
BRANCH  15  22
HETATM   22  S   UNL     1     -10.927   6.252  70.244  1.00  0.00    -0.366 S  
HETATM   23  O   UNL     1     -12.006   6.419  71.200  1.00  0.00    -0.328 OA 
HETATM   24  O   UNL     1     -11.151   5.515  69.010  1.00  0.00    -0.115 OA 
BRANCH  22  25
HETATM   25  C   UNL     1      -9.531   5.532  71.077  1.00  0.00    -0.163 C  
HETATM   26  C   UNL     1      -9.991   4.591  72.181  1.00  0.00    -0.246 C  
ENDBRANCH  22  25
ENDBRANCH  15  22
BRANCH  16  27
HETATM   27  O   UNL     1      -9.342  11.748  68.592  1.00  0.00    -0.173 OA 
HETATM   28  C   UNL     1      -7.951  12.046  68.641  1.00  0.00    -0.082 C  
ENDBRANCH  16  27
ENDBRANCH  10  13
ENDBRANCH   8   9
ENDBRANCH   7   8
ENDBRANCH   2   3
TORSDOF 7
ENDMDL
MODEL      131
REMARK 921   NORMALIZED FREE ENERGY PREDICTED BY IDOCK:   -4.49 KCAL/MOL
REMARK 922        TOTAL FREE ENERGY PREDICTED BY IDOCK:   -7.35 KCAL/MOL
REMARK 923 INTER-LIGAND FREE ENERGY PREDICTED BY IDOCK:   -6.25 KCAL/MOL
REMARK 924 INTRA-LIGAND FREE ENERGY PREDICTED BY IDOCK:   -1.10 KCAL/MOL
REMARK 927      BINDING AFFINITY PREDICTED BY RF-SCORE:    0.00 PKD
ROOT
HETATM    1  C   UNL     1      -7.658   8.522  62.652  1.00  0.00    -0.113 C  
HETATM    2  C   UNL     1      -7.470   8.414  64.161  1.00  0.00    -0.114 C  
ENDROOT
BRANCH   2   3
HETATM    3  N   UNL     1      -8.740   8.351  64.897  1.00  0.00    -0.084 NA 
HETATM    4  C   UNL     1      -8.905   7.095  65.635  1.00  0.00    -0.015 C  
HETATM    5  C   UNL     1      -9.943   7.444  66.680  1.00  0.00    -0.261 C  
HETATM    6  C   UNL     1      -9.539   8.838  67.117  1.00  0.00    -0.228 C  
HETATM    7  C   UNL     1      -8.829   9.445  65.898  1.00  0.00    -0.162 C  
BRANCH   7   8
HETATM    8  C   UNL     1      -9.593  10.647  65.306  1.00  0.00    -0.241 C  
BRANCH   8   9
HETATM    9  N   UNL     1      -9.902  11.713  66.245  1.00  0.00    -0.213 N  
HETATM   10  C   UNL     1     -10.461  12.918  65.873  1.00  0.00    -0.279 C  
HETATM   11  H   UNL     1      -9.693  11.563  67.232  1.00  0.00     0.000 HD 
HETATM   12  O   UNL     1     -10.704  13.234  64.720  1.00  0.00    -0.333 OA 
BRANCH  10  13
HETATM   13  C   UNL     1     -10.708  13.862  66.999  1.00  0.00    -0.283 A  
HETATM   14  C   UNL     1     -10.313  15.196  66.776  1.00  0.00    -0.273 A  
HETATM   15  C   UNL     1     -10.486  16.179  67.755  1.00  0.00    -0.295 A  
HETATM   16  C   UNL     1     -11.352  13.536  68.197  1.00  0.00    -0.286 A  
HETATM   17  C   UNL     1     -11.062  15.861  68.987  1.00  0.00    -0.294 A  
HETATM   18  N   UNL     1     -11.386  16.827  69.952  1.00  0.00    -0.275 NA 
HETATM   19  C   UNL     1     -11.550  14.555  69.153  1.00  0.00    -0.331 A  
HETATM   20  H2  UNL     1     -11.989  17.516  69.502  1.00  0.00     0.000 HD 
HETATM   21  H1  UNL     1     -11.807  16.594  70.852  1.00  0.00     0.000 HD 
BRANCH  15  22
HETATM   22  S   UNL     1      -9.785  17.788  67.431  1.00  0.00    -0.293 S  
HETATM   23  O   UNL     1      -9.094  17.708  66.157  1.00  0.00    -0.456 OA 
HETATM   24  O   UNL     1     -10.858  18.752  67.620  1.00  0.00    -0.426 OA 
BRANCH  22  25
HETATM   25  C   UNL     1      -8.583  18.033  68.719  1.00  0.00    -0.200 C  
HETATM   26  C   UNL     1      -7.660  16.828  68.829  1.00  0.00    -0.240 C  
ENDBRANCH  22  25
ENDBRANCH  15  22
BRANCH  16  27
HETATM   27  O   UNL     1     -11.912  12.347  68.571  1.00  0.00    -0.318 OA 
HETATM   28  C   UNL     1     -11.303  11.623  69.634  1.00  0.00    -0.236 C  
ENDBRANCH  16  27
ENDBRANCH  10  13
ENDBRANCH   8   9
ENDBRANCH   7   8
ENDBRANCH   2   3
TORSDOF 7
ENDMDL
MODEL      132
REMARK 921   NORMALIZED FREE ENERGY PREDICTED BY IDOCK:   -4.49 KCAL/MOL
REMARK 922        TOTAL FREE ENERGY PREDICTED BY IDOCK:   -7.35 KCAL/MOL
REMARK 923 INTER-LIGAND FREE ENERGY PREDICTED BY IDOCK:   -6.55 KCAL/MOL
REMARK 924 INTRA-LIGAND FREE ENERGY PREDICTED BY IDOCK:   -0.79 KCAL/MOL
REMARK 927      BINDING AFFINITY PREDICTED BY RF-SCORE:    0.00 PKD
ROOT
HETATM    1  C   UNL     1      -9.198   4.419  69.926  1.00  0.00    -0.202 C  
HETATM    2  C   UNL     1      -9.226   5.937  70.054  1.00  0.00    -0.148 C  
ENDROOT
BRANCH   2   3
HETATM    3  N   UNL     1     -10.158   6.411  71.086  1.00  0.00    -0.184 NA 
HETATM    4  C   UNL     1      -9.746   6.030  72.441  1.00  0.00    -0.158 C  
HETATM    5  C   UNL     1     -10.491   7.015  73.317  1.00  0.00    -0.365 C  
HETATM    6  C   UNL     1     -10.383   8.315  72.545  1.00  0.00    -0.401 C  
HETATM    7  C   UNL     1     -10.254   7.894  71.074  1.00  0.00    -0.197 C  
BRANCH   7   8
HETATM    8  C   UNL     1     -11.461   8.341  70.223  1.00  0.00    -0.065 C  
BRANCH   8   9
HETATM    9  N   UNL     1     -11.194   9.416  69.280  1.00  0.00    -0.442 N  
HETATM   10  C   UNL     1     -10.757   9.206  67.988  1.00  0.00    -0.147 C  
HETATM   11  H   UNL     1     -11.337  10.376  69.591  1.00  0.00     0.000 HD 
HETATM   12  O   UNL     1     -10.499   8.109  67.523  1.00  0.00    -0.244 OA 
BRANCH  10  13
HETATM   13  C   UNL     1     -10.561  10.449  67.191  1.00  0.00    -0.319 A  
HETATM   14  C   UNL     1     -10.851  11.655  67.858  1.00  0.00    -0.255 A  
HETATM   15  C   UNL     1     -10.712  12.892  67.219  1.00  0.00    -0.245 A  
HETATM   16  C   UNL     1     -10.053  10.499  65.889  1.00  0.00    -0.260 A  
HETATM   17  C   UNL     1     -10.275  12.961  65.895  1.00  0.00    -0.290 A  
HETATM   18  N   UNL     1      -9.985  14.173  65.248  1.00  0.00    -0.552 NA 
HETATM   19  C   UNL     1      -9.884  11.760  65.280  1.00  0.00    -0.267 A  
HETATM   20  H2  UNL     1      -9.301  14.668  65.821  1.00  0.00     0.000 HD 
HETATM   21  H1  UNL     1      -9.665  14.223  64.280  1.00  0.00     0.000 HD 
BRANCH  15  22
HETATM   22  S   UNL     1     -11.281  14.336  68.100  1.00  0.00    -0.289 S  
HETATM   23  O   UNL     1     -11.749  15.288  67.109  1.00  0.00    -0.225 OA 
HETATM   24  O   UNL     1     -12.184  13.858  69.137  1.00  0.00    -0.356 OA 
BRANCH  22  25
HETATM   25  C   UNL     1      -9.829  14.996  68.886  1.00  0.00    -0.233 C  
HETATM   26  C   UNL     1     -10.120  16.360  69.495  1.00  0.00    -0.199 C  
ENDBRANCH  22  25
ENDBRANCH  15  22
BRANCH  16  27
HETATM   27  O   UNL     1      -9.603   9.472  65.106  1.00  0.00    -0.280 OA 
HETATM   28  C   UNL     1      -8.825   9.795  63.959  1.00  0.00    -0.231 C  
ENDBRANCH  16  27
ENDBRANCH  10  13
ENDBRANCH   8   9
ENDBRANCH   7   8
ENDBRANCH   2   3
TORSDOF 7
ENDMDL
MODEL      133
REMARK 921   NORMALIZED FREE ENERGY PREDICTED BY IDOCK:   -4.49 KCAL/MOL
REMARK 922        TOTAL FREE ENERGY PREDICTED BY IDOCK:   -7.35 KCAL/MOL
REMARK 923 INTER-LIGAND FREE ENERGY PREDICTED BY IDOCK:   -6.03 KCAL/MOL
REMARK 924 INTRA-LIGAND FREE ENERGY PREDICTED BY IDOCK:   -1.31 KCAL/MOL
REMARK 927      BINDING AFFINITY PREDICTED BY RF-SCORE:    0.00 PKD
ROOT
HETATM    1  C   UNL     1      -9.132   7.321  73.212  1.00  0.00    -0.201 C  
HETATM    2  C   UNL     1      -9.728   8.531  72.502  1.00  0.00    -0.256 C  
ENDROOT
BRANCH   2   3
HETATM    3  N   UNL     1     -10.936   8.209  71.731  1.00  0.00    -0.247 NA 
HETATM    4  C   UNL     1     -11.410   6.841  71.964  1.00  0.00    -0.272 C  
HETATM    5  C   UNL     1     -12.860   6.901  71.533  1.00  0.00    -0.384 C  
HETATM    6  C   UNL     1     -13.323   8.244  72.060  1.00  0.00    -0.336 C  
HETATM    7  C   UNL     1     -12.057   9.113  72.097  1.00  0.00    -0.318 C  
BRANCH   7   8
HETATM    8  C   UNL     1     -12.125  10.300  71.114  1.00  0.00    -0.395 C  
BRANCH   8   9
HETATM    9  N   UNL     1     -11.225  10.218  69.974  1.00  0.00    -0.289 N  
HETATM   10  C   UNL     1     -10.906  11.297  69.176  1.00  0.00    -0.222 C  
HETATM   11  H   UNL     1     -10.808   9.314  69.753  1.00  0.00     0.000 HD 
HETATM   12  O   UNL     1     -11.382  12.412  69.308  1.00  0.00    -0.259 OA 
BRANCH  10  13
HETATM   13  C   UNL     1      -9.953  10.991  68.072  1.00  0.00    -0.188 A  
HETATM   14  C   UNL     1     -10.309  11.490  66.803  1.00  0.00    -0.262 A  
HETATM   15  C   UNL     1      -9.501  11.268  65.683  1.00  0.00    -0.229 A  
HETATM   16  C   UNL     1      -8.731  10.328  68.223  1.00  0.00    -0.126 A  
HETATM   17  C   UNL     1      -8.312  10.545  65.796  1.00  0.00    -0.166 A  
HETATM   18  N   UNL     1      -7.396  10.410  64.742  1.00  0.00    -0.299 NA 
HETATM   19  C   UNL     1      -7.916  10.152  67.085  1.00  0.00    -0.109 A  
HETATM   20  H2  UNL     1      -7.153  11.349  64.426  1.00  0.00     0.000 HD 
HETATM   21  H1  UNL     1      -6.527   9.882  64.825  1.00  0.00     0.000 HD 
BRANCH  15  22
HETATM   22  S   UNL     1     -10.141  11.787  64.099  1.00  0.00    -0.319 S  
HETATM   23  O   UNL     1      -9.676  13.142  63.870  1.00  0.00    -0.018 OA 
HETATM   24  O   UNL     1      -9.808  10.731  63.154  1.00  0.00    -0.319 OA 
BRANCH  22  25
HETATM   25  C   UNL     1     -11.907  11.814  64.304  1.00  0.00    -0.217 C  
HETATM   26  C   UNL     1     -12.508  13.037  63.627  1.00  0.00    -0.400 C  
ENDBRANCH  22  25
ENDBRANCH  15  22
BRANCH  16  27
HETATM   27  O   UNL     1      -8.143   9.869  69.368  1.00  0.00    -0.112 OA 
HETATM   28  C   UNL     1      -7.729   8.508  69.411  1.00  0.00    -0.092 C  
ENDBRANCH  16  27
ENDBRANCH  10  13
ENDBRANCH   8   9
ENDBRANCH   7   8
ENDBRANCH   2   3
TORSDOF 7
ENDMDL
MODEL      134
REMARK 921   NORMALIZED FREE ENERGY PREDICTED BY IDOCK:   -4.47 KCAL/MOL
REMARK 922        TOTAL FREE ENERGY PREDICTED BY IDOCK:   -7.33 KCAL/MOL
REMARK 923 INTER-LIGAND FREE ENERGY PREDICTED BY IDOCK:   -6.47 KCAL/MOL
REMARK 924 INTRA-LIGAND FREE ENERGY PREDICTED BY IDOCK:   -0.86 KCAL/MOL
REMARK 927      BINDING AFFINITY PREDICTED BY RF-SCORE:    0.00 PKD
ROOT
HETATM    1  C   UNL     1      -8.176   4.256  67.244  1.00  0.00    -0.100 C  
HETATM    2  C   UNL     1      -8.343   5.067  68.523  1.00  0.00    -0.088 C  
ENDROOT
BRANCH   2   3
HETATM    3  N   UNL     1      -9.366   4.520  69.424  1.00  0.00    -0.133 NA 
HETATM    4  C   UNL     1      -8.826   3.524  70.356  1.00  0.00    -0.082 C  
HETATM    5  C   UNL     1      -9.854   3.502  71.468  1.00  0.00    -0.219 C  
HETATM    6  C   UNL     1     -10.216   4.964  71.634  1.00  0.00    -0.267 C  
HETATM    7  C   UNL     1      -9.971   5.593  70.254  1.00  0.00    -0.207 C  
BRANCH   7   8
HETATM    8  C   UNL     1     -11.271   6.103  69.598  1.00  0.00    -0.418 C  
BRANCH   8   9
HETATM    9  N   UNL     1     -11.639   7.472  69.926  1.00  0.00    -0.478 N  
HETATM   10  C   UNL     1     -10.813   8.556  69.711  1.00  0.00    -0.175 C  
HETATM   11  H   UNL     1     -12.556   7.639  70.338  1.00  0.00     0.000 HD 
HETATM   12  O   UNL     1      -9.676   8.475  69.277  1.00  0.00    -0.169 OA 
BRANCH  10  13
HETATM   13  C   UNL     1     -11.396   9.868  70.107  1.00  0.00    -0.335 A  
HETATM   14  C   UNL     1     -11.145  10.939  69.226  1.00  0.00    -0.305 A  
HETATM   15  C   UNL     1     -11.633  12.223  69.485  1.00  0.00    -0.298 A  
HETATM   16  C   UNL     1     -12.213  10.083  71.221  1.00  0.00    -0.402 A  
HETATM   17  C   UNL     1     -12.391  12.477  70.630  1.00  0.00    -0.282 A  
HETATM   18  N   UNL     1     -13.022  13.707  70.873  1.00  0.00    -0.234 NA 
HETATM   19  C   UNL     1     -12.726  11.379  71.439  1.00  0.00    -0.489 A  
HETATM   20  H2  UNL     1     -13.611  13.912  70.065  1.00  0.00     0.000 HD 
HETATM   21  H1  UNL     1     -13.576  13.893  71.709  1.00  0.00     0.000 HD 
BRANCH  15  22
HETATM   22  S   UNL     1     -11.100  13.535  68.399  1.00  0.00    -0.287 S  
HETATM   23  O   UNL     1     -10.246  12.937  67.389  1.00  0.00    -0.227 OA 
HETATM   24  O   UNL     1     -12.300  14.259  68.005  1.00  0.00    -0.215 OA 
BRANCH  22  25
HETATM   25  C   UNL     1     -10.114  14.606  69.421  1.00  0.00    -0.055 C  
HETATM   26  C   UNL     1      -9.961  15.975  68.775  1.00  0.00    -0.224 C  
ENDBRANCH  22  25
ENDBRANCH  15  22
BRANCH  16  27
HETATM   27  O   UNL     1     -12.674   9.174  72.132  1.00  0.00    -0.368 OA 
HETATM   28  C   UNL     1     -14.080   8.972  72.226  1.00  0.00    -0.413 C  
ENDBRANCH  16  27
ENDBRANCH  10  13
ENDBRANCH   8   9
ENDBRANCH   7   8
ENDBRANCH   2   3
TORSDOF 7
ENDMDL
MODEL      135
REMARK 921   NORMALIZED FREE ENERGY PREDICTED BY IDOCK:   -4.43 KCAL/MOL
REMARK 922        TOTAL FREE ENERGY PREDICTED BY IDOCK:   -7.27 KCAL/MOL
REMARK 923 INTER-LIGAND FREE ENERGY PREDICTED BY IDOCK:   -6.39 KCAL/MOL
REMARK 924 INTRA-LIGAND FREE ENERGY PREDICTED BY IDOCK:   -0.88 KCAL/MOL
REMARK 927      BINDING AFFINITY PREDICTED BY RF-SCORE:    0.00 PKD
ROOT
HETATM    1  C   UNL     1     -11.420  15.280  71.126  1.00  0.00    -0.414 C  
HETATM    2  C   UNL     1     -10.304  15.420  70.098  1.00  0.00    -0.239 C  
ENDROOT
BRANCH   2   3
HETATM    3  N   UNL     1     -10.466  14.523  68.946  1.00  0.00    -0.243 NA 
HETATM    4  C   UNL     1     -11.627  14.866  68.120  1.00  0.00    -0.334 C  
HETATM    5  C   UNL     1     -11.309  14.212  66.792  1.00  0.00    -0.353 C  
HETATM    6  C   UNL     1      -9.826  14.472  66.624  1.00  0.00    -0.282 C  
HETATM    7  C   UNL     1      -9.279  14.584  68.055  1.00  0.00    -0.190 C  
BRANCH   7   8
HETATM    8  C   UNL     1      -8.294  13.449  68.403  1.00  0.00    -0.137 C  
BRANCH   8   9
HETATM    9  N   UNL     1      -8.874  12.117  68.461  1.00  0.00    -0.332 N  
HETATM   10  C   UNL     1      -8.234  11.030  69.020  1.00  0.00    -0.098 C  
HETATM   11  H   UNL     1      -9.805  11.978  68.068  1.00  0.00     0.000 HD 
HETATM   12  O   UNL     1      -7.101  11.060  69.471  1.00  0.00    -0.126 OA 
BRANCH  10  13
HETATM   13  C   UNL     1      -9.017   9.764  68.987  1.00  0.00    -0.154 A  
HETATM   14  C   UNL     1      -9.910   9.569  70.060  1.00  0.00    -0.269 A  
HETATM   15  C   UNL     1     -10.701   8.419  70.148  1.00  0.00    -0.236 A  
HETATM   16  C   UNL     1      -8.981   8.821  67.955  1.00  0.00    -0.140 A  
HETATM   17  C   UNL     1     -10.628   7.430  69.165  1.00  0.00    -0.204 A  
HETATM   18  N   UNL     1     -11.492   6.325  69.127  1.00  0.00    -0.548 NA 
HETATM   19  C   UNL     1      -9.818   7.689  68.048  1.00  0.00    -0.188 A  
HETATM   20  H2  UNL     1     -12.447   6.684  69.127  1.00  0.00     0.000 HD 
HETATM   21  H1  UNL     1     -11.439   5.602  68.409  1.00  0.00     0.000 HD 
BRANCH  15  22
HETATM   22  S   UNL     1     -11.655   8.196  71.640  1.00  0.00    -0.296 S  
HETATM   23  O   UNL     1     -12.243   9.481  71.971  1.00  0.00    -0.358 OA 
HETATM   24  O   UNL     1     -12.509   7.039  71.415  1.00  0.00    -0.351 OA 
BRANCH  22  25
HETATM   25  C   UNL     1     -10.462   7.774  72.889  1.00  0.00    -0.350 C  
HETATM   26  C   UNL     1     -10.400   6.266  73.085  1.00  0.00    -0.240 C  
ENDBRANCH  22  25
ENDBRANCH  15  22
BRANCH  16  27
HETATM   27  O   UNL     1      -8.284   8.865  66.780  1.00  0.00    -0.109 OA 
HETATM   28  C   UNL     1      -8.985   9.233  65.597  1.00  0.00    -0.199 C  
ENDBRANCH  16  27
ENDBRANCH  10  13
ENDBRANCH   8   9
ENDBRANCH   7   8
ENDBRANCH   2   3
TORSDOF 7
ENDMDL
MODEL      136
REMARK 921   NORMALIZED FREE ENERGY PREDICTED BY IDOCK:   -4.43 KCAL/MOL
REMARK 922        TOTAL FREE ENERGY PREDICTED BY IDOCK:   -7.26 KCAL/MOL
REMARK 923 INTER-LIGAND FREE ENERGY PREDICTED BY IDOCK:   -6.31 KCAL/MOL
REMARK 924 INTRA-LIGAND FREE ENERGY PREDICTED BY IDOCK:   -0.95 KCAL/MOL
REMARK 927      BINDING AFFINITY PREDICTED BY RF-SCORE:    0.00 PKD
ROOT
HETATM    1  C   UNL     1     -13.276  10.783  72.037  1.00  0.00    -0.466 C  
HETATM    2  C   UNL     1     -13.019   9.298  72.260  1.00  0.00    -0.412 C  
ENDROOT
BRANCH   2   3
HETATM    3  N   UNL     1     -11.613   8.920  72.060  1.00  0.00    -0.367 NA 
HETATM    4  C   UNL     1     -11.236   7.721  72.815  1.00  0.00    -0.398 C  
HETATM    5  C   UNL     1     -10.001   7.231  72.087  1.00  0.00    -0.191 C  
HETATM    6  C   UNL     1     -10.349   7.451  70.629  1.00  0.00    -0.217 C  
HETATM    7  C   UNL     1     -11.341   8.624  70.630  1.00  0.00    -0.247 C  
BRANCH   7   8
HETATM    8  C   UNL     1     -10.778   9.876  69.926  1.00  0.00    -0.280 C  
BRANCH   8   9
HETATM    9  N   UNL     1     -10.158   9.637  68.632  1.00  0.00    -0.172 N  
HETATM   10  C   UNL     1     -10.628  10.171  67.451  1.00  0.00    -0.272 C  
HETATM   11  H   UNL     1      -9.330   9.043  68.597  1.00  0.00     0.000 HD 
HETATM   12  O   UNL     1     -11.637  10.850  67.360  1.00  0.00    -0.509 OA 
BRANCH  10  13
HETATM   13  C   UNL     1      -9.831   9.809  66.245  1.00  0.00    -0.315 A  
HETATM   14  C   UNL     1      -9.386   8.474  66.186  1.00  0.00    -0.279 A  
HETATM   15  C   UNL     1      -8.626   8.008  65.109  1.00  0.00    -0.051 A  
HETATM   16  C   UNL     1      -9.568  10.661  65.168  1.00  0.00    -0.251 A  
HETATM   17  C   UNL     1      -8.289   8.861  64.056  1.00  0.00    -0.164 A  
HETATM   18  N   UNL     1      -7.650   8.418  62.887  1.00  0.00    -0.113 NA 
HETATM   19  C   UNL     1      -8.833  10.155  64.075  1.00  0.00    -0.247 A  
HETATM   20  H2  UNL     1      -8.214   7.661  62.499  1.00  0.00     0.000 HD 
HETATM   21  H1  UNL     1      -7.404   9.041  62.118  1.00  0.00     0.000 HD 
BRANCH  15  22
HETATM   22  S   UNL     1      -7.965   6.354  65.229  1.00  0.00    -0.118 S  
HETATM   23  O   UNL     1      -8.435   5.617  64.070  1.00  0.00    -0.108 OA 
HETATM   24  O   UNL     1      -6.538   6.496  65.474  1.00  0.00    -0.041 OA 
BRANCH  22  25
HETATM   25  C   UNL     1      -8.715   5.666  66.687  1.00  0.00    -0.118 C  
HETATM   26  C   UNL     1      -9.983   4.904  66.331  1.00  0.00    -0.258 C  
ENDBRANCH  22  25
ENDBRANCH  15  22
BRANCH  16  27
HETATM   27  O   UNL     1      -9.997  11.943  64.966  1.00  0.00    -0.253 OA 
HETATM   28  C   UNL     1     -10.542  12.276  63.694  1.00  0.00    -0.462 C  
ENDBRANCH  16  27
ENDBRANCH  10  13
ENDBRANCH   8   9
ENDBRANCH   7   8
ENDBRANCH   2   3
TORSDOF 7
ENDMDL
MODEL      137
REMARK 921   NORMALIZED FREE ENERGY PREDICTED BY IDOCK:   -4.42 KCAL/MOL
REMARK 922        TOTAL FREE ENERGY PREDICTED BY IDOCK:   -7.26 KCAL/MOL
REMARK 923 INTER-LIGAND FREE ENERGY PREDICTED BY IDOCK:   -6.01 KCAL/MOL
REMARK 924 INTRA-LIGAND FREE ENERGY PREDICTED BY IDOCK:   -1.25 KCAL/MOL
REMARK 927      BINDING AFFINITY PREDICTED BY RF-SCORE:    0.00 PKD
ROOT
HETATM    1  C   UNL     1      -6.801   5.804  64.659  1.00  0.00    -0.051 C  
HETATM    2  C   UNL     1      -8.235   5.335  64.443  1.00  0.00    -0.135 C  
ENDROOT
BRANCH   2   3
HETATM    3  N   UNL     1      -9.101   5.578  65.605  1.00  0.00    -0.150 NA 
HETATM    4  C   UNL     1      -9.215   4.408  66.481  1.00  0.00    -0.142 C  
HETATM    5  C   UNL     1      -9.669   5.007  67.796  1.00  0.00    -0.192 C  
HETATM    6  C   UNL     1      -8.854   6.280  67.896  1.00  0.00    -0.112 C  
HETATM    7  C   UNL     1      -8.569   6.684  66.442  1.00  0.00    -0.130 C  
BRANCH   7   8
HETATM    8  C   UNL     1      -9.244   8.016  66.055  1.00  0.00    -0.120 C  
BRANCH   8   9
HETATM    9  N   UNL     1     -10.011   8.657  67.111  1.00  0.00    -0.207 N  
HETATM   10  C   UNL     1      -9.811   9.961  67.514  1.00  0.00    -0.169 C  
HETATM   11  H   UNL     1     -10.734   8.113  67.580  1.00  0.00     0.000 HD 
HETATM   12  O   UNL     1      -8.942  10.690  67.068  1.00  0.00    -0.137 OA 
BRANCH  10  13
HETATM   13  C   UNL     1     -10.718  10.419  68.604  1.00  0.00    -0.250 A  
HETATM   14  C   UNL     1     -10.873   9.528  69.684  1.00  0.00    -0.255 A  
HETATM   15  C   UNL     1     -11.700   9.838  70.769  1.00  0.00    -0.328 A  
HETATM   16  C   UNL     1     -11.345  11.668  68.659  1.00  0.00    -0.267 A  
HETATM   17  C   UNL     1     -12.394  11.049  70.810  1.00  0.00    -0.398 A  
HETATM   18  N   UNL     1     -13.126  11.473  71.930  1.00  0.00    -0.459 NA 
HETATM   19  C   UNL     1     -12.142  11.972  69.782  1.00  0.00    -0.317 A  
HETATM   20  H2  UNL     1     -12.494  11.456  72.731  1.00  0.00     0.000 HD 
HETATM   21  H1  UNL     1     -13.633  12.358  71.960  1.00  0.00     0.000 HD 
BRANCH  15  22
HETATM   22  S   UNL     1     -11.963   8.559  71.987  1.00  0.00    -0.386 S  
HETATM   23  O   UNL     1     -10.809   8.560  72.867  1.00  0.00    -0.148 OA 
HETATM   24  O   UNL     1     -13.296   8.775  72.531  1.00  0.00    -0.399 OA 
BRANCH  22  25
HETATM   25  C   UNL     1     -11.977   7.041  71.062  1.00  0.00    -0.361 C  
HETATM   26  C   UNL     1     -10.696   6.255  71.300  1.00  0.00    -0.299 C  
ENDBRANCH  22  25
ENDBRANCH  15  22
BRANCH  16  27
HETATM   27  O   UNL     1     -11.241  12.716  67.787  1.00  0.00    -0.244 OA 
HETATM   28  C   UNL     1     -12.024  13.878  68.039  1.00  0.00    -0.355 C  
ENDBRANCH  16  27
ENDBRANCH  10  13
ENDBRANCH   8   9
ENDBRANCH   7   8
ENDBRANCH   2   3
TORSDOF 7
ENDMDL
MODEL      138
REMARK 921   NORMALIZED FREE ENERGY PREDICTED BY IDOCK:   -4.42 KCAL/MOL
REMARK 922        TOTAL FREE ENERGY PREDICTED BY IDOCK:   -7.25 KCAL/MOL
REMARK 923 INTER-LIGAND FREE ENERGY PREDICTED BY IDOCK:   -6.26 KCAL/MOL
REMARK 924 INTRA-LIGAND FREE ENERGY PREDICTED BY IDOCK:   -0.99 KCAL/MOL
REMARK 927      BINDING AFFINITY PREDICTED BY RF-SCORE:    0.00 PKD
ROOT
HETATM    1  C   UNL     1      -8.861  15.416  69.495  1.00  0.00    -0.217 C  
HETATM    2  C   UNL     1     -10.262  15.942  69.782  1.00  0.00    -0.268 C  
ENDROOT
BRANCH   2   3
HETATM    3  N   UNL     1     -10.869  16.624  68.631  1.00  0.00    -0.340 NA 
HETATM    4  C   UNL     1     -10.501  18.042  68.555  1.00  0.00    -0.280 C  
HETATM    5  C   UNL     1     -10.765  18.388  67.104  1.00  0.00    -0.366 C  
HETATM    6  C   UNL     1     -10.268  17.164  66.361  1.00  0.00    -0.331 C  
HETATM    7  C   UNL     1     -10.429  16.004  67.355  1.00  0.00    -0.308 C  
BRANCH   7   8
HETATM    8  C   UNL     1     -11.466  14.963  66.885  1.00  0.00    -0.313 C  
BRANCH   8   9
HETATM    9  N   UNL     1     -10.951  13.921  66.011  1.00  0.00    -0.284 N  
HETATM   10  C   UNL     1     -10.620  12.654  66.447  1.00  0.00    -0.251 C  
HETATM   11  H   UNL     1     -10.829  14.137  65.022  1.00  0.00     0.000 HD 
HETATM   12  O   UNL     1     -10.672  12.296  67.612  1.00  0.00    -0.212 OA 
BRANCH  10  13
HETATM   13  C   UNL     1     -10.126  11.741  65.380  1.00  0.00    -0.291 A  
HETATM   14  C   UNL     1      -9.478  10.572  65.828  1.00  0.00    -0.249 A  
HETATM   15  C   UNL     1      -8.964   9.634  64.926  1.00  0.00    -0.217 A  
HETATM   16  C   UNL     1     -10.322  11.923  64.008  1.00  0.00    -0.364 A  
HETATM   17  C   UNL     1      -9.085   9.832  63.550  1.00  0.00    -0.228 A  
HETATM   18  N   UNL     1      -8.715   8.865  62.603  1.00  0.00    -0.386 NA 
HETATM   19  C   UNL     1      -9.830  10.943  63.121  1.00  0.00    -0.392 A  
HETATM   20  H2  UNL     1      -9.216   8.006  62.832  1.00  0.00     0.000 HD 
HETATM   21  H1  UNL     1      -8.804   9.010  61.596  1.00  0.00     0.000 HD 
BRANCH  15  22
HETATM   22  S   UNL     1      -8.006   8.289  65.604  1.00  0.00    -0.121 S  
HETATM   23  O   UNL     1      -8.903   7.488  66.417  1.00  0.00    -0.142 OA 
HETATM   24  O   UNL     1      -7.297   7.683  64.487  1.00  0.00    -0.075 OA 
BRANCH  22  25
HETATM   25  C   UNL     1      -6.811   9.066  66.666  1.00  0.00    -0.080 C  
HETATM   26  C   UNL     1      -6.407   8.130  67.796  1.00  0.00    -0.053 C  
ENDBRANCH  22  25
ENDBRANCH  15  22
BRANCH  16  27
HETATM   27  O   UNL     1     -11.015  12.912  63.367  1.00  0.00    -0.310 OA 
HETATM   28  C   UNL     1     -12.399  12.703  63.109  1.00  0.00    -0.187 C  
ENDBRANCH  16  27
ENDBRANCH  10  13
ENDBRANCH   8   9
ENDBRANCH   7   8
ENDBRANCH   2   3
TORSDOF 7
ENDMDL
MODEL      139
REMARK 921   NORMALIZED FREE ENERGY PREDICTED BY IDOCK:   -4.41 KCAL/MOL
REMARK 922        TOTAL FREE ENERGY PREDICTED BY IDOCK:   -7.24 KCAL/MOL
REMARK 923 INTER-LIGAND FREE ENERGY PREDICTED BY IDOCK:   -6.66 KCAL/MOL
REMARK 924 INTRA-LIGAND FREE ENERGY PREDICTED BY IDOCK:   -0.58 KCAL/MOL
REMARK 927      BINDING AFFINITY PREDICTED BY RF-SCORE:    0.00 PKD
ROOT
HETATM    1  C   UNL     1      -7.716  12.788  68.200  1.00  0.00    -0.137 C  
HETATM    2  C   UNL     1      -9.031  13.360  67.685  1.00  0.00    -0.202 C  
ENDROOT
BRANCH   2   3
HETATM    3  N   UNL     1      -9.537  14.470  68.505  1.00  0.00    -0.216 NA 
HETATM    4  C   UNL     1      -9.072  15.779  68.034  1.00  0.00    -0.187 C  
HETATM    5  C   UNL     1     -10.077  16.738  68.637  1.00  0.00    -0.279 C  
HETATM    6  C   UNL     1     -11.394  16.004  68.476  1.00  0.00    -0.382 C  
HETATM    7  C   UNL     1     -11.021  14.515  68.481  1.00  0.00    -0.249 C  
BRANCH   7   8
HETATM    8  C   UNL     1     -11.595  13.765  69.702  1.00  0.00    -0.281 C  
BRANCH   8   9
HETATM    9  N   UNL     1     -11.206  12.369  69.815  1.00  0.00    -0.488 N  
HETATM   10  C   UNL     1     -11.500  11.416  68.861  1.00  0.00    -0.298 C  
HETATM   11  H   UNL     1     -10.689  12.077  70.644  1.00  0.00     0.000 HD 
HETATM   12  O   UNL     1     -12.158  11.632  67.857  1.00  0.00    -0.613 OA 
BRANCH  10  13
HETATM   13  C   UNL     1     -10.993  10.050  69.172  1.00  0.00    -0.256 A  
HETATM   14  C   UNL     1     -11.538   9.444  70.322  1.00  0.00    -0.181 A  
HETATM   15  C   UNL     1     -11.143   8.164  70.725  1.00  0.00    -0.259 A  
HETATM   16  C   UNL     1     -10.098   9.323  68.382  1.00  0.00    -0.191 A  
HETATM   17  C   UNL     1     -10.195   7.449  69.991  1.00  0.00    -0.209 A  
HETATM   18  N   UNL     1      -9.864   6.113  70.266  1.00  0.00    -0.167 NA 
HETATM   19  C   UNL     1      -9.746   8.019  68.789  1.00  0.00    -0.157 A  
HETATM   20  H2  UNL     1     -10.730   5.575  70.252  1.00  0.00     0.000 HD 
HETATM   21  H1  UNL     1      -9.171   5.591  69.729  1.00  0.00     0.000 HD 
BRANCH  15  22
HETATM   22  S   UNL     1     -11.761   7.574  72.293  1.00  0.00    -0.292 S  
HETATM   23  O   UNL     1     -12.570   8.636  72.863  1.00  0.00    -0.289 OA 
HETATM   24  O   UNL     1     -12.347   6.267  72.040  1.00  0.00    -0.328 OA 
BRANCH  22  25
HETATM   25  C   UNL     1     -10.314   7.352  73.302  1.00  0.00    -0.355 C  
HETATM   26  C   UNL     1      -9.287   8.437  73.015  1.00  0.00    -0.249 C  
ENDBRANCH  22  25
ENDBRANCH  15  22
BRANCH  16  27
HETATM   27  O   UNL     1      -9.542   9.668  67.181  1.00  0.00    -0.156 OA 
HETATM   28  C   UNL     1      -9.472   8.674  66.164  1.00  0.00    -0.240 C  
ENDBRANCH  16  27
ENDBRANCH  10  13
ENDBRANCH   8   9
ENDBRANCH   7   8
ENDBRANCH   2   3
TORSDOF 7
ENDMDL
MODEL      140
REMARK 921   NORMALIZED FREE ENERGY PREDICTED BY IDOCK:   -4.35 KCAL/MOL
REMARK 922        TOTAL FREE ENERGY PREDICTED BY IDOCK:   -7.16 KCAL/MOL
REMARK 923 INTER-LIGAND FREE ENERGY PREDICTED BY IDOCK:   -5.85 KCAL/MOL
REMARK 924 INTRA-LIGAND FREE ENERGY PREDICTED BY IDOCK:   -1.31 KCAL/MOL
REMARK 927      BINDING AFFINITY PREDICTED BY RF-SCORE:    0.00 PKD
ROOT
HETATM    1  C   UNL     1      -9.693  15.366  65.928  1.00  0.00    -0.392 C  
HETATM    2  C   UNL     1     -11.004  15.316  66.703  1.00  0.00    -0.297 C  
ENDROOT
BRANCH   2   3
HETATM    3  N   UNL     1     -11.834  14.154  66.358  1.00  0.00    -0.405 NA 
HETATM    4  C   UNL     1     -12.171  14.102  64.931  1.00  0.00    -0.438 C  
HETATM    5  C   UNL     1     -12.533  12.648  64.716  1.00  0.00    -0.555 C  
HETATM    6  C   UNL     1     -11.505  11.908  65.549  1.00  0.00    -0.311 C  
HETATM    7  C   UNL     1     -11.127  12.885  66.671  1.00  0.00    -0.284 C  
BRANCH   7   8
HETATM    8  C   UNL     1     -11.545  12.375  68.066  1.00  0.00    -0.347 C  
BRANCH   8   9
HETATM    9  N   UNL     1     -10.487  11.753  68.845  1.00  0.00    -0.329 N  
HETATM   10  C   UNL     1     -10.220  10.400  68.825  1.00  0.00    -0.187 C  
HETATM   11  H   UNL     1      -9.911  12.349  69.439  1.00  0.00     0.000 HD 
HETATM   12  O   UNL     1     -10.873   9.582  68.198  1.00  0.00    -0.222 OA 
BRANCH  10  13
HETATM   13  C   UNL     1      -9.081   9.979  69.688  1.00  0.00    -0.230 A  
HETATM   14  C   UNL     1      -9.329   8.878  70.533  1.00  0.00    -0.240 A  
HETATM   15  C   UNL     1      -8.344   8.387  71.395  1.00  0.00    -0.145 A  
HETATM   16  C   UNL     1      -7.800  10.539  69.663  1.00  0.00    -0.086 A  
HETATM   17  C   UNL     1      -7.079   8.978  71.439  1.00  0.00    -0.050 A  
HETATM   18  N   UNL     1      -6.012   8.446  72.179  1.00  0.00    -0.051 NA 
HETATM   19  C   UNL     1      -6.813  10.000  70.514  1.00  0.00    -0.110 A  
HETATM   20  H2  UNL     1      -5.887   7.478  71.881  1.00  0.00     0.000 HD 
HETATM   21  H1  UNL     1      -5.088   8.877  72.210  1.00  0.00     0.000 HD 
BRANCH  15  22
HETATM   22  S   UNL     1      -8.827   7.110  72.546  1.00  0.00    -0.124 S  
HETATM   23  O   UNL     1      -7.983   5.958  72.289  1.00  0.00    -0.105 OA 
HETATM   24  O   UNL     1      -8.841   7.726  73.864  1.00  0.00    -0.242 OA 
BRANCH  22  25
HETATM   25  C   UNL     1     -10.501   6.703  72.103  1.00  0.00    -0.204 C  
HETATM   26  C   UNL     1     -11.485   7.596  72.845  1.00  0.00    -0.342 C  
ENDBRANCH  22  25
ENDBRANCH  15  22
BRANCH  16  27
HETATM   27  O   UNL     1      -7.314  11.525  68.849  1.00  0.00    -0.112 OA 
HETATM   28  C   UNL     1      -5.932  11.493  68.510  1.00  0.00    -0.045 C  
ENDBRANCH  16  27
ENDBRANCH  10  13
ENDBRANCH   8   9
ENDBRANCH   7   8
ENDBRANCH   2   3
TORSDOF 7
ENDMDL
MODEL      141
REMARK 921   NORMALIZED FREE ENERGY PREDICTED BY IDOCK:   -4.35 KCAL/MOL
REMARK 922        TOTAL FREE ENERGY PREDICTED BY IDOCK:   -7.16 KCAL/MOL
REMARK 923 INTER-LIGAND FREE ENERGY PREDICTED BY IDOCK:   -6.02 KCAL/MOL
REMARK 924 INTRA-LIGAND FREE ENERGY PREDICTED BY IDOCK:   -1.13 KCAL/MOL
REMARK 927      BINDING AFFINITY PREDICTED BY RF-SCORE:    0.00 PKD
ROOT
HETATM    1  C   UNL     1      -9.669  11.481  63.231  1.00  0.00    -0.405 C  
HETATM    2  C   UNL     1      -8.636  10.425  63.605  1.00  0.00    -0.186 C  
ENDROOT
BRANCH   2   3
HETATM    3  N   UNL     1      -8.853   9.856  64.943  1.00  0.00    -0.176 NA 
HETATM    4  C   UNL     1      -8.742   8.394  64.960  1.00  0.00    -0.056 C  
HETATM    5  C   UNL     1      -8.473   8.088  66.419  1.00  0.00    -0.138 C  
HETATM    6  C   UNL     1      -7.517   9.188  66.832  1.00  0.00    -0.091 C  
HETATM    7  C   UNL     1      -7.847  10.369  65.907  1.00  0.00    -0.148 C  
BRANCH   7   8
HETATM    8  C   UNL     1      -8.415  11.581  66.674  1.00  0.00    -0.172 C  
BRANCH   8   9
HETATM    9  N   UNL     1      -9.306  11.259  67.777  1.00  0.00    -0.159 N  
HETATM   10  C   UNL     1     -10.682  11.306  67.684  1.00  0.00    -0.226 C  
HETATM   11  H   UNL     1      -8.892  10.983  68.667  1.00  0.00     0.000 HD 
HETATM   12  O   UNL     1     -11.289  11.672  66.692  1.00  0.00    -0.324 OA 
BRANCH  10  13
HETATM   13  C   UNL     1     -11.401  10.922  68.931  1.00  0.00    -0.354 A  
HETATM   14  C   UNL     1     -11.206   9.595  69.365  1.00  0.00    -0.112 A  
HETATM   15  C   UNL     1     -11.828   9.109  70.519  1.00  0.00    -0.095 A  
HETATM   16  C   UNL     1     -12.173  11.785  69.715  1.00  0.00    -0.203 A  
HETATM   17  C   UNL     1     -12.661   9.933  71.278  1.00  0.00    -0.381 A  
HETATM   18  N   UNL     1     -13.200   9.545  72.515  1.00  0.00    -0.562 NA 
HETATM   19  C   UNL     1     -12.757  11.281  70.895  1.00  0.00    -0.412 A  
HETATM   20  H2  UNL     1     -12.421   9.265  73.112  1.00  0.00     0.000 HD 
HETATM   21  H1  UNL     1     -13.809  10.147  73.069  1.00  0.00     0.000 HD 
BRANCH  15  22
HETATM   22  S   UNL     1     -11.654   7.367  70.869  1.00  0.00    -0.287 S  
HETATM   23  O   UNL     1     -12.744   6.994  71.751  1.00  0.00    -0.349 OA 
HETATM   24  O   UNL     1     -11.494   6.701  69.585  1.00  0.00    -0.338 OA 
BRANCH  22  25
HETATM   25  C   UNL     1     -10.122   7.229  71.762  1.00  0.00    -0.179 C  
HETATM   26  C   UNL     1      -9.593   8.606  72.136  1.00  0.00    -0.378 C  
ENDBRANCH  22  25
ENDBRANCH  15  22
BRANCH  16  27
HETATM   27  O   UNL     1     -12.397  13.123  69.546  1.00  0.00    -0.191 OA 
HETATM   28  C   UNL     1     -11.408  14.033  70.013  1.00  0.00    -0.100 C  
ENDBRANCH  16  27
ENDBRANCH  10  13
ENDBRANCH   8   9
ENDBRANCH   7   8
ENDBRANCH   2   3
TORSDOF 7
ENDMDL
MODEL      142
REMARK 921   NORMALIZED FREE ENERGY PREDICTED BY IDOCK:   -4.35 KCAL/MOL
REMARK 922        TOTAL FREE ENERGY PREDICTED BY IDOCK:   -7.15 KCAL/MOL
REMARK 923 INTER-LIGAND FREE ENERGY PREDICTED BY IDOCK:   -6.09 KCAL/MOL
REMARK 924 INTRA-LIGAND FREE ENERGY PREDICTED BY IDOCK:   -1.06 KCAL/MOL
REMARK 927      BINDING AFFINITY PREDICTED BY RF-SCORE:    0.00 PKD
ROOT
HETATM    1  C   UNL     1     -10.508  13.410  67.276  1.00  0.00    -0.248 C  
HETATM    2  C   UNL     1     -11.322  12.124  67.214  1.00  0.00    -0.334 C  
ENDROOT
BRANCH   2   3
HETATM    3  N   UNL     1     -11.472  11.602  65.848  1.00  0.00    -0.294 NA 
HETATM    4  C   UNL     1     -12.033  12.592  64.923  1.00  0.00    -0.412 C  
HETATM    5  C   UNL     1     -11.617  12.066  63.565  1.00  0.00    -0.553 C  
HETATM    6  C   UNL     1     -10.202  11.578  63.801  1.00  0.00    -0.429 C  
HETATM    7  C   UNL     1     -10.157  11.196  65.288  1.00  0.00    -0.276 C  
BRANCH   7   8
HETATM    8  C   UNL     1      -9.932   9.685  65.504  1.00  0.00    -0.209 C  
BRANCH   8   9
HETATM    9  N   UNL     1     -10.262   9.189  66.831  1.00  0.00    -0.258 N  
HETATM   10  C   UNL     1      -9.345   9.087  67.857  1.00  0.00    -0.141 C  
HETATM   11  H   UNL     1     -11.223   8.901  67.013  1.00  0.00     0.000 HD 
HETATM   12  O   UNL     1      -8.160   9.349  67.744  1.00  0.00    -0.106 OA 
BRANCH  10  13
HETATM   13  C   UNL     1      -9.902   8.568  69.137  1.00  0.00    -0.186 A  
HETATM   14  C   UNL     1     -11.072   9.205  69.597  1.00  0.00    -0.103 A  
HETATM   15  C   UNL     1     -11.692   8.814  70.789  1.00  0.00    -0.219 A  
HETATM   16  C   UNL     1      -9.400   7.475  69.850  1.00  0.00    -0.150 A  
HETATM   17  C   UNL     1     -11.165   7.772  71.554  1.00  0.00    -0.244 A  
HETATM   18  N   UNL     1     -11.817   7.246  72.681  1.00  0.00    -0.527 NA 
HETATM   19  C   UNL     1     -10.066   7.075  71.027  1.00  0.00    -0.206 A  
HETATM   20  H2  UNL     1     -12.754   6.967  72.388  1.00  0.00     0.000 HD 
HETATM   21  H1  UNL     1     -11.432   6.485  73.240  1.00  0.00     0.000 HD 
BRANCH  15  22
HETATM   22  S   UNL     1     -13.057   9.810  71.365  1.00  0.00    -0.407 S  
HETATM   23  O   UNL     1     -14.264   9.278  70.758  1.00  0.00     0.063 OA 
HETATM   24  O   UNL     1     -12.937   9.878  72.813  1.00  0.00     0.019 OA 
BRANCH  22  25
HETATM   25  C   UNL     1     -12.752  11.432  70.704  1.00  0.00    -0.195 C  
HETATM   26  C   UNL     1     -13.088  12.503  71.731  1.00  0.00    -0.450 C  
ENDBRANCH  22  25
ENDBRANCH  15  22
BRANCH  16  27
HETATM   27  O   UNL     1      -8.359   6.650  69.528  1.00  0.00    -0.128 OA 
HETATM   28  C   UNL     1      -8.649   5.288  69.232  1.00  0.00    -0.101 C  
ENDBRANCH  16  27
ENDBRANCH  10  13
ENDBRANCH   8   9
ENDBRANCH   7   8
ENDBRANCH   2   3
TORSDOF 7
ENDMDL
MODEL      143
REMARK 921   NORMALIZED FREE ENERGY PREDICTED BY IDOCK:   -4.34 KCAL/MOL
REMARK 922        TOTAL FREE ENERGY PREDICTED BY IDOCK:   -7.14 KCAL/MOL
REMARK 923 INTER-LIGAND FREE ENERGY PREDICTED BY IDOCK:   -5.66 KCAL/MOL
REMARK 924 INTRA-LIGAND FREE ENERGY PREDICTED BY IDOCK:   -1.48 KCAL/MOL
REMARK 927      BINDING AFFINITY PREDICTED BY RF-SCORE:    0.00 PKD
ROOT
HETATM    1  C   UNL     1     -10.304  16.572  65.442  1.00  0.00    -0.246 C  
HETATM    2  C   UNL     1      -9.400  15.916  66.479  1.00  0.00    -0.277 C  
ENDROOT
BRANCH   2   3
HETATM    3  N   UNL     1     -10.077  14.866  67.252  1.00  0.00    -0.235 NA 
HETATM    4  C   UNL     1     -11.070  15.403  68.188  1.00  0.00    -0.309 C  
HETATM    5  C   UNL     1     -11.966  14.213  68.459  1.00  0.00    -0.367 C  
HETATM    6  C   UNL     1     -12.096  13.561  67.098  1.00  0.00    -0.386 C  
HETATM    7  C   UNL     1     -10.804  13.931  66.355  1.00  0.00    -0.291 C  
BRANCH   7   8
HETATM    8  C   UNL     1      -9.925  12.700  66.047  1.00  0.00    -0.258 C  
BRANCH   8   9
HETATM    9  N   UNL     1      -9.434  11.978  67.210  1.00  0.00    -0.179 N  
HETATM   10  C   UNL     1      -9.828  10.697  67.535  1.00  0.00    -0.168 C  
HETATM   11  H   UNL     1      -8.761  12.445  67.818  1.00  0.00     0.000 HD 
HETATM   12  O   UNL     1     -10.665  10.061  66.916  1.00  0.00    -0.212 OA 
BRANCH  10  13
HETATM   13  C   UNL     1      -9.188  10.143  68.760  1.00  0.00    -0.164 A  
HETATM   14  C   UNL     1      -9.951   9.198  69.474  1.00  0.00    -0.193 A  
HETATM   15  C   UNL     1      -9.466   8.605  70.644  1.00  0.00    -0.184 A  
HETATM   16  C   UNL     1      -7.891  10.434  69.194  1.00  0.00    -0.134 A  
HETATM   17  C   UNL     1      -8.201   8.935  71.135  1.00  0.00    -0.173 A  
HETATM   18  N   UNL     1      -7.607   8.275  72.222  1.00  0.00    -0.120 NA 
HETATM   19  C   UNL     1      -7.410   9.793  70.354  1.00  0.00    -0.151 A  
HETATM   20  H2  UNL     1      -7.599   7.278  72.006  1.00  0.00     0.000 HD 
HETATM   21  H1  UNL     1      -6.682   8.517  72.581  1.00  0.00     0.000 HD 
BRANCH  15  22
HETATM   22  S   UNL     1     -10.590   7.564  71.560  1.00  0.00    -0.213 S  
HETATM   23  O   UNL     1      -9.811   6.469  72.109  1.00  0.00    -0.160 OA 
HETATM   24  O   UNL     1     -11.339   8.443  72.446  1.00  0.00    -0.363 OA 
BRANCH  22  25
HETATM   25  C   UNL     1     -11.710   6.915  70.341  1.00  0.00    -0.325 C  
HETATM   26  C   UNL     1     -11.028   5.845  69.501  1.00  0.00    -0.438 C  
ENDBRANCH  22  25
ENDBRANCH  15  22
BRANCH  16  27
HETATM   27  O   UNL     1      -6.946  11.222  68.597  1.00  0.00    -0.071 OA 
HETATM   28  C   UNL     1      -5.999  10.599  67.736  1.00  0.00    -0.043 C  
ENDBRANCH  16  27
ENDBRANCH  10  13
ENDBRANCH   8   9
ENDBRANCH   7   8
ENDBRANCH   2   3
TORSDOF 7
ENDMDL
MODEL      144
REMARK 921   NORMALIZED FREE ENERGY PREDICTED BY IDOCK:   -4.34 KCAL/MOL
REMARK 922        TOTAL FREE ENERGY PREDICTED BY IDOCK:   -7.13 KCAL/MOL
REMARK 923 INTER-LIGAND FREE ENERGY PREDICTED BY IDOCK:   -5.85 KCAL/MOL
REMARK 924 INTRA-LIGAND FREE ENERGY PREDICTED BY IDOCK:   -1.28 KCAL/MOL
REMARK 927      BINDING AFFINITY PREDICTED BY RF-SCORE:    0.00 PKD
ROOT
HETATM    1  C   UNL     1      -8.616   9.841  64.296  1.00  0.00    -0.202 C  
HETATM    2  C   UNL     1      -9.872  10.280  65.038  1.00  0.00    -0.329 C  
ENDROOT
BRANCH   2   3
HETATM    3  N   UNL     1      -9.590  10.844  66.365  1.00  0.00    -0.191 NA 
HETATM    4  C   UNL     1      -8.202  11.297  66.504  1.00  0.00    -0.165 C  
HETATM    5  C   UNL     1      -8.273  12.270  67.663  1.00  0.00    -0.166 C  
HETATM    6  C   UNL     1      -9.569  13.014  67.410  1.00  0.00    -0.211 C  
HETATM    7  C   UNL     1     -10.450  12.025  66.633  1.00  0.00    -0.215 C  
BRANCH   7   8
HETATM    8  C   UNL     1     -11.704  11.601  67.425  1.00  0.00    -0.201 C  
BRANCH   8   9
HETATM    9  N   UNL     1     -11.466  10.668  68.515  1.00  0.00    -0.414 N  
HETATM   10  C   UNL     1     -11.303  11.055  69.829  1.00  0.00    -0.292 C  
HETATM   11  H   UNL     1     -11.417   9.673  68.296  1.00  0.00     0.000 HD 
HETATM   12  O   UNL     1     -11.287  12.216  70.203  1.00  0.00    -0.074 OA 
BRANCH  10  13
HETATM   13  C   UNL     1     -11.085   9.934  70.784  1.00  0.00    -0.417 A  
HETATM   14  C   UNL     1      -9.759   9.467  70.886  1.00  0.00    -0.320 A  
HETATM   15  C   UNL     1      -9.423   8.415  71.744  1.00  0.00    -0.233 A  
HETATM   16  C   UNL     1     -12.064   9.381  71.615  1.00  0.00    -0.388 A  
HETATM   17  C   UNL     1     -10.399   7.800  72.530  1.00  0.00    -0.268 A  
HETATM   18  N   UNL     1     -10.099   6.838  73.507  1.00  0.00    -0.236 NA 
HETATM   19  C   UNL     1     -11.691   8.348  72.501  1.00  0.00    -0.429 A  
HETATM   20  H2  UNL     1      -9.413   7.249  74.140  1.00  0.00     0.000 HD 
HETATM   21  H1  UNL     1     -10.813   6.388  74.082  1.00  0.00     0.000 HD 
BRANCH  15  22
HETATM   22  S   UNL     1      -7.753   7.790  71.655  1.00  0.00    -0.093 S  
HETATM   23  O   UNL     1      -7.836   6.340  71.656  1.00  0.00    -0.099 OA 
HETATM   24  O   UNL     1      -7.111   8.483  70.548  1.00  0.00    -0.037 OA 
BRANCH  22  25
HETATM   25  C   UNL     1      -6.983   8.320  73.167  1.00  0.00    -0.107 C  
HETATM   26  C   UNL     1      -6.448   7.126  73.945  1.00  0.00    -0.069 C  
ENDBRANCH  22  25
ENDBRANCH  15  22
BRANCH  16  27
HETATM   27  O   UNL     1     -13.371   9.754  71.763  1.00  0.00    -0.387 OA 
HETATM   28  C   UNL     1     -14.375   8.757  71.610  1.00  0.00    -0.306 C  
ENDBRANCH  16  27
ENDBRANCH  10  13
ENDBRANCH   8   9
ENDBRANCH   7   8
ENDBRANCH   2   3
TORSDOF 7
ENDMDL
MODEL      145
REMARK 921   NORMALIZED FREE ENERGY PREDICTED BY IDOCK:   -4.33 KCAL/MOL
REMARK 922        TOTAL FREE ENERGY PREDICTED BY IDOCK:   -7.13 KCAL/MOL
REMARK 923 INTER-LIGAND FREE ENERGY PREDICTED BY IDOCK:   -5.86 KCAL/MOL
REMARK 924 INTRA-LIGAND FREE ENERGY PREDICTED BY IDOCK:   -1.27 KCAL/MOL
REMARK 927      BINDING AFFINITY PREDICTED BY RF-SCORE:    0.00 PKD
ROOT
HETATM    1  C   UNL     1     -11.343  15.945  67.859  1.00  0.00    -0.252 C  
HETATM    2  C   UNL     1     -10.641  16.565  66.657  1.00  0.00    -0.216 C  
ENDROOT
BRANCH   2   3
HETATM    3  N   UNL     1      -9.876  17.773  66.997  1.00  0.00    -0.296 NA 
HETATM    4  C   UNL     1     -10.579  19.009  66.638  1.00  0.00    -0.416 C  
HETATM    5  C   UNL     1      -9.909  20.050  67.510  1.00  0.00    -0.551 C  
HETATM    6  C   UNL     1      -9.723  19.329  68.829  1.00  0.00    -0.510 C  
HETATM    7  C   UNL     1      -9.615  17.843  68.457  1.00  0.00    -0.326 C  
BRANCH   7   8
HETATM    8  C   UNL     1      -8.226  17.252  68.778  1.00  0.00    -0.231 C  
BRANCH   8   9
HETATM    9  N   UNL     1      -8.191  15.810  68.968  1.00  0.00    -0.217 N  
HETATM   10  C   UNL     1      -7.568  14.942  68.096  1.00  0.00    -0.113 C  
HETATM   11  H   UNL     1      -8.651  15.421  69.790  1.00  0.00     0.000 HD 
HETATM   12  O   UNL     1      -7.033  15.283  67.055  1.00  0.00    -0.228 OA 
BRANCH  10  13
HETATM   13  C   UNL     1      -7.641  13.507  68.491  1.00  0.00    -0.129 A  
HETATM   14  C   UNL     1      -8.793  12.815  68.068  1.00  0.00    -0.195 A  
HETATM   15  C   UNL     1      -8.985  11.465  68.378  1.00  0.00    -0.172 A  
HETATM   16  C   UNL     1      -6.639  12.806  69.169  1.00  0.00    -0.101 A  
HETATM   17  C   UNL     1      -8.030  10.763  69.116  1.00  0.00    -0.134 A  
HETATM   18  N   UNL     1      -8.100   9.379  69.338  1.00  0.00    -0.098 NA 
HETATM   19  C   UNL     1      -6.839  11.435  69.434  1.00  0.00    -0.112 A  
HETATM   20  H2  UNL     1      -8.173   8.927  68.426  1.00  0.00     0.000 HD 
HETATM   21  H1  UNL     1      -7.402   8.866  69.877  1.00  0.00     0.000 HD 
BRANCH  15  22
HETATM   22  S   UNL     1     -10.561  10.743  67.949  1.00  0.00    -0.241 S  
HETATM   23  O   UNL     1     -10.468  10.295  66.571  1.00  0.00    -0.223 OA 
HETATM   24  O   UNL     1     -10.882   9.795  69.005  1.00  0.00    -0.219 OA 
BRANCH  22  25
HETATM   25  C   UNL     1     -11.720  12.089  68.036  1.00  0.00    -0.331 C  
HETATM   26  C   UNL     1     -11.984  12.477  69.483  1.00  0.00    -0.329 C  
ENDBRANCH  22  25
ENDBRANCH  15  22
BRANCH  16  27
HETATM   27  O   UNL     1      -5.406  13.245  69.565  1.00  0.00    -0.082 OA 
HETATM   28  C   UNL     1      -5.262  13.724  70.898  1.00  0.00    -0.134 C  
ENDBRANCH  16  27
ENDBRANCH  10  13
ENDBRANCH   8   9
ENDBRANCH   7   8
ENDBRANCH   2   3
TORSDOF 7
ENDMDL
MODEL      146
REMARK 921   NORMALIZED FREE ENERGY PREDICTED BY IDOCK:   -4.33 KCAL/MOL
REMARK 922        TOTAL FREE ENERGY PREDICTED BY IDOCK:   -7.13 KCAL/MOL
REMARK 923 INTER-LIGAND FREE ENERGY PREDICTED BY IDOCK:   -5.80 KCAL/MOL
REMARK 924 INTRA-LIGAND FREE ENERGY PREDICTED BY IDOCK:   -1.33 KCAL/MOL
REMARK 927      BINDING AFFINITY PREDICTED BY RF-SCORE:    0.00 PKD
ROOT
HETATM    1  C   UNL     1     -12.953  15.119  70.871  1.00  0.00    -0.488 C  
HETATM    2  C   UNL     1     -12.297  14.009  70.058  1.00  0.00    -0.337 C  
ENDROOT
BRANCH   2   3
HETATM    3  N   UNL     1     -12.174  12.747  70.800  1.00  0.00    -0.334 NA 
HETATM    4  C   UNL     1     -13.240  12.566  71.790  1.00  0.00    -0.344 C  
HETATM    5  C   UNL     1     -13.236  11.071  72.030  1.00  0.00    -0.447 C  
HETATM    6  C   UNL     1     -13.023  10.498  70.643  1.00  0.00    -0.362 C  
HETATM    7  C   UNL     1     -12.246  11.582  69.881  1.00  0.00    -0.258 C  
BRANCH   7   8
HETATM    8  C   UNL     1     -10.826  11.126  69.488  1.00  0.00    -0.188 C  
BRANCH   8   9
HETATM    9  N   UNL     1     -10.589   9.693  69.561  1.00  0.00    -0.218 N  
HETATM   10  C   UNL     1     -10.557   8.868  68.455  1.00  0.00    -0.143 C  
HETATM   11  H   UNL     1     -10.439   9.274  70.478  1.00  0.00     0.000 HD 
HETATM   12  O   UNL     1     -10.775   9.243  67.315  1.00  0.00    -0.268 OA 
BRANCH  10  13
HETATM   13  C   UNL     1     -10.284   7.436  68.757  1.00  0.00    -0.199 A  
HETATM   14  C   UNL     1      -9.188   6.866  68.078  1.00  0.00    -0.121 A  
HETATM   15  C   UNL     1      -8.829   5.528  68.271  1.00  0.00    -0.104 A  
HETATM   16  C   UNL     1     -10.975   6.664  69.697  1.00  0.00    -0.313 A  
HETATM   17  C   UNL     1      -9.551   4.719  69.151  1.00  0.00    -0.167 A  
HETATM   18  N   UNL     1      -9.157   3.415  69.488  1.00  0.00    -0.120 NA 
HETATM   19  C   UNL     1     -10.569   5.329  69.902  1.00  0.00    -0.292 A  
HETATM   20  H2  UNL     1      -8.199   3.466  69.838  1.00  0.00     0.000 HD 
HETATM   21  H1  UNL     1      -9.684   2.824  70.131  1.00  0.00     0.000 HD 
BRANCH  15  22
HETATM   22  S   UNL     1      -7.543   4.868  67.224  1.00  0.00    -0.087 S  
HETATM   23  O   UNL     1      -6.272   5.203  67.840  1.00  0.00    -0.032 OA 
HETATM   24  O   UNL     1      -7.888   3.476  66.973  1.00  0.00    -0.079 OA 
BRANCH  22  25
HETATM   25  C   UNL     1      -7.692   5.763  65.695  1.00  0.00    -0.093 C  
HETATM   26  C   UNL     1      -8.672   5.070  64.760  1.00  0.00    -0.149 C  
ENDBRANCH  22  25
ENDBRANCH  15  22
BRANCH  16  27
HETATM   27  O   UNL     1     -11.982   7.044  70.540  1.00  0.00    -0.325 OA 
HETATM   28  C   UNL     1     -11.805   6.830  71.936  1.00  0.00    -0.326 C  
ENDBRANCH  16  27
ENDBRANCH  10  13
ENDBRANCH   8   9
ENDBRANCH   7   8
ENDBRANCH   2   3
TORSDOF 7
ENDMDL
MODEL      147
REMARK 921   NORMALIZED FREE ENERGY PREDICTED BY IDOCK:   -4.33 KCAL/MOL
REMARK 922        TOTAL FREE ENERGY PREDICTED BY IDOCK:   -7.12 KCAL/MOL
REMARK 923 INTER-LIGAND FREE ENERGY PREDICTED BY IDOCK:   -5.75 KCAL/MOL
REMARK 924 INTRA-LIGAND FREE ENERGY PREDICTED BY IDOCK:   -1.37 KCAL/MOL
REMARK 927      BINDING AFFINITY PREDICTED BY RF-SCORE:    0.00 PKD
ROOT
HETATM    1  C   UNL     1     -11.484  15.427  64.810  1.00  0.00    -0.337 C  
HETATM    2  C   UNL     1     -12.278  14.396  65.603  1.00  0.00    -0.344 C  
ENDROOT
BRANCH   2   3
HETATM    3  N   UNL     1     -12.164  13.037  65.056  1.00  0.00    -0.425 NA 
HETATM    4  C   UNL     1     -12.002  13.024  63.599  1.00  0.00    -0.539 C  
HETATM    5  C   UNL     1     -11.397  11.662  63.332  1.00  0.00    -0.380 C  
HETATM    6  C   UNL     1     -10.410  11.494  64.469  1.00  0.00    -0.354 C  
HETATM    7  C   UNL     1     -10.982  12.335  65.620  1.00  0.00    -0.299 C  
BRANCH   7   8
HETATM    8  C   UNL     1     -11.402  11.476  66.830  1.00  0.00    -0.253 C  
BRANCH   8   9
HETATM    9  N   UNL     1     -10.517  10.364  67.142  1.00  0.00    -0.242 N  
HETATM   10  C   UNL     1     -10.541   9.684  68.342  1.00  0.00    -0.225 C  
HETATM   11  H   UNL     1      -9.842  10.072  66.435  1.00  0.00     0.000 HD 
HETATM   12  O   UNL     1     -11.264   9.976  69.280  1.00  0.00    -0.222 OA 
BRANCH  10  13
HETATM   13  C   UNL     1      -9.559   8.569  68.442  1.00  0.00    -0.157 A  
HETATM   14  C   UNL     1      -9.919   7.513  69.303  1.00  0.00    -0.179 A  
HETATM   15  C   UNL     1      -9.081   6.409  69.489  1.00  0.00    -0.138 A  
HETATM   16  C   UNL     1      -8.375   8.469  67.705  1.00  0.00    -0.130 A  
HETATM   17  C   UNL     1      -7.860   6.323  68.818  1.00  0.00    -0.101 A  
HETATM   18  N   UNL     1      -7.044   5.181  68.857  1.00  0.00    -0.056 NA 
HETATM   19  C   UNL     1      -7.567   7.327  67.881  1.00  0.00    -0.111 A  
HETATM   20  H2  UNL     1      -7.614   4.389  68.557  1.00  0.00     0.000 HD 
HETATM   21  H1  UNL     1      -6.152   5.119  68.366  1.00  0.00     0.000 HD 
BRANCH  15  22
HETATM   22  S   UNL     1      -9.554   5.225  70.739  1.00  0.00    -0.186 S  
HETATM   23  O   UNL     1      -9.884   3.988  70.056  1.00  0.00    -0.210 OA 
HETATM   24  O   UNL     1      -8.505   5.246  71.746  1.00  0.00    -0.123 OA 
BRANCH  22  25
HETATM   25  C   UNL     1     -11.035   5.891  71.464  1.00  0.00    -0.262 C  
HETATM   26  C   UNL     1     -10.864   6.072  72.965  1.00  0.00    -0.290 C  
ENDBRANCH  22  25
ENDBRANCH  15  22
BRANCH  16  27
HETATM   27  O   UNL     1      -7.894   9.311  66.740  1.00  0.00    -0.103 OA 
HETATM   28  C   UNL     1      -6.963  10.315  67.129  1.00  0.00    -0.088 C  
ENDBRANCH  16  27
ENDBRANCH  10  13
ENDBRANCH   8   9
ENDBRANCH   7   8
ENDBRANCH   2   3
TORSDOF 7
ENDMDL
MODEL      148
REMARK 921   NORMALIZED FREE ENERGY PREDICTED BY IDOCK:   -4.32 KCAL/MOL
REMARK 922        TOTAL FREE ENERGY PREDICTED BY IDOCK:   -7.11 KCAL/MOL
REMARK 923 INTER-LIGAND FREE ENERGY PREDICTED BY IDOCK:   -5.74 KCAL/MOL
REMARK 924 INTRA-LIGAND FREE ENERGY PREDICTED BY IDOCK:   -1.37 KCAL/MOL
REMARK 927      BINDING AFFINITY PREDICTED BY RF-SCORE:    0.00 PKD
ROOT
HETATM    1  C   UNL     1     -12.215  13.509  63.972  1.00  0.00    -0.458 C  
HETATM    2  C   UNL     1     -12.531  12.753  65.257  1.00  0.00    -0.465 C  
ENDROOT
BRANCH   2   3
HETATM    3  N   UNL     1     -11.415  11.919  65.724  1.00  0.00    -0.308 NA 
HETATM    4  C   UNL     1     -10.227  12.035  64.873  1.00  0.00    -0.270 C  
HETATM    5  C   UNL     1      -9.109  11.560  65.777  1.00  0.00    -0.164 C  
HETATM    6  C   UNL     1      -9.466  12.169  67.118  1.00  0.00    -0.190 C  
HETATM    7  C   UNL     1     -10.995  12.313  67.093  1.00  0.00    -0.262 C  
BRANCH   7   8
HETATM    8  C   UNL     1     -11.690  11.418  68.140  1.00  0.00    -0.284 C  
BRANCH   8   9
HETATM    9  N   UNL     1     -11.043  10.142  68.399  1.00  0.00    -0.404 N  
HETATM   10  C   UNL     1     -10.754   9.676  69.665  1.00  0.00    -0.240 C  
HETATM   11  H   UNL     1     -10.788   9.561  67.601  1.00  0.00     0.000 HD 
HETATM   12  O   UNL     1     -10.961  10.305  70.689  1.00  0.00    -0.308 OA 
BRANCH  10  13
HETATM   13  C   UNL     1     -10.102   8.338  69.699  1.00  0.00    -0.199 A  
HETATM   14  C   UNL     1     -10.191   7.646  70.923  1.00  0.00    -0.202 A  
HETATM   15  C   UNL     1      -9.617   6.381  71.087  1.00  0.00    -0.174 A  
HETATM   16  C   UNL     1      -9.491   7.710  68.609  1.00  0.00    -0.151 A  
HETATM   17  C   UNL     1      -8.939   5.767  70.033  1.00  0.00    -0.139 A  
HETATM   18  N   UNL     1      -8.464   4.447  70.094  1.00  0.00    -0.069 NA 
HETATM   19  C   UNL     1      -8.954   6.419  68.789  1.00  0.00    -0.126 A  
HETATM   20  H2  UNL     1      -9.255   3.850  70.338  1.00  0.00     0.000 HD 
HETATM   21  H1  UNL     1      -7.969   3.998  69.323  1.00  0.00     0.000 HD 
BRANCH  15  22
HETATM   22  S   UNL     1      -9.635   5.682  72.730  1.00  0.00    -0.151 S  
HETATM   23  O   UNL     1     -10.804   4.826  72.821  1.00  0.00    -0.215 OA 
HETATM   24  O   UNL     1      -8.308   5.132  72.959  1.00  0.00    -0.111 OA 
BRANCH  22  25
HETATM   25  C   UNL     1      -9.858   7.071  73.817  1.00  0.00    -0.303 C  
HETATM   26  C   UNL     1      -8.513   7.624  74.265  1.00  0.00    -0.282 C  
ENDBRANCH  22  25
ENDBRANCH  15  22
BRANCH  16  27
HETATM   27  O   UNL     1      -9.395   8.145  67.316  1.00  0.00    -0.134 OA 
HETATM   28  C   UNL     1      -8.508   7.456  66.441  1.00  0.00    -0.129 C  
ENDBRANCH  16  27
ENDBRANCH  10  13
ENDBRANCH   8   9
ENDBRANCH   7   8
ENDBRANCH   2   3
TORSDOF 7
ENDMDL
MODEL      149
REMARK 921   NORMALIZED FREE ENERGY PREDICTED BY IDOCK:   -4.31 KCAL/MOL
REMARK 922        TOTAL FREE ENERGY PREDICTED BY IDOCK:   -7.09 KCAL/MOL
REMARK 923 INTER-LIGAND FREE ENERGY PREDICTED BY IDOCK:   -6.05 KCAL/MOL
REMARK 924 INTRA-LIGAND FREE ENERGY PREDICTED BY IDOCK:   -1.05 KCAL/MOL
REMARK 927      BINDING AFFINITY PREDICTED BY RF-SCORE:    0.00 PKD
ROOT
HETATM    1  C   UNL     1      -9.268  16.953  67.788  1.00  0.00    -0.230 C  
HETATM    2  C   UNL     1      -9.011  15.578  68.392  1.00  0.00    -0.189 C  
ENDROOT
BRANCH   2   3
HETATM    3  N   UNL     1     -10.022  15.185  69.382  1.00  0.00    -0.238 NA 
HETATM    4  C   UNL     1     -10.851  16.312  69.822  1.00  0.00    -0.356 C  
HETATM    5  C   UNL     1     -12.086  15.634  70.378  1.00  0.00    -0.425 C  
HETATM    6  C   UNL     1     -12.334  14.507  69.396  1.00  0.00    -0.213 C  
HETATM    7  C   UNL     1     -10.950  14.171  68.820  1.00  0.00    -0.257 C  
BRANCH   7   8
HETATM    8  C   UNL     1     -10.480  12.752  69.201  1.00  0.00     0.123 C  
BRANCH   8   9
HETATM    9  N   UNL     1     -10.000  11.937  68.096  1.00  0.00    -0.192 N  
HETATM   10  C   UNL     1     -10.815  11.464  67.087  1.00  0.00    -0.268 C  
HETATM   11  H   UNL     1      -9.009  11.701  68.065  1.00  0.00     0.000 HD 
HETATM   12  O   UNL     1     -12.022  11.634  67.046  1.00  0.00    -0.593 OA 
BRANCH  10  13
HETATM   13  C   UNL     1     -10.112  10.661  66.048  1.00  0.00    -0.308 A  
HETATM   14  C   UNL     1      -9.675   9.385  66.455  1.00  0.00    -0.315 A  
HETATM   15  C   UNL     1      -8.999   8.534  65.575  1.00  0.00    -0.132 A  
HETATM   16  C   UNL     1      -9.931  11.048  64.717  1.00  0.00    -0.294 A  
HETATM   17  C   UNL     1      -8.742   8.929  64.260  1.00  0.00    -0.063 A  
HETATM   18  N   UNL     1      -8.194   8.069  63.296  1.00  0.00    -0.343 NA 
HETATM   19  C   UNL     1      -9.282  10.155  63.839  1.00  0.00    -0.322 A  
HETATM   20  H2  UNL     1      -8.787   7.239  63.255  1.00  0.00     0.000 HD 
HETATM   21  H1  UNL     1      -8.007   8.358  62.336  1.00  0.00     0.000 HD 
BRANCH  15  22
HETATM   22  S   UNL     1      -8.332   7.022  66.250  1.00  0.00    -0.135 S  
HETATM   23  O   UNL     1      -7.070   6.770  65.579  1.00  0.00    -0.064 OA 
HETATM   24  O   UNL     1      -8.374   7.162  67.698  1.00  0.00    -0.116 OA 
BRANCH  22  25
HETATM   25  C   UNL     1      -9.493   5.759  65.780  1.00  0.00     0.024 C  
HETATM   26  C   UNL     1     -10.416   5.418  66.940  1.00  0.00    -0.337 C  
ENDBRANCH  22  25
ENDBRANCH  15  22
BRANCH  16  27
HETATM   27  O   UNL     1     -10.373  12.179  64.087  1.00  0.00    -0.305 OA 
HETATM   28  C   UNL     1     -11.722  12.212  63.637  1.00  0.00    -0.498 C  
ENDBRANCH  16  27
ENDBRANCH  10  13
ENDBRANCH   8   9
ENDBRANCH   7   8
ENDBRANCH   2   3
TORSDOF 7
ENDMDL
MODEL      150
REMARK 921   NORMALIZED FREE ENERGY PREDICTED BY IDOCK:   -4.31 KCAL/MOL
REMARK 922        TOTAL FREE ENERGY PREDICTED BY IDOCK:   -7.09 KCAL/MOL
REMARK 923 INTER-LIGAND FREE ENERGY PREDICTED BY IDOCK:   -5.72 KCAL/MOL
REMARK 924 INTRA-LIGAND FREE ENERGY PREDICTED BY IDOCK:   -1.37 KCAL/MOL
REMARK 927      BINDING AFFINITY PREDICTED BY RF-SCORE:    0.00 PKD
ROOT
HETATM    1  C   UNL     1     -11.376  14.646  68.942  1.00  0.00    -0.305 C  
HETATM    2  C   UNL     1     -12.120  14.264  67.669  1.00  0.00    -0.297 C  
ENDROOT
BRANCH   2   3
HETATM    3  N   UNL     1     -11.400  13.275  66.855  1.00  0.00    -0.305 NA 
HETATM    4  C   UNL     1     -10.346  13.878  66.033  1.00  0.00    -0.305 C  
HETATM    5  C   UNL     1      -9.440  12.705  65.721  1.00  0.00    -0.043 C  
HETATM    6  C   UNL     1      -9.401  11.941  67.029  1.00  0.00    -0.188 C  
HETATM    7  C   UNL     1     -10.738  12.261  67.715  1.00  0.00    -0.217 C  
BRANCH   7   8
HETATM    8  C   UNL     1     -11.640  11.018  67.862  1.00  0.00    -0.226 C  
BRANCH   8   9
HETATM    9  N   UNL     1     -11.481  10.276  69.103  1.00  0.00    -0.426 N  
HETATM   10  C   UNL     1     -10.805   9.077  69.192  1.00  0.00    -0.089 C  
HETATM   11  H   UNL     1     -11.892  10.663  69.952  1.00  0.00     0.000 HD 
HETATM   12  O   UNL     1     -10.320   8.491  68.239  1.00  0.00    -0.204 OA 
BRANCH  10  13
HETATM   13  C   UNL     1     -10.751   8.496  70.563  1.00  0.00    -0.246 A  
HETATM   14  C   UNL     1      -9.523   7.908  70.929  1.00  0.00    -0.167 A  
HETATM   15  C   UNL     1      -9.344   7.325  72.188  1.00  0.00    -0.135 A  
HETATM   16  C   UNL     1     -11.780   8.561  71.507  1.00  0.00    -0.297 A  
HETATM   17  C   UNL     1     -10.383   7.314  73.120  1.00  0.00    -0.313 A  
HETATM   18  N   UNL     1     -10.219   6.869  74.441  1.00  0.00    -0.441 NA 
HETATM   19  C   UNL     1     -11.560   8.001  72.783  1.00  0.00    -0.390 A  
HETATM   20  H2  UNL     1      -9.449   7.399  74.849  1.00  0.00     0.000 HD 
HETATM   21  H1  UNL     1     -10.979   6.861  75.123  1.00  0.00     0.000 HD 
BRANCH  15  22
HETATM   22  S   UNL     1      -7.813   6.451  72.472  1.00  0.00    -0.101 S  
HETATM   23  O   UNL     1      -7.227   6.994  73.684  1.00  0.00    -0.077 OA 
HETATM   24  O   UNL     1      -8.124   5.033  72.384  1.00  0.00    -0.106 OA 
BRANCH  22  25
HETATM   25  C   UNL     1      -6.776   6.882  71.093  1.00  0.00    -0.057 C  
HETATM   26  C   UNL     1      -5.598   5.925  70.987  1.00  0.00    -0.017 C  
ENDBRANCH  22  25
ENDBRANCH  15  22
BRANCH  16  27
HETATM   27  O   UNL     1     -12.996   9.179  71.406  1.00  0.00    -0.323 OA 
HETATM   28  C   UNL     1     -14.074   8.669  72.182  1.00  0.00    -0.441 C  
ENDBRANCH  16  27
ENDBRANCH  10  13
ENDBRANCH   8   9
ENDBRANCH   7   8
ENDBRANCH   2   3
TORSDOF 7
ENDMDL
MODEL      151
REMARK 921   NORMALIZED FREE ENERGY PREDICTED BY IDOCK:   -4.30 KCAL/MOL
REMARK 922        TOTAL FREE ENERGY PREDICTED BY IDOCK:   -7.08 KCAL/MOL
REMARK 923 INTER-LIGAND FREE ENERGY PREDICTED BY IDOCK:   -5.80 KCAL/MOL
REMARK 924 INTRA-LIGAND FREE ENERGY PREDICTED BY IDOCK:   -1.28 KCAL/MOL
REMARK 927      BINDING AFFINITY PREDICTED BY RF-SCORE:    0.00 PKD
ROOT
HETATM    1  C   UNL     1      -7.018   6.301  64.694  1.00  0.00    -0.051 C  
HETATM    2  C   UNL     1      -7.433   6.887  66.038  1.00  0.00    -0.080 C  
ENDROOT
BRANCH   2   3
HETATM    3  N   UNL     1      -8.579   6.193  66.641  1.00  0.00    -0.115 NA 
HETATM    4  C   UNL     1      -9.342   5.408  65.665  1.00  0.00    -0.083 C  
HETATM    5  C   UNL     1     -10.087   4.414  66.531  1.00  0.00    -0.217 C  
HETATM    6  C   UNL     1      -9.059   4.024  67.574  1.00  0.00    -0.168 C  
HETATM    7  C   UNL     1      -8.132   5.243  67.692  1.00  0.00    -0.100 C  
BRANCH   7   8
HETATM    8  C   UNL     1      -8.208   5.913  69.080  1.00  0.00    -0.103 C  
BRANCH   8   9
HETATM    9  N   UNL     1      -8.824   7.230  69.103  1.00  0.00    -0.136 N  
HETATM   10  C   UNL     1     -10.183   7.434  69.228  1.00  0.00    -0.199 C  
HETATM   11  H   UNL     1      -8.219   8.047  69.023  1.00  0.00     0.000 HD 
HETATM   12  O   UNL     1     -11.008   6.538  69.277  1.00  0.00    -0.274 OA 
BRANCH  10  13
HETATM   13  C   UNL     1     -10.596   8.865  69.244  1.00  0.00    -0.219 A  
HETATM   14  C   UNL     1     -10.625   9.507  67.990  1.00  0.00    -0.282 A  
HETATM   15  C   UNL     1     -10.992  10.851  67.869  1.00  0.00    -0.271 A  
HETATM   16  C   UNL     1     -11.016   9.570  70.377  1.00  0.00    -0.278 A  
HETATM   17  C   UNL     1     -11.346  11.595  68.997  1.00  0.00    -0.275 A  
HETATM   18  N   UNL     1     -11.854  12.901  68.923  1.00  0.00    -0.314 NA 
HETATM   19  C   UNL     1     -11.419  10.913  70.222  1.00  0.00    -0.391 A  
HETATM   20  H2  UNL     1     -12.666  12.878  68.306  1.00  0.00     0.000 HD 
HETATM   21  H1  UNL     1     -12.112  13.444  69.747  1.00  0.00     0.000 HD 
BRANCH  15  22
HETATM   22  S   UNL     1     -10.816  11.605  66.261  1.00  0.00    -0.284 S  
HETATM   23  O   UNL     1     -12.152  11.905  65.778  1.00  0.00    -0.451 OA 
HETATM   24  O   UNL     1      -9.837  12.671  66.409  1.00  0.00    -0.248 OA 
BRANCH  22  25
HETATM   25  C   UNL     1     -10.109  10.336  65.235  1.00  0.00    -0.289 C  
HETATM   26  C   UNL     1      -9.873  10.856  63.824  1.00  0.00    -0.391 C  
ENDBRANCH  22  25
ENDBRANCH  15  22
BRANCH  16  27
HETATM   27  O   UNL     1     -11.174   9.116  71.657  1.00  0.00    -0.333 OA 
HETATM   28  C   UNL     1     -10.016   8.694  72.367  1.00  0.00    -0.249 C  
ENDBRANCH  16  27
ENDBRANCH  10  13
ENDBRANCH   8   9
ENDBRANCH   7   8
ENDBRANCH   2   3
TORSDOF 7
ENDMDL
MODEL      152
REMARK 921   NORMALIZED FREE ENERGY PREDICTED BY IDOCK:   -4.30 KCAL/MOL
REMARK 922        TOTAL FREE ENERGY PREDICTED BY IDOCK:   -7.08 KCAL/MOL
REMARK 923 INTER-LIGAND FREE ENERGY PREDICTED BY IDOCK:   -5.85 KCAL/MOL
REMARK 924 INTRA-LIGAND FREE ENERGY PREDICTED BY IDOCK:   -1.23 KCAL/MOL
REMARK 927      BINDING AFFINITY PREDICTED BY RF-SCORE:    0.00 PKD
ROOT
HETATM    1  C   UNL     1     -10.729  18.672  67.052  1.00  0.00    -0.400 C  
HETATM    2  C   UNL     1     -10.250  17.932  68.294  1.00  0.00    -0.388 C  
ENDROOT
BRANCH   2   3
HETATM    3  N   UNL     1     -10.339  16.471  68.165  1.00  0.00    -0.283 NA 
HETATM    4  C   UNL     1     -11.551  15.921  68.781  1.00  0.00    -0.386 C  
HETATM    5  C   UNL     1     -11.702  14.576  68.101  1.00  0.00    -0.369 C  
HETATM    6  C   UNL     1     -11.334  14.873  66.661  1.00  0.00    -0.326 C  
HETATM    7  C   UNL     1     -10.369  16.066  66.736  1.00  0.00    -0.300 C  
BRANCH   7   8
HETATM    8  C   UNL     1      -8.947  15.707  66.256  1.00  0.00    -0.342 C  
BRANCH   8   9
HETATM    9  N   UNL     1      -8.538  14.332  66.493  1.00  0.00    -0.433 N  
HETATM   10  C   UNL     1      -7.877  13.919  67.632  1.00  0.00    -0.179 C  
HETATM   11  H   UNL     1      -8.750  13.635  65.780  1.00  0.00     0.000 HD 
HETATM   12  O   UNL     1      -7.521  14.668  68.526  1.00  0.00    -0.107 OA 
BRANCH  10  13
HETATM   13  C   UNL     1      -7.565  12.464  67.674  1.00  0.00    -0.141 A  
HETATM   14  C   UNL     1      -8.390  11.639  66.884  1.00  0.00    -0.169 A  
HETATM   15  C   UNL     1      -8.204  10.253  66.839  1.00  0.00    -0.123 A  
HETATM   16  C   UNL     1      -6.495  11.888  68.367  1.00  0.00    -0.054 A  
HETATM   17  C   UNL     1      -7.186   9.649  67.580  1.00  0.00    -0.089 A  
HETATM   18  N   UNL     1      -6.865   8.287  67.469  1.00  0.00    -0.069 NA 
HETATM   19  C   UNL     1      -6.305  10.494  68.274  1.00  0.00    -0.054 A  
HETATM   20  H2  UNL     1      -6.679   8.097  66.484  1.00  0.00     0.000 HD 
HETATM   21  H1  UNL     1      -6.121   7.846  68.011  1.00  0.00     0.000 HD 
BRANCH  15  22
HETATM   22  S   UNL     1      -9.419   9.294  65.951  1.00  0.00    -0.267 S  
HETATM   23  O   UNL     1     -10.258  10.229  65.223  1.00  0.00    -0.307 OA 
HETATM   24  O   UNL     1      -8.687   8.260  65.235  1.00  0.00    -0.160 OA 
BRANCH  22  25
HETATM   25  C   UNL     1     -10.397   8.511  67.213  1.00  0.00    -0.302 C  
HETATM   26  C   UNL     1     -10.711   7.071  66.833  1.00  0.00    -0.376 C  
ENDBRANCH  22  25
ENDBRANCH  15  22
BRANCH  16  27
HETATM   27  O   UNL     1      -5.514  12.506  69.092  1.00  0.00    -0.067 OA 
HETATM   28  C   UNL     1      -5.488  12.297  70.500  1.00  0.00    -0.159 C  
ENDBRANCH  16  27
ENDBRANCH  10  13
ENDBRANCH   8   9
ENDBRANCH   7   8
ENDBRANCH   2   3
TORSDOF 7
ENDMDL
MODEL      153
REMARK 921   NORMALIZED FREE ENERGY PREDICTED BY IDOCK:   -4.27 KCAL/MOL
REMARK 922        TOTAL FREE ENERGY PREDICTED BY IDOCK:   -7.03 KCAL/MOL
REMARK 923 INTER-LIGAND FREE ENERGY PREDICTED BY IDOCK:   -5.73 KCAL/MOL
REMARK 924 INTRA-LIGAND FREE ENERGY PREDICTED BY IDOCK:   -1.30 KCAL/MOL
REMARK 927      BINDING AFFINITY PREDICTED BY RF-SCORE:    0.00 PKD
ROOT
HETATM    1  C   UNL     1     -10.264   3.897  64.662  1.00  0.00    -0.216 C  
HETATM    2  C   UNL     1      -9.068   4.306  65.513  1.00  0.00    -0.138 C  
ENDROOT
BRANCH   2   3
HETATM    3  N   UNL     1      -7.838   4.486  64.729  1.00  0.00    -0.085 NA 
HETATM    4  C   UNL     1      -7.623   3.409  63.758  1.00  0.00    -0.067 C  
HETATM    5  C   UNL     1      -6.671   4.032  62.759  1.00  0.00    -0.031 C  
HETATM    6  C   UNL     1      -7.198   5.445  62.614  1.00  0.00    -0.045 C  
HETATM    7  C   UNL     1      -7.884   5.752  63.953  1.00  0.00    -0.117 C  
BRANCH   7   8
HETATM    8  C   UNL     1      -7.178   6.880  64.735  1.00  0.00    -0.075 C  
BRANCH   8   9
HETATM    9  N   UNL     1      -8.052   7.731  65.527  1.00  0.00    -0.121 N  
HETATM   10  C   UNL     1      -8.828   8.737  64.990  1.00  0.00    -0.107 C  
HETATM   11  H   UNL     1      -8.093   7.576  66.534  1.00  0.00     0.000 HD 
HETATM   12  O   UNL     1      -8.822   9.051  63.812  1.00  0.00    -0.143 OA 
BRANCH  10  13
HETATM   13  C   UNL     1      -9.660   9.475  65.981  1.00  0.00    -0.316 A  
HETATM   14  C   UNL     1     -10.109  10.747  65.574  1.00  0.00    -0.335 A  
HETATM   15  C   UNL     1     -10.894  11.544  66.414  1.00  0.00    -0.285 A  
HETATM   16  C   UNL     1     -10.073   8.974  67.219  1.00  0.00    -0.234 A  
HETATM   17  C   UNL     1     -11.259  11.092  67.684  1.00  0.00    -0.297 A  
HETATM   18  N   UNL     1     -12.155  11.784  68.513  1.00  0.00    -0.455 NA 
HETATM   19  C   UNL     1     -10.898   9.780  68.030  1.00  0.00    -0.276 A  
HETATM   20  H2  UNL     1     -13.015  11.926  67.982  1.00  0.00     0.000 HD 
HETATM   21  H1  UNL     1     -12.422  11.454  69.441  1.00  0.00     0.000 HD 
BRANCH  15  22
HETATM   22  S   UNL     1     -11.249  13.206  65.867  1.00  0.00    -0.295 S  
HETATM   23  O   UNL     1     -12.667  13.434  66.077  1.00  0.00    -0.354 OA 
HETATM   24  O   UNL     1     -10.268  14.069  66.506  1.00  0.00    -0.268 OA 
BRANCH  22  25
HETATM   25  C   UNL     1     -10.925  13.192  64.119  1.00  0.00    -0.390 C  
HETATM   26  C   UNL     1     -12.166  12.774  63.345  1.00  0.00    -0.594 C  
ENDBRANCH  22  25
ENDBRANCH  15  22
BRANCH  16  27
HETATM   27  O   UNL     1      -9.854   7.736  67.757  1.00  0.00    -0.148 OA 
HETATM   28  C   UNL     1     -10.803   6.710  67.489  1.00  0.00    -0.342 C  
ENDBRANCH  16  27
ENDBRANCH  10  13
ENDBRANCH   8   9
ENDBRANCH   7   8
ENDBRANCH   2   3
TORSDOF 7
ENDMDL
MODEL      154
REMARK 921   NORMALIZED FREE ENERGY PREDICTED BY IDOCK:   -4.26 KCAL/MOL
REMARK 922        TOTAL FREE ENERGY PREDICTED BY IDOCK:   -7.02 KCAL/MOL
REMARK 923 INTER-LIGAND FREE ENERGY PREDICTED BY IDOCK:   -5.81 KCAL/MOL
REMARK 924 INTRA-LIGAND FREE ENERGY PREDICTED BY IDOCK:   -1.20 KCAL/MOL
REMARK 927      BINDING AFFINITY PREDICTED BY RF-SCORE:    0.00 PKD
ROOT
HETATM    1  C   UNL     1     -10.917  15.352  64.691  1.00  0.00    -0.333 C  
HETATM    2  C   UNL     1     -11.895  14.454  65.439  1.00  0.00    -0.366 C  
ENDROOT
BRANCH   2   3
HETATM    3  N   UNL     1     -11.333  13.895  66.677  1.00  0.00    -0.320 NA 
HETATM    4  C   UNL     1     -11.725  14.654  67.869  1.00  0.00    -0.351 C  
HETATM    5  C   UNL     1     -11.509  13.662  68.993  1.00  0.00    -0.346 C  
HETATM    6  C   UNL     1     -12.008  12.358  68.405  1.00  0.00    -0.269 C  
HETATM    7  C   UNL     1     -11.800  12.501  66.890  1.00  0.00    -0.334 C  
BRANCH   7   8
HETATM    8  C   UNL     1     -10.761  11.503  66.338  1.00  0.00    -0.273 C  
BRANCH   8   9
HETATM    9  N   UNL     1     -10.623  10.267  67.092  1.00  0.00    -0.261 N  
HETATM   10  C   UNL     1      -9.959   9.154  66.618  1.00  0.00    -0.273 C  
HETATM   11  H   UNL     1     -11.039  10.219  68.022  1.00  0.00     0.000 HD 
HETATM   12  O   UNL     1      -9.469   9.073  65.504  1.00  0.00    -0.228 OA 
BRANCH  10  13
HETATM   13  C   UNL     1      -9.925   8.002  67.561  1.00  0.00    -0.253 A  
HETATM   14  C   UNL     1      -9.331   6.824  67.066  1.00  0.00    -0.165 A  
HETATM   15  C   UNL     1      -9.241   5.670  67.851  1.00  0.00    -0.106 A  
HETATM   16  C   UNL     1     -10.363   8.035  68.889  1.00  0.00    -0.209 A  
HETATM   17  C   UNL     1      -9.737   5.659  69.156  1.00  0.00    -0.145 A  
HETATM   18  N   UNL     1      -9.552   4.580  70.035  1.00  0.00    -0.178 NA 
HETATM   19  C   UNL     1     -10.224   6.870  69.672  1.00  0.00    -0.206 A  
HETATM   20  H2  UNL     1      -8.549   4.399  70.089  1.00  0.00     0.000 HD 
HETATM   21  H1  UNL     1      -9.915   4.572  70.989  1.00  0.00     0.000 HD 
BRANCH  15  22
HETATM   22  S   UNL     1      -8.636   4.189  67.060  1.00  0.00    -0.107 S  
HETATM   23  O   UNL     1      -7.246   4.031  67.447  1.00  0.00    -0.065 OA 
HETATM   24  O   UNL     1      -9.600   3.140  67.356  1.00  0.00    -0.185 OA 
BRANCH  22  25
HETATM   25  C   UNL     1      -8.709   4.537  65.318  1.00  0.00    -0.132 C  
HETATM   26  C   UNL     1      -9.553   3.497  64.597  1.00  0.00    -0.168 C  
ENDBRANCH  22  25
ENDBRANCH  15  22
BRANCH  16  27
HETATM   27  O   UNL     1     -10.859   9.092  69.600  1.00  0.00    -0.231 OA 
HETATM   28  C   UNL     1     -10.296   9.363  70.879  1.00  0.00    -0.310 C  
ENDBRANCH  16  27
ENDBRANCH  10  13
ENDBRANCH   8   9
ENDBRANCH   7   8
ENDBRANCH   2   3
TORSDOF 7
ENDMDL
MODEL      155
REMARK 921   NORMALIZED FREE ENERGY PREDICTED BY IDOCK:   -4.23 KCAL/MOL
REMARK 922        TOTAL FREE ENERGY PREDICTED BY IDOCK:   -6.99 KCAL/MOL
REMARK 923 INTER-LIGAND FREE ENERGY PREDICTED BY IDOCK:   -5.66 KCAL/MOL
REMARK 924 INTRA-LIGAND FREE ENERGY PREDICTED BY IDOCK:   -1.33 KCAL/MOL
REMARK 927      BINDING AFFINITY PREDICTED BY RF-SCORE:    0.00 PKD
ROOT
HETATM    1  C   UNL     1     -12.572  13.241  65.176  1.00  0.00    -0.512 C  
HETATM    2  C   UNL     1     -12.207  14.352  66.153  1.00  0.00    -0.340 C  
ENDROOT
BRANCH   2   3
HETATM    3  N   UNL     1     -10.836  14.237  66.670  1.00  0.00    -0.298 NA 
HETATM    4  C   UNL     1      -9.845  14.865  65.790  1.00  0.00    -0.348 C  
HETATM    5  C   UNL     1      -8.666  15.097  66.712  1.00  0.00    -0.307 C  
HETATM    6  C   UNL     1      -9.319  15.552  68.001  1.00  0.00    -0.193 C  
HETATM    7  C   UNL     1     -10.710  14.902  67.992  1.00  0.00    -0.253 C  
BRANCH   7   8
HETATM    8  C   UNL     1     -10.889  13.870  69.125  1.00  0.00    -0.189 C  
BRANCH   8   9
HETATM    9  N   UNL     1     -10.427  12.525  68.821  1.00  0.00    -0.360 N  
HETATM   10  C   UNL     1     -11.261  11.428  68.760  1.00  0.00    -0.247 C  
HETATM   11  H   UNL     1      -9.432  12.385  68.644  1.00  0.00     0.000 HD 
HETATM   12  O   UNL     1     -12.455  11.461  69.006  1.00  0.00    -0.364 OA 
BRANCH  10  13
HETATM   13  C   UNL     1     -10.579  10.148  68.418  1.00  0.00    -0.249 A  
HETATM   14  C   UNL     1      -9.766  10.178  67.267  1.00  0.00    -0.203 A  
HETATM   15  C   UNL     1      -9.074   9.041  66.836  1.00  0.00    -0.132 A  
HETATM   16  C   UNL     1     -10.630   8.978  69.182  1.00  0.00    -0.203 A  
HETATM   17  C   UNL     1      -9.169   7.841  67.544  1.00  0.00    -0.132 A  
HETATM   18  N   UNL     1      -8.393   6.712  67.241  1.00  0.00    -0.120 NA 
HETATM   19  C   UNL     1      -9.892   7.858  68.748  1.00  0.00    -0.171 A  
HETATM   20  H2  UNL     1      -7.415   7.000  67.259  1.00  0.00     0.000 HD 
HETATM   21  H1  UNL     1      -8.463   5.835  67.758  1.00  0.00     0.000 HD 
BRANCH  15  22
HETATM   22  S   UNL     1      -8.225   9.147  65.269  1.00  0.00    -0.142 S  
HETATM   23  O   UNL     1      -8.338   7.848  64.631  1.00  0.00    -0.130 OA 
HETATM   24  O   UNL     1      -8.735  10.335  64.603  1.00  0.00    -0.170 OA 
BRANCH  22  25
HETATM   25  C   UNL     1      -6.521   9.431  65.689  1.00  0.00    -0.069 C  
HETATM   26  C   UNL     1      -6.073  10.806  65.217  1.00  0.00    -0.002 C  
ENDBRANCH  22  25
ENDBRANCH  15  22
BRANCH  16  27
HETATM   27  O   UNL     1     -11.255   8.765  70.379  1.00  0.00    -0.253 OA 
HETATM   28  C   UNL     1     -11.393   7.424  70.835  1.00  0.00    -0.276 C  
ENDBRANCH  16  27
ENDBRANCH  10  13
ENDBRANCH   8   9
ENDBRANCH   7   8
ENDBRANCH   2   3
TORSDOF 7
ENDMDL
MODEL      156
REMARK 921   NORMALIZED FREE ENERGY PREDICTED BY IDOCK:   -4.23 KCAL/MOL
REMARK 922        TOTAL FREE ENERGY PREDICTED BY IDOCK:   -6.99 KCAL/MOL
REMARK 923 INTER-LIGAND FREE ENERGY PREDICTED BY IDOCK:   -5.63 KCAL/MOL
REMARK 924 INTRA-LIGAND FREE ENERGY PREDICTED BY IDOCK:   -1.36 KCAL/MOL
REMARK 927      BINDING AFFINITY PREDICTED BY RF-SCORE:    0.00 PKD
ROOT
HETATM    1  C   UNL     1     -10.715   5.468  66.574  1.00  0.00    -0.309 C  
HETATM    2  C   UNL     1     -10.887   6.847  67.199  1.00  0.00    -0.377 C  
ENDROOT
BRANCH   2   3
HETATM    3  N   UNL     1      -9.638   7.388  67.753  1.00  0.00    -0.139 NA 
HETATM    4  C   UNL     1      -9.531   7.194  69.203  1.00  0.00    -0.147 C  
HETATM    5  C   UNL     1      -8.044   7.319  69.457  1.00  0.00    -0.129 C  
HETATM    6  C   UNL     1      -7.429   6.587  68.282  1.00  0.00    -0.095 C  
HETATM    7  C   UNL     1      -8.456   6.722  67.148  1.00  0.00    -0.120 C  
BRANCH   7   8
HETATM    8  C   UNL     1      -7.924   7.556  65.964  1.00  0.00    -0.113 C  
BRANCH   8   9
HETATM    9  N   UNL     1      -8.668   8.772  65.674  1.00  0.00    -0.174 N  
HETATM   10  C   UNL     1      -8.316  10.015  66.158  1.00  0.00    -0.120 C  
HETATM   11  H   UNL     1      -9.495   8.701  65.082  1.00  0.00     0.000 HD 
HETATM   12  O   UNL     1      -7.383  10.215  66.917  1.00  0.00    -0.090 OA 
BRANCH  10  13
HETATM   13  C   UNL     1      -9.210  11.125  65.724  1.00  0.00    -0.234 A  
HETATM   14  C   UNL     1      -9.384  12.168  66.655  1.00  0.00    -0.226 A  
HETATM   15  C   UNL     1     -10.201  13.267  66.371  1.00  0.00    -0.292 A  
HETATM   16  C   UNL     1      -9.808  11.233  64.465  1.00  0.00    -0.270 A  
HETATM   17  C   UNL     1     -10.867  13.360  65.147  1.00  0.00    -0.313 A  
HETATM   18  N   UNL     1     -11.586  14.499  64.753  1.00  0.00    -0.395 NA 
HETATM   19  C   UNL     1     -10.595  12.370  64.189  1.00  0.00    -0.414 A  
HETATM   20  H2  UNL     1     -10.954  15.297  64.818  1.00  0.00     0.000 HD 
HETATM   21  H1  UNL     1     -12.072  14.566  63.858  1.00  0.00     0.000 HD 
BRANCH  15  22
HETATM   22  S   UNL     1     -10.492  14.432  67.692  1.00  0.00    -0.246 S  
HETATM   23  O   UNL     1     -10.528  15.756  67.098  1.00  0.00    -0.296 OA 
HETATM   24  O   UNL     1     -11.638  13.935  68.437  1.00  0.00    -0.290 OA 
BRANCH  22  25
HETATM   25  C   UNL     1      -9.055  14.312  68.734  1.00  0.00    -0.103 C  
HETATM   26  C   UNL     1      -8.048  15.398  68.387  1.00  0.00    -0.140 C  
ENDBRANCH  22  25
ENDBRANCH  15  22
BRANCH  16  27
HETATM   27  O   UNL     1      -9.681  10.405  63.384  1.00  0.00    -0.309 OA 
HETATM   28  C   UNL     1      -8.750  10.765  62.369  1.00  0.00    -0.289 C  
ENDBRANCH  16  27
ENDBRANCH  10  13
ENDBRANCH   8   9
ENDBRANCH   7   8
ENDBRANCH   2   3
TORSDOF 7
ENDMDL
MODEL      157
REMARK 921   NORMALIZED FREE ENERGY PREDICTED BY IDOCK:   -4.21 KCAL/MOL
REMARK 922        TOTAL FREE ENERGY PREDICTED BY IDOCK:   -6.96 KCAL/MOL
REMARK 923 INTER-LIGAND FREE ENERGY PREDICTED BY IDOCK:   -5.52 KCAL/MOL
REMARK 924 INTRA-LIGAND FREE ENERGY PREDICTED BY IDOCK:   -1.43 KCAL/MOL
REMARK 927      BINDING AFFINITY PREDICTED BY RF-SCORE:    0.00 PKD
ROOT
HETATM    1  C   UNL     1     -11.835  15.829  69.228  1.00  0.00    -0.358 C  
HETATM    2  C   UNL     1     -11.185  15.903  67.852  1.00  0.00    -0.297 C  
ENDROOT
BRANCH   2   3
HETATM    3  N   UNL     1     -11.207  14.621  67.134  1.00  0.00    -0.333 NA 
HETATM    4  C   UNL     1     -12.387  14.472  66.278  1.00  0.00    -0.189 C  
HETATM    5  C   UNL     1     -11.962  13.406  65.289  1.00  0.00    -0.409 C  
HETATM    6  C   UNL     1     -10.522  13.770  64.987  1.00  0.00    -0.418 C  
HETATM    7  C   UNL     1     -10.021  14.489  66.249  1.00  0.00    -0.305 C  
BRANCH   7   8
HETATM    8  C   UNL     1      -8.904  13.708  66.971  1.00  0.00    -0.223 C  
BRANCH   8   9
HETATM    9  N   UNL     1      -9.347  12.565  67.754  1.00  0.00    -0.190 N  
HETATM   10  C   UNL     1      -9.159  11.255  67.364  1.00  0.00    -0.151 C  
HETATM   11  H   UNL     1      -9.823  12.742  68.638  1.00  0.00     0.000 HD 
HETATM   12  O   UNL     1      -8.654  10.922  66.305  1.00  0.00    -0.153 OA 
BRANCH  10  13
HETATM   13  C   UNL     1      -9.679  10.242  68.324  1.00  0.00    -0.154 A  
HETATM   14  C   UNL     1      -8.881   9.093  68.492  1.00  0.00    -0.129 A  
HETATM   15  C   UNL     1      -9.259   8.065  69.361  1.00  0.00    -0.152 A  
HETATM   16  C   UNL     1     -10.833  10.385  69.101  1.00  0.00    -0.236 A  
HETATM   17  C   UNL     1     -10.445   8.155  70.093  1.00  0.00    -0.225 A  
HETATM   18  N   UNL     1     -10.806   7.224  71.080  1.00  0.00    -0.236 NA 
HETATM   19  C   UNL     1     -11.172   9.353  70.000  1.00  0.00    -0.217 A  
HETATM   20  H2  UNL     1     -10.038   7.175  71.749  1.00  0.00     0.000 HD 
HETATM   21  H1  UNL     1     -11.673   7.290  71.615  1.00  0.00     0.000 HD 
BRANCH  15  22
HETATM   22  S   UNL     1      -8.266   6.582  69.355  1.00  0.00    -0.120 S  
HETATM   23  O   UNL     1      -7.060   6.875  68.602  1.00  0.00    -0.080 OA 
HETATM   24  O   UNL     1      -8.174   6.140  70.738  1.00  0.00    -0.121 OA 
BRANCH  22  25
HETATM   25  C   UNL     1      -9.229   5.389  68.452  1.00  0.00    -0.111 C  
HETATM   26  C   UNL     1      -8.572   5.068  67.118  1.00  0.00    -0.104 C  
ENDBRANCH  22  25
ENDBRANCH  15  22
BRANCH  16  27
HETATM   27  O   UNL     1     -11.682  11.454  69.183  1.00  0.00    -0.283 OA 
HETATM   28  C   UNL     1     -12.251  11.764  70.450  1.00  0.00    -0.330 C  
ENDBRANCH  16  27
ENDBRANCH  10  13
ENDBRANCH   8   9
ENDBRANCH   7   8
ENDBRANCH   2   3
TORSDOF 7
ENDMDL
MODEL      158
REMARK 921   NORMALIZED FREE ENERGY PREDICTED BY IDOCK:   -4.20 KCAL/MOL
REMARK 922        TOTAL FREE ENERGY PREDICTED BY IDOCK:   -6.94 KCAL/MOL
REMARK 923 INTER-LIGAND FREE ENERGY PREDICTED BY IDOCK:   -6.00 KCAL/MOL
REMARK 924 INTRA-LIGAND FREE ENERGY PREDICTED BY IDOCK:   -0.93 KCAL/MOL
REMARK 927      BINDING AFFINITY PREDICTED BY RF-SCORE:    0.00 PKD
ROOT
HETATM    1  C   UNL     1      -9.555  18.392  68.313  1.00  0.00    -0.355 C  
HETATM    2  C   UNL     1     -10.347  17.607  67.275  1.00  0.00    -0.354 C  
ENDROOT
BRANCH   2   3
HETATM    3  N   UNL     1     -10.516  16.191  67.629  1.00  0.00    -0.286 NA 
HETATM    4  C   UNL     1     -11.482  15.990  68.714  1.00  0.00    -0.375 C  
HETATM    5  C   UNL     1     -11.883  14.539  68.552  1.00  0.00    -0.355 C  
HETATM    6  C   UNL     1     -11.987  14.374  67.050  1.00  0.00    -0.424 C  
HETATM    7  C   UNL     1     -11.014  15.410  66.468  1.00  0.00    -0.271 C  
BRANCH   7   8
HETATM    8  C   UNL     1      -9.833  14.757  65.720  1.00  0.00    -0.342 C  
BRANCH   8   9
HETATM    9  N   UNL     1      -9.801  13.304  65.752  1.00  0.00    -0.421 N  
HETATM   10  C   UNL     1      -9.142  12.577  66.721  1.00  0.00    -0.214 C  
HETATM   11  H   UNL     1     -10.293  12.794  65.019  1.00  0.00     0.000 HD 
HETATM   12  O   UNL     1      -8.476  13.072  67.615  1.00  0.00    -0.161 OA 
BRANCH  10  13
HETATM   13  C   UNL     1      -9.252  11.099  66.571  1.00  0.00    -0.194 A  
HETATM   14  C   UNL     1      -8.542  10.541  65.489  1.00  0.00    -0.187 A  
HETATM   15  C   UNL     1      -8.566   9.166  65.235  1.00  0.00    -0.167 A  
HETATM   16  C   UNL     1      -9.931  10.247  67.448  1.00  0.00    -0.189 A  
HETATM   17  C   UNL     1      -9.297   8.305  66.056  1.00  0.00    -0.149 A  
HETATM   18  N   UNL     1      -9.248   6.907  65.935  1.00  0.00    -0.372 NA 
HETATM   19  C   UNL     1      -9.907   8.860  67.193  1.00  0.00    -0.267 A  
HETATM   20  H2  UNL     1      -8.268   6.630  65.998  1.00  0.00     0.000 HD 
HETATM   21  H1  UNL     1      -9.782   6.278  66.536  1.00  0.00     0.000 HD 
BRANCH  15  22
HETATM   22  S   UNL     1      -7.781   8.597  63.736  1.00  0.00    -0.143 S  
HETATM   23  O   UNL     1      -7.565   7.169  63.878  1.00  0.00    -0.096 OA 
HETATM   24  O   UNL     1      -8.581   9.107  62.632  1.00  0.00    -0.202 OA 
BRANCH  22  25
HETATM   25  C   UNL     1      -6.203   9.415  63.705  1.00  0.00    -0.093 C  
HETATM   26  C   UNL     1      -6.186  10.511  62.650  1.00  0.00    -0.140 C  
ENDBRANCH  22  25
ENDBRANCH  15  22
BRANCH  16  27
HETATM   27  O   UNL     1     -10.581  10.558  68.610  1.00  0.00    -0.177 OA 
HETATM   28  C   UNL     1     -11.947  10.949  68.530  1.00  0.00    -0.067 C  
ENDBRANCH  16  27
ENDBRANCH  10  13
ENDBRANCH   8   9
ENDBRANCH   7   8
ENDBRANCH   2   3
TORSDOF 7
ENDMDL
MODEL      159
REMARK 921   NORMALIZED FREE ENERGY PREDICTED BY IDOCK:   -4.20 KCAL/MOL
REMARK 922        TOTAL FREE ENERGY PREDICTED BY IDOCK:   -6.93 KCAL/MOL
REMARK 923 INTER-LIGAND FREE ENERGY PREDICTED BY IDOCK:   -5.56 KCAL/MOL
REMARK 924 INTRA-LIGAND FREE ENERGY PREDICTED BY IDOCK:   -1.37 KCAL/MOL
REMARK 927      BINDING AFFINITY PREDICTED BY RF-SCORE:    0.00 PKD
ROOT
HETATM    1  C   UNL     1      -8.077   1.561  70.278  1.00  0.00    -0.054 C  
HETATM    2  C   UNL     1      -7.190   2.170  69.199  1.00  0.00    -0.043 C  
ENDROOT
BRANCH   2   3
HETATM    3  N   UNL     1      -7.201   3.640  69.206  1.00  0.00    -0.049 NA 
HETATM    4  C   UNL     1      -5.861   4.216  69.051  1.00  0.00    -0.022 C  
HETATM    5  C   UNL     1      -6.147   5.623  68.568  1.00  0.00    -0.025 C  
HETATM    6  C   UNL     1      -7.293   5.429  67.596  1.00  0.00    -0.076 C  
HETATM    7  C   UNL     1      -8.022   4.170  68.088  1.00  0.00    -0.081 C  
BRANCH   7   8
HETATM    8  C   UNL     1      -9.455   4.470  68.577  1.00  0.00    -0.152 C  
BRANCH   8   9
HETATM    9  N   UNL     1      -9.728   5.864  68.889  1.00  0.00    -0.130 N  
HETATM   10  C   UNL     1     -10.579   6.658  68.147  1.00  0.00    -0.241 C  
HETATM   11  H   UNL     1      -9.266   6.278  69.698  1.00  0.00     0.000 HD 
HETATM   12  O   UNL     1     -11.144   6.293  67.131  1.00  0.00    -0.358 OA 
BRANCH  10  13
HETATM   13  C   UNL     1     -10.724   8.052  68.653  1.00  0.00    -0.066 A  
HETATM   14  C   UNL     1     -10.764   9.058  67.667  1.00  0.00    -0.232 A  
HETATM   15  C   UNL     1     -10.894  10.408  68.011  1.00  0.00    -0.270 A  
HETATM   16  C   UNL     1     -10.894   8.409  69.994  1.00  0.00    -0.225 A  
HETATM   17  C   UNL     1     -10.992  10.794  69.349  1.00  0.00    -0.254 A  
HETATM   18  N   UNL     1     -11.262  12.112  69.747  1.00  0.00    -0.488 NA 
HETATM   19  C   UNL     1     -11.063   9.773  70.311  1.00  0.00    -0.349 A  
HETATM   20  H2  UNL     1     -12.124  12.401  69.282  1.00  0.00     0.000 HD 
HETATM   21  H1  UNL     1     -11.334  12.394  70.725  1.00  0.00     0.000 HD 
BRANCH  15  22
HETATM   22  S   UNL     1     -10.750  11.604  66.694  1.00  0.00    -0.281 S  
HETATM   23  O   UNL     1     -12.080  12.126  66.438  1.00  0.00    -0.630 OA 
HETATM   24  O   UNL     1      -9.672  12.506  67.071  1.00  0.00    -0.205 OA 
BRANCH  22  25
HETATM   25  C   UNL     1     -10.221  10.666  65.278  1.00  0.00    -0.282 C  
HETATM   26  C   UNL     1     -10.598  11.381  63.989  1.00  0.00    -0.444 C  
ENDBRANCH  22  25
ENDBRANCH  15  22
BRANCH  16  27
HETATM   27  O   UNL     1     -11.001   7.597  71.089  1.00  0.00    -0.240 OA 
HETATM   28  C   UNL     1     -12.304   7.226  71.523  1.00  0.00    -0.362 C  
ENDBRANCH  16  27
ENDBRANCH  10  13
ENDBRANCH   8   9
ENDBRANCH   7   8
ENDBRANCH   2   3
TORSDOF 7
ENDMDL
MODEL      160
REMARK 921   NORMALIZED FREE ENERGY PREDICTED BY IDOCK:   -4.19 KCAL/MOL
REMARK 922        TOTAL FREE ENERGY PREDICTED BY IDOCK:   -6.93 KCAL/MOL
REMARK 923 INTER-LIGAND FREE ENERGY PREDICTED BY IDOCK:   -5.84 KCAL/MOL
REMARK 924 INTRA-LIGAND FREE ENERGY PREDICTED BY IDOCK:   -1.10 KCAL/MOL
REMARK 927      BINDING AFFINITY PREDICTED BY RF-SCORE:    0.00 PKD
ROOT
HETATM    1  C   UNL     1      -8.457  12.559  66.606  1.00  0.00    -0.006 C  
HETATM    2  C   UNL     1      -9.226  13.853  66.845  1.00  0.00    -0.259 C  
ENDROOT
BRANCH   2   3
HETATM    3  N   UNL     1     -10.650  13.750  66.499  1.00  0.00    -0.277 NA 
HETATM    4  C   UNL     1     -10.974  14.414  65.232  1.00  0.00    -0.350 C  
HETATM    5  C   UNL     1     -12.278  13.761  64.826  1.00  0.00    -0.438 C  
HETATM    6  C   UNL     1     -12.064  12.305  65.188  1.00  0.00    -0.379 C  
HETATM    7  C   UNL     1     -11.058  12.329  66.348  1.00  0.00    -0.303 C  
BRANCH   7   8
HETATM    8  C   UNL     1     -11.663  11.807  67.668  1.00  0.00    -0.250 C  
BRANCH   8   9
HETATM    9  N   UNL     1     -11.306  10.442  68.020  1.00  0.00    -0.476 N  
HETATM   10  C   UNL     1     -10.240  10.119  68.834  1.00  0.00    -0.199 C  
HETATM   11  H   UNL     1     -11.875   9.683  67.646  1.00  0.00     0.000 HD 
HETATM   12  O   UNL     1      -9.458  10.934  69.294  1.00  0.00    -0.148 OA 
BRANCH  10  13
HETATM   13  C   UNL     1     -10.065   8.660  69.076  1.00  0.00    -0.207 A  
HETATM   14  C   UNL     1     -10.186   8.244  70.417  1.00  0.00    -0.209 A  
HETATM   15  C   UNL     1     -10.040   6.901  70.778  1.00  0.00    -0.194 A  
HETATM   16  C   UNL     1      -9.869   7.695  68.082  1.00  0.00    -0.164 A  
HETATM   17  C   UNL     1      -9.771   5.930  69.810  1.00  0.00    -0.160 A  
HETATM   18  N   UNL     1      -9.752   4.555  70.091  1.00  0.00    -0.201 NA 
HETATM   19  C   UNL     1      -9.764   6.343  68.468  1.00  0.00    -0.134 A  
HETATM   20  H2  UNL     1     -10.646   4.319  70.521  1.00  0.00     0.000 HD 
HETATM   21  H1  UNL     1      -9.555   3.847  69.384  1.00  0.00     0.000 HD 
BRANCH  15  22
HETATM   22  S   UNL     1     -10.032   6.519  72.522  1.00  0.00    -0.171 S  
HETATM   23  O   UNL     1      -8.920   5.618  72.760  1.00  0.00    -0.125 OA 
HETATM   24  O   UNL     1     -10.103   7.792  73.223  1.00  0.00    -0.305 OA 
BRANCH  22  25
HETATM   25  C   UNL     1     -11.552   5.641  72.806  1.00  0.00    -0.232 C  
HETATM   26  C   UNL     1     -11.298   4.374  73.610  1.00  0.00    -0.287 C  
ENDBRANCH  22  25
ENDBRANCH  15  22
BRANCH  16  27
HETATM   27  O   UNL     1      -9.836   7.860  66.725  1.00  0.00    -0.209 OA 
HETATM   28  C   UNL     1      -8.679   7.419  66.023  1.00  0.00    -0.153 C  
ENDBRANCH  16  27
ENDBRANCH  10  13
ENDBRANCH   8   9
ENDBRANCH   7   8
ENDBRANCH   2   3
TORSDOF 7
ENDMDL
MODEL      161
REMARK 921   NORMALIZED FREE ENERGY PREDICTED BY IDOCK:   -4.18 KCAL/MOL
REMARK 922        TOTAL FREE ENERGY PREDICTED BY IDOCK:   -6.91 KCAL/MOL
REMARK 923 INTER-LIGAND FREE ENERGY PREDICTED BY IDOCK:   -5.63 KCAL/MOL
REMARK 924 INTRA-LIGAND FREE ENERGY PREDICTED BY IDOCK:   -1.29 KCAL/MOL
REMARK 927      BINDING AFFINITY PREDICTED BY RF-SCORE:    0.00 PKD
ROOT
HETATM    1  C   UNL     1     -10.674  15.456  65.688  1.00  0.00    -0.381 C  
HETATM    2  C   UNL     1     -11.750  14.538  66.257  1.00  0.00    -0.358 C  
ENDROOT
BRANCH   2   3
HETATM    3  N   UNL     1     -11.284  13.745  67.402  1.00  0.00    -0.299 NA 
HETATM    4  C   UNL     1     -11.695  14.314  68.690  1.00  0.00    -0.345 C  
HETATM    5  C   UNL     1     -11.592  13.135  69.635  1.00  0.00    -0.321 C  
HETATM    6  C   UNL     1     -12.129  11.983  68.811  1.00  0.00    -0.166 C  
HETATM    7  C   UNL     1     -11.836  12.366  67.353  1.00  0.00    -0.289 C  
BRANCH   7   8
HETATM    8  C   UNL     1     -10.825  11.413  66.682  1.00  0.00    -0.289 C  
BRANCH   8   9
HETATM    9  N   UNL     1     -10.481  10.228  67.452  1.00  0.00    -0.233 N  
HETATM   10  C   UNL     1      -9.329  10.115  68.202  1.00  0.00    -0.135 C  
HETATM   11  H   UNL     1     -11.126   9.438  67.435  1.00  0.00     0.000 HD 
HETATM   12  O   UNL     1      -8.460  10.968  68.256  1.00  0.00    -0.125 OA 
BRANCH  10  13
HETATM   13  C   UNL     1      -9.184   8.819  68.923  1.00  0.00    -0.141 A  
HETATM   14  C   UNL     1     -10.132   8.574  69.936  1.00  0.00    -0.195 A  
HETATM   15  C   UNL     1     -10.102   7.396  70.690  1.00  0.00    -0.190 A  
HETATM   16  C   UNL     1      -8.244   7.829  68.619  1.00  0.00    -0.128 A  
HETATM   17  C   UNL     1      -9.127   6.425  70.452  1.00  0.00    -0.155 A  
HETATM   18  N   UNL     1      -9.131   5.169  71.078  1.00  0.00    -0.142 NA 
HETATM   19  C   UNL     1      -8.261   6.633  69.367  1.00  0.00    -0.124 A  
HETATM   20  H2  UNL     1     -10.039   4.740  70.897  1.00  0.00     0.000 HD 
HETATM   21  H1  UNL     1      -8.419   4.459  70.903  1.00  0.00     0.000 HD 
BRANCH  15  22
HETATM   22  S   UNL     1     -11.235   7.276  72.064  1.00  0.00    -0.260 S  
HETATM   23  O   UNL     1     -11.710   5.905  72.112  1.00  0.00    -0.294 OA 
HETATM   24  O   UNL     1     -10.554   7.853  73.213  1.00  0.00    -0.341 OA 
BRANCH  22  25
HETATM   25  C   UNL     1     -12.595   8.337  71.631  1.00  0.00    -0.327 C  
HETATM   26  C   UNL     1     -12.671   9.526  72.578  1.00  0.00    -0.207 C  
ENDBRANCH  22  25
ENDBRANCH  15  22
BRANCH  16  27
HETATM   27  O   UNL     1      -7.318   7.809  67.613  1.00  0.00    -0.088 OA 
HETATM   28  C   UNL     1      -7.731   7.348  66.331  1.00  0.00    -0.093 C  
ENDBRANCH  16  27
ENDBRANCH  10  13
ENDBRANCH   8   9
ENDBRANCH   7   8
ENDBRANCH   2   3
TORSDOF 7
ENDMDL
MODEL      162
REMARK 921   NORMALIZED FREE ENERGY PREDICTED BY IDOCK:   -4.17 KCAL/MOL
REMARK 922        TOTAL FREE ENERGY PREDICTED BY IDOCK:   -6.90 KCAL/MOL
REMARK 923 INTER-LIGAND FREE ENERGY PREDICTED BY IDOCK:   -5.47 KCAL/MOL
REMARK 924 INTRA-LIGAND FREE ENERGY PREDICTED BY IDOCK:   -1.44 KCAL/MOL
REMARK 927      BINDING AFFINITY PREDICTED BY RF-SCORE:    0.00 PKD
ROOT
HETATM    1  C   UNL     1     -11.199   6.068  69.112  1.00  0.00    -0.337 C  
HETATM    2  C   UNL     1     -10.070   5.292  69.779  1.00  0.00    -0.264 C  
ENDROOT
BRANCH   2   3
HETATM    3  N   UNL     1     -10.115   5.357  71.247  1.00  0.00    -0.200 NA 
HETATM    4  C   UNL     1     -10.189   4.032  71.870  1.00  0.00    -0.089 C  
HETATM    5  C   UNL     1      -9.705   4.289  73.282  1.00  0.00    -0.154 C  
HETATM    6  C   UNL     1      -8.559   5.260  73.083  1.00  0.00    -0.117 C  
HETATM    7  C   UNL     1      -8.896   6.012  71.787  1.00  0.00    -0.138 C  
BRANCH   7   8
HETATM    8  C   UNL     1      -9.161   7.513  72.025  1.00  0.00    -0.129 C  
BRANCH   8   9
HETATM    9  N   UNL     1      -9.201   8.336  70.827  1.00  0.00    -0.149 N  
HETATM   10  C   UNL     1     -10.204   9.245  70.560  1.00  0.00    -0.251 C  
HETATM   11  H   UNL     1      -8.448   8.237  70.147  1.00  0.00     0.000 HD 
HETATM   12  O   UNL     1     -11.182   9.413  71.268  1.00  0.00    -0.309 OA 
BRANCH  10  13
HETATM   13  C   UNL     1     -10.040   9.993  69.282  1.00  0.00    -0.226 A  
HETATM   14  C   UNL     1     -10.545  11.308  69.275  1.00  0.00    -0.187 A  
HETATM   15  C   UNL     1     -10.457  12.115  68.135  1.00  0.00    -0.211 A  
HETATM   16  C   UNL     1      -9.372   9.517  68.150  1.00  0.00    -0.133 A  
HETATM   17  C   UNL     1      -9.858  11.634  66.970  1.00  0.00    -0.193 A  
HETATM   18  N   UNL     1      -9.617  12.439  65.845  1.00  0.00    -0.360 NA 
HETATM   19  C   UNL     1      -9.261  10.364  67.028  1.00  0.00    -0.165 A  
HETATM   20  H2  UNL     1      -9.074  13.244  66.157  1.00  0.00     0.000 HD 
HETATM   21  H1  UNL     1      -9.179  12.087  64.993  1.00  0.00     0.000 HD 
BRANCH  15  22
HETATM   22  S   UNL     1     -11.292  13.692  68.184  1.00  0.00    -0.309 S  
HETATM   23  O   UNL     1     -10.276  14.721  68.060  1.00  0.00    -0.223 OA 
HETATM   24  O   UNL     1     -12.375  13.616  67.215  1.00  0.00    -0.320 OA 
BRANCH  22  25
HETATM   25  C   UNL     1     -12.004  13.784  69.810  1.00  0.00    -0.344 C  
HETATM   26  C   UNL     1     -12.160  15.233  70.248  1.00  0.00    -0.388 C  
ENDBRANCH  22  25
ENDBRANCH  15  22
BRANCH  16  27
HETATM   27  O   UNL     1      -8.713   8.331  67.981  1.00  0.00    -0.134 OA 
HETATM   28  C   UNL     1      -8.844   7.662  66.732  1.00  0.00    -0.136 C  
ENDBRANCH  16  27
ENDBRANCH  10  13
ENDBRANCH   8   9
ENDBRANCH   7   8
ENDBRANCH   2   3
TORSDOF 7
ENDMDL
MODEL      163
REMARK 921   NORMALIZED FREE ENERGY PREDICTED BY IDOCK:   -4.17 KCAL/MOL
REMARK 922        TOTAL FREE ENERGY PREDICTED BY IDOCK:   -6.90 KCAL/MOL
REMARK 923 INTER-LIGAND FREE ENERGY PREDICTED BY IDOCK:   -5.74 KCAL/MOL
REMARK 924 INTRA-LIGAND FREE ENERGY PREDICTED BY IDOCK:   -1.16 KCAL/MOL
REMARK 927      BINDING AFFINITY PREDICTED BY RF-SCORE:    0.00 PKD
ROOT
HETATM    1  C   UNL     1     -10.564  13.539  68.791  1.00  0.00    -0.237 C  
HETATM    2  C   UNL     1      -9.620  13.055  67.697  1.00  0.00    -0.206 C  
ENDROOT
BRANCH   2   3
HETATM    3  N   UNL     1      -9.584  11.591  67.573  1.00  0.00    -0.171 NA 
HETATM    4  C   UNL     1     -10.646  11.070  66.708  1.00  0.00    -0.266 C  
HETATM    5  C   UNL     1     -10.126   9.705  66.309  1.00  0.00    -0.322 C  
HETATM    6  C   UNL     1      -8.649   9.953  66.075  1.00  0.00    -0.147 C  
HETATM    7  C   UNL     1      -8.297  11.140  66.983  1.00  0.00    -0.144 C  
BRANCH   7   8
HETATM    8  C   UNL     1      -7.306  10.756  68.101  1.00  0.00    -0.088 C  
BRANCH   8   9
HETATM    9  N   UNL     1      -7.900  10.141  69.277  1.00  0.00    -0.120 N  
HETATM   10  C   UNL     1      -7.373   9.032  69.906  1.00  0.00    -0.060 C  
HETATM   11  H   UNL     1      -8.752  10.552  69.657  1.00  0.00     0.000 HD 
HETATM   12  O   UNL     1      -6.392   8.424  69.513  1.00  0.00    -0.036 OA 
BRANCH  10  13
HETATM   13  C   UNL     1      -8.135   8.577  71.102  1.00  0.00    -0.158 A  
HETATM   14  C   UNL     1      -9.371   7.954  70.839  1.00  0.00    -0.162 A  
HETATM   15  C   UNL     1     -10.185   7.486  71.875  1.00  0.00    -0.188 A  
HETATM   16  C   UNL     1      -7.684   8.657  72.424  1.00  0.00     0.030 A  
HETATM   17  C   UNL     1      -9.787   7.621  73.207  1.00  0.00    -0.301 A  
HETATM   18  N   UNL     1     -10.492   7.049  74.277  1.00  0.00    -0.528 NA 
HETATM   19  C   UNL     1      -8.505   8.141  73.448  1.00  0.00    -0.303 A  
HETATM   20  H2  UNL     1     -10.581   6.051  74.085  1.00  0.00     0.000 HD 
HETATM   21  H1  UNL     1     -10.201   7.148  75.250  1.00  0.00     0.000 HD 
BRANCH  15  22
HETATM   22  S   UNL     1     -11.806   6.882  71.433  1.00  0.00    -0.349 S  
HETATM   23  O   UNL     1     -11.768   6.541  70.023  1.00  0.00    -0.416 OA 
HETATM   24  O   UNL     1     -12.153   5.871  72.420  1.00  0.00    -0.270 OA 
BRANCH  22  25
HETATM   25  C   UNL     1     -12.890   8.274  71.656  1.00  0.00    -0.329 C  
HETATM   26  C   UNL     1     -14.343   7.824  71.688  1.00  0.00    -0.607 C  
ENDBRANCH  22  25
ENDBRANCH  15  22
BRANCH  16  27
HETATM   27  O   UNL     1      -6.482   9.111  72.891  1.00  0.00    -0.313 OA 
HETATM   28  C   UNL     1      -5.564   8.159  73.418  1.00  0.00    -0.051 C  
ENDBRANCH  16  27
ENDBRANCH  10  13
ENDBRANCH   8   9
ENDBRANCH   7   8
ENDBRANCH   2   3
TORSDOF 7
ENDMDL
MODEL      164
REMARK 921   NORMALIZED FREE ENERGY PREDICTED BY IDOCK:   -4.16 KCAL/MOL
REMARK 922        TOTAL FREE ENERGY PREDICTED BY IDOCK:   -6.88 KCAL/MOL
REMARK 923 INTER-LIGAND FREE ENERGY PREDICTED BY IDOCK:   -6.25 KCAL/MOL
REMARK 924 INTRA-LIGAND FREE ENERGY PREDICTED BY IDOCK:   -0.63 KCAL/MOL
REMARK 927      BINDING AFFINITY PREDICTED BY RF-SCORE:    0.00 PKD
ROOT
HETATM    1  C   UNL     1     -12.711  12.368  64.191  1.00  0.00    -0.446 C  
HETATM    2  C   UNL     1     -12.438  13.393  65.285  1.00  0.00    -0.483 C  
ENDROOT
BRANCH   2   3
HETATM    3  N   UNL     1     -11.044  13.859  65.303  1.00  0.00    -0.308 NA 
HETATM    4  C   UNL     1     -10.937  15.321  65.353  1.00  0.00    -0.372 C  
HETATM    5  C   UNL     1      -9.536  15.544  65.883  1.00  0.00    -0.377 C  
HETATM    6  C   UNL     1      -9.393  14.474  66.946  1.00  0.00    -0.258 C  
HETATM    7  C   UNL     1     -10.327  13.341  66.496  1.00  0.00    -0.285 C  
BRANCH   7   8
HETATM    8  C   UNL     1      -9.562  12.050  66.137  1.00  0.00    -0.239 C  
BRANCH   8   9
HETATM    9  N   UNL     1      -9.533  11.033  67.175  1.00  0.00    -0.164 N  
HETATM   10  C   UNL     1     -10.647  10.637  67.886  1.00  0.00    -0.228 C  
HETATM   11  H   UNL     1      -8.641  10.588  67.391  1.00  0.00     0.000 HD 
HETATM   12  O   UNL     1     -11.753  11.132  67.756  1.00  0.00    -0.560 OA 
BRANCH  10  13
HETATM   13  C   UNL     1     -10.393   9.569  68.893  1.00  0.00    -0.225 A  
HETATM   14  C   UNL     1      -9.635   8.471  68.441  1.00  0.00    -0.157 A  
HETATM   15  C   UNL     1      -9.330   7.400  69.287  1.00  0.00    -0.154 A  
HETATM   16  C   UNL     1     -10.782   9.619  70.235  1.00  0.00    -0.281 A  
HETATM   17  C   UNL     1      -9.770   7.395  70.613  1.00  0.00    -0.175 A  
HETATM   18  N   UNL     1      -9.381   6.420  71.544  1.00  0.00    -0.149 NA 
HETATM   19  C   UNL     1     -10.428   8.545  71.078  1.00  0.00    -0.264 A  
HETATM   20  H2  UNL     1      -8.361   6.404  71.561  1.00  0.00     0.000 HD 
HETATM   21  H1  UNL     1      -9.702   6.416  72.512  1.00  0.00     0.000 HD 
BRANCH  15  22
HETATM   22  S   UNL     1      -8.523   5.985  68.557  1.00  0.00    -0.112 S  
HETATM   23  O   UNL     1      -8.177   6.343  67.194  1.00  0.00    -0.111 OA 
HETATM   24  O   UNL     1      -7.485   5.574  69.490  1.00  0.00    -0.068 OA 
BRANCH  22  25
HETATM   25  C   UNL     1      -9.769   4.717  68.517  1.00  0.00    -0.142 C  
HETATM   26  C   UNL     1      -9.382   3.554  69.420  1.00  0.00    -0.243 C  
ENDBRANCH  22  25
ENDBRANCH  15  22
BRANCH  16  27
HETATM   27  O   UNL     1     -11.415  10.628  70.906  1.00  0.00    -0.301 OA 
HETATM   28  C   UNL     1     -12.339  10.277  71.929  1.00  0.00    -0.148 C  
ENDBRANCH  16  27
ENDBRANCH  10  13
ENDBRANCH   8   9
ENDBRANCH   7   8
ENDBRANCH   2   3
TORSDOF 7
ENDMDL
MODEL      165
REMARK 921   NORMALIZED FREE ENERGY PREDICTED BY IDOCK:   -4.14 KCAL/MOL
REMARK 922        TOTAL FREE ENERGY PREDICTED BY IDOCK:   -6.86 KCAL/MOL
REMARK 923 INTER-LIGAND FREE ENERGY PREDICTED BY IDOCK:   -5.66 KCAL/MOL
REMARK 924 INTRA-LIGAND FREE ENERGY PREDICTED BY IDOCK:   -1.20 KCAL/MOL
REMARK 927      BINDING AFFINITY PREDICTED BY RF-SCORE:    0.00 PKD
ROOT
HETATM    1  C   UNL     1     -13.616  14.034  72.526  1.00  0.00    -0.670 C  
HETATM    2  C   UNL     1     -12.586  14.952  71.878  1.00  0.00    -0.331 C  
ENDROOT
BRANCH   2   3
HETATM    3  N   UNL     1     -12.428  14.714  70.437  1.00  0.00    -0.339 NA 
HETATM    4  C   UNL     1     -11.899  15.882  69.725  1.00  0.00    -0.295 C  
HETATM    5  C   UNL     1     -11.338  15.283  68.452  1.00  0.00    -0.338 C  
HETATM    6  C   UNL     1     -10.689  14.000  68.930  1.00  0.00    -0.265 C  
HETATM    7  C   UNL     1     -11.479  13.599  70.185  1.00  0.00    -0.041 C  
BRANCH   7   8
HETATM    8  C   UNL     1     -12.252  12.276  70.000  1.00  0.00    -0.196 C  
BRANCH   8   9
HETATM    9  N   UNL     1     -11.427  11.083  69.891  1.00  0.00    -0.298 N  
HETATM   10  C   UNL     1     -11.202  10.418  68.703  1.00  0.00    -0.248 C  
HETATM   11  H   UNL     1     -10.992  10.718  70.738  1.00  0.00     0.000 HD 
HETATM   12  O   UNL     1     -11.710  10.727  67.638  1.00  0.00    -0.538 OA 
BRANCH  10  13
HETATM   13  C   UNL     1     -10.314   9.228  68.818  1.00  0.00    -0.231 A  
HETATM   14  C   UNL     1      -9.305   9.122  67.840  1.00  0.00    -0.151 A  
HETATM   15  C   UNL     1      -8.408   8.048  67.834  1.00  0.00    -0.129 A  
HETATM   16  C   UNL     1     -10.367   8.278  69.843  1.00  0.00    -0.218 A  
HETATM   17  C   UNL     1      -8.489   7.050  68.807  1.00  0.00    -0.122 A  
HETATM   18  N   UNL     1      -7.536   6.028  68.934  1.00  0.00    -0.085 NA 
HETATM   19  C   UNL     1      -9.426   7.228  69.837  1.00  0.00    -0.157 A  
HETATM   20  H2  UNL     1      -6.622   6.472  69.028  1.00  0.00     0.000 HD 
HETATM   21  H1  UNL     1      -7.595   5.298  69.645  1.00  0.00     0.000 HD 
BRANCH  15  22
HETATM   22  S   UNL     1      -7.293   7.923  66.445  1.00  0.00    -0.088 S  
HETATM   23  O   UNL     1      -5.951   8.153  66.949  1.00  0.00    -0.050 OA 
HETATM   24  O   UNL     1      -7.614   6.675  65.769  1.00  0.00    -0.079 OA 
BRANCH  22  25
HETATM   25  C   UNL     1      -7.741   9.269  65.374  1.00  0.00    -0.099 C  
HETATM   26  C   UNL     1      -7.144   9.075  63.988  1.00  0.00    -0.095 C  
ENDBRANCH  22  25
ENDBRANCH  15  22
BRANCH  16  27
HETATM   27  O   UNL     1     -11.179   8.252  70.943  1.00  0.00    -0.257 OA 
HETATM   28  C   UNL     1     -10.594   8.504  72.215  1.00  0.00    -0.338 C  
ENDBRANCH  16  27
ENDBRANCH  10  13
ENDBRANCH   8   9
ENDBRANCH   7   8
ENDBRANCH   2   3
TORSDOF 7
ENDMDL
MODEL      166
REMARK 921   NORMALIZED FREE ENERGY PREDICTED BY IDOCK:   -4.14 KCAL/MOL
REMARK 922        TOTAL FREE ENERGY PREDICTED BY IDOCK:   -6.85 KCAL/MOL
REMARK 923 INTER-LIGAND FREE ENERGY PREDICTED BY IDOCK:   -5.89 KCAL/MOL
REMARK 924 INTRA-LIGAND FREE ENERGY PREDICTED BY IDOCK:   -0.96 KCAL/MOL
REMARK 927      BINDING AFFINITY PREDICTED BY RF-SCORE:    0.00 PKD
ROOT
HETATM    1  C   UNL     1     -13.463  13.271  72.114  1.00  0.00    -0.655 C  
HETATM    2  C   UNL     1     -12.333  14.150  71.594  1.00  0.00    -0.265 C  
ENDROOT
BRANCH   2   3
HETATM    3  N   UNL     1     -12.357  14.317  70.134  1.00  0.00    -0.340 NA 
HETATM    4  C   UNL     1     -12.099  15.699  69.717  1.00  0.00    -0.326 C  
HETATM    5  C   UNL     1     -11.657  15.547  68.277  1.00  0.00    -0.344 C  
HETATM    6  C   UNL     1     -10.779  14.312  68.314  1.00  0.00    -0.253 C  
HETATM    7  C   UNL     1     -11.316  13.478  69.486  1.00  0.00    -0.202 C  
BRANCH   7   8
HETATM    8  C   UNL     1     -11.923  12.136  69.029  1.00  0.00    -0.247 C  
BRANCH   8   9
HETATM    9  N   UNL     1     -11.120  10.958  69.318  1.00  0.00    -0.229 N  
HETATM   10  C   UNL     1     -11.501   9.975  70.208  1.00  0.00    -0.300 C  
HETATM   11  H   UNL     1     -10.228  10.853  68.837  1.00  0.00     0.000 HD 
HETATM   12  O   UNL     1     -12.517  10.018  70.881  1.00  0.00    -0.312 OA 
BRANCH  10  13
HETATM   13  C   UNL     1     -10.535   8.850  70.340  1.00  0.00    -0.245 A  
HETATM   14  C   UNL     1     -10.842   7.894  71.329  1.00  0.00    -0.263 A  
HETATM   15  C   UNL     1     -10.013   6.791  71.557  1.00  0.00    -0.177 A  
HETATM   16  C   UNL     1      -9.419   8.646  69.523  1.00  0.00    -0.162 A  
HETATM   17  C   UNL     1      -8.853   6.606  70.801  1.00  0.00    -0.147 A  
HETATM   18  N   UNL     1      -8.060   5.452  70.888  1.00  0.00    -0.110 NA 
HETATM   19  C   UNL     1      -8.621   7.504  69.747  1.00  0.00    -0.140 A  
HETATM   20  H2  UNL     1      -8.667   4.650  70.716  1.00  0.00     0.000 HD 
HETATM   21  H1  UNL     1      -7.212   5.317  70.335  1.00  0.00     0.000 HD 
BRANCH  15  22
HETATM   22  S   UNL     1     -10.403   5.749  72.953  1.00  0.00    -0.211 S  
HETATM   23  O   UNL     1     -11.849   5.680  73.047  1.00  0.00    -0.157 OA 
HETATM   24  O   UNL     1      -9.623   4.531  72.790  1.00  0.00    -0.130 OA 
BRANCH  22  25
HETATM   25  C   UNL     1      -9.778   6.626  74.368  1.00  0.00    -0.303 C  
HETATM   26  C   UNL     1      -8.259   6.704  74.325  1.00  0.00    -0.145 C  
ENDBRANCH  22  25
ENDBRANCH  15  22
BRANCH  16  27
HETATM   27  O   UNL     1      -9.005   9.375  68.443  1.00  0.00    -0.128 OA 
HETATM   28  C   UNL     1      -7.861   8.922  67.727  1.00  0.00    -0.102 C  
ENDBRANCH  16  27
ENDBRANCH  10  13
ENDBRANCH   8   9
ENDBRANCH   7   8
ENDBRANCH   2   3
TORSDOF 7
ENDMDL
MODEL      167
REMARK 921   NORMALIZED FREE ENERGY PREDICTED BY IDOCK:   -4.10 KCAL/MOL
REMARK 922        TOTAL FREE ENERGY PREDICTED BY IDOCK:   -6.80 KCAL/MOL
REMARK 923 INTER-LIGAND FREE ENERGY PREDICTED BY IDOCK:   -5.26 KCAL/MOL
REMARK 924 INTRA-LIGAND FREE ENERGY PREDICTED BY IDOCK:   -1.54 KCAL/MOL
REMARK 927      BINDING AFFINITY PREDICTED BY RF-SCORE:    0.00 PKD
ROOT
HETATM    1  C   UNL     1      -9.216   3.016  72.121  1.00  0.00    -0.160 C  
HETATM    2  C   UNL     1      -8.517   4.341  71.844  1.00  0.00    -0.106 C  
ENDROOT
BRANCH   2   3
HETATM    3  N   UNL     1      -9.402   5.503  72.000  1.00  0.00    -0.147 NA 
HETATM    4  C   UNL     1     -10.754   5.132  72.430  1.00  0.00    -0.216 C  
HETATM    5  C   UNL     1     -11.294   6.419  73.016  1.00  0.00    -0.100 C  
HETATM    6  C   UNL     1     -10.104   6.984  73.766  1.00  0.00    -0.390 C  
HETATM    7  C   UNL     1      -8.874   6.439  73.025  1.00  0.00    -0.126 C  
BRANCH   7   8
HETATM    8  C   UNL     1      -8.047   7.554  72.351  1.00  0.00    -0.103 C  
BRANCH   8   9
HETATM    9  N   UNL     1      -8.440   7.884  70.990  1.00  0.00    -0.120 N  
HETATM   10  C   UNL     1      -9.392   8.834  70.680  1.00  0.00    -0.195 C  
HETATM   11  H   UNL     1      -7.987   7.388  70.223  1.00  0.00     0.000 HD 
HETATM   12  O   UNL     1     -10.038   9.451  71.510  1.00  0.00    -0.288 OA 
BRANCH  10  13
HETATM   13  C   UNL     1      -9.628   9.022  69.222  1.00  0.00    -0.162 A  
HETATM   14  C   UNL     1      -9.565  10.352  68.760  1.00  0.00    -0.178 A  
HETATM   15  C   UNL     1      -9.772  10.664  67.412  1.00  0.00    -0.167 A  
HETATM   16  C   UNL     1      -9.827   7.992  68.298  1.00  0.00    -0.170 A  
HETATM   17  C   UNL     1     -10.044   9.658  66.484  1.00  0.00    -0.244 A  
HETATM   18  N   UNL     1     -10.124   9.893  65.103  1.00  0.00    -0.345 NA 
HETATM   19  C   UNL     1      -9.993   8.330  66.938  1.00  0.00    -0.343 A  
HETATM   20  H2  UNL     1      -9.252  10.342  64.819  1.00  0.00     0.000 HD 
HETATM   21  H1  UNL     1     -10.322   9.157  64.424  1.00  0.00     0.000 HD 
BRANCH  15  22
HETATM   22  S   UNL     1      -9.850  12.394  66.977  1.00  0.00    -0.215 S  
HETATM   23  O   UNL     1      -8.485  12.861  66.824  1.00  0.00    -0.137 OA 
HETATM   24  O   UNL     1     -10.786  12.498  65.868  1.00  0.00    -0.259 OA 
BRANCH  22  25
HETATM   25  C   UNL     1     -10.572  13.191  68.393  1.00  0.00    -0.251 C  
HETATM   26  C   UNL     1     -12.032  13.532  68.131  1.00  0.00    -0.376 C  
ENDBRANCH  22  25
ENDBRANCH  15  22
BRANCH  16  27
HETATM   27  O   UNL     1      -9.809   6.641  68.506  1.00  0.00    -0.136 OA 
HETATM   28  C   UNL     1     -11.031   6.000  68.855  1.00  0.00    -0.325 C  
ENDBRANCH  16  27
ENDBRANCH  10  13
ENDBRANCH   8   9
ENDBRANCH   7   8
ENDBRANCH   2   3
TORSDOF 7
ENDMDL
MODEL      168
REMARK 921   NORMALIZED FREE ENERGY PREDICTED BY IDOCK:   -4.09 KCAL/MOL
REMARK 922        TOTAL FREE ENERGY PREDICTED BY IDOCK:   -6.79 KCAL/MOL
REMARK 923 INTER-LIGAND FREE ENERGY PREDICTED BY IDOCK:   -5.74 KCAL/MOL
REMARK 924 INTRA-LIGAND FREE ENERGY PREDICTED BY IDOCK:   -1.05 KCAL/MOL
REMARK 927      BINDING AFFINITY PREDICTED BY RF-SCORE:    0.00 PKD
ROOT
HETATM    1  C   UNL     1     -12.589  15.341  71.085  1.00  0.00    -0.457 C  
HETATM    2  C   UNL     1     -12.069  14.236  70.173  1.00  0.00    -0.339 C  
ENDROOT
BRANCH   2   3
HETATM    3  N   UNL     1     -12.031  12.920  70.827  1.00  0.00    -0.161 NA 
HETATM    4  C   UNL     1     -13.121  12.734  71.789  1.00  0.00    -0.356 C  
HETATM    5  C   UNL     1     -13.207  11.228  71.924  1.00  0.00    -0.491 C  
HETATM    6  C   UNL     1     -13.007  10.742  70.503  1.00  0.00    -0.258 C  
HETATM    7  C   UNL     1     -12.157  11.828  69.828  1.00  0.00    -0.269 C  
BRANCH   7   8
HETATM    8  C   UNL     1     -10.760  11.317  69.420  1.00  0.00    -0.141 C  
BRANCH   8   9
HETATM    9  N   UNL     1     -10.513   9.906  69.675  1.00  0.00    -0.231 N  
HETATM   10  C   UNL     1     -10.458   8.950  68.682  1.00  0.00    -0.193 C  
HETATM   11  H   UNL     1     -10.373   9.608  70.640  1.00  0.00     0.000 HD 
HETATM   12  O   UNL     1     -10.663   9.177  67.502  1.00  0.00    -0.273 OA 
BRANCH  10  13
HETATM   13  C   UNL     1     -10.178   7.569  69.165  1.00  0.00    -0.202 A  
HETATM   14  C   UNL     1     -10.238   7.387  70.561  1.00  0.00    -0.196 A  
HETATM   15  C   UNL     1      -9.991   6.139  71.143  1.00  0.00    -0.183 A  
HETATM   16  C   UNL     1      -9.942   6.461  68.346  1.00  0.00    -0.141 A  
HETATM   17  C   UNL     1      -9.682   5.034  70.348  1.00  0.00    -0.209 A  
HETATM   18  N   UNL     1      -9.562   3.733  70.860  1.00  0.00    -0.176 NA 
HETATM   19  C   UNL     1      -9.737   5.206  68.955  1.00  0.00    -0.227 A  
HETATM   20  H2  UNL     1     -10.428   3.519  71.356  1.00  0.00     0.000 HD 
HETATM   21  H1  UNL     1      -9.336   2.925  70.279  1.00  0.00     0.000 HD 
BRANCH  15  22
HETATM   22  S   UNL     1      -9.914   6.069  72.925  1.00  0.00    -0.177 S  
HETATM   23  O   UNL     1     -11.246   5.743  73.401  1.00  0.00    -0.220 OA 
HETATM   24  O   UNL     1      -8.790   5.206  73.256  1.00  0.00    -0.118 OA 
BRANCH  22  25
HETATM   25  C   UNL     1      -9.514   7.725  73.433  1.00  0.00    -0.287 C  
HETATM   26  C   UNL     1      -8.171   7.759  74.147  1.00  0.00    -0.282 C  
ENDBRANCH  22  25
ENDBRANCH  15  22
BRANCH  16  27
HETATM   27  O   UNL     1      -9.956   6.388  66.981  1.00  0.00    -0.142 OA 
HETATM   28  C   UNL     1     -11.002   5.651  66.358  1.00  0.00    -0.006 C  
ENDBRANCH  16  27
ENDBRANCH  10  13
ENDBRANCH   8   9
ENDBRANCH   7   8
ENDBRANCH   2   3
TORSDOF 7
ENDMDL
MODEL      169
REMARK 921   NORMALIZED FREE ENERGY PREDICTED BY IDOCK:   -4.08 KCAL/MOL
REMARK 922        TOTAL FREE ENERGY PREDICTED BY IDOCK:   -6.77 KCAL/MOL
REMARK 923 INTER-LIGAND FREE ENERGY PREDICTED BY IDOCK:   -5.29 KCAL/MOL
REMARK 924 INTRA-LIGAND FREE ENERGY PREDICTED BY IDOCK:   -1.48 KCAL/MOL
REMARK 927      BINDING AFFINITY PREDICTED BY RF-SCORE:    0.00 PKD
ROOT
HETATM    1  C   UNL     1     -11.902  11.368  67.572  1.00  0.00    -0.105 C  
HETATM    2  C   UNL     1     -10.599  11.744  66.878  1.00  0.00    -0.235 C  
ENDROOT
BRANCH   2   3
HETATM    3  N   UNL     1      -9.569  10.701  66.982  1.00  0.00    -0.167 NA 
HETATM    4  C   UNL     1      -9.408   9.938  65.740  1.00  0.00    -0.204 C  
HETATM    5  C   UNL     1      -8.026   9.336  65.883  1.00  0.00    -0.106 C  
HETATM    6  C   UNL     1      -7.221  10.462  66.500  1.00  0.00    -0.118 C  
HETATM    7  C   UNL     1      -8.242  11.294  67.289  1.00  0.00    -0.140 C  
BRANCH   7   8
HETATM    8  C   UNL     1      -7.984  11.261  68.810  1.00  0.00    -0.137 C  
BRANCH   8   9
HETATM    9  N   UNL     1      -8.762  10.281  69.552  1.00  0.00    -0.290 N  
HETATM   10  C   UNL     1      -8.285   9.035  69.900  1.00  0.00    -0.124 C  
HETATM   11  H   UNL     1      -9.711  10.529  69.831  1.00  0.00     0.000 HD 
HETATM   12  O   UNL     1      -7.190   8.606  69.577  1.00  0.00    -0.057 OA 
BRANCH  10  13
HETATM   13  C   UNL     1      -9.244   8.197  70.673  1.00  0.00    -0.162 A  
HETATM   14  C   UNL     1     -10.552   8.710  70.783  1.00  0.00    -0.254 A  
HETATM   15  C   UNL     1     -11.546   8.022  71.486  1.00  0.00    -0.275 A  
HETATM   16  C   UNL     1      -8.961   6.939  71.214  1.00  0.00    -0.142 A  
HETATM   17  C   UNL     1     -11.266   6.798  72.097  1.00  0.00    -0.259 A  
HETATM   18  N   UNL     1     -12.252   5.998  72.695  1.00  0.00    -0.536 NA 
HETATM   19  C   UNL     1      -9.992   6.247  71.884  1.00  0.00    -0.193 A  
HETATM   20  H2  UNL     1     -12.976   5.832  71.995  1.00  0.00     0.000 HD 
HETATM   21  H1  UNL     1     -12.048   5.104  73.141  1.00  0.00     0.000 HD 
BRANCH  15  22
HETATM   22  S   UNL     1     -13.109   8.853  71.715  1.00  0.00    -0.397 S  
HETATM   23  O   UNL     1     -14.104   8.114  70.959  1.00  0.00    -0.136 OA 
HETATM   24  O   UNL     1     -13.272   9.040  73.148  1.00  0.00    -0.200 OA 
BRANCH  22  25
HETATM   25  C   UNL     1     -12.893  10.451  70.965  1.00  0.00    -0.401 C  
HETATM   26  C   UNL     1     -13.256  11.557  71.945  1.00  0.00    -0.479 C  
ENDBRANCH  22  25
ENDBRANCH  15  22
BRANCH  16  27
HETATM   27  O   UNL     1      -7.808   6.210  71.126  1.00  0.00    -0.107 OA 
HETATM   28  C   UNL     1      -7.799   5.070  70.273  1.00  0.00    -0.070 C  
ENDBRANCH  16  27
ENDBRANCH  10  13
ENDBRANCH   8   9
ENDBRANCH   7   8
ENDBRANCH   2   3
TORSDOF 7
ENDMDL
MODEL      170
REMARK 921   NORMALIZED FREE ENERGY PREDICTED BY IDOCK:   -4.06 KCAL/MOL
REMARK 922        TOTAL FREE ENERGY PREDICTED BY IDOCK:   -6.74 KCAL/MOL
REMARK 923 INTER-LIGAND FREE ENERGY PREDICTED BY IDOCK:   -5.59 KCAL/MOL
REMARK 924 INTRA-LIGAND FREE ENERGY PREDICTED BY IDOCK:   -1.15 KCAL/MOL
REMARK 927      BINDING AFFINITY PREDICTED BY RF-SCORE:    0.00 PKD
ROOT
HETATM    1  C   UNL     1     -13.195  15.259  70.860  1.00  0.00    -0.506 C  
HETATM    2  C   UNL     1     -12.264  14.313  70.111  1.00  0.00    -0.345 C  
ENDROOT
BRANCH   2   3
HETATM    3  N   UNL     1     -12.081  13.024  70.792  1.00  0.00    -0.276 NA 
HETATM    4  C   UNL     1     -13.109  12.769  71.807  1.00  0.00    -0.356 C  
HETATM    5  C   UNL     1     -13.054  11.266  71.981  1.00  0.00    -0.431 C  
HETATM    6  C   UNL     1     -12.872  10.760  70.564  1.00  0.00    -0.335 C  
HETATM    7  C   UNL     1     -12.151  11.898  69.826  1.00  0.00    -0.252 C  
BRANCH   7   8
HETATM    8  C   UNL     1     -10.732  11.501  69.368  1.00  0.00    -0.068 C  
BRANCH   8   9
HETATM    9  N   UNL     1     -10.516  10.077  69.173  1.00  0.00    -0.206 N  
HETATM   10  C   UNL     1      -9.801   9.287  70.049  1.00  0.00    -0.205 C  
HETATM   11  H   UNL     1     -10.914   9.638  68.343  1.00  0.00     0.000 HD 
HETATM   12  O   UNL     1      -9.234   9.707  71.044  1.00  0.00    -0.175 OA 
BRANCH  10  13
HETATM   13  C   UNL     1      -9.716   7.851  69.662  1.00  0.00    -0.173 A  
HETATM   14  C   UNL     1      -9.362   6.960  70.695  1.00  0.00    -0.162 A  
HETATM   15  C   UNL     1      -9.244   5.586  70.461  1.00  0.00    -0.148 A  
HETATM   16  C   UNL     1     -10.027   7.337  68.400  1.00  0.00    -0.161 A  
HETATM   17  C   UNL     1      -9.480   5.059  69.189  1.00  0.00    -0.137 A  
HETATM   18  N   UNL     1      -9.513   3.681  68.927  1.00  0.00    -0.164 NA 
HETATM   19  C   UNL     1      -9.939   5.943  68.200  1.00  0.00    -0.173 A  
HETATM   20  H2  UNL     1     -10.196   3.266  69.560  1.00  0.00     0.000 HD 
HETATM   21  H1  UNL     1      -9.685   3.296  67.997  1.00  0.00     0.000 HD 
BRANCH  15  22
HETATM   22  S   UNL     1      -8.614   4.581  71.795  1.00  0.00    -0.117 S  
HETATM   23  O   UNL     1      -7.721   3.598  71.208  1.00  0.00    -0.056 OA 
HETATM   24  O   UNL     1      -8.122   5.501  72.809  1.00  0.00    -0.108 OA 
BRANCH  22  25
HETATM   25  C   UNL     1     -10.039   3.741  72.449  1.00  0.00    -0.167 C  
HETATM   26  C   UNL     1     -11.042   4.740  73.006  1.00  0.00    -0.352 C  
ENDBRANCH  22  25
ENDBRANCH  15  22
BRANCH  16  27
HETATM   27  O   UNL     1     -10.498   7.998  67.299  1.00  0.00    -0.274 OA 
HETATM   28  C   UNL     1      -9.551   8.516  66.372  1.00  0.00    -0.245 C  
ENDBRANCH  16  27
ENDBRANCH  10  13
ENDBRANCH   8   9
ENDBRANCH   7   8
ENDBRANCH   2   3
TORSDOF 7
ENDMDL
MODEL      171
REMARK 921   NORMALIZED FREE ENERGY PREDICTED BY IDOCK:   -4.04 KCAL/MOL
REMARK 922        TOTAL FREE ENERGY PREDICTED BY IDOCK:   -6.72 KCAL/MOL
REMARK 923 INTER-LIGAND FREE ENERGY PREDICTED BY IDOCK:   -5.88 KCAL/MOL
REMARK 924 INTRA-LIGAND FREE ENERGY PREDICTED BY IDOCK:   -0.84 KCAL/MOL
REMARK 927      BINDING AFFINITY PREDICTED BY RF-SCORE:    0.00 PKD
ROOT
HETATM    1  C   UNL     1     -13.491  13.474  71.963  1.00  0.00    -0.584 C  
HETATM    2  C   UNL     1     -12.166  13.875  71.327  1.00  0.00    -0.268 C  
ENDROOT
BRANCH   2   3
HETATM    3  N   UNL     1     -12.213  13.891  69.858  1.00  0.00    -0.336 NA 
HETATM    4  C   UNL     1     -11.710  15.145  69.289  1.00  0.00    -0.329 C  
HETATM    5  C   UNL     1     -11.360  14.761  67.867  1.00  0.00    -0.331 C  
HETATM    6  C   UNL     1     -10.736  13.389  68.023  1.00  0.00    -0.261 C  
HETATM    7  C   UNL     1     -11.378  12.803  69.289  1.00  0.00    -0.247 C  
BRANCH   7   8
HETATM    8  C   UNL     1     -12.249  11.565  68.991  1.00  0.00    -0.121 C  
BRANCH   8   9
HETATM    9  N   UNL     1     -11.624  10.281  69.270  1.00  0.00    -0.447 N  
HETATM   10  C   UNL     1     -10.976   9.525  68.315  1.00  0.00    -0.079 C  
HETATM   11  H   UNL     1     -11.667   9.921  70.223  1.00  0.00     0.000 HD 
HETATM   12  O   UNL     1     -10.907   9.826  67.135  1.00  0.00    -0.235 OA 
BRANCH  10  13
HETATM   13  C   UNL     1     -10.396   8.251  68.822  1.00  0.00    -0.223 A  
HETATM   14  C   UNL     1     -10.044   8.240  70.187  1.00  0.00    -0.191 A  
HETATM   15  C   UNL     1      -9.486   7.105  70.784  1.00  0.00    -0.164 A  
HETATM   16  C   UNL     1     -10.251   7.078  68.075  1.00  0.00    -0.182 A  
HETATM   17  C   UNL     1      -9.265   5.946  70.039  1.00  0.00    -0.148 A  
HETATM   18  N   UNL     1      -8.839   4.738  70.613  1.00  0.00    -0.110 NA 
HETATM   19  C   UNL     1      -9.722   5.935  68.711  1.00  0.00    -0.161 A  
HETATM   20  H2  UNL     1      -9.499   4.502  71.354  1.00  0.00     0.000 HD 
HETATM   21  H1  UNL     1      -8.678   3.890  70.068  1.00  0.00     0.000 HD 
BRANCH  15  22
HETATM   22  S   UNL     1      -8.913   7.267  72.468  1.00  0.00    -0.130 S  
HETATM   23  O   UNL     1      -7.803   6.347  72.634  1.00  0.00    -0.103 OA 
HETATM   24  O   UNL     1      -8.723   8.690  72.705  1.00  0.00    -0.380 OA 
BRANCH  22  25
HETATM   25  C   UNL     1     -10.272   6.711  73.470  1.00  0.00    -0.277 C  
HETATM   26  C   UNL     1     -11.576   7.343  73.005  1.00  0.00    -0.112 C  
ENDBRANCH  22  25
ENDBRANCH  15  22
BRANCH  16  27
HETATM   27  O   UNL     1     -10.629   6.834  66.784  1.00  0.00    -0.269 OA 
HETATM   28  C   UNL     1     -10.727   5.479  66.358  1.00  0.00    -0.194 C  
ENDBRANCH  16  27
ENDBRANCH  10  13
ENDBRANCH   8   9
ENDBRANCH   7   8
ENDBRANCH   2   3
TORSDOF 7
ENDMDL
MODEL      172
REMARK 921   NORMALIZED FREE ENERGY PREDICTED BY IDOCK:   -4.04 KCAL/MOL
REMARK 922        TOTAL FREE ENERGY PREDICTED BY IDOCK:   -6.72 KCAL/MOL
REMARK 923 INTER-LIGAND FREE ENERGY PREDICTED BY IDOCK:   -5.51 KCAL/MOL
REMARK 924 INTRA-LIGAND FREE ENERGY PREDICTED BY IDOCK:   -1.21 KCAL/MOL
REMARK 927      BINDING AFFINITY PREDICTED BY RF-SCORE:    0.00 PKD
ROOT
HETATM    1  C   UNL     1      -5.313   9.497  66.911  1.00  0.00    -0.045 C  
HETATM    2  C   UNL     1      -6.054  10.793  66.603  1.00  0.00    -0.090 C  
ENDROOT
BRANCH   2   3
HETATM    3  N   UNL     1      -7.513  10.628  66.565  1.00  0.00    -0.127 NA 
HETATM    4  C   UNL     1      -7.978   9.987  65.330  1.00  0.00    -0.141 C  
HETATM    5  C   UNL     1      -9.343   9.455  65.712  1.00  0.00    -0.301 C  
HETATM    6  C   UNL     1      -9.129   8.928  67.117  1.00  0.00    -0.160 C  
HETATM    7  C   UNL     1      -7.980   9.774  67.687  1.00  0.00    -0.105 C  
BRANCH   7   8
HETATM    8  C   UNL     1      -8.426  10.653  68.874  1.00  0.00    -0.154 C  
BRANCH   8   9
HETATM    9  N   UNL     1      -8.766  12.027  68.539  1.00  0.00    -0.311 N  
HETATM   10  C   UNL     1     -10.034  12.431  68.176  1.00  0.00    -0.215 C  
HETATM   11  H   UNL     1      -8.027  12.729  68.573  1.00  0.00     0.000 HD 
HETATM   12  O   UNL     1     -10.983  11.676  68.048  1.00  0.00    -0.199 OA 
BRANCH  10  13
HETATM   13  C   UNL     1     -10.162  13.887  67.889  1.00  0.00    -0.241 A  
HETATM   14  C   UNL     1      -9.011  14.662  68.134  1.00  0.00    -0.179 A  
HETATM   15  C   UNL     1      -9.002  16.042  67.909  1.00  0.00    -0.186 A  
HETATM   16  C   UNL     1     -11.290  14.504  67.339  1.00  0.00    -0.356 A  
HETATM   17  C   UNL     1     -10.141  16.691  67.428  1.00  0.00    -0.274 A  
HETATM   18  N   UNL     1     -10.149  18.043  67.053  1.00  0.00    -0.329 NA 
HETATM   19  C   UNL     1     -11.242  15.890  67.084  1.00  0.00    -0.060 A  
HETATM   20  H2  UNL     1      -9.410  18.173  66.362  1.00  0.00     0.000 HD 
HETATM   21  H1  UNL     1     -10.982  18.517  66.701  1.00  0.00     0.000 HD 
BRANCH  15  22
HETATM   22  S   UNL     1      -7.551  16.945  68.426  1.00  0.00    -0.219 S  
HETATM   23  O   UNL     1      -7.973  18.301  68.726  1.00  0.00    -0.304 OA 
HETATM   24  O   UNL     1      -6.905  16.138  69.450  1.00  0.00    -0.198 OA 
BRANCH  22  25
HETATM   25  C   UNL     1      -6.496  16.977  66.995  1.00  0.00    -0.197 C  
HETATM   26  C   UNL     1      -6.558  18.336  66.313  1.00  0.00    -0.263 C  
ENDBRANCH  22  25
ENDBRANCH  15  22
BRANCH  16  27
HETATM   27  O   UNL     1     -12.460  13.932  66.921  1.00  0.00    -0.357 OA 
HETATM   28  C   UNL     1     -12.598  13.621  65.539  1.00  0.00    -0.496 C  
ENDBRANCH  16  27
ENDBRANCH  10  13
ENDBRANCH   8   9
ENDBRANCH   7   8
ENDBRANCH   2   3
TORSDOF 7
ENDMDL
MODEL      173
REMARK 921   NORMALIZED FREE ENERGY PREDICTED BY IDOCK:   -4.03 KCAL/MOL
REMARK 922        TOTAL FREE ENERGY PREDICTED BY IDOCK:   -6.71 KCAL/MOL
REMARK 923 INTER-LIGAND FREE ENERGY PREDICTED BY IDOCK:   -5.75 KCAL/MOL
REMARK 924 INTRA-LIGAND FREE ENERGY PREDICTED BY IDOCK:   -0.96 KCAL/MOL
REMARK 927      BINDING AFFINITY PREDICTED BY RF-SCORE:    0.00 PKD
ROOT
HETATM    1  C   UNL     1      -8.620   4.717  67.454  1.00  0.00    -0.104 C  
HETATM    2  C   UNL     1      -9.304   6.078  67.511  1.00  0.00    -0.113 C  
ENDROOT
BRANCH   2   3
HETATM    3  N   UNL     1      -8.472   7.116  68.134  1.00  0.00    -0.123 NA 
HETATM    4  C   UNL     1      -8.726   7.257  69.572  1.00  0.00    -0.134 C  
HETATM    5  C   UNL     1      -7.471   7.939  70.076  1.00  0.00    -0.079 C  
HETATM    6  C   UNL     1      -6.367   7.251  69.298  1.00  0.00    -0.036 C  
HETATM    7  C   UNL     1      -7.029   6.798  67.988  1.00  0.00    -0.080 C  
BRANCH   7   8
HETATM    8  C   UNL     1      -6.448   7.517  66.753  1.00  0.00    -0.056 C  
BRANCH   8   9
HETATM    9  N   UNL     1      -7.393   8.330  66.005  1.00  0.00    -0.079 N  
HETATM   10  C   UNL     1      -7.229   9.683  65.786  1.00  0.00    -0.100 C  
HETATM   11  H   UNL     1      -8.222   7.877  65.621  1.00  0.00     0.000 HD 
HETATM   12  O   UNL     1      -6.310  10.343  66.240  1.00  0.00    -0.081 OA 
BRANCH  10  13
HETATM   13  C   UNL     1      -8.310  10.317  64.981  1.00  0.00    -0.169 A  
HETATM   14  C   UNL     1      -9.286  11.019  65.716  1.00  0.00    -0.236 A  
HETATM   15  C   UNL     1     -10.356  11.657  65.079  1.00  0.00    -0.281 A  
HETATM   16  C   UNL     1      -8.377  10.324  63.585  1.00  0.00    -0.169 A  
HETATM   17  C   UNL     1     -10.482  11.615  63.689  1.00  0.00    -0.429 A  
HETATM   18  N   UNL     1     -11.452  12.348  62.988  1.00  0.00    -0.674 NA 
HETATM   19  C   UNL     1      -9.444  11.007  62.965  1.00  0.00    -0.379 A  
HETATM   20  H2  UNL     1     -11.348  13.327  63.255  1.00  0.00     0.000 HD 
HETATM   21  H1  UNL     1     -11.544  12.317  61.972  1.00  0.00     0.000 HD 
BRANCH  15  22
HETATM   22  S   UNL     1     -11.626  12.357  66.120  1.00  0.00    -0.392 S  
HETATM   23  O   UNL     1     -12.758  12.670  65.267  1.00  0.00    -0.652 OA 
HETATM   24  O   UNL     1     -11.789  11.447  67.243  1.00  0.00    -0.594 OA 
BRANCH  22  25
HETATM   25  C   UNL     1     -10.933  13.877  66.730  1.00  0.00    -0.299 C  
HETATM   26  C   UNL     1     -10.603  13.761  68.211  1.00  0.00    -0.262 C  
ENDBRANCH  22  25
ENDBRANCH  15  22
BRANCH  16  27
HETATM   27  O   UNL     1      -7.486   9.811  62.683  1.00  0.00    -0.111 OA 
HETATM   28  C   UNL     1      -7.569   8.425  62.372  1.00  0.00    -0.115 C  
ENDBRANCH  16  27
ENDBRANCH  10  13
ENDBRANCH   8   9
ENDBRANCH   7   8
ENDBRANCH   2   3
TORSDOF 7
ENDMDL
MODEL      174
REMARK 921   NORMALIZED FREE ENERGY PREDICTED BY IDOCK:   -4.00 KCAL/MOL
REMARK 922        TOTAL FREE ENERGY PREDICTED BY IDOCK:   -6.67 KCAL/MOL
REMARK 923 INTER-LIGAND FREE ENERGY PREDICTED BY IDOCK:   -5.45 KCAL/MOL
REMARK 924 INTRA-LIGAND FREE ENERGY PREDICTED BY IDOCK:   -1.22 KCAL/MOL
REMARK 927      BINDING AFFINITY PREDICTED BY RF-SCORE:    0.00 PKD
ROOT
HETATM    1  C   UNL     1     -14.306   7.462  71.599  1.00  0.00    -0.614 C  
HETATM    2  C   UNL     1     -13.214   8.414  72.073  1.00  0.00    -0.346 C  
ENDROOT
BRANCH   2   3
HETATM    3  N   UNL     1     -12.280   8.796  71.005  1.00  0.00    -0.242 NA 
HETATM    4  C   UNL     1     -12.238  10.244  70.782  1.00  0.00    -0.350 C  
HETATM    5  C   UNL     1     -10.911  10.445  70.079  1.00  0.00    -0.370 C  
HETATM    6  C   UNL     1      -9.984   9.499  70.814  1.00  0.00    -0.334 C  
HETATM    7  C   UNL     1     -10.894   8.378  71.338  1.00  0.00    -0.244 C  
BRANCH   7   8
HETATM    8  C   UNL     1     -10.582   7.012  70.693  1.00  0.00    -0.225 C  
BRANCH   8   9
HETATM    9  N   UNL     1      -9.898   7.070  69.410  1.00  0.00    -0.159 N  
HETATM   10  C   UNL     1     -10.467   6.657  68.223  1.00  0.00    -0.209 C  
HETATM   11  H   UNL     1      -8.946   7.436  69.387  1.00  0.00     0.000 HD 
HETATM   12  O   UNL     1     -11.574   6.153  68.134  1.00  0.00     0.137 OA 
BRANCH  10  13
HETATM   13  C   UNL     1      -9.594   6.819  67.028  1.00  0.00    -0.188 A  
HETATM   14  C   UNL     1      -9.356   8.147  66.621  1.00  0.00    -0.250 A  
HETATM   15  C   UNL     1      -8.556   8.434  65.510  1.00  0.00    -0.176 A  
HETATM   16  C   UNL     1      -8.954   5.777  66.349  1.00  0.00    -0.137 A  
HETATM   17  C   UNL     1      -7.966   7.405  64.774  1.00  0.00    -0.127 A  
HETATM   18  N   UNL     1      -7.046   7.635  63.739  1.00  0.00    -0.063 NA 
HETATM   19  C   UNL     1      -8.121   6.096  65.257  1.00  0.00    -0.132 A  
HETATM   20  H2  UNL     1      -6.293   8.206  64.122  1.00  0.00     0.000 HD 
HETATM   21  H1  UNL     1      -6.615   6.882  63.201  1.00  0.00     0.000 HD 
BRANCH  15  22
HETATM   22  S   UNL     1      -8.474  10.137  64.980  1.00  0.00    -0.170 S  
HETATM   23  O   UNL     1      -9.153  10.934  65.987  1.00  0.00    -0.177 OA 
HETATM   24  O   UNL     1      -7.081  10.403  64.656  1.00  0.00    -0.113 OA 
BRANCH  22  25
HETATM   25  C   UNL     1      -9.418  10.195  63.474  1.00  0.00    -0.260 C  
HETATM   26  C   UNL     1     -10.083  11.553  63.308  1.00  0.00    -0.439 C  
ENDBRANCH  22  25
ENDBRANCH  15  22
BRANCH  16  27
HETATM   27  O   UNL     1      -8.952   4.441  66.641  1.00  0.00    -0.112 OA 
HETATM   28  C   UNL     1      -9.111   3.519  65.568  1.00  0.00    -0.147 C  
ENDBRANCH  16  27
ENDBRANCH  10  13
ENDBRANCH   8   9
ENDBRANCH   7   8
ENDBRANCH   2   3
TORSDOF 7
ENDMDL
MODEL      175
REMARK 921   NORMALIZED FREE ENERGY PREDICTED BY IDOCK:   -4.00 KCAL/MOL
REMARK 922        TOTAL FREE ENERGY PREDICTED BY IDOCK:   -6.66 KCAL/MOL
REMARK 923 INTER-LIGAND FREE ENERGY PREDICTED BY IDOCK:   -5.74 KCAL/MOL
REMARK 924 INTRA-LIGAND FREE ENERGY PREDICTED BY IDOCK:   -0.92 KCAL/MOL
REMARK 927      BINDING AFFINITY PREDICTED BY RF-SCORE:    0.00 PKD
ROOT
HETATM    1  C   UNL     1     -13.362  12.689  72.154  1.00  0.00    -0.570 C  
HETATM    2  C   UNL     1     -13.497  11.203  71.842  1.00  0.00    -0.180 C  
ENDROOT
BRANCH   2   3
HETATM    3  N   UNL     1     -12.202  10.529  71.679  1.00  0.00    -0.281 NA 
HETATM    4  C   UNL     1     -12.123   9.267  72.423  1.00  0.00    -0.068 C  
HETATM    5  C   UNL     1     -11.001   8.527  71.726  1.00  0.00    -0.376 C  
HETATM    6  C   UNL     1     -11.242   8.834  70.262  1.00  0.00    -0.212 C  
HETATM    7  C   UNL     1     -11.953  10.195  70.253  1.00  0.00    -0.233 C  
BRANCH   7   8
HETATM    8  C   UNL     1     -11.106  11.301  69.589  1.00  0.00    -0.206 C  
BRANCH   8   9
HETATM    9  N   UNL     1     -10.680  11.026  68.226  1.00  0.00    -0.182 N  
HETATM   10  C   UNL     1     -10.372  12.011  67.310  1.00  0.00    -0.212 C  
HETATM   11  H   UNL     1     -10.604  10.053  67.932  1.00  0.00     0.000 HD 
HETATM   12  O   UNL     1     -10.478  13.206  67.529  1.00  0.00    -0.226 OA 
BRANCH  10  13
HETATM   13  C   UNL     1      -9.943  11.505  65.977  1.00  0.00    -0.258 A  
HETATM   14  C   UNL     1      -8.788  10.698  65.972  1.00  0.00    -0.187 A  
HETATM   15  C   UNL     1      -8.279  10.164  64.784  1.00  0.00    -0.161 A  
HETATM   16  C   UNL     1     -10.632  11.709  64.777  1.00  0.00    -0.304 A  
HETATM   17  C   UNL     1      -8.910  10.415  63.564  1.00  0.00    -0.212 A  
HETATM   18  N   UNL     1      -8.528   9.796  62.364  1.00  0.00    -0.144 NA 
HETATM   19  C   UNL     1     -10.121  11.126  63.599  1.00  0.00    -0.432 A  
HETATM   20  H2  UNL     1      -8.554   8.788  62.518  1.00  0.00     0.000 HD 
HETATM   21  H1  UNL     1      -8.990   9.980  61.472  1.00  0.00     0.000 HD 
BRANCH  15  22
HETATM   22  S   UNL     1      -6.712   9.312  64.876  1.00  0.00    -0.081 S  
HETATM   23  O   UNL     1      -6.005   9.578  63.637  1.00  0.00    -0.087 OA 
HETATM   24  O   UNL     1      -6.116   9.681  66.151  1.00  0.00    -0.061 OA 
BRANCH  22  25
HETATM   25  C   UNL     1      -7.132   7.585  64.936  1.00  0.00    -0.060 C  
HETATM   26  C   UNL     1      -8.383   7.365  65.773  1.00  0.00    -0.141 C  
ENDBRANCH  22  25
ENDBRANCH  15  22
BRANCH  16  27
HETATM   27  O   UNL     1     -11.821  12.353  64.573  1.00  0.00    -0.350 OA 
HETATM   28  C   UNL     1     -12.495  12.142  63.337  1.00  0.00    -0.512 C  
ENDBRANCH  16  27
ENDBRANCH  10  13
ENDBRANCH   8   9
ENDBRANCH   7   8
ENDBRANCH   2   3
TORSDOF 7
ENDMDL
MODEL      176
REMARK 921   NORMALIZED FREE ENERGY PREDICTED BY IDOCK:   -3.98 KCAL/MOL
REMARK 922        TOTAL FREE ENERGY PREDICTED BY IDOCK:   -6.63 KCAL/MOL
REMARK 923 INTER-LIGAND FREE ENERGY PREDICTED BY IDOCK:   -5.58 KCAL/MOL
REMARK 924 INTRA-LIGAND FREE ENERGY PREDICTED BY IDOCK:   -1.06 KCAL/MOL
REMARK 927      BINDING AFFINITY PREDICTED BY RF-SCORE:    0.00 PKD
ROOT
HETATM    1  C   UNL     1     -11.047  16.365  64.815  1.00  0.00    -0.246 C  
HETATM    2  C   UNL     1     -10.229  15.079  64.825  1.00  0.00    -0.086 C  
ENDROOT
BRANCH   2   3
HETATM    3  N   UNL     1     -11.009  13.902  65.228  1.00  0.00    -0.317 NA 
HETATM    4  C   UNL     1     -12.456  14.131  65.159  1.00  0.00    -0.439 C  
HETATM    5  C   UNL     1     -13.023  12.729  65.088  1.00  0.00    -0.024 C  
HETATM    6  C   UNL     1     -12.059  12.011  64.165  1.00  0.00    -0.458 C  
HETATM    7  C   UNL     1     -10.721  12.745  64.341  1.00  0.00    -0.376 C  
BRANCH   7   8
HETATM    8  C   UNL     1      -9.634  11.850  64.972  1.00  0.00    -0.091 C  
BRANCH   8   9
HETATM    9  N   UNL     1     -10.068  11.046  66.103  1.00  0.00    -0.229 N  
HETATM   10  C   UNL     1     -10.134  11.522  67.396  1.00  0.00    -0.191 C  
HETATM   11  H   UNL     1     -10.338  10.078  65.931  1.00  0.00     0.000 HD 
HETATM   12  O   UNL     1      -9.786  12.641  67.732  1.00  0.00    -0.195 OA 
BRANCH  10  13
HETATM   13  C   UNL     1     -10.619  10.532  68.398  1.00  0.00    -0.230 A  
HETATM   14  C   UNL     1      -9.901   9.321  68.458  1.00  0.00    -0.173 A  
HETATM   15  C   UNL     1     -10.258   8.307  69.353  1.00  0.00    -0.204 A  
HETATM   16  C   UNL     1     -11.662  10.748  69.305  1.00  0.00    -0.303 A  
HETATM   17  C   UNL     1     -11.341   8.473  70.218  1.00  0.00    -0.130 A  
HETATM   18  N   UNL     1     -11.660   7.553  71.229  1.00  0.00    -0.273 NA 
HETATM   19  C   UNL     1     -11.976   9.725  70.224  1.00  0.00    -0.156 A  
HETATM   20  H2  UNL     1     -10.826   7.430  71.804  1.00  0.00     0.000 HD 
HETATM   21  H1  UNL     1     -12.452   7.674  71.861  1.00  0.00     0.000 HD 
BRANCH  15  22
HETATM   22  S   UNL     1      -9.393   6.752  69.213  1.00  0.00    -0.143 S  
HETATM   23  O   UNL     1      -8.264   6.965  68.327  1.00  0.00    -0.121 OA 
HETATM   24  O   UNL     1      -9.175   6.277  70.571  1.00  0.00    -0.156 OA 
BRANCH  22  25
HETATM   25  C   UNL     1     -10.546   5.656  68.417  1.00  0.00    -0.179 C  
HETATM   26  C   UNL     1     -10.983   6.220  67.073  1.00  0.00    -0.442 C  
ENDBRANCH  22  25
ENDBRANCH  15  22
BRANCH  16  27
HETATM   27  O   UNL     1     -12.408  11.877  69.497  1.00  0.00    -0.167 OA 
HETATM   28  C   UNL     1     -11.912  12.863  70.397  1.00  0.00    -0.249 C  
ENDBRANCH  16  27
ENDBRANCH  10  13
ENDBRANCH   8   9
ENDBRANCH   7   8
ENDBRANCH   2   3
TORSDOF 7
ENDMDL
MODEL      177
REMARK 921   NORMALIZED FREE ENERGY PREDICTED BY IDOCK:   -3.98 KCAL/MOL
REMARK 922        TOTAL FREE ENERGY PREDICTED BY IDOCK:   -6.63 KCAL/MOL
REMARK 923 INTER-LIGAND FREE ENERGY PREDICTED BY IDOCK:   -6.08 KCAL/MOL
REMARK 924 INTRA-LIGAND FREE ENERGY PREDICTED BY IDOCK:   -0.55 KCAL/MOL
REMARK 927      BINDING AFFINITY PREDICTED BY RF-SCORE:    0.00 PKD
ROOT
HETATM    1  C   UNL     1      -6.276  14.470  67.803  1.00  0.00    -0.152 C  
HETATM    2  C   UNL     1      -7.161  15.644  67.401  1.00  0.00    -0.208 C  
ENDROOT
BRANCH   2   3
HETATM    3  N   UNL     1      -7.017  16.805  68.290  1.00  0.00    -0.156 NA 
HETATM    4  C   UNL     1      -5.797  17.574  68.024  1.00  0.00    -0.148 C  
HETATM    5  C   UNL     1      -6.105  18.927  68.631  1.00  0.00    -0.233 C  
HETATM    6  C   UNL     1      -7.555  19.153  68.254  1.00  0.00    -0.339 C  
HETATM    7  C   UNL     1      -8.155  17.746  68.122  1.00  0.00    -0.265 C  
BRANCH   7   8
HETATM    8  C   UNL     1      -9.239  17.463  69.183  1.00  0.00     0.016 C  
BRANCH   8   9
HETATM    9  N   UNL     1      -9.702  16.086  69.249  1.00  0.00    -0.248 N  
HETATM   10  C   UNL     1     -10.702  15.578  68.446  1.00  0.00    -0.263 C  
HETATM   11  H   UNL     1      -9.264  15.462  69.926  1.00  0.00     0.000 HD 
HETATM   12  O   UNL     1     -11.335  16.240  67.641  1.00  0.00    -0.179 OA 
BRANCH  10  13
HETATM   13  C   UNL     1     -11.008  14.138  68.671  1.00  0.00    -0.275 A  
HETATM   14  C   UNL     1     -10.579  13.257  67.659  1.00  0.00    -0.242 A  
HETATM   15  C   UNL     1     -10.808  11.880  67.748  1.00  0.00    -0.211 A  
HETATM   16  C   UNL     1     -11.606  13.611  69.820  1.00  0.00    -0.254 A  
HETATM   17  C   UNL     1     -11.469  11.340  68.854  1.00  0.00    -0.297 A  
HETATM   18  N   UNL     1     -11.604   9.959  69.064  1.00  0.00    -0.474 NA 
HETATM   19  C   UNL     1     -11.790  12.215  69.904  1.00  0.00    -0.392 A  
HETATM   20  H2  UNL     1     -10.668   9.554  69.040  1.00  0.00     0.000 HD 
HETATM   21  H1  UNL     1     -12.087   9.565  69.872  1.00  0.00     0.000 HD 
BRANCH  15  22
HETATM   22  S   UNL     1     -10.385  10.887  66.326  1.00  0.00    -0.240 S  
HETATM   23  O   UNL     1     -10.725   9.512  66.645  1.00  0.00    -0.143 OA 
HETATM   24  O   UNL     1     -10.987  11.539  65.173  1.00  0.00    -0.287 OA 
BRANCH  22  25
HETATM   25  C   UNL     1      -8.617  11.021  66.183  1.00  0.00    -0.175 C  
HETATM   26  C   UNL     1      -7.984   9.644  66.044  1.00  0.00    -0.108 C  
ENDBRANCH  22  25
ENDBRANCH  15  22
BRANCH  16  27
HETATM   27  O   UNL     1     -11.990  14.262  70.960  1.00  0.00    -0.330 OA 
HETATM   28  C   UNL     1     -12.906  15.345  70.838  1.00  0.00    -0.476 C  
ENDBRANCH  16  27
ENDBRANCH  10  13
ENDBRANCH   8   9
ENDBRANCH   7   8
ENDBRANCH   2   3
TORSDOF 7
ENDMDL
MODEL      178
REMARK 921   NORMALIZED FREE ENERGY PREDICTED BY IDOCK:   -3.97 KCAL/MOL
REMARK 922        TOTAL FREE ENERGY PREDICTED BY IDOCK:   -6.61 KCAL/MOL
REMARK 923 INTER-LIGAND FREE ENERGY PREDICTED BY IDOCK:   -5.73 KCAL/MOL
REMARK 924 INTRA-LIGAND FREE ENERGY PREDICTED BY IDOCK:   -0.88 KCAL/MOL
REMARK 927      BINDING AFFINITY PREDICTED BY RF-SCORE:    0.00 PKD
ROOT
HETATM    1  C   UNL     1     -14.113  13.619  72.410  1.00  0.00    -0.586 C  
HETATM    2  C   UNL     1     -12.972  14.529  71.970  1.00  0.00    -0.341 C  
ENDROOT
BRANCH   2   3
HETATM    3  N   UNL     1     -12.680  14.434  70.533  1.00  0.00    -0.352 NA 
HETATM    4  C   UNL     1     -12.267  15.716  69.953  1.00  0.00    -0.294 C  
HETATM    5  C   UNL     1     -11.540  15.304  68.691  1.00  0.00    -0.370 C  
HETATM    6  C   UNL     1     -10.756  14.082  69.126  1.00  0.00    -0.198 C  
HETATM    7  C   UNL     1     -11.571  13.478  70.279  1.00  0.00    -0.066 C  
BRANCH   7   8
HETATM    8  C   UNL     1     -12.139  12.085  69.936  1.00  0.00    -0.263 C  
BRANCH   8   9
HETATM    9  N   UNL     1     -11.147  11.045  69.713  1.00  0.00    -0.375 N  
HETATM   10  C   UNL     1     -10.933  10.447  68.488  1.00  0.00    -0.254 C  
HETATM   11  H   UNL     1     -10.579  10.742  70.503  1.00  0.00     0.000 HD 
HETATM   12  O   UNL     1     -11.584  10.687  67.486  1.00  0.00    -0.482 OA 
BRANCH  10  13
HETATM   13  C   UNL     1      -9.857   9.416  68.481  1.00  0.00    -0.171 A  
HETATM   14  C   UNL     1     -10.033   8.345  69.379  1.00  0.00    -0.191 A  
HETATM   15  C   UNL     1      -9.092   7.313  69.473  1.00  0.00    -0.143 A  
HETATM   16  C   UNL     1      -8.759   9.404  67.616  1.00  0.00    -0.116 A  
HETATM   17  C   UNL     1      -7.950   7.319  68.669  1.00  0.00    -0.124 A  
HETATM   18  N   UNL     1      -7.046   6.246  68.620  1.00  0.00    -0.080 NA 
HETATM   19  C   UNL     1      -7.846   8.332  67.703  1.00  0.00    -0.106 A  
HETATM   20  H2  UNL     1      -7.579   5.408  68.387  1.00  0.00     0.000 HD 
HETATM   21  H1  UNL     1      -6.211   6.250  68.032  1.00  0.00     0.000 HD 
BRANCH  15  22
HETATM   22  S   UNL     1      -9.326   6.109  70.770  1.00  0.00    -0.158 S  
HETATM   23  O   UNL     1      -8.031   5.881  71.383  1.00  0.00    -0.109 OA 
HETATM   24  O   UNL     1     -10.442   6.582  71.575  1.00  0.00    -0.210 OA 
BRANCH  22  25
HETATM   25  C   UNL     1      -9.833   4.625  69.932  1.00  0.00    -0.226 C  
HETATM   26  C   UNL     1      -9.657   3.412  70.834  1.00  0.00    -0.239 C  
ENDBRANCH  22  25
ENDBRANCH  15  22
BRANCH  16  27
HETATM   27  O   UNL     1      -8.459  10.271  66.602  1.00  0.00    -0.123 OA 
HETATM   28  C   UNL     1      -7.738  11.455  66.923  1.00  0.00    -0.155 C  
ENDBRANCH  16  27
ENDBRANCH  10  13
ENDBRANCH   8   9
ENDBRANCH   7   8
ENDBRANCH   2   3
TORSDOF 7
ENDMDL
MODEL      179
REMARK 921   NORMALIZED FREE ENERGY PREDICTED BY IDOCK:   -3.97 KCAL/MOL
REMARK 922        TOTAL FREE ENERGY PREDICTED BY IDOCK:   -6.61 KCAL/MOL
REMARK 923 INTER-LIGAND FREE ENERGY PREDICTED BY IDOCK:   -5.23 KCAL/MOL
REMARK 924 INTRA-LIGAND FREE ENERGY PREDICTED BY IDOCK:   -1.38 KCAL/MOL
REMARK 927      BINDING AFFINITY PREDICTED BY RF-SCORE:    0.00 PKD
ROOT
HETATM    1  C   UNL     1     -10.168  20.116  69.132  1.00  0.00    -0.162 C  
HETATM    2  C   UNL     1      -9.718  19.828  67.705  1.00  0.00    -0.378 C  
ENDROOT
BRANCH   2   3
HETATM    3  N   UNL     1      -9.849  18.412  67.335  1.00  0.00    -0.303 NA 
HETATM    4  C   UNL     1     -10.481  18.226  66.025  1.00  0.00    -0.361 C  
HETATM    5  C   UNL     1     -10.047  16.830  65.629  1.00  0.00    -0.214 C  
HETATM    6  C   UNL     1      -8.602  16.777  66.081  1.00  0.00    -0.299 C  
HETATM    7  C   UNL     1      -8.517  17.758  67.259  1.00  0.00    -0.231 C  
BRANCH   7   8
HETATM    8  C   UNL     1      -8.193  17.055  68.593  1.00  0.00    -0.261 C  
BRANCH   8   9
HETATM    9  N   UNL     1      -7.917  15.631  68.496  1.00  0.00    -0.132 N  
HETATM   10  C   UNL     1      -8.862  14.653  68.726  1.00  0.00    -0.166 C  
HETATM   11  H   UNL     1      -6.973  15.339  68.244  1.00  0.00     0.000 HD 
HETATM   12  O   UNL     1     -10.005  14.877  69.086  1.00  0.00    -0.223 OA 
BRANCH  10  13
HETATM   13  C   UNL     1      -8.366  13.258  68.557  1.00  0.00    -0.075 A  
HETATM   14  C   UNL     1      -9.269  12.358  67.956  1.00  0.00    -0.203 A  
HETATM   15  C   UNL     1      -8.926  11.019  67.744  1.00  0.00    -0.140 A  
HETATM   16  C   UNL     1      -7.078  12.816  68.875  1.00  0.00    -0.067 A  
HETATM   17  C   UNL     1      -7.671  10.538  68.121  1.00  0.00    -0.096 A  
HETATM   18  N   UNL     1      -7.222   9.246  67.809  1.00  0.00    -0.082 NA 
HETATM   19  C   UNL     1      -6.745  11.471  68.614  1.00  0.00    -0.072 A  
HETATM   20  H2  UNL     1      -7.302   9.130  66.798  1.00  0.00     0.000 HD 
HETATM   21  H1  UNL     1      -6.304   8.895  68.085  1.00  0.00     0.000 HD 
BRANCH  15  22
HETATM   22  S   UNL     1     -10.210   9.932  67.146  1.00  0.00    -0.241 S  
HETATM   23  O   UNL     1     -10.043   8.657  67.819  1.00  0.00    -0.186 OA 
HETATM   24  O   UNL     1     -11.462  10.664  67.270  1.00  0.00    -0.412 OA 
BRANCH  22  25
HETATM   25  C   UNL     1      -9.860   9.716  65.416  1.00  0.00    -0.252 C  
HETATM   26  C   UNL     1     -10.363  10.907  64.613  1.00  0.00    -0.407 C  
ENDBRANCH  22  25
ENDBRANCH  15  22
BRANCH  16  27
HETATM   27  O   UNL     1      -6.020  13.539  69.353  1.00  0.00    -0.086 OA 
HETATM   28  C   UNL     1      -5.868  13.653  70.763  1.00  0.00    -0.177 C  
ENDBRANCH  16  27
ENDBRANCH  10  13
ENDBRANCH   8   9
ENDBRANCH   7   8
ENDBRANCH   2   3
TORSDOF 7
ENDMDL
MODEL      180
REMARK 921   NORMALIZED FREE ENERGY PREDICTED BY IDOCK:   -3.95 KCAL/MOL
REMARK 922        TOTAL FREE ENERGY PREDICTED BY IDOCK:   -6.59 KCAL/MOL
REMARK 923 INTER-LIGAND FREE ENERGY PREDICTED BY IDOCK:   -5.60 KCAL/MOL
REMARK 924 INTRA-LIGAND FREE ENERGY PREDICTED BY IDOCK:   -0.99 KCAL/MOL
REMARK 927      BINDING AFFINITY PREDICTED BY RF-SCORE:    0.00 PKD
ROOT
HETATM    1  C   UNL     1      -7.264   9.880  67.265  1.00  0.00    -0.086 C  
HETATM    2  C   UNL     1      -8.753  10.143  67.076  1.00  0.00    -0.132 C  
ENDROOT
BRANCH   2   3
HETATM    3  N   UNL     1      -9.231  11.316  67.821  1.00  0.00    -0.153 NA 
HETATM    4  C   UNL     1      -8.261  12.415  67.830  1.00  0.00    -0.163 C  
HETATM    5  C   UNL     1      -9.113  13.624  68.153  1.00  0.00    -0.195 C  
HETATM    6  C   UNL     1     -10.374  13.383  67.347  1.00  0.00    -0.240 C  
HETATM    7  C   UNL     1     -10.477  11.856  67.218  1.00  0.00    -0.222 C  
BRANCH   7   8
HETATM    8  C   UNL     1     -11.711  11.283  67.946  1.00  0.00    -0.214 C  
BRANCH   8   9
HETATM    9  N   UNL     1     -11.445  10.162  68.835  1.00  0.00    -0.482 N  
HETATM   10  C   UNL     1     -11.524  10.245  70.210  1.00  0.00    -0.317 C  
HETATM   11  H   UNL     1     -11.188   9.268  68.419  1.00  0.00     0.000 HD 
HETATM   12  O   UNL     1     -11.768  11.272  70.821  1.00  0.00    -0.276 OA 
BRANCH  10  13
HETATM   13  C   UNL     1     -11.226   8.973  70.925  1.00  0.00    -0.348 A  
HETATM   14  C   UNL     1     -10.095   8.266  70.470  1.00  0.00    -0.210 A  
HETATM   15  C   UNL     1      -9.710   7.056  71.055  1.00  0.00    -0.173 A  
HETATM   16  C   UNL     1     -11.928   8.488  72.033  1.00  0.00    -0.361 A  
HETATM   17  C   UNL     1     -10.440   6.516  72.116  1.00  0.00    -0.205 A  
HETATM   18  N   UNL     1     -10.025   5.382  72.831  1.00  0.00    -0.166 NA 
HETATM   19  C   UNL     1     -11.496   7.286  72.630  1.00  0.00    -0.304 A  
HETATM   20  H2  UNL     1      -9.081   5.565  73.172  1.00  0.00     0.000 HD 
HETATM   21  H1  UNL     1     -10.559   4.987  73.606  1.00  0.00     0.000 HD 
BRANCH  15  22
HETATM   22  S   UNL     1      -8.374   6.161  70.279  1.00  0.00    -0.126 S  
HETATM   23  O   UNL     1      -7.888   6.979  69.183  1.00  0.00    -0.110 OA 
HETATM   24  O   UNL     1      -7.471   5.759  71.347  1.00  0.00    -0.091 OA 
BRANCH  22  25
HETATM   25  C   UNL     1      -9.131   4.698  69.609  1.00  0.00    -0.109 C  
HETATM   26  C   UNL     1      -9.469   4.894  68.138  1.00  0.00    -0.178 C  
ENDBRANCH  22  25
ENDBRANCH  15  22
BRANCH  16  27
HETATM   27  O   UNL     1     -12.971   9.064  72.703  1.00  0.00    -0.405 OA 
HETATM   28  C   UNL     1     -14.254   9.051  72.087  1.00  0.00    -0.335 C  
ENDBRANCH  16  27
ENDBRANCH  10  13
ENDBRANCH   8   9
ENDBRANCH   7   8
ENDBRANCH   2   3
TORSDOF 7
ENDMDL
MODEL      181
REMARK 921   NORMALIZED FREE ENERGY PREDICTED BY IDOCK:   -3.95 KCAL/MOL
REMARK 922        TOTAL FREE ENERGY PREDICTED BY IDOCK:   -6.59 KCAL/MOL
REMARK 923 INTER-LIGAND FREE ENERGY PREDICTED BY IDOCK:   -5.76 KCAL/MOL
REMARK 924 INTRA-LIGAND FREE ENERGY PREDICTED BY IDOCK:   -0.83 KCAL/MOL
REMARK 927      BINDING AFFINITY PREDICTED BY RF-SCORE:    0.00 PKD
ROOT
HETATM    1  C   UNL     1     -10.949  16.022  64.837  1.00  0.00    -0.399 C  
HETATM    2  C   UNL     1     -10.693  14.945  65.885  1.00  0.00    -0.323 C  
ENDROOT
BRANCH   2   3
HETATM    3  N   UNL     1     -11.381  13.681  65.593  1.00  0.00    -0.298 NA 
HETATM    4  C   UNL     1     -11.542  13.443  64.155  1.00  0.00    -0.398 C  
HETATM    5  C   UNL     1     -11.762  11.947  64.076  1.00  0.00    -0.469 C  
HETATM    6  C   UNL     1     -10.784  11.400  65.097  1.00  0.00    -0.332 C  
HETATM    7  C   UNL     1     -10.619  12.524  66.130  1.00  0.00    -0.253 C  
BRANCH   7   8
HETATM    8  C   UNL     1     -11.158  12.133  67.522  1.00  0.00    -0.275 C  
BRANCH   8   9
HETATM    9  N   UNL     1     -10.535  10.967  68.127  1.00  0.00    -0.180 N  
HETATM   10  C   UNL     1      -9.248  10.963  68.625  1.00  0.00    -0.187 C  
HETATM   11  H   UNL     1     -11.077  10.106  68.186  1.00  0.00     0.000 HD 
HETATM   12  O   UNL     1      -8.486  11.913  68.562  1.00  0.00    -0.159 OA 
BRANCH  10  13
HETATM   13  C   UNL     1      -8.816   9.665  69.214  1.00  0.00    -0.164 A  
HETATM   14  C   UNL     1      -9.460   8.519  68.707  1.00  0.00    -0.143 A  
HETATM   15  C   UNL     1      -9.148   7.240  69.179  1.00  0.00    -0.137 A  
HETATM   16  C   UNL     1      -7.792   9.507  70.153  1.00  0.00    -0.160 A  
HETATM   17  C   UNL     1      -8.179   7.065  70.169  1.00  0.00    -0.133 A  
HETATM   18  N   UNL     1      -7.726   5.803  70.582  1.00  0.00    -0.091 NA 
HETATM   19  C   UNL     1      -7.468   8.203  70.583  1.00  0.00    -0.064 A  
HETATM   20  H2  UNL     1      -7.405   5.307  69.750  1.00  0.00     0.000 HD 
HETATM   21  H1  UNL     1      -7.018   5.675  71.305  1.00  0.00     0.000 HD 
BRANCH  15  22
HETATM   22  S   UNL     1     -10.155   5.885  68.597  1.00  0.00    -0.185 S  
HETATM   23  O   UNL     1      -9.311   4.705  68.566  1.00  0.00    -0.122 OA 
HETATM   24  O   UNL     1     -11.366   5.895  69.402  1.00  0.00    -0.346 OA 
BRANCH  22  25
HETATM   25  C   UNL     1     -10.590   6.321  66.929  1.00  0.00    -0.305 C  
HETATM   26  C   UNL     1     -10.762   5.074  66.075  1.00  0.00    -0.241 C  
ENDBRANCH  22  25
ENDBRANCH  15  22
BRANCH  16  27
HETATM   27  O   UNL     1      -6.967  10.458  70.686  1.00  0.00    -0.324 OA 
HETATM   28  C   UNL     1      -5.623  10.517  70.222  1.00  0.00    -0.071 C  
ENDBRANCH  16  27
ENDBRANCH  10  13
ENDBRANCH   8   9
ENDBRANCH   7   8
ENDBRANCH   2   3
TORSDOF 7
ENDMDL
MODEL      182
REMARK 921   NORMALIZED FREE ENERGY PREDICTED BY IDOCK:   -3.95 KCAL/MOL
REMARK 922        TOTAL FREE ENERGY PREDICTED BY IDOCK:   -6.59 KCAL/MOL
REMARK 923 INTER-LIGAND FREE ENERGY PREDICTED BY IDOCK:   -5.52 KCAL/MOL
REMARK 924 INTRA-LIGAND FREE ENERGY PREDICTED BY IDOCK:   -1.07 KCAL/MOL
REMARK 927      BINDING AFFINITY PREDICTED BY RF-SCORE:    0.00 PKD
ROOT
HETATM    1  C   UNL     1      -8.776  10.553  64.253  1.00  0.00    -0.184 C  
HETATM    2  C   UNL     1      -9.996  10.584  65.166  1.00  0.00    -0.309 C  
ENDROOT
BRANCH   2   3
HETATM    3  N   UNL     1      -9.678  10.999  66.540  1.00  0.00    -0.193 NA 
HETATM    4  C   UNL     1      -8.323  11.547  66.666  1.00  0.00    -0.167 C  
HETATM    5  C   UNL     1      -8.398  12.356  67.943  1.00  0.00    -0.165 C  
HETATM    6  C   UNL     1      -9.761  13.014  67.857  1.00  0.00    -0.218 C  
HETATM    7  C   UNL     1     -10.609  12.059  67.004  1.00  0.00    -0.227 C  
BRANCH   7   8
HETATM    8  C   UNL     1     -11.774  11.433  67.797  1.00  0.00    -0.203 C  
BRANCH   8   9
HETATM    9  N   UNL     1     -11.530  10.094  68.311  1.00  0.00    -0.532 N  
HETATM   10  C   UNL     1     -10.976   9.843  69.550  1.00  0.00    -0.242 C  
HETATM   11  H   UNL     1     -11.781   9.299  67.725  1.00  0.00     0.000 HD 
HETATM   12  O   UNL     1     -10.586  10.710  70.314  1.00  0.00    -0.147 OA 
BRANCH  10  13
HETATM   13  C   UNL     1     -10.828   8.399  69.881  1.00  0.00    -0.207 A  
HETATM   14  C   UNL     1     -10.369   7.575  68.834  1.00  0.00    -0.220 A  
HETATM   15  C   UNL     1     -10.191   6.200  69.015  1.00  0.00    -0.191 A  
HETATM   16  C   UNL     1     -11.036   7.836  71.144  1.00  0.00    -0.239 A  
HETATM   17  C   UNL     1     -10.463   5.605  70.248  1.00  0.00    -0.293 A  
HETATM   18  N   UNL     1     -10.173   4.261  70.529  1.00  0.00    -0.047 NA 
HETATM   19  C   UNL     1     -10.811   6.454  71.311  1.00  0.00    -0.306 A  
HETATM   20  H2  UNL     1      -9.183   4.114  70.331  1.00  0.00     0.000 HD 
HETATM   21  H1  UNL     1     -10.372   3.826  71.431  1.00  0.00     0.000 HD 
BRANCH  15  22
HETATM   22  S   UNL     1      -9.783   5.232  67.571  1.00  0.00    -0.155 S  
HETATM   23  O   UNL     1      -9.670   3.849  67.998  1.00  0.00    -0.151 OA 
HETATM   24  O   UNL     1     -10.743   5.601  66.541  1.00  0.00    -0.288 OA 
BRANCH  22  25
HETATM   25  C   UNL     1      -8.178   5.810  67.070  1.00  0.00    -0.101 C  
HETATM   26  C   UNL     1      -7.286   6.035  68.282  1.00  0.00    -0.084 C  
ENDBRANCH  22  25
ENDBRANCH  15  22
BRANCH  16  27
HETATM   27  O   UNL     1     -11.366   8.461  72.315  1.00  0.00    -0.336 OA 
HETATM   28  C   UNL     1     -12.728   8.814  72.526  1.00  0.00    -0.311 C  
ENDBRANCH  16  27
ENDBRANCH  10  13
ENDBRANCH   8   9
ENDBRANCH   7   8
ENDBRANCH   2   3
TORSDOF 7
ENDMDL
MODEL      183
REMARK 921   NORMALIZED FREE ENERGY PREDICTED BY IDOCK:   -3.93 KCAL/MOL
REMARK 922        TOTAL FREE ENERGY PREDICTED BY IDOCK:   -6.56 KCAL/MOL
REMARK 923 INTER-LIGAND FREE ENERGY PREDICTED BY IDOCK:   -5.58 KCAL/MOL
REMARK 924 INTRA-LIGAND FREE ENERGY PREDICTED BY IDOCK:   -0.99 KCAL/MOL
REMARK 927      BINDING AFFINITY PREDICTED BY RF-SCORE:    0.00 PKD
ROOT
HETATM    1  C   UNL     1      -8.387  14.253  68.223  1.00  0.00    -0.165 C  
HETATM    2  C   UNL     1      -9.505  15.283  68.108  1.00  0.00    -0.203 C  
ENDROOT
BRANCH   2   3
HETATM    3  N   UNL     1     -10.456  14.982  67.029  1.00  0.00    -0.273 NA 
HETATM    4  C   UNL     1     -10.203  15.766  65.816  1.00  0.00    -0.370 C  
HETATM    5  C   UNL     1     -10.896  14.962  64.736  1.00  0.00    -0.382 C  
HETATM    6  C   UNL     1     -10.574  13.530  65.111  1.00  0.00    -0.364 C  
HETATM    7  C   UNL     1     -10.377  13.553  66.634  1.00  0.00    -0.271 C  
BRANCH   7   8
HETATM    8  C   UNL     1     -11.449  12.734  67.382  1.00  0.00    -0.340 C  
BRANCH   8   9
HETATM    9  N   UNL     1     -10.979  11.499  67.989  1.00  0.00    -0.215 N  
HETATM   10  C   UNL     1     -11.520  10.960  69.138  1.00  0.00    -0.303 C  
HETATM   11  H   UNL     1     -10.208  11.004  67.541  1.00  0.00     0.000 HD 
HETATM   12  O   UNL     1     -12.404  11.488  69.791  1.00  0.00    -0.240 OA 
BRANCH  10  13
HETATM   13  C   UNL     1     -10.896   9.681  69.577  1.00  0.00    -0.253 A  
HETATM   14  C   UNL     1      -9.869   9.187  68.748  1.00  0.00    -0.175 A  
HETATM   15  C   UNL     1      -9.205   7.992  69.047  1.00  0.00    -0.148 A  
HETATM   16  C   UNL     1     -11.201   8.999  70.759  1.00  0.00    -0.275 A  
HETATM   17  C   UNL     1      -9.544   7.257  70.185  1.00  0.00    -0.168 A  
HETATM   18  N   UNL     1      -8.823   6.130  70.609  1.00  0.00    -0.142 NA 
HETATM   19  C   UNL     1     -10.489   7.818  71.058  1.00  0.00    -0.216 A  
HETATM   20  H2  UNL     1      -7.847   6.410  70.707  1.00  0.00     0.000 HD 
HETATM   21  H1  UNL     1      -9.071   5.592  71.440  1.00  0.00     0.000 HD 
BRANCH  15  22
HETATM   22  S   UNL     1      -8.052   7.372  67.833  1.00  0.00    -0.120 S  
HETATM   23  O   UNL     1      -6.743   7.341  68.459  1.00  0.00    -0.053 OA 
HETATM   24  O   UNL     1      -8.634   6.151  67.297  1.00  0.00    -0.105 OA 
BRANCH  22  25
HETATM   25  C   UNL     1      -8.042   8.596  66.543  1.00  0.00    -0.103 C  
HETATM   26  C   UNL     1      -8.149   7.937  65.176  1.00  0.00    -0.144 C  
ENDBRANCH  22  25
ENDBRANCH  15  22
BRANCH  16  27
HETATM   27  O   UNL     1     -12.069   9.356  71.753  1.00  0.00    -0.354 OA 
HETATM   28  C   UNL     1     -12.452   8.364  72.698  1.00  0.00    -0.194 C  
ENDBRANCH  16  27
ENDBRANCH  10  13
ENDBRANCH   8   9
ENDBRANCH   7   8
ENDBRANCH   2   3
TORSDOF 7
ENDMDL
MODEL      184
REMARK 921   NORMALIZED FREE ENERGY PREDICTED BY IDOCK:   -3.92 KCAL/MOL
REMARK 922        TOTAL FREE ENERGY PREDICTED BY IDOCK:   -6.55 KCAL/MOL
REMARK 923 INTER-LIGAND FREE ENERGY PREDICTED BY IDOCK:   -5.18 KCAL/MOL
REMARK 924 INTRA-LIGAND FREE ENERGY PREDICTED BY IDOCK:   -1.37 KCAL/MOL
REMARK 927      BINDING AFFINITY PREDICTED BY RF-SCORE:    0.00 PKD
ROOT
HETATM    1  C   UNL     1     -10.843  12.660  65.135  1.00  0.00    -0.321 C  
HETATM    2  C   UNL     1     -10.926  14.066  65.719  1.00  0.00    -0.294 C  
ENDROOT
BRANCH   2   3
HETATM    3  N   UNL     1     -10.156  14.220  66.961  1.00  0.00    -0.257 NA 
HETATM    4  C   UNL     1      -9.090  15.221  66.846  1.00  0.00    -0.240 C  
HETATM    5  C   UNL     1      -8.806  15.586  68.288  1.00  0.00    -0.179 C  
HETATM    6  C   UNL     1     -10.186  15.632  68.912  1.00  0.00    -0.214 C  
HETATM    7  C   UNL     1     -11.031  14.659  68.077  1.00  0.00    -0.267 C  
BRANCH   7   8
HETATM    8  C   UNL     1     -11.506  13.439  68.892  1.00  0.00    -0.304 C  
BRANCH   8   9
HETATM    9  N   UNL     1     -10.523  12.379  69.058  1.00  0.00    -0.422 N  
HETATM   10  C   UNL     1     -10.755  11.064  68.714  1.00  0.00    -0.203 C  
HETATM   11  H   UNL     1      -9.614  12.622  69.451  1.00  0.00     0.000 HD 
HETATM   12  O   UNL     1     -11.818  10.644  68.288  1.00  0.00    -0.466 OA 
BRANCH  10  13
HETATM   13  C   UNL     1      -9.605  10.148  68.955  1.00  0.00    -0.186 A  
HETATM   14  C   UNL     1      -9.927   8.900  69.523  1.00  0.00    -0.191 A  
HETATM   15  C   UNL     1      -8.938   7.951  69.803  1.00  0.00    -0.146 A  
HETATM   16  C   UNL     1      -8.279  10.408  68.596  1.00  0.00    -0.121 A  
HETATM   17  C   UNL     1      -7.597   8.219  69.519  1.00  0.00    -0.095 A  
HETATM   18  N   UNL     1      -6.582   7.258  69.648  1.00  0.00    -0.039 NA 
HETATM   19  C   UNL     1      -7.306   9.419  68.852  1.00  0.00    -0.073 A  
HETATM   20  H2  UNL     1      -6.856   6.448  69.092  1.00  0.00     0.000 HD 
HETATM   21  H1  UNL     1      -5.602   7.454  69.441  1.00  0.00     0.000 HD 
BRANCH  15  22
HETATM   22  S   UNL     1      -9.439   6.484  70.688  1.00  0.00    -0.165 S  
HETATM   23  O   UNL     1     -10.882   6.382  70.570  1.00  0.00    -0.241 OA 
HETATM   24  O   UNL     1      -8.590   5.403  70.212  1.00  0.00    -0.119 OA 
BRANCH  22  25
HETATM   25  C   UNL     1      -9.026   6.810  72.387  1.00  0.00    -0.134 C  
HETATM   26  C   UNL     1      -9.357   8.249  72.754  1.00  0.00    -0.338 C  
ENDBRANCH  22  25
ENDBRANCH  15  22
BRANCH  16  27
HETATM   27  O   UNL     1      -7.768  11.491  67.937  1.00  0.00    -0.109 OA 
HETATM   28  C   UNL     1      -6.434  11.890  68.234  1.00  0.00    -0.052 C  
ENDBRANCH  16  27
ENDBRANCH  10  13
ENDBRANCH   8   9
ENDBRANCH   7   8
ENDBRANCH   2   3
TORSDOF 7
ENDMDL
MODEL      185
REMARK 921   NORMALIZED FREE ENERGY PREDICTED BY IDOCK:   -3.89 KCAL/MOL
REMARK 922        TOTAL FREE ENERGY PREDICTED BY IDOCK:   -6.50 KCAL/MOL
REMARK 923 INTER-LIGAND FREE ENERGY PREDICTED BY IDOCK:   -5.16 KCAL/MOL
REMARK 924 INTRA-LIGAND FREE ENERGY PREDICTED BY IDOCK:   -1.34 KCAL/MOL
REMARK 927      BINDING AFFINITY PREDICTED BY RF-SCORE:    0.00 PKD
ROOT
HETATM    1  C   UNL     1      -9.610  10.793  63.798  1.00  0.00    -0.339 C  
HETATM    2  C   UNL     1      -8.242  10.160  64.023  1.00  0.00    -0.164 C  
ENDROOT
BRANCH   2   3
HETATM    3  N   UNL     1      -8.143   9.438  65.299  1.00  0.00    -0.119 NA 
HETATM    4  C   UNL     1      -7.537   8.111  65.153  1.00  0.00    -0.097 C  
HETATM    5  C   UNL     1      -7.064   7.794  66.556  1.00  0.00    -0.078 C  
HETATM    6  C   UNL     1      -6.513   9.119  67.043  1.00  0.00    -0.064 C  
HETATM    7  C   UNL     1      -7.300  10.185  66.267  1.00  0.00    -0.112 C  
BRANCH   7   8
HETATM    8  C   UNL     1      -8.186  11.052  67.186  1.00  0.00    -0.133 C  
BRANCH   8   9
HETATM    9  N   UNL     1      -8.789  10.354  68.310  1.00  0.00    -0.131 N  
HETATM   10  C   UNL     1     -10.106   9.945  68.336  1.00  0.00    -0.167 C  
HETATM   11  H   UNL     1      -8.206  10.155  69.123  1.00  0.00     0.000 HD 
HETATM   12  O   UNL     1     -10.911  10.173  67.449  1.00  0.00    -0.292 OA 
BRANCH  10  13
HETATM   13  C   UNL     1     -10.510   9.234  69.581  1.00  0.00    -0.234 A  
HETATM   14  C   UNL     1      -9.814   8.040  69.856  1.00  0.00    -0.186 A  
HETATM   15  C   UNL     1     -10.101   7.276  70.992  1.00  0.00    -0.191 A  
HETATM   16  C   UNL     1     -11.453   9.697  70.504  1.00  0.00    -0.285 A  
HETATM   17  C   UNL     1     -11.090   7.683  71.890  1.00  0.00    -0.249 A  
HETATM   18  N   UNL     1     -11.326   7.035  73.112  1.00  0.00    -0.546 NA 
HETATM   19  C   UNL     1     -11.696   8.929  71.662  1.00  0.00    -0.411 A  
HETATM   20  H2  UNL     1     -10.442   7.012  73.621  1.00  0.00     0.000 HD 
HETATM   21  H1  UNL     1     -12.049   7.332  73.769  1.00  0.00     0.000 HD 
BRANCH  15  22
HETATM   22  S   UNL     1      -9.286   5.695  71.141  1.00  0.00    -0.155 S  
HETATM   23  O   UNL     1     -10.223   4.786  71.776  1.00  0.00    -0.195 OA 
HETATM   24  O   UNL     1      -8.745   5.384  69.826  1.00  0.00    -0.104 OA 
BRANCH  22  25
HETATM   25  C   UNL     1      -7.926   5.982  72.249  1.00  0.00    -0.102 C  
HETATM   26  C   UNL     1      -8.242   5.445  73.638  1.00  0.00    -0.113 C  
ENDBRANCH  22  25
ENDBRANCH  15  22
BRANCH  16  27
HETATM   27  O   UNL     1     -12.153  10.872  70.495  1.00  0.00    -0.309 OA 
HETATM   28  C   UNL     1     -13.093  11.100  71.539  1.00  0.00    -0.385 C  
ENDBRANCH  16  27
ENDBRANCH  10  13
ENDBRANCH   8   9
ENDBRANCH   7   8
ENDBRANCH   2   3
TORSDOF 7
ENDMDL
MODEL      186
REMARK 921   NORMALIZED FREE ENERGY PREDICTED BY IDOCK:   -3.88 KCAL/MOL
REMARK 922        TOTAL FREE ENERGY PREDICTED BY IDOCK:   -6.50 KCAL/MOL
REMARK 923 INTER-LIGAND FREE ENERGY PREDICTED BY IDOCK:   -5.27 KCAL/MOL
REMARK 924 INTRA-LIGAND FREE ENERGY PREDICTED BY IDOCK:   -1.22 KCAL/MOL
REMARK 927      BINDING AFFINITY PREDICTED BY RF-SCORE:    0.00 PKD
ROOT
HETATM    1  C   UNL     1     -10.845  12.016  63.407  1.00  0.00    -0.471 C  
HETATM    2  C   UNL     1     -11.436  13.326  63.915  1.00  0.00    -0.362 C  
ENDROOT
BRANCH   2   3
HETATM    3  N   UNL     1     -10.904  13.728  65.224  1.00  0.00    -0.309 NA 
HETATM    4  C   UNL     1     -10.332  15.078  65.212  1.00  0.00    -0.395 C  
HETATM    5  C   UNL     1     -10.345  15.470  66.675  1.00  0.00    -0.287 C  
HETATM    6  C   UNL     1     -11.673  14.930  67.166  1.00  0.00    -0.292 C  
HETATM    7  C   UNL     1     -11.976  13.732  66.254  1.00  0.00    -0.429 C  
BRANCH   7   8
HETATM    8  C   UNL     1     -11.982  12.392  67.019  1.00  0.00    -0.186 C  
BRANCH   8   9
HETATM    9  N   UNL     1     -10.802  12.131  67.828  1.00  0.00    -0.216 N  
HETATM   10  C   UNL     1      -9.811  11.241  67.467  1.00  0.00    -0.178 C  
HETATM   11  H   UNL     1     -10.701  12.632  68.710  1.00  0.00     0.000 HD 
HETATM   12  O   UNL     1      -9.847  10.546  66.466  1.00  0.00    -0.191 OA 
BRANCH  10  13
HETATM   13  C   UNL     1      -8.685  11.140  68.437  1.00  0.00    -0.157 A  
HETATM   14  C   UNL     1      -8.676   9.985  69.243  1.00  0.00    -0.182 A  
HETATM   15  C   UNL     1      -7.675   9.771  70.196  1.00  0.00    -0.177 A  
HETATM   16  C   UNL     1      -7.629  12.050  68.544  1.00  0.00    -0.126 A  
HETATM   17  C   UNL     1      -6.650  10.703  70.371  1.00  0.00    -0.070 A  
HETATM   18  N   UNL     1      -5.547  10.479  71.209  1.00  0.00    -0.271 NA 
HETATM   19  C   UNL     1      -6.611  11.792  69.485  1.00  0.00    -0.102 A  
HETATM   20  H2  UNL     1      -5.115   9.602  70.918  1.00  0.00     0.000 HD 
HETATM   21  H1  UNL     1      -4.798  11.161  71.337  1.00  0.00     0.000 HD 
BRANCH  15  22
HETATM   22  S   UNL     1      -7.866   8.368  71.283  1.00  0.00    -0.123 S  
HETATM   23  O   UNL     1      -7.483   8.799  72.615  1.00  0.00    -0.345 OA 
HETATM   24  O   UNL     1      -9.200   7.838  71.042  1.00  0.00    -0.149 OA 
BRANCH  22  25
HETATM   25  C   UNL     1      -6.681   7.175  70.705  1.00  0.00    -0.052 C  
HETATM   26  C   UNL     1      -7.282   6.309  69.607  1.00  0.00    -0.078 C  
ENDBRANCH  22  25
ENDBRANCH  15  22
BRANCH  16  27
HETATM   27  O   UNL     1      -7.380  13.164  67.791  1.00  0.00    -0.112 OA 
HETATM   28  C   UNL     1      -6.024  13.503  67.522  1.00  0.00    -0.011 C  
ENDBRANCH  16  27
ENDBRANCH  10  13
ENDBRANCH   8   9
ENDBRANCH   7   8
ENDBRANCH   2   3
TORSDOF 7
ENDMDL
MODEL      187
REMARK 921   NORMALIZED FREE ENERGY PREDICTED BY IDOCK:   -3.88 KCAL/MOL
REMARK 922        TOTAL FREE ENERGY PREDICTED BY IDOCK:   -6.50 KCAL/MOL
REMARK 923 INTER-LIGAND FREE ENERGY PREDICTED BY IDOCK:   -5.83 KCAL/MOL
REMARK 924 INTRA-LIGAND FREE ENERGY PREDICTED BY IDOCK:   -0.66 KCAL/MOL
REMARK 927      BINDING AFFINITY PREDICTED BY RF-SCORE:    0.00 PKD
ROOT
HETATM    1  C   UNL     1     -10.681  16.062  65.307  1.00  0.00    -0.417 C  
HETATM    2  C   UNL     1      -9.949  14.764  64.990  1.00  0.00    -0.169 C  
ENDROOT
BRANCH   2   3
HETATM    3  N   UNL     1     -10.809  13.577  65.092  1.00  0.00    -0.314 NA 
HETATM    4  C   UNL     1     -12.237  13.911  65.092  1.00  0.00    -0.427 C  
HETATM    5  C   UNL     1     -12.893  12.611  64.678  1.00  0.00    -0.361 C  
HETATM    6  C   UNL     1     -11.969  12.084  63.599  1.00  0.00    -0.612 C  
HETATM    7  C   UNL     1     -10.588  12.661  63.943  1.00  0.00    -0.428 C  
BRANCH   7   8
HETATM    8  C   UNL     1      -9.568  11.568  64.324  1.00  0.00    -0.152 C  
BRANCH   8   9
HETATM    9  N   UNL     1      -9.608  11.134  65.711  1.00  0.00    -0.212 N  
HETATM   10  C   UNL     1      -8.579  10.451  66.327  1.00  0.00    -0.142 C  
HETATM   11  H   UNL     1     -10.442  11.345  66.259  1.00  0.00     0.000 HD 
HETATM   12  O   UNL     1      -7.559  10.095  65.761  1.00  0.00    -0.121 OA 
BRANCH  10  13
HETATM   13  C   UNL     1      -8.825  10.116  67.757  1.00  0.00    -0.125 A  
HETATM   14  C   UNL     1     -10.090  10.481  68.261  1.00  0.00    -0.180 A  
HETATM   15  C   UNL     1     -10.444  10.226  69.589  1.00  0.00    -0.253 A  
HETATM   16  C   UNL     1      -7.941   9.419  68.585  1.00  0.00    -0.092 A  
HETATM   17  C   UNL     1      -9.548   9.595  70.455  1.00  0.00    -0.234 A  
HETATM   18  N   UNL     1      -9.896   9.190  71.753  1.00  0.00    -0.257 NA 
HETATM   19  C   UNL     1      -8.338   9.138  69.909  1.00  0.00    -0.146 A  
HETATM   20  H2  UNL     1     -10.718   8.591  71.676  1.00  0.00     0.000 HD 
HETATM   21  H1  UNL     1      -9.241   8.729  72.385  1.00  0.00     0.000 HD 
BRANCH  15  22
HETATM   22  S   UNL     1     -11.997  10.894  70.164  1.00  0.00    -0.382 S  
HETATM   23  O   UNL     1     -12.959  10.734  69.089  1.00  0.00     0.046 OA 
HETATM   24  O   UNL     1     -12.249  10.293  71.465  1.00  0.00    -0.374 OA 
BRANCH  22  25
HETATM   25  C   UNL     1     -11.689  12.629  70.402  1.00  0.00    -0.011 C  
HETATM   26  C   UNL     1     -11.445  13.319  69.068  1.00  0.00    -0.350 C  
ENDBRANCH  22  25
ENDBRANCH  15  22
BRANCH  16  27
HETATM   27  O   UNL     1      -6.725   8.876  68.273  1.00  0.00    -0.063 OA 
HETATM   28  C   UNL     1      -6.665   7.481  67.993  1.00  0.00    -0.059 C  
ENDBRANCH  16  27
ENDBRANCH  10  13
ENDBRANCH   8   9
ENDBRANCH   7   8
ENDBRANCH   2   3
TORSDOF 7
ENDMDL
MODEL      188
REMARK 921   NORMALIZED FREE ENERGY PREDICTED BY IDOCK:   -3.86 KCAL/MOL
REMARK 922        TOTAL FREE ENERGY PREDICTED BY IDOCK:   -6.46 KCAL/MOL
REMARK 923 INTER-LIGAND FREE ENERGY PREDICTED BY IDOCK:   -5.96 KCAL/MOL
REMARK 924 INTRA-LIGAND FREE ENERGY PREDICTED BY IDOCK:   -0.51 KCAL/MOL
REMARK 927      BINDING AFFINITY PREDICTED BY RF-SCORE:    0.00 PKD
ROOT
HETATM    1  C   UNL     1      -7.038   8.753  71.439  1.00  0.00    -0.099 C  
HETATM    2  C   UNL     1      -8.062   8.587  72.555  1.00  0.00    -0.056 C  
ENDROOT
BRANCH   2   3
HETATM    3  N   UNL     1      -9.425   8.354  72.057  1.00  0.00    -0.241 NA 
HETATM    4  C   UNL     1     -10.381   8.074  73.133  1.00  0.00    -0.199 C  
HETATM    5  C   UNL     1     -11.718   8.389  72.495  1.00  0.00    -0.429 C  
HETATM    6  C   UNL     1     -11.429   9.638  71.686  1.00  0.00    -0.376 C  
HETATM    7  C   UNL     1      -9.937   9.548  71.335  1.00  0.00     0.020 C  
BRANCH   7   8
HETATM    8  C   UNL     1      -9.694   9.397  69.819  1.00  0.00    -0.199 C  
BRANCH   8   9
HETATM    9  N   UNL     1      -9.624  10.643  69.073  1.00  0.00    -0.205 N  
HETATM   10  C   UNL     1     -10.732  11.297  68.576  1.00  0.00    -0.201 C  
HETATM   11  H   UNL     1      -8.706  11.055  68.906  1.00  0.00     0.000 HD 
HETATM   12  O   UNL     1     -11.873  10.875  68.664  1.00  0.00    -0.417 OA 
BRANCH  10  13
HETATM   13  C   UNL     1     -10.432  12.565  67.855  1.00  0.00    -0.226 A  
HETATM   14  C   UNL     1      -9.288  13.262  68.293  1.00  0.00    -0.205 A  
HETATM   15  C   UNL     1      -8.900  14.468  67.701  1.00  0.00    -0.187 A  
HETATM   16  C   UNL     1     -11.145  13.056  66.757  1.00  0.00    -0.286 A  
HETATM   17  C   UNL     1      -9.639  15.013  66.649  1.00  0.00    -0.263 A  
HETATM   18  N   UNL     1      -9.223  16.142  65.927  1.00  0.00    -0.411 NA 
HETATM   19  C   UNL     1     -10.710  14.253  66.151  1.00  0.00    -0.295 A  
HETATM   20  H2  UNL     1      -8.286  15.950  65.573  1.00  0.00     0.000 HD 
HETATM   21  H1  UNL     1      -9.764  16.541  65.159  1.00  0.00     0.000 HD 
BRANCH  15  22
HETATM   22  S   UNL     1      -7.544  15.350  68.457  1.00  0.00    -0.130 S  
HETATM   23  O   UNL     1      -6.890  16.113  67.409  1.00  0.00    -0.148 OA 
HETATM   24  O   UNL     1      -8.092  16.030  69.621  1.00  0.00    -0.122 OA 
BRANCH  22  25
HETATM   25  C   UNL     1      -6.431  14.084  69.023  1.00  0.00    -0.101 C  
HETATM   26  C   UNL     1      -5.433  13.721  67.934  1.00  0.00    -0.097 C  
ENDBRANCH  22  25
ENDBRANCH  15  22
BRANCH  16  27
HETATM   27  O   UNL     1     -12.203  12.489  66.102  1.00  0.00    -0.609 OA 
HETATM   28  C   UNL     1     -12.309  12.692  64.697  1.00  0.00    -0.476 C  
ENDBRANCH  16  27
ENDBRANCH  10  13
ENDBRANCH   8   9
ENDBRANCH   7   8
ENDBRANCH   2   3
TORSDOF 7
ENDMDL
MODEL      189
REMARK 921   NORMALIZED FREE ENERGY PREDICTED BY IDOCK:   -3.85 KCAL/MOL
REMARK 922        TOTAL FREE ENERGY PREDICTED BY IDOCK:   -6.45 KCAL/MOL
REMARK 923 INTER-LIGAND FREE ENERGY PREDICTED BY IDOCK:   -5.69 KCAL/MOL
REMARK 924 INTRA-LIGAND FREE ENERGY PREDICTED BY IDOCK:   -0.75 KCAL/MOL
REMARK 927      BINDING AFFINITY PREDICTED BY RF-SCORE:    0.00 PKD
ROOT
HETATM    1  C   UNL     1     -10.527  16.553  69.348  1.00  0.00    -0.320 C  
HETATM    2  C   UNL     1      -9.526  15.405  69.393  1.00  0.00    -0.267 C  
ENDROOT
BRANCH   2   3
HETATM    3  N   UNL     1      -8.260  15.718  68.714  1.00  0.00    -0.177 NA 
HETATM    4  C   UNL     1      -7.525  16.809  69.363  1.00  0.00    -0.032 C  
HETATM    5  C   UNL     1      -6.108  16.609  68.869  1.00  0.00    -0.154 C  
HETATM    6  C   UNL     1      -5.939  15.103  68.903  1.00  0.00    -0.093 C  
HETATM    7  C   UNL     1      -7.355  14.541  68.711  1.00  0.00    -0.129 C  
BRANCH   7   8
HETATM    8  C   UNL     1      -7.507  13.758  67.390  1.00  0.00    -0.125 C  
BRANCH   8   9
HETATM    9  N   UNL     1      -8.070  12.423  67.517  1.00  0.00    -0.162 N  
HETATM   10  C   UNL     1      -9.399  12.132  67.288  1.00  0.00    -0.183 C  
HETATM   11  H   UNL     1      -7.450  11.662  67.792  1.00  0.00     0.000 HD 
HETATM   12  O   UNL     1     -10.244  12.965  67.009  1.00  0.00    -0.239 OA 
BRANCH  10  13
HETATM   13  C   UNL     1      -9.758  10.697  67.462  1.00  0.00    -0.189 A  
HETATM   14  C   UNL     1     -10.271  10.345  68.726  1.00  0.00    -0.201 A  
HETATM   15  C   UNL     1     -10.642   9.028  69.019  1.00  0.00    -0.190 A  
HETATM   16  C   UNL     1      -9.692   9.722  66.461  1.00  0.00    -0.209 A  
HETATM   17  C   UNL     1     -10.516   8.024  68.057  1.00  0.00    -0.184 A  
HETATM   18  N   UNL     1     -10.999   6.720  68.246  1.00  0.00    -0.460 NA 
HETATM   19  C   UNL     1     -10.110   8.411  66.770  1.00  0.00    -0.373 A  
HETATM   20  H2  UNL     1     -11.989   6.792  68.484  1.00  0.00     0.000 HD 
HETATM   21  H1  UNL     1     -10.908   5.986  67.543  1.00  0.00     0.000 HD 
BRANCH  15  22
HETATM   22  S   UNL     1     -11.105   8.666  70.705  1.00  0.00    -0.260 S  
HETATM   23  O   UNL     1     -11.219   7.223  70.819  1.00  0.00    -0.259 OA 
HETATM   24  O   UNL     1     -10.174   9.393  71.554  1.00  0.00    -0.308 OA 
BRANCH  22  25
HETATM   25  C   UNL     1     -12.719   9.385  70.903  1.00  0.00    -0.114 C  
HETATM   26  C   UNL     1     -12.609  10.843  71.324  1.00  0.00    -0.526 C  
ENDBRANCH  22  25
ENDBRANCH  15  22
BRANCH  16  27
HETATM   27  O   UNL     1      -9.340   9.867  65.148  1.00  0.00    -0.218 OA 
HETATM   28  C   UNL     1     -10.171  10.667  64.315  1.00  0.00    -0.320 C  
ENDBRANCH  16  27
ENDBRANCH  10  13
ENDBRANCH   8   9
ENDBRANCH   7   8
ENDBRANCH   2   3
TORSDOF 7
ENDMDL
MODEL      190
REMARK 921   NORMALIZED FREE ENERGY PREDICTED BY IDOCK:   -3.85 KCAL/MOL
REMARK 922        TOTAL FREE ENERGY PREDICTED BY IDOCK:   -6.44 KCAL/MOL
REMARK 923 INTER-LIGAND FREE ENERGY PREDICTED BY IDOCK:   -5.29 KCAL/MOL
REMARK 924 INTRA-LIGAND FREE ENERGY PREDICTED BY IDOCK:   -1.15 KCAL/MOL
REMARK 927      BINDING AFFINITY PREDICTED BY RF-SCORE:    0.00 PKD
ROOT
HETATM    1  C   UNL     1      -7.345   5.633  71.126  1.00  0.00    -0.085 C  
HETATM    2  C   UNL     1      -8.610   6.392  70.746  1.00  0.00    -0.135 C  
ENDROOT
BRANCH   2   3
HETATM    3  N   UNL     1      -9.812   5.882  71.420  1.00  0.00    -0.166 NA 
HETATM    4  C   UNL     1      -9.500   5.113  72.629  1.00  0.00    -0.140 C  
HETATM    5  C   UNL     1     -10.800   5.151  73.405  1.00  0.00    -0.359 C  
HETATM    6  C   UNL     1     -11.286   6.571  73.197  1.00  0.00    -0.009 C  
HETATM    7  C   UNL     1     -10.697   6.998  71.844  1.00  0.00    -0.217 C  
BRANCH   7   8
HETATM    8  C   UNL     1     -11.783   7.249  70.778  1.00  0.00    -0.299 C  
BRANCH   8   9
HETATM    9  N   UNL     1     -11.292   7.674  69.476  1.00  0.00    -0.445 N  
HETATM   10  C   UNL     1     -10.889   8.964  69.197  1.00  0.00    -0.070 C  
HETATM   11  H   UNL     1     -11.243   6.982  68.730  1.00  0.00     0.000 HD 
HETATM   12  O   UNL     1     -10.953   9.888  69.991  1.00  0.00    -0.251 OA 
BRANCH  10  13
HETATM   13  C   UNL     1     -10.408   9.176  67.804  1.00  0.00    -0.302 A  
HETATM   14  C   UNL     1      -9.574   8.165  67.286  1.00  0.00    -0.211 A  
HETATM   15  C   UNL     1      -9.052   8.246  65.990  1.00  0.00    -0.176 A  
HETATM   16  C   UNL     1     -10.778  10.240  66.976  1.00  0.00    -0.216 A  
HETATM   17  C   UNL     1      -9.350   9.337  65.172  1.00  0.00    -0.171 A  
HETATM   18  N   UNL     1      -8.971   9.406  63.822  1.00  0.00    -0.400 NA 
HETATM   19  C   UNL     1     -10.270  10.278  65.661  1.00  0.00    -0.301 A  
HETATM   20  H2  UNL     1      -9.332   8.570  63.361  1.00  0.00     0.000 HD 
HETATM   21  H1  UNL     1      -9.189  10.203  63.224  1.00  0.00     0.000 HD 
BRANCH  15  22
HETATM   22  S   UNL     1      -7.864   7.003  65.509  1.00  0.00    -0.122 S  
HETATM   23  O   UNL     1      -8.485   6.191  64.478  1.00  0.00    -0.074 OA 
HETATM   24  O   UNL     1      -6.620   7.705  65.233  1.00  0.00    -0.044 OA 
BRANCH  22  25
HETATM   25  C   UNL     1      -7.631   6.004  66.961  1.00  0.00    -0.096 C  
HETATM   26  C   UNL     1      -7.626   4.525  66.601  1.00  0.00    -0.086 C  
ENDBRANCH  22  25
ENDBRANCH  15  22
BRANCH  16  27
HETATM   27  O   UNL     1     -11.656  11.257  67.231  1.00  0.00    -0.527 OA 
HETATM   28  C   UNL     1     -11.662  12.375  66.350  1.00  0.00    -0.391 C  
ENDBRANCH  16  27
ENDBRANCH  10  13
ENDBRANCH   8   9
ENDBRANCH   7   8
ENDBRANCH   2   3
TORSDOF 7
ENDMDL
MODEL      191
REMARK 921   NORMALIZED FREE ENERGY PREDICTED BY IDOCK:   -3.85 KCAL/MOL
REMARK 922        TOTAL FREE ENERGY PREDICTED BY IDOCK:   -6.44 KCAL/MOL
REMARK 923 INTER-LIGAND FREE ENERGY PREDICTED BY IDOCK:   -5.11 KCAL/MOL
REMARK 924 INTRA-LIGAND FREE ENERGY PREDICTED BY IDOCK:   -1.33 KCAL/MOL
REMARK 927      BINDING AFFINITY PREDICTED BY RF-SCORE:    0.00 PKD
ROOT
HETATM    1  C   UNL     1     -11.935  15.702  70.558  1.00  0.00    -0.417 C  
HETATM    2  C   UNL     1     -10.618  15.472  69.828  1.00  0.00    -0.295 C  
ENDROOT
BRANCH   2   3
HETATM    3  N   UNL     1     -10.753  14.593  68.658  1.00  0.00    -0.242 NA 
HETATM    4  C   UNL     1     -12.138  14.480  68.192  1.00  0.00    -0.197 C  
HETATM    5  C   UNL     1     -11.981  14.010  66.761  1.00  0.00    -0.473 C  
HETATM    6  C   UNL     1     -10.798  14.814  66.260  1.00  0.00    -0.322 C  
HETATM    7  C   UNL     1      -9.960  15.109  67.513  1.00  0.00    -0.225 C  
BRANCH   7   8
HETATM    8  C   UNL     1      -8.577  14.427  67.473  1.00  0.00    -0.191 C  
BRANCH   8   9
HETATM    9  N   UNL     1      -8.600  12.974  67.407  1.00  0.00    -0.189 N  
HETATM   10  C   UNL     1      -7.853  12.161  68.234  1.00  0.00    -0.153 C  
HETATM   11  H   UNL     1      -9.201  12.532  66.712  1.00  0.00     0.000 HD 
HETATM   12  O   UNL     1      -7.060  12.573  69.064  1.00  0.00    -0.099 OA 
BRANCH  10  13
HETATM   13  C   UNL     1      -8.040  10.702  68.004  1.00  0.00    -0.112 A  
HETATM   14  C   UNL     1      -8.530   9.968  69.103  1.00  0.00    -0.156 A  
HETATM   15  C   UNL     1      -8.746   8.588  69.018  1.00  0.00    -0.134 A  
HETATM   16  C   UNL     1      -7.840  10.046  66.785  1.00  0.00    -0.110 A  
HETATM   17  C   UNL     1      -8.484   7.900  67.832  1.00  0.00    -0.126 A  
HETATM   18  N   UNL     1      -8.810   6.548  67.644  1.00  0.00    -0.114 NA 
HETATM   19  C   UNL     1      -8.104   8.662  66.715  1.00  0.00    -0.101 A  
HETATM   20  H2  UNL     1      -9.805   6.444  67.843  1.00  0.00     0.000 HD 
HETATM   21  H1  UNL     1      -8.619   6.046  66.777  1.00  0.00     0.000 HD 
BRANCH  15  22
HETATM   22  S   UNL     1      -9.191   7.736  70.522  1.00  0.00    -0.162 S  
HETATM   23  O   UNL     1      -8.623   6.403  70.446  1.00  0.00    -0.138 OA 
HETATM   24  O   UNL     1      -8.832   8.622  71.620  1.00  0.00    -0.190 OA 
BRANCH  22  25
HETATM   25  C   UNL     1     -10.964   7.607  70.468  1.00  0.00    -0.249 C  
HETATM   26  C   UNL     1     -11.387   6.207  70.048  1.00  0.00    -0.443 C  
ENDBRANCH  22  25
ENDBRANCH  15  22
BRANCH  16  27
HETATM   27  O   UNL     1      -7.485  10.577  65.577  1.00  0.00    -0.148 OA 
HETATM   28  C   UNL     1      -6.143  10.403  65.136  1.00  0.00    -0.124 C  
ENDBRANCH  16  27
ENDBRANCH  10  13
ENDBRANCH   8   9
ENDBRANCH   7   8
ENDBRANCH   2   3
TORSDOF 7
ENDMDL
MODEL      192
REMARK 921   NORMALIZED FREE ENERGY PREDICTED BY IDOCK:   -3.82 KCAL/MOL
REMARK 922        TOTAL FREE ENERGY PREDICTED BY IDOCK:   -6.41 KCAL/MOL
REMARK 923 INTER-LIGAND FREE ENERGY PREDICTED BY IDOCK:   -5.78 KCAL/MOL
REMARK 924 INTRA-LIGAND FREE ENERGY PREDICTED BY IDOCK:   -0.63 KCAL/MOL
REMARK 927      BINDING AFFINITY PREDICTED BY RF-SCORE:    0.00 PKD
ROOT
HETATM    1  C   UNL     1      -7.994   6.323  68.365  1.00  0.00    -0.105 C  
HETATM    2  C   UNL     1      -9.051   7.289  68.886  1.00  0.00    -0.132 C  
ENDROOT
BRANCH   2   3
HETATM    3  N   UNL     1      -8.629   8.695  68.821  1.00  0.00    -0.129 NA 
HETATM    4  C   UNL     1      -8.702   9.369  70.121  1.00  0.00    -0.221 C  
HETATM    5  C   UNL     1      -7.772  10.551  69.948  1.00  0.00    -0.017 C  
HETATM    6  C   UNL     1      -6.613   9.967  69.165  1.00  0.00    -0.053 C  
HETATM    7  C   UNL     1      -7.219   8.805  68.365  1.00  0.00    -0.081 C  
BRANCH   7   8
HETATM    8  C   UNL     1      -7.171   9.046  66.842  1.00  0.00    -0.086 C  
BRANCH   8   9
HETATM    9  N   UNL     1      -7.904  10.211  66.372  1.00  0.00    -0.110 N  
HETATM   10  C   UNL     1      -9.208  10.161  65.924  1.00  0.00    -0.162 C  
HETATM   11  H   UNL     1      -7.428  11.113  66.372  1.00  0.00     0.000 HD 
HETATM   12  O   UNL     1      -9.859   9.135  65.826  1.00  0.00    -0.286 OA 
BRANCH  10  13
HETATM   13  C   UNL     1      -9.769  11.475  65.502  1.00  0.00    -0.259 A  
HETATM   14  C   UNL     1      -9.534  12.550  66.382  1.00  0.00    -0.233 A  
HETATM   15  C   UNL     1     -10.011  13.835  66.104  1.00  0.00    -0.308 A  
HETATM   16  C   UNL     1     -10.427  11.720  64.293  1.00  0.00    -0.325 A  
HETATM   17  C   UNL     1     -10.735  14.087  64.936  1.00  0.00    -0.418 A  
HETATM   18  N   UNL     1     -11.118  15.376  64.537  1.00  0.00    -0.687 NA 
HETATM   19  C   UNL     1     -10.864  13.032  64.018  1.00  0.00    -0.408 A  
HETATM   20  H2  UNL     1     -10.274  15.948  64.502  1.00  0.00     0.000 HD 
HETATM   21  H1  UNL     1     -11.646  15.560  63.684  1.00  0.00     0.000 HD 
BRANCH  15  22
HETATM   22  S   UNL     1      -9.813  15.074  67.374  1.00  0.00    -0.225 S  
HETATM   23  O   UNL     1      -8.771  14.608  68.271  1.00  0.00    -0.160 OA 
HETATM   24  O   UNL     1      -9.669  16.349  66.688  1.00  0.00    -0.235 OA 
BRANCH  22  25
HETATM   25  C   UNL     1     -11.360  15.084  68.251  1.00  0.00    -0.318 C  
HETATM   26  C   UNL     1     -12.094  13.765  68.061  1.00  0.00    -0.315 C  
ENDBRANCH  22  25
ENDBRANCH  15  22
BRANCH  16  27
HETATM   27  O   UNL     1     -10.657  10.859  63.256  1.00  0.00    -0.253 OA 
HETATM   28  C   UNL     1      -9.536  10.366  62.532  1.00  0.00    -0.258 C  
ENDBRANCH  16  27
ENDBRANCH  10  13
ENDBRANCH   8   9
ENDBRANCH   7   8
ENDBRANCH   2   3
TORSDOF 7
ENDMDL
MODEL      193
REMARK 921   NORMALIZED FREE ENERGY PREDICTED BY IDOCK:   -3.81 KCAL/MOL
REMARK 922        TOTAL FREE ENERGY PREDICTED BY IDOCK:   -6.40 KCAL/MOL
REMARK 923 INTER-LIGAND FREE ENERGY PREDICTED BY IDOCK:   -5.11 KCAL/MOL
REMARK 924 INTRA-LIGAND FREE ENERGY PREDICTED BY IDOCK:   -1.29 KCAL/MOL
REMARK 927      BINDING AFFINITY PREDICTED BY RF-SCORE:    0.00 PKD
ROOT
HETATM    1  C   UNL     1     -10.375   4.493  65.626  1.00  0.00    -0.274 C  
HETATM    2  C   UNL     1      -9.117   5.241  66.050  1.00  0.00    -0.152 C  
ENDROOT
BRANCH   2   3
HETATM    3  N   UNL     1      -8.160   5.428  64.950  1.00  0.00    -0.115 NA 
HETATM    4  C   UNL     1      -8.451   4.572  63.795  1.00  0.00    -0.122 C  
HETATM    5  C   UNL     1      -7.732   5.271  62.660  1.00  0.00    -0.071 C  
HETATM    6  C   UNL     1      -7.996   6.738  62.935  1.00  0.00    -0.083 C  
HETATM    7  C   UNL     1      -8.186   6.829  64.456  1.00  0.00    -0.008 C  
BRANCH   7   8
HETATM    8  C   UNL     1      -7.079   7.655  65.143  1.00  0.00    -0.060 C  
BRANCH   8   9
HETATM    9  N   UNL     1      -7.538   8.820  65.882  1.00  0.00    -0.088 N  
HETATM   10  C   UNL     1      -7.885  10.014  65.283  1.00  0.00    -0.138 C  
HETATM   11  H   UNL     1      -7.608   8.752  66.897  1.00  0.00     0.000 HD 
HETATM   12  O   UNL     1      -7.791  10.233  64.087  1.00  0.00    -0.153 OA 
BRANCH  10  13
HETATM   13  C   UNL     1      -8.342  11.071  66.227  1.00  0.00    -0.166 A  
HETATM   14  C   UNL     1      -9.502  11.774  65.842  1.00  0.00    -0.239 A  
HETATM   15  C   UNL     1     -10.032  12.794  66.639  1.00  0.00    -0.245 A  
HETATM   16  C   UNL     1      -7.759  11.352  67.467  1.00  0.00    -0.125 A  
HETATM   17  C   UNL     1      -9.423  13.140  67.847  1.00  0.00    -0.218 A  
HETATM   18  N   UNL     1      -9.985  14.055  68.752  1.00  0.00    -0.348 NA 
HETATM   19  C   UNL     1      -8.337  12.358  68.270  1.00  0.00    -0.169 A  
HETATM   20  H2  UNL     1     -10.928  13.731  68.967  1.00  0.00     0.000 HD 
HETATM   21  H1  UNL     1      -9.540  14.308  69.634  1.00  0.00     0.000 HD 
BRANCH  15  22
HETATM   22  S   UNL     1     -11.391  13.735  65.965  1.00  0.00    -0.321 S  
HETATM   23  O   UNL     1     -12.242  14.119  67.077  1.00  0.00    -0.432 OA 
HETATM   24  O   UNL     1     -10.804  14.754  65.109  1.00  0.00    -0.350 OA 
BRANCH  22  25
HETATM   25  C   UNL     1     -12.278  12.587  64.937  1.00  0.00    -0.470 C  
HETATM   26  C   UNL     1     -11.951  12.817  63.469  1.00  0.00    -0.633 C  
ENDBRANCH  22  25
ENDBRANCH  15  22
BRANCH  16  27
HETATM   27  O   UNL     1      -6.713  10.722  68.082  1.00  0.00    -0.062 OA 
HETATM   28  C   UNL     1      -6.964  10.052  69.312  1.00  0.00    -0.063 C  
ENDBRANCH  16  27
ENDBRANCH  10  13
ENDBRANCH   8   9
ENDBRANCH   7   8
ENDBRANCH   2   3
TORSDOF 7
ENDMDL
MODEL      194
REMARK 921   NORMALIZED FREE ENERGY PREDICTED BY IDOCK:   -3.77 KCAL/MOL
REMARK 922        TOTAL FREE ENERGY PREDICTED BY IDOCK:   -6.33 KCAL/MOL
REMARK 923 INTER-LIGAND FREE ENERGY PREDICTED BY IDOCK:   -5.38 KCAL/MOL
REMARK 924 INTRA-LIGAND FREE ENERGY PREDICTED BY IDOCK:   -0.95 KCAL/MOL
REMARK 927      BINDING AFFINITY PREDICTED BY RF-SCORE:    0.00 PKD
ROOT
HETATM    1  C   UNL     1     -12.437  11.962  63.643  1.00  0.00    -0.583 C  
HETATM    2  C   UNL     1     -12.379  13.004  64.753  1.00  0.00    -0.436 C  
ENDROOT
BRANCH   2   3
HETATM    3  N   UNL     1     -11.018  13.496  65.011  1.00  0.00    -0.318 NA 
HETATM    4  C   UNL     1     -10.936  14.960  65.013  1.00  0.00    -0.420 C  
HETATM    5  C   UNL     1      -9.662  15.231  65.785  1.00  0.00    -0.385 C  
HETATM    6  C   UNL     1      -9.712  14.211  66.905  1.00  0.00    -0.272 C  
HETATM    7  C   UNL     1     -10.533  13.043  66.341  1.00  0.00    -0.276 C  
BRANCH   7   8
HETATM    8  C   UNL     1      -9.702  11.752  66.191  1.00  0.00    -0.229 C  
BRANCH   8   9
HETATM    9  N   UNL     1      -9.362  11.081  67.436  1.00  0.00    -0.155 N  
HETATM   10  C   UNL     1      -8.197  10.366  67.624  1.00  0.00    -0.110 C  
HETATM   11  H   UNL     1     -10.020  11.143  68.212  1.00  0.00     0.000 HD 
HETATM   12  O   UNL     1      -7.363  10.177  66.755  1.00  0.00    -0.099 OA 
BRANCH  10  13
HETATM   13  C   UNL     1      -8.046   9.774  68.982  1.00  0.00    -0.101 A  
HETATM   14  C   UNL     1      -9.060   8.877  69.374  1.00  0.00    -0.145 A  
HETATM   15  C   UNL     1      -9.037   8.256  70.627  1.00  0.00    -0.152 A  
HETATM   16  C   UNL     1      -6.959   9.983  69.836  1.00  0.00    -0.118 A  
HETATM   17  C   UNL     1      -7.997   8.507  71.525  1.00  0.00    -0.133 A  
HETATM   18  N   UNL     1      -7.847   7.811  72.735  1.00  0.00    -0.103 NA 
HETATM   19  C   UNL     1      -6.939   9.314  71.077  1.00  0.00    -0.090 A  
HETATM   20  H2  UNL     1      -7.825   6.816  72.513  1.00  0.00     0.000 HD 
HETATM   21  H1  UNL     1      -7.088   7.995  73.391  1.00  0.00     0.000 HD 
BRANCH  15  22
HETATM   22  S   UNL     1     -10.464   7.287  71.085  1.00  0.00    -0.209 S  
HETATM   23  O   UNL     1     -10.692   7.500  72.503  1.00  0.00    -0.239 OA 
HETATM   24  O   UNL     1     -11.507   7.606  70.122  1.00  0.00    -0.199 OA 
BRANCH  22  25
HETATM   25  C   UNL     1      -9.971   5.597  70.833  1.00  0.00    -0.194 C  
HETATM   26  C   UNL     1      -9.964   4.837  72.152  1.00  0.00    -0.237 C  
ENDBRANCH  22  25
ENDBRANCH  15  22
BRANCH  16  27
HETATM   27  O   UNL     1      -5.823  10.711  69.612  1.00  0.00    -0.042 OA 
HETATM   28  C   UNL     1      -5.325  11.520  70.672  1.00  0.00    -0.133 C  
ENDBRANCH  16  27
ENDBRANCH  10  13
ENDBRANCH   8   9
ENDBRANCH   7   8
ENDBRANCH   2   3
TORSDOF 7
ENDMDL
MODEL      195
REMARK 921   NORMALIZED FREE ENERGY PREDICTED BY IDOCK:   -3.74 KCAL/MOL
REMARK 922        TOTAL FREE ENERGY PREDICTED BY IDOCK:   -6.29 KCAL/MOL
REMARK 923 INTER-LIGAND FREE ENERGY PREDICTED BY IDOCK:   -5.47 KCAL/MOL
REMARK 924 INTRA-LIGAND FREE ENERGY PREDICTED BY IDOCK:   -0.83 KCAL/MOL
REMARK 927      BINDING AFFINITY PREDICTED BY RF-SCORE:    0.00 PKD
ROOT
HETATM    1  C   UNL     1      -6.048   5.622  70.453  1.00  0.00    -0.026 C  
HETATM    2  C   UNL     1      -7.406   6.295  70.292  1.00  0.00    -0.089 C  
ENDROOT
BRANCH   2   3
HETATM    3  N   UNL     1      -8.517   5.480  70.802  1.00  0.00    -0.121 NA 
HETATM    4  C   UNL     1      -8.060   4.321  71.576  1.00  0.00    -0.087 C  
HETATM    5  C   UNL     1      -9.275   3.961  72.406  1.00  0.00    -0.152 C  
HETATM    6  C   UNL     1      -9.823   5.312  72.820  1.00  0.00    -0.183 C  
HETATM    7  C   UNL     1      -9.387   6.275  71.706  1.00  0.00    -0.150 C  
BRANCH   7   8
HETATM    8  C   UNL     1     -10.584   6.851  70.920  1.00  0.00    -0.218 C  
BRANCH   8   9
HETATM    9  N   UNL     1     -10.238   7.636  69.746  1.00  0.00    -0.204 N  
HETATM   10  C   UNL     1     -10.621   7.300  68.464  1.00  0.00    -0.175 C  
HETATM   11  H   UNL     1      -9.683   8.482  69.878  1.00  0.00     0.000 HD 
HETATM   12  O   UNL     1     -11.237   6.288  68.177  1.00  0.00    -0.327 OA 
BRANCH  10  13
HETATM   13  C   UNL     1     -10.170   8.254  67.412  1.00  0.00    -0.326 A  
HETATM   14  C   UNL     1     -10.544   9.598  67.606  1.00  0.00    -0.334 A  
HETATM   15  C   UNL     1     -10.187  10.592  66.689  1.00  0.00    -0.233 A  
HETATM   16  C   UNL     1      -9.363   7.925  66.319  1.00  0.00    -0.164 A  
HETATM   17  C   UNL     1      -9.442  10.274  65.552  1.00  0.00    -0.223 A  
HETATM   18  N   UNL     1      -8.938  11.244  64.672  1.00  0.00    -0.388 NA 
HETATM   19  C   UNL     1      -8.983   8.952  65.430  1.00  0.00    -0.232 A  
HETATM   20  H2  UNL     1      -8.385  11.900  65.225  1.00  0.00     0.000 HD 
HETATM   21  H1  UNL     1      -8.394  11.012  63.841  1.00  0.00     0.000 HD 
BRANCH  15  22
HETATM   22  S   UNL     1     -10.869  12.222  66.943  1.00  0.00    -0.263 S  
HETATM   23  O   UNL     1     -11.505  12.224  68.247  1.00  0.00    -0.267 OA 
HETATM   24  O   UNL     1      -9.802  13.167  66.650  1.00  0.00    -0.247 OA 
BRANCH  22  25
HETATM   25  C   UNL     1     -12.124  12.393  65.694  1.00  0.00    -0.329 C  
HETATM   26  C   UNL     1     -12.382  13.862  65.390  1.00  0.00    -0.494 C  
ENDBRANCH  22  25
ENDBRANCH  15  22
BRANCH  16  27
HETATM   27  O   UNL     1      -8.796   6.721  66.005  1.00  0.00    -0.153 OA 
HETATM   28  C   UNL     1      -7.481   6.720  65.461  1.00  0.00    -0.083 C  
ENDBRANCH  16  27
ENDBRANCH  10  13
ENDBRANCH   8   9
ENDBRANCH   7   8
ENDBRANCH   2   3
TORSDOF 7
ENDMDL
MODEL      196
REMARK 921   NORMALIZED FREE ENERGY PREDICTED BY IDOCK:   -3.74 KCAL/MOL
REMARK 922        TOTAL FREE ENERGY PREDICTED BY IDOCK:   -6.29 KCAL/MOL
REMARK 923 INTER-LIGAND FREE ENERGY PREDICTED BY IDOCK:   -5.38 KCAL/MOL
REMARK 924 INTRA-LIGAND FREE ENERGY PREDICTED BY IDOCK:   -0.91 KCAL/MOL
REMARK 927      BINDING AFFINITY PREDICTED BY RF-SCORE:    0.00 PKD
ROOT
HETATM    1  C   UNL     1     -10.081   4.184  65.227  1.00  0.00    -0.213 C  
HETATM    2  C   UNL     1      -9.025   4.876  66.080  1.00  0.00    -0.129 C  
ENDROOT
BRANCH   2   3
HETATM    3  N   UNL     1      -7.958   5.498  65.284  1.00  0.00    -0.106 NA 
HETATM    4  C   UNL     1      -7.749   4.829  63.996  1.00  0.00    -0.079 C  
HETATM    5  C   UNL     1      -7.044   5.884  63.170  1.00  0.00    -0.050 C  
HETATM    6  C   UNL     1      -7.766   7.161  63.551  1.00  0.00    -0.119 C  
HETATM    7  C   UNL     1      -8.281   6.915  64.977  1.00  0.00    -0.096 C  
BRANCH   7   8
HETATM    8  C   UNL     1      -7.620   7.847  66.014  1.00  0.00    -0.086 C  
BRANCH   8   9
HETATM    9  N   UNL     1      -8.502   8.341  67.060  1.00  0.00    -0.121 N  
HETATM   10  C   UNL     1      -9.625   9.103  66.813  1.00  0.00    -0.195 C  
HETATM   11  H   UNL     1      -8.279   8.111  68.028  1.00  0.00     0.000 HD 
HETATM   12  O   UNL     1      -9.963   9.486  65.705  1.00  0.00    -0.300 OA 
BRANCH  10  13
HETATM   13  C   UNL     1     -10.393   9.489  68.030  1.00  0.00    -0.260 A  
HETATM   14  C   UNL     1     -10.617   8.457  68.963  1.00  0.00    -0.172 A  
HETATM   15  C   UNL     1     -11.328   8.688  70.145  1.00  0.00    -0.078 A  
HETATM   16  C   UNL     1     -10.827  10.783  68.332  1.00  0.00    -0.232 A  
HETATM   17  C   UNL     1     -11.833   9.957  70.434  1.00  0.00    -0.234 A  
HETATM   18  N   UNL     1     -12.431  10.281  71.661  1.00  0.00    -0.405 NA 
HETATM   19  C   UNL     1     -11.506  10.998  69.549  1.00  0.00    -0.370 A  
HETATM   20  H2  UNL     1     -11.766  10.043  72.397  1.00  0.00     0.000 HD 
HETATM   21  H1  UNL     1     -12.801  11.209  71.872  1.00  0.00     0.000 HD 
BRANCH  15  22
HETATM   22  S   UNL     1     -11.707   7.270  71.161  1.00  0.00    -0.316 S  
HETATM   23  O   UNL     1     -13.095   7.390  71.568  1.00  0.00    -0.359 OA 
HETATM   24  O   UNL     1     -11.263   6.099  70.419  1.00  0.00    -0.333 OA 
BRANCH  22  25
HETATM   25  C   UNL     1     -10.673   7.444  72.597  1.00  0.00    -0.288 C  
HETATM   26  C   UNL     1     -10.444   6.094  73.261  1.00  0.00    -0.261 C  
ENDBRANCH  22  25
ENDBRANCH  15  22
BRANCH  16  27
HETATM   27  O   UNL     1     -10.619  11.940  67.634  1.00  0.00    -0.202 OA 
HETATM   28  C   UNL     1     -11.705  12.479  66.889  1.00  0.00    -0.377 C  
ENDBRANCH  16  27
ENDBRANCH  10  13
ENDBRANCH   8   9
ENDBRANCH   7   8
ENDBRANCH   2   3
TORSDOF 7
ENDMDL
MODEL      197
REMARK 921   NORMALIZED FREE ENERGY PREDICTED BY IDOCK:   -3.74 KCAL/MOL
REMARK 922        TOTAL FREE ENERGY PREDICTED BY IDOCK:   -6.29 KCAL/MOL
REMARK 923 INTER-LIGAND FREE ENERGY PREDICTED BY IDOCK:   -5.07 KCAL/MOL
REMARK 924 INTRA-LIGAND FREE ENERGY PREDICTED BY IDOCK:   -1.22 KCAL/MOL
REMARK 927      BINDING AFFINITY PREDICTED BY RF-SCORE:    0.00 PKD
ROOT
HETATM    1  C   UNL     1     -11.946  13.884  67.598  1.00  0.00    -0.403 C  
HETATM    2  C   UNL     1     -11.516  15.334  67.784  1.00  0.00    -0.303 C  
ENDROOT
BRANCH   2   3
HETATM    3  N   UNL     1     -10.117  15.574  67.401  1.00  0.00    -0.243 NA 
HETATM    4  C   UNL     1      -9.989  16.161  66.063  1.00  0.00    -0.348 C  
HETATM    5  C   UNL     1      -8.611  16.787  66.094  1.00  0.00    -0.299 C  
HETATM    6  C   UNL     1      -8.533  17.387  67.483  1.00  0.00    -0.218 C  
HETATM    7  C   UNL     1      -9.463  16.518  68.343  1.00  0.00    -0.223 C  
BRANCH   7   8
HETATM    8  C   UNL     1      -8.703  15.738  69.435  1.00  0.00    -0.230 C  
BRANCH   8   9
HETATM    9  N   UNL     1      -8.501  14.323  69.163  1.00  0.00    -0.359 N  
HETATM   10  C   UNL     1      -7.421  13.828  68.461  1.00  0.00    -0.119 C  
HETATM   11  H   UNL     1      -9.194  13.662  69.510  1.00  0.00     0.000 HD 
HETATM   12  O   UNL     1      -6.558  14.524  67.952  1.00  0.00    -0.135 OA 
BRANCH  10  13
HETATM   13  C   UNL     1      -7.405  12.346  68.312  1.00  0.00    -0.113 A  
HETATM   14  C   UNL     1      -8.450  11.798  67.543  1.00  0.00    -0.154 A  
HETATM   15  C   UNL     1      -8.551  10.420  67.330  1.00  0.00    -0.125 A  
HETATM   16  C   UNL     1      -6.410  11.497  68.807  1.00  0.00    -0.054 A  
HETATM   17  C   UNL     1      -7.609   9.546  67.876  1.00  0.00    -0.087 A  
HETATM   18  N   UNL     1      -7.579   8.173  67.584  1.00  0.00    -0.097 NA 
HETATM   19  C   UNL     1      -6.513  10.115  68.545  1.00  0.00    -0.049 A  
HETATM   20  H2  UNL     1      -7.531   8.079  66.569  1.00  0.00     0.000 HD 
HETATM   21  H1  UNL     1      -6.890   7.535  67.983  1.00  0.00     0.000 HD 
BRANCH  15  22
HETATM   22  S   UNL     1     -10.014   9.826  66.496  1.00  0.00    -0.245 S  
HETATM   23  O   UNL     1     -10.205   8.443  66.894  1.00  0.00    -0.265 OA 
HETATM   24  O   UNL     1     -11.058  10.808  66.745  1.00  0.00    -0.212 OA 
BRANCH  22  25
HETATM   25  C   UNL     1      -9.606   9.872  64.766  1.00  0.00    -0.271 C  
HETATM   26  C   UNL     1      -9.699  11.294  64.230  1.00  0.00    -0.295 C  
ENDBRANCH  22  25
ENDBRANCH  15  22
BRANCH  16  27
HETATM   27  O   UNL     1      -5.261  11.823  69.472  1.00  0.00    -0.056 OA 
HETATM   28  C   UNL     1      -5.373  12.335  70.795  1.00  0.00    -0.161 C  
ENDBRANCH  16  27
ENDBRANCH  10  13
ENDBRANCH   8   9
ENDBRANCH   7   8
ENDBRANCH   2   3
TORSDOF 7
ENDMDL
MODEL      198
REMARK 921   NORMALIZED FREE ENERGY PREDICTED BY IDOCK:   -3.73 KCAL/MOL
REMARK 922        TOTAL FREE ENERGY PREDICTED BY IDOCK:   -6.28 KCAL/MOL
REMARK 923 INTER-LIGAND FREE ENERGY PREDICTED BY IDOCK:   -5.30 KCAL/MOL
REMARK 924 INTRA-LIGAND FREE ENERGY PREDICTED BY IDOCK:   -0.98 KCAL/MOL
REMARK 927      BINDING AFFINITY PREDICTED BY RF-SCORE:    0.00 PKD
ROOT
HETATM    1  C   UNL     1     -14.323   7.956  71.735  1.00  0.00    -0.589 C  
HETATM    2  C   UNL     1     -13.154   7.114  71.238  1.00  0.00    -0.300 C  
ENDROOT
BRANCH   2   3
HETATM    3  N   UNL     1     -12.081   6.974  72.232  1.00  0.00    -0.226 NA 
HETATM    4  C   UNL     1     -12.019   5.629  72.813  1.00  0.00    -0.024 C  
HETATM    5  C   UNL     1     -10.608   5.555  73.358  1.00  0.00    -0.293 C  
HETATM    6  C   UNL     1      -9.787   6.242  72.285  1.00  0.00    -0.175 C  
HETATM    7  C   UNL     1     -10.753   7.232  71.619  1.00  0.00    -0.215 C  
BRANCH   7   8
HETATM    8  C   UNL     1     -10.341   8.702  71.843  1.00  0.00    -0.335 C  
BRANCH   8   9
HETATM    9  N   UNL     1      -9.527   9.288  70.790  1.00  0.00    -0.267 N  
HETATM   10  C   UNL     1      -8.160   9.451  70.885  1.00  0.00    -0.052 C  
HETATM   11  H   UNL     1      -9.991   9.596  69.936  1.00  0.00     0.000 HD 
HETATM   12  O   UNL     1      -7.505   9.173  71.875  1.00  0.00    -0.338 OA 
BRANCH  10  13
HETATM   13  C   UNL     1      -7.524  10.060  69.684  1.00  0.00    -0.134 A  
HETATM   14  C   UNL     1      -8.070   9.677  68.442  1.00  0.00    -0.104 A  
HETATM   15  C   UNL     1      -7.560  10.174  67.239  1.00  0.00    -0.095 A  
HETATM   16  C   UNL     1      -6.501  11.013  69.709  1.00  0.00    -0.137 A  
HETATM   17  C   UNL     1      -6.491  11.073  67.238  1.00  0.00    -0.073 A  
HETATM   18  N   UNL     1      -6.028  11.709  66.076  1.00  0.00    -0.479 NA 
HETATM   19  C   UNL     1      -6.031  11.529  68.484  1.00  0.00    -0.045 A  
HETATM   20  H2  UNL     1      -6.825  12.183  65.650  1.00  0.00     0.000 HD 
HETATM   21  H1  UNL     1      -5.247  12.366  66.075  1.00  0.00     0.000 HD 
BRANCH  15  22
HETATM   22  S   UNL     1      -8.209   9.481  65.727  1.00  0.00    -0.119 S  
HETATM   23  O   UNL     1      -7.074   9.095  64.909  1.00  0.00    -0.092 OA 
HETATM   24  O   UNL     1      -9.197   8.487  66.120  1.00  0.00    -0.187 OA 
BRANCH  22  25
HETATM   25  C   UNL     1      -9.057  10.826  64.932  1.00  0.00    -0.198 C  
HETATM   26  C   UNL     1     -10.321  11.191  65.697  1.00  0.00    -0.311 C  
ENDBRANCH  22  25
ENDBRANCH  15  22
BRANCH  16  27
HETATM   27  O   UNL     1      -5.911  11.606  70.791  1.00  0.00    -0.335 OA 
HETATM   28  C   UNL     1      -5.548  12.978  70.689  1.00  0.00    -0.178 C  
ENDBRANCH  16  27
ENDBRANCH  10  13
ENDBRANCH   8   9
ENDBRANCH   7   8
ENDBRANCH   2   3
TORSDOF 7
ENDMDL
MODEL      199
REMARK 921   NORMALIZED FREE ENERGY PREDICTED BY IDOCK:   -3.73 KCAL/MOL
REMARK 922        TOTAL FREE ENERGY PREDICTED BY IDOCK:   -6.28 KCAL/MOL
REMARK 923 INTER-LIGAND FREE ENERGY PREDICTED BY IDOCK:   -4.85 KCAL/MOL
REMARK 924 INTRA-LIGAND FREE ENERGY PREDICTED BY IDOCK:   -1.43 KCAL/MOL
REMARK 927      BINDING AFFINITY PREDICTED BY RF-SCORE:    0.00 PKD
ROOT
HETATM    1  C   UNL     1     -11.008   6.115  67.194  1.00  0.00    -0.420 C  
HETATM    2  C   UNL     1     -10.449   7.185  68.125  1.00  0.00    -0.200 C  
ENDROOT
BRANCH   2   3
HETATM    3  N   UNL     1      -9.086   7.602  67.770  1.00  0.00    -0.130 NA 
HETATM    4  C   UNL     1      -8.060   6.911  68.558  1.00  0.00    -0.120 C  
HETATM    5  C   UNL     1      -6.813   7.070  67.713  1.00  0.00    -0.074 C  
HETATM    6  C   UNL     1      -7.323   6.866  66.301  1.00  0.00    -0.076 C  
HETATM    7  C   UNL     1      -8.794   7.306  66.344  1.00  0.00    -0.149 C  
BRANCH   7   8
HETATM    8  C   UNL     1      -9.064   8.553  65.477  1.00  0.00    -0.091 C  
BRANCH   8   9
HETATM    9  N   UNL     1      -9.057   9.821  66.189  1.00  0.00    -0.154 N  
HETATM   10  C   UNL     1      -8.059  10.764  66.057  1.00  0.00    -0.158 C  
HETATM   11  H   UNL     1      -9.831  10.024  66.821  1.00  0.00     0.000 HD 
HETATM   12  O   UNL     1      -7.059  10.612  65.375  1.00  0.00    -0.108 OA 
BRANCH  10  13
HETATM   13  C   UNL     1      -8.259  11.997  66.868  1.00  0.00    -0.146 A  
HETATM   14  C   UNL     1      -9.532  12.594  66.769  1.00  0.00    -0.237 A  
HETATM   15  C   UNL     1      -9.847  13.758  67.478  1.00  0.00    -0.230 A  
HETATM   16  C   UNL     1      -7.322  12.542  67.752  1.00  0.00    -0.124 A  
HETATM   17  C   UNL     1      -8.901  14.360  68.310  1.00  0.00    -0.182 A  
HETATM   18  N   UNL     1      -9.201  15.444  69.149  1.00  0.00    -0.226 NA 
HETATM   19  C   UNL     1      -7.678  13.693  68.485  1.00  0.00    -0.129 A  
HETATM   20  H2  UNL     1      -9.991  15.169  69.733  1.00  0.00     0.000 HD 
HETATM   21  H1  UNL     1      -8.510  15.884  69.757  1.00  0.00     0.000 HD 
BRANCH  15  22
HETATM   22  S   UNL     1     -11.422  14.523  67.134  1.00  0.00    -0.379 S  
HETATM   23  O   UNL     1     -12.232  14.400  68.332  1.00  0.00    -0.275 OA 
HETATM   24  O   UNL     1     -11.131  15.838  66.582  1.00  0.00    -0.241 OA 
BRANCH  22  25
HETATM   25  C   UNL     1     -12.146  13.527  65.850  1.00  0.00    -0.435 C  
HETATM   26  C   UNL     1     -12.016  14.216  64.499  1.00  0.00    -0.476 C  
ENDBRANCH  22  25
ENDBRANCH  15  22
BRANCH  16  27
HETATM   27  O   UNL     1      -6.085  12.065  68.086  1.00  0.00    -0.050 OA 
HETATM   28  C   UNL     1      -6.003  11.048  69.078  1.00  0.00    -0.041 C  
ENDBRANCH  16  27
ENDBRANCH  10  13
ENDBRANCH   8   9
ENDBRANCH   7   8
ENDBRANCH   2   3
TORSDOF 7
ENDMDL
MODEL      200
REMARK 921   NORMALIZED FREE ENERGY PREDICTED BY IDOCK:   -3.71 KCAL/MOL
REMARK 922        TOTAL FREE ENERGY PREDICTED BY IDOCK:   -6.25 KCAL/MOL
REMARK 923 INTER-LIGAND FREE ENERGY PREDICTED BY IDOCK:   -5.00 KCAL/MOL
REMARK 924 INTRA-LIGAND FREE ENERGY PREDICTED BY IDOCK:   -1.25 KCAL/MOL
REMARK 927      BINDING AFFINITY PREDICTED BY RF-SCORE:    0.00 PKD
ROOT
HETATM    1  C   UNL     1      -5.455   9.956  63.646  1.00  0.00    -0.096 C  
HETATM    2  C   UNL     1      -6.925  10.328  63.796  1.00  0.00    -0.059 C  
ENDROOT
BRANCH   2   3
HETATM    3  N   UNL     1      -7.400  10.251  65.184  1.00  0.00    -0.141 NA 
HETATM    4  C   UNL     1      -6.434  10.794  66.144  1.00  0.00    -0.129 C  
HETATM    5  C   UNL     1      -7.288  11.099  67.357  1.00  0.00    -0.108 C  
HETATM    6  C   UNL     1      -8.556  11.669  66.752  1.00  0.00    -0.180 C  
HETATM    7  C   UNL     1      -8.654  11.028  65.360  1.00  0.00    -0.068 C  
BRANCH   7   8
HETATM    8  C   UNL     1      -9.879  10.100  65.220  1.00  0.00    -0.319 C  
BRANCH   8   9
HETATM    9  N   UNL     1     -10.165   9.268  66.378  1.00  0.00    -0.260 N  
HETATM   10  C   UNL     1      -9.717   7.971  66.514  1.00  0.00    -0.227 C  
HETATM   11  H   UNL     1     -10.728   9.665  67.130  1.00  0.00     0.000 HD 
HETATM   12  O   UNL     1      -9.084   7.372  65.660  1.00  0.00    -0.040 OA 
BRANCH  10  13
HETATM   13  C   UNL     1     -10.114   7.307  67.787  1.00  0.00    -0.225 A  
HETATM   14  C   UNL     1     -10.274   8.161  68.897  1.00  0.00    -0.221 A  
HETATM   15  C   UNL     1     -10.642   7.662  70.150  1.00  0.00    -0.236 A  
HETATM   16  C   UNL     1     -10.404   5.947  67.930  1.00  0.00    -0.211 A  
HETATM   17  C   UNL     1     -10.865   6.296  70.334  1.00  0.00    -0.299 A  
HETATM   18  N   UNL     1     -11.368   5.757  71.528  1.00  0.00    -0.187 NA 
HETATM   19  C   UNL     1     -10.811   5.475  69.196  1.00  0.00    -0.182 A  
HETATM   20  H2  UNL     1     -12.243   6.239  71.736  1.00  0.00     0.000 HD 
HETATM   21  H1  UNL     1     -11.531   4.758  71.662  1.00  0.00     0.000 HD 
BRANCH  15  22
HETATM   22  S   UNL     1     -10.636   8.807  71.520  1.00  0.00    -0.337 S  
HETATM   23  O   UNL     1     -10.603  10.146  70.960  1.00  0.00    -0.112 OA 
HETATM   24  O   UNL     1     -11.726   8.409  72.397  1.00  0.00    -0.370 OA 
BRANCH  22  25
HETATM   25  C   UNL     1      -9.101   8.503  72.365  1.00  0.00    -0.238 C  
HETATM   26  C   UNL     1      -9.338   7.706  73.639  1.00  0.00    -0.344 C  
ENDBRANCH  22  25
ENDBRANCH  15  22
BRANCH  16  27
HETATM   27  O   UNL     1     -10.426   4.971  66.972  1.00  0.00    -0.211 OA 
HETATM   28  C   UNL     1      -9.484   3.909  67.074  1.00  0.00    -0.200 C  
ENDBRANCH  16  27
ENDBRANCH  10  13
ENDBRANCH   8   9
ENDBRANCH   7   8
ENDBRANCH   2   3
TORSDOF 7
ENDMDL
MODEL      201
REMARK 921   NORMALIZED FREE ENERGY PREDICTED BY IDOCK:   -3.71 KCAL/MOL
REMARK 922        TOTAL FREE ENERGY PREDICTED BY IDOCK:   -6.25 KCAL/MOL
REMARK 923 INTER-LIGAND FREE ENERGY PREDICTED BY IDOCK:   -5.69 KCAL/MOL
REMARK 924 INTRA-LIGAND FREE ENERGY PREDICTED BY IDOCK:   -0.56 KCAL/MOL
REMARK 927      BINDING AFFINITY PREDICTED BY RF-SCORE:    0.00 PKD
ROOT
HETATM    1  C   UNL     1      -6.991   5.055  65.487  1.00  0.00    -0.062 C  
HETATM    2  C   UNL     1      -8.465   4.790  65.209  1.00  0.00    -0.132 C  
ENDROOT
BRANCH   2   3
HETATM    3  N   UNL     1      -9.363   5.672  65.967  1.00  0.00    -0.156 NA 
HETATM    4  C   UNL     1     -10.049   4.977  67.061  1.00  0.00    -0.214 C  
HETATM    5  C   UNL     1     -10.463   6.107  67.980  1.00  0.00    -0.284 C  
HETATM    6  C   UNL     1      -9.263   7.032  67.954  1.00  0.00    -0.125 C  
HETATM    7  C   UNL     1      -8.607   6.792  66.586  1.00  0.00    -0.123 C  
BRANCH   7   8
HETATM    8  C   UNL     1      -8.664   8.037  65.676  1.00  0.00    -0.125 C  
BRANCH   8   9
HETATM    9  N   UNL     1      -9.414   9.164  66.208  1.00  0.00    -0.216 N  
HETATM   10  C   UNL     1      -8.913  10.447  66.280  1.00  0.00    -0.155 C  
HETATM   11  H   UNL     1     -10.362   8.996  66.545  1.00  0.00     0.000 HD 
HETATM   12  O   UNL     1      -7.779  10.758  65.959  1.00  0.00    -0.153 OA 
BRANCH  10  13
HETATM   13  C   UNL     1      -9.858  11.450  66.846  1.00  0.00    -0.218 A  
HETATM   14  C   UNL     1      -9.802  12.735  66.269  1.00  0.00    -0.269 A  
HETATM   15  C   UNL     1     -10.634  13.768  66.713  1.00  0.00    -0.273 A  
HETATM   16  C   UNL     1     -10.819  11.189  67.828  1.00  0.00    -0.239 A  
HETATM   17  C   UNL     1     -11.551  13.549  67.743  1.00  0.00    -0.339 A  
HETATM   18  N   UNL     1     -12.503  14.503  68.135  1.00  0.00    -0.505 NA 
HETATM   19  C   UNL     1     -11.673  12.237  68.230  1.00  0.00    -0.392 A  
HETATM   20  H2  UNL     1     -13.035  14.762  67.303  1.00  0.00     0.000 HD 
HETATM   21  H1  UNL     1     -13.173  14.342  68.887  1.00  0.00     0.000 HD 
BRANCH  15  22
HETATM   22  S   UNL     1     -10.347  15.396  66.037  1.00  0.00    -0.347 S  
HETATM   23  O   UNL     1      -8.955  15.454  65.632  1.00  0.00    -0.079 OA 
HETATM   24  O   UNL     1     -11.402  15.630  65.063  1.00  0.00    -0.324 OA 
BRANCH  22  25
HETATM   25  C   UNL     1     -10.593  16.509  67.402  1.00  0.00    -0.300 C  
HETATM   26  C   UNL     1      -9.287  16.736  68.151  1.00  0.00    -0.234 C  
ENDBRANCH  22  25
ENDBRANCH  15  22
BRANCH  16  27
HETATM   27  O   UNL     1     -11.122  10.001  68.433  1.00  0.00    -0.237 OA 
HETATM   28  C   UNL     1     -11.435  10.016  69.821  1.00  0.00    -0.184 C  
ENDBRANCH  16  27
ENDBRANCH  10  13
ENDBRANCH   8   9
ENDBRANCH   7   8
ENDBRANCH   2   3
TORSDOF 7
ENDMDL
MODEL      202
REMARK 921   NORMALIZED FREE ENERGY PREDICTED BY IDOCK:   -3.68 KCAL/MOL
REMARK 922        TOTAL FREE ENERGY PREDICTED BY IDOCK:   -6.20 KCAL/MOL
REMARK 923 INTER-LIGAND FREE ENERGY PREDICTED BY IDOCK:   -5.19 KCAL/MOL
REMARK 924 INTRA-LIGAND FREE ENERGY PREDICTED BY IDOCK:   -1.01 KCAL/MOL
REMARK 927      BINDING AFFINITY PREDICTED BY RF-SCORE:    0.00 PKD
ROOT
HETATM    1  C   UNL     1      -9.733  10.979  67.728  1.00  0.00    -0.183 C  
HETATM    2  C   UNL     1     -10.531  10.000  66.877  1.00  0.00    -0.218 C  
ENDROOT
BRANCH   2   3
HETATM    3  N   UNL     1      -9.781   9.499  65.717  1.00  0.00    -0.275 NA 
HETATM    4  C   UNL     1      -9.401  10.566  64.785  1.00  0.00    -0.238 C  
HETATM    5  C   UNL     1      -8.253   9.953  64.011  1.00  0.00    -0.159 C  
HETATM    6  C   UNL     1      -7.477   9.205  65.077  1.00  0.00    -0.105 C  
HETATM    7  C   UNL     1      -8.520   8.841  66.144  1.00  0.00    -0.131 C  
BRANCH   7   8
HETATM    8  C   UNL     1      -8.732   7.318  66.268  1.00  0.00    -0.149 C  
BRANCH   8   9
HETATM    9  N   UNL     1      -9.251   6.863  67.549  1.00  0.00    -0.123 N  
HETATM   10  C   UNL     1      -8.651   5.880  68.309  1.00  0.00    -0.113 C  
HETATM   11  H   UNL     1     -10.104   7.294  67.903  1.00  0.00     0.000 HD 
HETATM   12  O   UNL     1      -7.662   5.257  67.964  1.00  0.00    -0.083 OA 
BRANCH  10  13
HETATM   13  C   UNL     1      -9.344   5.581  69.593  1.00  0.00    -0.172 A  
HETATM   14  C   UNL     1      -9.886   6.692  70.269  1.00  0.00    -0.188 A  
HETATM   15  C   UNL     1     -10.558   6.546  71.487  1.00  0.00    -0.229 A  
HETATM   16  C   UNL     1      -9.550   4.301  70.118  1.00  0.00    -0.198 A  
HETATM   17  C   UNL     1     -10.712   5.285  72.066  1.00  0.00    -0.196 A  
HETATM   18  N   UNL     1     -11.492   5.060  73.210  1.00  0.00    -0.467 NA 
HETATM   19  C   UNL     1     -10.265   4.177  71.328  1.00  0.00    -0.067 A  
HETATM   20  H2  UNL     1     -12.426   5.424  73.020  1.00  0.00     0.000 HD 
HETATM   21  H1  UNL     1     -11.605   4.138  73.634  1.00  0.00     0.000 HD 
BRANCH  15  22
HETATM   22  S   UNL     1     -11.040   8.039  72.338  1.00  0.00    -0.378 S  
HETATM   23  O   UNL     1     -11.020   7.749  73.760  1.00  0.00    -0.131 OA 
HETATM   24  O   UNL     1     -10.212   9.108  71.800  1.00  0.00    -0.338 OA 
BRANCH  22  25
HETATM   25  C   UNL     1     -12.721   8.331  71.837  1.00  0.00    -0.342 C  
HETATM   26  C   UNL     1     -13.036   9.819  71.855  1.00  0.00    -0.544 C  
ENDBRANCH  22  25
ENDBRANCH  15  22
BRANCH  16  27
HETATM   27  O   UNL     1      -9.216   3.091  69.577  1.00  0.00    -0.123 OA 
HETATM   28  C   UNL     1      -8.057   2.431  70.075  1.00  0.00    -0.041 C  
ENDBRANCH  16  27
ENDBRANCH  10  13
ENDBRANCH   8   9
ENDBRANCH   7   8
ENDBRANCH   2   3
TORSDOF 7
ENDMDL
MODEL      203
REMARK 921   NORMALIZED FREE ENERGY PREDICTED BY IDOCK:   -3.64 KCAL/MOL
REMARK 922        TOTAL FREE ENERGY PREDICTED BY IDOCK:   -6.16 KCAL/MOL
REMARK 923 INTER-LIGAND FREE ENERGY PREDICTED BY IDOCK:   -5.44 KCAL/MOL
REMARK 924 INTRA-LIGAND FREE ENERGY PREDICTED BY IDOCK:   -0.72 KCAL/MOL
REMARK 927      BINDING AFFINITY PREDICTED BY RF-SCORE:    0.00 PKD
ROOT
HETATM    1  C   UNL     1     -10.175  14.090  67.728  1.00  0.00    -0.240 C  
HETATM    2  C   UNL     1     -11.361  13.560  66.931  1.00  0.00    -0.326 C  
ENDROOT
BRANCH   2   3
HETATM    3  N   UNL     1     -11.179  12.172  66.482  1.00  0.00    -0.311 NA 
HETATM    4  C   UNL     1     -10.333  12.069  65.289  1.00  0.00    -0.275 C  
HETATM    5  C   UNL     1      -9.863  10.630  65.325  1.00  0.00    -0.334 C  
HETATM    6  C   UNL     1      -9.586  10.393  66.795  1.00  0.00    -0.209 C  
HETATM    7  C   UNL     1     -10.526  11.354  67.537  1.00  0.00    -0.201 C  
BRANCH   7   8
HETATM    8  C   UNL     1     -11.592  10.614  68.371  1.00  0.00    -0.194 C  
BRANCH   8   9
HETATM    9  N   UNL     1     -11.257   9.248  68.739  1.00  0.00    -0.447 N  
HETATM   10  C   UNL     1     -10.272   8.922  69.647  1.00  0.00    -0.206 C  
HETATM   11  H   UNL     1     -11.779   8.489  68.301  1.00  0.00     0.000 HD 
HETATM   12  O   UNL     1      -9.547   9.737  70.192  1.00  0.00    -0.240 OA 
BRANCH  10  13
HETATM   13  C   UNL     1     -10.106   7.461  69.886  1.00  0.00    -0.195 A  
HETATM   14  C   UNL     1      -9.275   6.783  68.972  1.00  0.00    -0.136 A  
HETATM   15  C   UNL     1      -9.042   5.408  69.083  1.00  0.00    -0.107 A  
HETATM   16  C   UNL     1     -10.644   6.755  70.967  1.00  0.00    -0.222 A  
HETATM   17  C   UNL     1      -9.627   4.670  70.113  1.00  0.00    -0.196 A  
HETATM   18  N   UNL     1      -9.320   3.322  70.356  1.00  0.00    -0.154 NA 
HETATM   19  C   UNL     1     -10.360   5.378  71.078  1.00  0.00    -0.307 A  
HETATM   20  H2  UNL     1      -8.309   3.254  70.470  1.00  0.00     0.000 HD 
HETATM   21  H1  UNL     1      -9.748   2.782  71.109  1.00  0.00     0.000 HD 
BRANCH  15  22
HETATM   22  S   UNL     1      -8.124   4.626  67.766  1.00  0.00    -0.096 S  
HETATM   23  O   UNL     1      -7.893   5.633  66.746  1.00  0.00    -0.099 OA 
HETATM   24  O   UNL     1      -6.998   3.950  68.393  1.00  0.00    -0.049 OA 
BRANCH  22  25
HETATM   25  C   UNL     1      -9.223   3.391  67.112  1.00  0.00    -0.191 C  
HETATM   26  C   UNL     1      -9.296   3.485  65.595  1.00  0.00    -0.158 C  
ENDBRANCH  22  25
ENDBRANCH  15  22
BRANCH  16  27
HETATM   27  O   UNL     1     -11.373   7.230  72.021  1.00  0.00    -0.246 OA 
HETATM   28  C   UNL     1     -10.887   6.987  73.336  1.00  0.00    -0.299 C  
ENDBRANCH  16  27
ENDBRANCH  10  13
ENDBRANCH   8   9
ENDBRANCH   7   8
ENDBRANCH   2   3
TORSDOF 7
ENDMDL
MODEL      204
REMARK 921   NORMALIZED FREE ENERGY PREDICTED BY IDOCK:   -3.64 KCAL/MOL
REMARK 922        TOTAL FREE ENERGY PREDICTED BY IDOCK:   -6.15 KCAL/MOL
REMARK 923 INTER-LIGAND FREE ENERGY PREDICTED BY IDOCK:   -4.98 KCAL/MOL
REMARK 924 INTRA-LIGAND FREE ENERGY PREDICTED BY IDOCK:   -1.17 KCAL/MOL
REMARK 927      BINDING AFFINITY PREDICTED BY RF-SCORE:    0.00 PKD
ROOT
HETATM    1  C   UNL     1     -14.379   7.738  71.589  1.00  0.00    -0.607 C  
HETATM    2  C   UNL     1     -13.253   8.688  71.979  1.00  0.00    -0.386 C  
ENDROOT
BRANCH   2   3
HETATM    3  N   UNL     1     -12.474   9.162  70.827  1.00  0.00    -0.096 NA 
HETATM    4  C   UNL     1     -12.728  10.571  70.511  1.00  0.00    -0.305 C  
HETATM    5  C   UNL     1     -11.509  10.969  69.707  1.00  0.00    -0.387 C  
HETATM    6  C   UNL     1     -10.374  10.275  70.434  1.00  0.00    -0.069 C  
HETATM    7  C   UNL     1     -11.016   9.043  71.088  1.00  0.00    -0.301 C  
BRANCH   7   8
HETATM    8  C   UNL     1     -10.479   7.718  70.509  1.00  0.00    -0.217 C  
BRANCH   8   9
HETATM    9  N   UNL     1      -9.856   7.818  69.198  1.00  0.00    -0.170 N  
HETATM   10  C   UNL     1     -10.344   7.188  68.072  1.00  0.00    -0.194 C  
HETATM   11  H   UNL     1      -9.012   8.384  69.107  1.00  0.00     0.000 HD 
HETATM   12  O   UNL     1     -11.309   6.443  68.068  1.00  0.00    -0.267 OA 
BRANCH  10  13
HETATM   13  C   UNL     1      -9.558   7.438  66.832  1.00  0.00    -0.240 A  
HETATM   14  C   UNL     1      -8.962   6.303  66.247  1.00  0.00    -0.164 A  
HETATM   15  C   UNL     1      -8.195   6.404  65.081  1.00  0.00    -0.134 A  
HETATM   16  C   UNL     1      -9.438   8.674  66.189  1.00  0.00    -0.240 A  
HETATM   17  C   UNL     1      -8.002   7.641  64.463  1.00  0.00    -0.130 A  
HETATM   18  N   UNL     1      -7.361   7.783  63.222  1.00  0.00    -0.094 NA 
HETATM   19  C   UNL     1      -8.692   8.742  64.994  1.00  0.00    -0.183 A  
HETATM   20  H2  UNL     1      -7.848   7.182  62.557  1.00  0.00     0.000 HD 
HETATM   21  H1  UNL     1      -7.221   8.687  62.770  1.00  0.00     0.000 HD 
BRANCH  15  22
HETATM   22  S   UNL     1      -7.341   4.934  64.535  1.00  0.00    -0.064 S  
HETATM   23  O   UNL     1      -5.995   5.331  64.163  1.00  0.00    -0.021 OA 
HETATM   24  O   UNL     1      -7.546   3.930  65.568  1.00  0.00    -0.080 OA 
BRANCH  22  25
HETATM   25  C   UNL     1      -8.210   4.416  63.073  1.00  0.00    -0.088 C  
HETATM   26  C   UNL     1      -8.283   2.897  63.001  1.00  0.00    -0.074 C  
ENDBRANCH  22  25
ENDBRANCH  15  22
BRANCH  16  27
HETATM   27  O   UNL     1     -10.022   9.867  66.514  1.00  0.00    -0.203 OA 
HETATM   28  C   UNL     1     -10.155  10.849  65.493  1.00  0.00    -0.267 C  
ENDBRANCH  16  27
ENDBRANCH  10  13
ENDBRANCH   8   9
ENDBRANCH   7   8
ENDBRANCH   2   3
TORSDOF 7
ENDMDL
MODEL      205
REMARK 921   NORMALIZED FREE ENERGY PREDICTED BY IDOCK:   -3.63 KCAL/MOL
REMARK 922        TOTAL FREE ENERGY PREDICTED BY IDOCK:   -6.14 KCAL/MOL
REMARK 923 INTER-LIGAND FREE ENERGY PREDICTED BY IDOCK:   -5.39 KCAL/MOL
REMARK 924 INTRA-LIGAND FREE ENERGY PREDICTED BY IDOCK:   -0.76 KCAL/MOL
REMARK 927      BINDING AFFINITY PREDICTED BY RF-SCORE:    0.00 PKD
ROOT
HETATM    1  C   UNL     1      -6.174   4.621  64.953  1.00  0.00    -0.034 C  
HETATM    2  C   UNL     1      -7.039   3.390  64.709  1.00  0.00    -0.061 C  
ENDROOT
BRANCH   2   3
HETATM    3  N   UNL     1      -8.180   3.296  65.630  1.00  0.00    -0.096 NA 
HETATM    4  C   UNL     1      -8.024   2.222  66.617  1.00  0.00    -0.076 C  
HETATM    5  C   UNL     1      -8.977   2.629  67.721  1.00  0.00    -0.198 C  
HETATM    6  C   UNL     1      -8.785   4.130  67.808  1.00  0.00    -0.120 C  
HETATM    7  C   UNL     1      -8.347   4.556  66.399  1.00  0.00    -0.106 C  
BRANCH   7   8
HETATM    8  C   UNL     1      -9.383   5.466  65.707  1.00  0.00    -0.118 C  
BRANCH   8   9
HETATM    9  N   UNL     1      -9.829   6.609  66.488  1.00  0.00    -0.325 N  
HETATM   10  C   UNL     1      -9.453   7.909  66.221  1.00  0.00    -0.151 C  
HETATM   11  H   UNL     1     -10.453   6.441  67.277  1.00  0.00     0.000 HD 
HETATM   12  O   UNL     1      -8.670   8.228  65.341  1.00  0.00    -0.164 OA 
BRANCH  10  13
HETATM   13  C   UNL     1     -10.038   8.926  67.138  1.00  0.00    -0.316 A  
HETATM   14  C   UNL     1     -10.228   8.508  68.471  1.00  0.00    -0.225 A  
HETATM   15  C   UNL     1     -10.773   9.367  69.431  1.00  0.00    -0.217 A  
HETATM   16  C   UNL     1     -10.332  10.249  66.794  1.00  0.00    -0.227 A  
HETATM   17  C   UNL     1     -11.142  10.670  69.091  1.00  0.00    -0.255 A  
HETATM   18  N   UNL     1     -11.563  11.617  70.038  1.00  0.00    -0.454 NA 
HETATM   19  C   UNL     1     -10.843  11.106  67.790  1.00  0.00    -0.288 A  
HETATM   20  H2  UNL     1     -10.834  11.682  70.749  1.00  0.00     0.000 HD 
HETATM   21  H1  UNL     1     -11.832  12.570  69.789  1.00  0.00     0.000 HD 
BRANCH  15  22
HETATM   22  S   UNL     1     -11.137   8.673  71.035  1.00  0.00    -0.278 S  
HETATM   23  O   UNL     1     -12.207   9.465  71.614  1.00  0.00    -0.341 OA 
HETATM   24  O   UNL     1     -11.313   7.243  70.836  1.00  0.00    -0.264 OA 
BRANCH  22  25
HETATM   25  C   UNL     1      -9.658   8.926  71.990  1.00  0.00    -0.207 C  
HETATM   26  C   UNL     1      -9.600   7.951  73.157  1.00  0.00    -0.352 C  
ENDBRANCH  22  25
ENDBRANCH  15  22
BRANCH  16  27
HETATM   27  O   UNL     1     -10.120  10.890  65.605  1.00  0.00    -0.239 OA 
HETATM   28  C   UNL     1     -10.639  12.206  65.451  1.00  0.00    -0.272 C  
ENDBRANCH  16  27
ENDBRANCH  10  13
ENDBRANCH   8   9
ENDBRANCH   7   8
ENDBRANCH   2   3
TORSDOF 7
ENDMDL
MODEL      206
REMARK 921   NORMALIZED FREE ENERGY PREDICTED BY IDOCK:   -3.63 KCAL/MOL
REMARK 922        TOTAL FREE ENERGY PREDICTED BY IDOCK:   -6.14 KCAL/MOL
REMARK 923 INTER-LIGAND FREE ENERGY PREDICTED BY IDOCK:   -5.05 KCAL/MOL
REMARK 924 INTRA-LIGAND FREE ENERGY PREDICTED BY IDOCK:   -1.09 KCAL/MOL
REMARK 927      BINDING AFFINITY PREDICTED BY RF-SCORE:    0.00 PKD
ROOT
HETATM    1  C   UNL     1     -12.223  13.438  63.820  1.00  0.00    -0.482 C  
HETATM    2  C   UNL     1     -12.547  12.588  65.043  1.00  0.00    -0.345 C  
ENDROOT
BRANCH   2   3
HETATM    3  N   UNL     1     -11.508  11.595  65.346  1.00  0.00    -0.175 NA 
HETATM    4  C   UNL     1     -10.436  11.573  64.345  1.00  0.00    -0.325 C  
HETATM    5  C   UNL     1      -9.288  10.921  65.086  1.00  0.00    -0.252 C  
HETATM    6  C   UNL     1      -9.378  11.530  66.470  1.00  0.00    -0.210 C  
HETATM    7  C   UNL     1     -10.861  11.884  66.652  1.00  0.00    -0.276 C  
BRANCH   7   8
HETATM    8  C   UNL     1     -11.533  11.061  67.771  1.00  0.00    -0.261 C  
BRANCH   8   9
HETATM    9  N   UNL     1     -10.789   9.894  68.219  1.00  0.00    -0.339 N  
HETATM   10  C   UNL     1     -10.430   9.678  69.533  1.00  0.00    -0.224 C  
HETATM   11  H   UNL     1     -10.519   9.199  67.524  1.00  0.00     0.000 HD 
HETATM   12  O   UNL     1     -10.649  10.462  70.441  1.00  0.00    -0.233 OA 
BRANCH  10  13
HETATM   13  C   UNL     1      -9.684   8.410  69.771  1.00  0.00    -0.180 A  
HETATM   14  C   UNL     1      -9.782   7.443  68.750  1.00  0.00    -0.149 A  
HETATM   15  C   UNL     1      -9.132   6.209  68.854  1.00  0.00    -0.123 A  
HETATM   16  C   UNL     1      -8.859   8.155  70.870  1.00  0.00    -0.142 A  
HETATM   17  C   UNL     1      -8.361   5.904  69.977  1.00  0.00    -0.122 A  
HETATM   18  N   UNL     1      -7.577   4.744  70.075  1.00  0.00    -0.054 NA 
HETATM   19  C   UNL     1      -8.183   6.919  70.932  1.00  0.00    -0.118 A  
HETATM   20  H2  UNL     1      -6.957   4.726  69.265  1.00  0.00     0.000 HD 
HETATM   21  H1  UNL     1      -7.014   4.522  70.896  1.00  0.00     0.000 HD 
BRANCH  15  22
HETATM   22  S   UNL     1      -9.476   4.996  67.590  1.00  0.00    -0.139 S  
HETATM   23  O   UNL     1      -9.461   3.693  68.229  1.00  0.00    -0.173 OA 
HETATM   24  O   UNL     1     -10.668   5.453  66.892  1.00  0.00    -0.271 OA 
BRANCH  22  25
HETATM   25  C   UNL     1      -8.099   5.100  66.469  1.00  0.00    -0.108 C  
HETATM   26  C   UNL     1      -8.362   6.139  65.389  1.00  0.00    -0.150 C  
ENDBRANCH  22  25
ENDBRANCH  15  22
BRANCH  16  27
HETATM   27  O   UNL     1      -8.532   8.986  71.906  1.00  0.00    -0.363 OA 
HETATM   28  C   UNL     1      -7.324   8.733  72.614  1.00  0.00     0.166 C  
ENDBRANCH  16  27
ENDBRANCH  10  13
ENDBRANCH   8   9
ENDBRANCH   7   8
ENDBRANCH   2   3
TORSDOF 7
ENDMDL
MODEL      207
REMARK 921   NORMALIZED FREE ENERGY PREDICTED BY IDOCK:   -3.63 KCAL/MOL
REMARK 922        TOTAL FREE ENERGY PREDICTED BY IDOCK:   -6.13 KCAL/MOL
REMARK 923 INTER-LIGAND FREE ENERGY PREDICTED BY IDOCK:   -5.07 KCAL/MOL
REMARK 924 INTRA-LIGAND FREE ENERGY PREDICTED BY IDOCK:   -1.06 KCAL/MOL
REMARK 927      BINDING AFFINITY PREDICTED BY RF-SCORE:    0.00 PKD
ROOT
HETATM    1  C   UNL     1     -10.534  17.493  65.874  1.00  0.00    -0.251 C  
HETATM    2  C   UNL     1     -10.248  17.225  67.346  1.00  0.00    -0.325 C  
ENDROOT
BRANCH   2   3
HETATM    3  N   UNL     1     -10.547  15.843  67.749  1.00  0.00    -0.295 NA 
HETATM    4  C   UNL     1     -11.692  15.754  68.661  1.00  0.00    -0.344 C  
HETATM    5  C   UNL     1     -12.132  14.312  68.519  1.00  0.00    -0.295 C  
HETATM    6  C   UNL     1     -11.990  14.052  67.033  1.00  0.00    -0.472 C  
HETATM    7  C   UNL     1     -10.881  15.007  66.567  1.00  0.00    -0.320 C  
BRANCH   7   8
HETATM    8  C   UNL     1      -9.625  14.259  66.074  1.00  0.00    -0.243 C  
BRANCH   8   9
HETATM    9  N   UNL     1      -9.145  13.201  66.949  1.00  0.00    -0.233 N  
HETATM   10  C   UNL     1      -8.180  13.392  67.916  1.00  0.00    -0.162 C  
HETATM   11  H   UNL     1      -9.543  12.269  66.841  1.00  0.00     0.000 HD 
HETATM   12  O   UNL     1      -7.595  14.445  68.102  1.00  0.00    -0.107 OA 
BRANCH  10  13
HETATM   13  C   UNL     1      -7.849  12.175  68.709  1.00  0.00    -0.017 A  
HETATM   14  C   UNL     1      -8.850  11.184  68.755  1.00  0.00    -0.128 A  
HETATM   15  C   UNL     1      -8.665   9.996  69.469  1.00  0.00    -0.192 A  
HETATM   16  C   UNL     1      -6.620  11.926  69.329  1.00  0.00    -0.110 A  
HETATM   17  C   UNL     1      -7.473   9.758  70.156  1.00  0.00    -0.164 A  
HETATM   18  N   UNL     1      -7.176   8.532  70.771  1.00  0.00    -0.054 NA 
HETATM   19  C   UNL     1      -6.445  10.703  70.009  1.00  0.00    -0.138 A  
HETATM   20  H2  UNL     1      -7.270   7.804  70.063  1.00  0.00     0.000 HD 
HETATM   21  H1  UNL     1      -6.305   8.359  71.273  1.00  0.00     0.000 HD 
BRANCH  15  22
HETATM   22  S   UNL     1     -10.067   8.899  69.607  1.00  0.00    -0.207 S  
HETATM   23  O   UNL     1     -10.054   8.351  70.952  1.00  0.00    -0.186 OA 
HETATM   24  O   UNL     1     -11.223   9.644  69.134  1.00  0.00    -0.149 OA 
BRANCH  22  25
HETATM   25  C   UNL     1      -9.739   7.587  68.452  1.00  0.00    -0.156 C  
HETATM   26  C   UNL     1     -10.676   7.677  67.257  1.00  0.00    -0.344 C  
ENDBRANCH  22  25
ENDBRANCH  15  22
BRANCH  16  27
HETATM   27  O   UNL     1      -5.485  12.688  69.313  1.00  0.00    -0.069 OA 
HETATM   28  C   UNL     1      -5.139  13.400  70.496  1.00  0.00    -0.107 C  
ENDBRANCH  16  27
ENDBRANCH  10  13
ENDBRANCH   8   9
ENDBRANCH   7   8
ENDBRANCH   2   3
TORSDOF 7
ENDMDL
MODEL      208
REMARK 921   NORMALIZED FREE ENERGY PREDICTED BY IDOCK:   -3.61 KCAL/MOL
REMARK 922        TOTAL FREE ENERGY PREDICTED BY IDOCK:   -6.11 KCAL/MOL
REMARK 923 INTER-LIGAND FREE ENERGY PREDICTED BY IDOCK:   -5.13 KCAL/MOL
REMARK 924 INTRA-LIGAND FREE ENERGY PREDICTED BY IDOCK:   -0.99 KCAL/MOL
REMARK 927      BINDING AFFINITY PREDICTED BY RF-SCORE:    0.00 PKD
ROOT
HETATM    1  C   UNL     1     -10.558   4.718  65.969  1.00  0.00    -0.300 C  
HETATM    2  C   UNL     1      -9.671   5.784  66.601  1.00  0.00    -0.157 C  
ENDROOT
BRANCH   2   3
HETATM    3  N   UNL     1      -8.244   5.596  66.304  1.00  0.00    -0.106 NA 
HETATM    4  C   UNL     1      -7.989   4.414  65.474  1.00  0.00    -0.094 C  
HETATM    5  C   UNL     1      -6.628   4.701  64.877  1.00  0.00    -0.044 C  
HETATM    6  C   UNL     1      -6.697   6.180  64.553  1.00  0.00    -0.042 C  
HETATM    7  C   UNL     1      -7.698   6.761  65.561  1.00  0.00    -0.101 C  
BRANCH   7   8
HETATM    8  C   UNL     1      -7.042   7.756  66.541  1.00  0.00    -0.078 C  
BRANCH   8   9
HETATM    9  N   UNL     1      -7.925   8.783  67.071  1.00  0.00    -0.095 N  
HETATM   10  C   UNL     1      -8.490   9.776  66.298  1.00  0.00    -0.123 C  
HETATM   11  H   UNL     1      -8.139   8.768  68.068  1.00  0.00     0.000 HD 
HETATM   12  O   UNL     1      -8.266   9.929  65.109  1.00  0.00    -0.131 OA 
BRANCH  10  13
HETATM   13  C   UNL     1      -9.374  10.715  67.043  1.00  0.00    -0.175 A  
HETATM   14  C   UNL     1      -9.868  11.807  66.302  1.00  0.00    -0.245 A  
HETATM   15  C   UNL     1     -10.706  12.763  66.886  1.00  0.00    -0.253 A  
HETATM   16  C   UNL     1      -9.794  10.547  68.366  1.00  0.00    -0.161 A  
HETATM   17  C   UNL     1     -11.080  12.655  68.227  1.00  0.00    -0.261 A  
HETATM   18  N   UNL     1     -12.024  13.501  68.828  1.00  0.00    -0.350 NA 
HETATM   19  C   UNL     1     -10.671  11.503  68.920  1.00  0.00    -0.245 A  
HETATM   20  H2  UNL     1     -12.876  13.454  68.269  1.00  0.00     0.000 HD 
HETATM   21  H1  UNL     1     -12.297  13.422  69.808  1.00  0.00     0.000 HD 
BRANCH  15  22
HETATM   22  S   UNL     1     -11.119  14.196  65.905  1.00  0.00    -0.312 S  
HETATM   23  O   UNL     1     -10.452  14.048  64.625  1.00  0.00    -0.434 OA 
HETATM   24  O   UNL     1     -12.566  14.332  65.963  1.00  0.00    -0.447 OA 
BRANCH  22  25
HETATM   25  C   UNL     1     -10.395  15.569  66.773  1.00  0.00    -0.288 C  
HETATM   26  C   UNL     1     -10.432  16.826  65.915  1.00  0.00    -0.311 C  
ENDBRANCH  22  25
ENDBRANCH  15  22
BRANCH  16  27
HETATM   27  O   UNL     1      -9.535   9.513  69.222  1.00  0.00    -0.155 OA 
HETATM   28  C   UNL     1     -10.612   8.657  69.585  1.00  0.00    -0.218 C  
ENDBRANCH  16  27
ENDBRANCH  10  13
ENDBRANCH   8   9
ENDBRANCH   7   8
ENDBRANCH   2   3
TORSDOF 7
ENDMDL
MODEL      209
REMARK 921   NORMALIZED FREE ENERGY PREDICTED BY IDOCK:   -3.61 KCAL/MOL
REMARK 922        TOTAL FREE ENERGY PREDICTED BY IDOCK:   -6.10 KCAL/MOL
REMARK 923 INTER-LIGAND FREE ENERGY PREDICTED BY IDOCK:   -4.73 KCAL/MOL
REMARK 924 INTRA-LIGAND FREE ENERGY PREDICTED BY IDOCK:   -1.38 KCAL/MOL
REMARK 927      BINDING AFFINITY PREDICTED BY RF-SCORE:    0.00 PKD
ROOT
HETATM    1  C   UNL     1      -7.601   9.667  63.072  1.00  0.00    -0.118 C  
HETATM    2  C   UNL     1      -8.773   9.998  63.988  1.00  0.00    -0.208 C  
ENDROOT
BRANCH   2   3
HETATM    3  N   UNL     1      -8.390  10.088  65.404  1.00  0.00    -0.144 NA 
HETATM    4  C   UNL     1      -6.969  10.399  65.587  1.00  0.00    -0.132 C  
HETATM    5  C   UNL     1      -6.917  10.949  66.997  1.00  0.00    -0.105 C  
HETATM    6  C   UNL     1      -8.167  11.802  67.082  1.00  0.00    -0.169 C  
HETATM    7  C   UNL     1      -9.151  11.163  66.091  1.00  0.00    -0.201 C  
BRANCH   7   8
HETATM    8  C   UNL     1     -10.393  10.571  66.789  1.00  0.00    -0.245 C  
BRANCH   8   9
HETATM    9  N   UNL     1     -10.123   9.517  67.753  1.00  0.00    -0.185 N  
HETATM   10  C   UNL     1     -10.343   8.178  67.501  1.00  0.00    -0.261 C  
HETATM   11  H   UNL     1      -9.751   9.781  68.666  1.00  0.00     0.000 HD 
HETATM   12  O   UNL     1     -10.834   7.748  66.471  1.00  0.00     0.037 OA 
BRANCH  10  13
HETATM   13  C   UNL     1      -9.983   7.268  68.624  1.00  0.00    -0.169 A  
HETATM   14  C   UNL     1     -10.842   7.305  69.740  1.00  0.00    -0.251 A  
HETATM   15  C   UNL     1     -10.613   6.502  70.861  1.00  0.00    -0.230 A  
HETATM   16  C   UNL     1      -8.925   6.354  68.613  1.00  0.00    -0.125 A  
HETATM   17  C   UNL     1      -9.520   5.634  70.901  1.00  0.00    -0.166 A  
HETATM   18  N   UNL     1      -9.317   4.707  71.936  1.00  0.00    -0.136 NA 
HETATM   19  C   UNL     1      -8.738   5.527  69.740  1.00  0.00    -0.118 A  
HETATM   20  H2  UNL     1     -10.161   4.139  72.006  1.00  0.00     0.000 HD 
HETATM   21  H1  UNL     1      -8.518   4.073  71.965  1.00  0.00     0.000 HD 
BRANCH  15  22
HETATM   22  S   UNL     1     -11.658   6.767  72.284  1.00  0.00    -0.253 S  
HETATM   23  O   UNL     1     -12.401   5.540  72.506  1.00  0.00    -0.069 OA 
HETATM   24  O   UNL     1     -10.802   7.301  73.332  1.00  0.00    -0.374 OA 
BRANCH  22  25
HETATM   25  C   UNL     1     -12.794   8.042  71.788  1.00  0.00    -0.332 C  
HETATM   26  C   UNL     1     -14.209   7.492  71.689  1.00  0.00    -0.592 C  
ENDBRANCH  22  25
ENDBRANCH  15  22
BRANCH  16  27
HETATM   27  O   UNL     1      -8.049   6.072  67.601  1.00  0.00    -0.105 OA 
HETATM   28  C   UNL     1      -6.843   6.824  67.530  1.00  0.00    -0.077 C  
ENDBRANCH  16  27
ENDBRANCH  10  13
ENDBRANCH   8   9
ENDBRANCH   7   8
ENDBRANCH   2   3
TORSDOF 7
ENDMDL
MODEL      210
REMARK 921   NORMALIZED FREE ENERGY PREDICTED BY IDOCK:   -3.54 KCAL/MOL
REMARK 922        TOTAL FREE ENERGY PREDICTED BY IDOCK:   -6.01 KCAL/MOL
REMARK 923 INTER-LIGAND FREE ENERGY PREDICTED BY IDOCK:   -5.74 KCAL/MOL
REMARK 924 INTRA-LIGAND FREE ENERGY PREDICTED BY IDOCK:   -0.28 KCAL/MOL
REMARK 927      BINDING AFFINITY PREDICTED BY RF-SCORE:    0.00 PKD
ROOT
HETATM    1  C   UNL     1      -7.823   2.631  70.725  1.00  0.00    -0.044 C  
HETATM    2  C   UNL     1      -7.167   3.704  69.866  1.00  0.00    -0.042 C  
ENDROOT
BRANCH   2   3
HETATM    3  N   UNL     1      -7.423   5.068  70.351  1.00  0.00    -0.061 NA 
HETATM    4  C   UNL     1      -6.327   5.590  71.174  1.00  0.00    -0.035 C  
HETATM    5  C   UNL     1      -6.536   7.089  71.112  1.00  0.00    -0.041 C  
HETATM    6  C   UNL     1      -6.928   7.324  69.667  1.00  0.00    -0.054 C  
HETATM    7  C   UNL     1      -7.589   6.013  69.217  1.00  0.00    -0.094 C  
BRANCH   7   8
HETATM    8  C   UNL     1      -9.085   6.187  68.885  1.00  0.00    -0.123 C  
BRANCH   8   9
HETATM    9  N   UNL     1      -9.607   7.534  69.050  1.00  0.00    -0.153 N  
HETATM   10  C   UNL     1     -10.234   8.237  68.042  1.00  0.00    -0.214 C  
HETATM   11  H   UNL     1      -9.504   7.984  69.960  1.00  0.00     0.000 HD 
HETATM   12  O   UNL     1     -10.367   7.827  66.902  1.00  0.00    -0.295 OA 
BRANCH  10  13
HETATM   13  C   UNL     1     -10.705   9.595  68.433  1.00  0.00    -0.251 A  
HETATM   14  C   UNL     1     -10.879  10.510  67.375  1.00  0.00    -0.349 A  
HETATM   15  C   UNL     1     -11.313  11.819  67.610  1.00  0.00    -0.302 A  
HETATM   16  C   UNL     1     -11.046   9.987  69.732  1.00  0.00    -0.274 A  
HETATM   17  C   UNL     1     -11.590  12.254  68.907  1.00  0.00    -0.316 A  
HETATM   18  N   UNL     1     -12.158  13.506  69.189  1.00  0.00    -0.320 NA 
HETATM   19  C   UNL     1     -11.518  11.300  69.936  1.00  0.00    -0.373 A  
HETATM   20  H2  UNL     1     -13.023  13.576  68.653  1.00  0.00     0.000 HD 
HETATM   21  H1  UNL     1     -12.360  13.823  70.137  1.00  0.00     0.000 HD 
BRANCH  15  22
HETATM   22  S   UNL     1     -11.321  12.938  66.219  1.00  0.00    -0.341 S  
HETATM   23  O   UNL     1     -10.222  12.555  65.352  1.00  0.00    -0.277 OA 
HETATM   24  O   UNL     1     -12.684  12.951  65.708  1.00  0.00    -0.492 OA 
BRANCH  22  25
HETATM   25  C   UNL     1     -10.971  14.536  66.915  1.00  0.00    -0.316 C  
HETATM   26  C   UNL     1      -9.901  15.252  66.104  1.00  0.00    -0.333 C  
ENDBRANCH  22  25
ENDBRANCH  15  22
BRANCH  16  27
HETATM   27  O   UNL     1     -11.063   9.237  70.875  1.00  0.00    -0.257 OA 
HETATM   28  C   UNL     1     -12.123   9.451  71.801  1.00  0.00    -0.382 C  
ENDBRANCH  16  27
ENDBRANCH  10  13
ENDBRANCH   8   9
ENDBRANCH   7   8
ENDBRANCH   2   3
TORSDOF 7
ENDMDL
MODEL      211
REMARK 921   NORMALIZED FREE ENERGY PREDICTED BY IDOCK:   -3.48 KCAL/MOL
REMARK 922        TOTAL FREE ENERGY PREDICTED BY IDOCK:   -5.92 KCAL/MOL
REMARK 923 INTER-LIGAND FREE ENERGY PREDICTED BY IDOCK:   -4.71 KCAL/MOL
REMARK 924 INTRA-LIGAND FREE ENERGY PREDICTED BY IDOCK:   -1.22 KCAL/MOL
REMARK 927      BINDING AFFINITY PREDICTED BY RF-SCORE:    0.00 PKD
ROOT
HETATM    1  C   UNL     1      -9.486  12.180  67.147  1.00  0.00    -0.190 C  
HETATM    2  C   UNL     1     -10.712  11.320  66.865  1.00  0.00    -0.273 C  
ENDROOT
BRANCH   2   3
HETATM    3  N   UNL     1     -10.558  10.468  65.678  1.00  0.00    -0.126 NA 
HETATM    4  C   UNL     1     -10.359  11.242  64.448  1.00  0.00    -0.329 C  
HETATM    5  C   UNL     1      -9.720  10.238  63.511  1.00  0.00    -0.255 C  
HETATM    6  C   UNL     1      -8.759   9.488  64.411  1.00  0.00    -0.235 C  
HETATM    7  C   UNL     1      -9.377   9.577  65.814  1.00  0.00    -0.233 C  
BRANCH   7   8
HETATM    8  C   UNL     1      -9.810   8.201  66.359  1.00  0.00    -0.190 C  
BRANCH   8   9
HETATM    9  N   UNL     1      -9.987   8.129  67.801  1.00  0.00    -0.170 N  
HETATM   10  C   UNL     1      -9.441   7.135  68.587  1.00  0.00    -0.140 C  
HETATM   11  H   UNL     1     -10.544   8.852  68.255  1.00  0.00     0.000 HD 
HETATM   12  O   UNL     1      -8.805   6.190  68.153  1.00  0.00    -0.114 OA 
BRANCH  10  13
HETATM   13  C   UNL     1      -9.736   7.263  70.042  1.00  0.00    -0.175 A  
HETATM   14  C   UNL     1      -9.897   6.050  70.741  1.00  0.00    -0.221 A  
HETATM   15  C   UNL     1     -10.181   6.033  72.111  1.00  0.00    -0.192 A  
HETATM   16  C   UNL     1      -9.787   8.467  70.751  1.00  0.00    -0.182 A  
HETATM   17  C   UNL     1     -10.308   7.227  72.825  1.00  0.00    -0.240 A  
HETATM   18  N   UNL     1     -10.454   7.271  74.220  1.00  0.00    -0.478 NA 
HETATM   19  C   UNL     1     -10.035   8.421  72.138  1.00  0.00    -0.376 A  
HETATM   20  H2  UNL     1      -9.672   6.755  74.625  1.00  0.00     0.000 HD 
HETATM   21  H1  UNL     1     -10.547   8.143  74.741  1.00  0.00     0.000 HD 
BRANCH  15  22
HETATM   22  S   UNL     1     -10.544   4.450  72.851  1.00  0.00    -0.183 S  
HETATM   23  O   UNL     1     -11.684   4.637  73.730  1.00  0.00    -0.110 OA 
HETATM   24  O   UNL     1     -10.614   3.490  71.759  1.00  0.00     0.157 OA 
BRANCH  22  25
HETATM   25  C   UNL     1      -9.116   4.067  73.839  1.00  0.00    -0.093 C  
HETATM   26  C   UNL     1      -8.118   3.239  73.042  1.00  0.00    -0.076 C  
ENDBRANCH  22  25
ENDBRANCH  15  22
BRANCH  16  27
HETATM   27  O   UNL     1      -9.549   9.736  70.300  1.00  0.00    -0.249 OA 
HETATM   28  C   UNL     1      -8.200  10.119  70.059  1.00  0.00    -0.035 C  
ENDBRANCH  16  27
ENDBRANCH  10  13
ENDBRANCH   8   9
ENDBRANCH   7   8
ENDBRANCH   2   3
TORSDOF 7
ENDMDL
MODEL      212
REMARK 921   NORMALIZED FREE ENERGY PREDICTED BY IDOCK:   -3.47 KCAL/MOL
REMARK 922        TOTAL FREE ENERGY PREDICTED BY IDOCK:   -5.91 KCAL/MOL
REMARK 923 INTER-LIGAND FREE ENERGY PREDICTED BY IDOCK:   -4.89 KCAL/MOL
REMARK 924 INTRA-LIGAND FREE ENERGY PREDICTED BY IDOCK:   -1.02 KCAL/MOL
REMARK 927      BINDING AFFINITY PREDICTED BY RF-SCORE:    0.00 PKD
ROOT
HETATM    1  C   UNL     1     -10.216   4.424  65.105  1.00  0.00    -0.199 C  
HETATM    2  C   UNL     1      -9.957   4.358  66.605  1.00  0.00    -0.210 C  
ENDROOT
BRANCH   2   3
HETATM    3  N   UNL     1      -8.536   4.189  66.937  1.00  0.00    -0.100 NA 
HETATM    4  C   UNL     1      -7.808   3.408  65.932  1.00  0.00    -0.085 C  
HETATM    5  C   UNL     1      -6.364   3.797  66.174  1.00  0.00    -0.033 C  
HETATM    6  C   UNL     1      -6.448   5.286  66.445  1.00  0.00    -0.044 C  
HETATM    7  C   UNL     1      -7.852   5.504  67.029  1.00  0.00    -0.101 C  
BRANCH   7   8
HETATM    8  C   UNL     1      -7.815   5.983  68.495  1.00  0.00    -0.100 C  
BRANCH   8   9
HETATM    9  N   UNL     1      -8.589   7.182  68.778  1.00  0.00    -0.125 N  
HETATM   10  C   UNL     1      -9.846   7.160  69.347  1.00  0.00    -0.161 C  
HETATM   11  H   UNL     1      -8.181   8.086  68.544  1.00  0.00     0.000 HD 
HETATM   12  O   UNL     1     -10.457   6.141  69.619  1.00  0.00    -0.205 OA 
BRANCH  10  13
HETATM   13  C   UNL     1     -10.451   8.504  69.563  1.00  0.00    -0.222 A  
HETATM   14  C   UNL     1     -10.094   9.493  68.625  1.00  0.00    -0.198 A  
HETATM   15  C   UNL     1     -10.592  10.797  68.719  1.00  0.00    -0.200 A  
HETATM   16  C   UNL     1     -11.380   8.818  70.560  1.00  0.00    -0.227 A  
HETATM   17  C   UNL     1     -11.464  11.152  69.749  1.00  0.00    -0.312 A  
HETATM   18  N   UNL     1     -12.102  12.401  69.815  1.00  0.00    -0.262 NA 
HETATM   19  C   UNL     1     -11.898  10.129  70.609  1.00  0.00    -0.431 A  
HETATM   20  H2  UNL     1     -12.599  12.536  68.934  1.00  0.00     0.000 HD 
HETATM   21  H1  UNL     1     -12.740  12.660  70.568  1.00  0.00     0.000 HD 
BRANCH  15  22
HETATM   22  S   UNL     1      -9.928  12.008  67.587  1.00  0.00    -0.194 S  
HETATM   23  O   UNL     1      -9.859  13.270  68.299  1.00  0.00    -0.225 OA 
HETATM   24  O   UNL     1      -8.723  11.424  67.017  1.00  0.00    -0.150 OA 
BRANCH  22  25
HETATM   25  C   UNL     1     -11.145  12.144  66.297  1.00  0.00    -0.310 C  
HETATM   26  C   UNL     1     -10.755  13.228  65.303  1.00  0.00    -0.322 C  
ENDBRANCH  22  25
ENDBRANCH  15  22
BRANCH  16  27
HETATM   27  O   UNL     1     -11.948   7.993  71.491  1.00  0.00    -0.280 OA 
HETATM   28  C   UNL     1     -12.565   8.588  72.627  1.00  0.00    -0.195 C  
ENDBRANCH  16  27
ENDBRANCH  10  13
ENDBRANCH   8   9
ENDBRANCH   7   8
ENDBRANCH   2   3
TORSDOF 7
ENDMDL
MODEL      213
REMARK 921   NORMALIZED FREE ENERGY PREDICTED BY IDOCK:   -3.45 KCAL/MOL
REMARK 922        TOTAL FREE ENERGY PREDICTED BY IDOCK:   -5.89 KCAL/MOL
REMARK 923 INTER-LIGAND FREE ENERGY PREDICTED BY IDOCK:   -4.90 KCAL/MOL
REMARK 924 INTRA-LIGAND FREE ENERGY PREDICTED BY IDOCK:   -0.99 KCAL/MOL
REMARK 927      BINDING AFFINITY PREDICTED BY RF-SCORE:    0.00 PKD
ROOT
HETATM    1  C   UNL     1      -7.347   7.710  64.695  1.00  0.00    -0.085 C  
HETATM    2  C   UNL     1      -7.097   7.508  66.185  1.00  0.00    -0.070 C  
ENDROOT
BRANCH   2   3
HETATM    3  N   UNL     1      -7.964   6.482  66.781  1.00  0.00    -0.107 NA 
HETATM    4  C   UNL     1      -8.709   5.717  65.776  1.00  0.00    -0.151 C  
HETATM    5  C   UNL     1      -9.085   4.451  66.517  1.00  0.00    -0.123 C  
HETATM    6  C   UNL     1      -7.838   4.138  67.321  1.00  0.00    -0.092 C  
HETATM    7  C   UNL     1      -7.166   5.498  67.557  1.00  0.00    -0.075 C  
BRANCH   7   8
HETATM    8  C   UNL     1      -7.139   5.894  69.048  1.00  0.00    -0.069 C  
BRANCH   8   9
HETATM    9  N   UNL     1      -8.110   6.901  69.443  1.00  0.00    -0.125 N  
HETATM   10  C   UNL     1      -9.397   6.604  69.841  1.00  0.00    -0.153 C  
HETATM   11  H   UNL     1      -7.825   7.880  69.425  1.00  0.00     0.000 HD 
HETATM   12  O   UNL     1      -9.869   5.480  69.851  1.00  0.00    -0.166 OA 
BRANCH  10  13
HETATM   13  C   UNL     1     -10.219   7.788  70.217  1.00  0.00    -0.199 A  
HETATM   14  C   UNL     1     -10.390   8.758  69.209  1.00  0.00    -0.221 A  
HETATM   15  C   UNL     1     -11.137   9.919  69.436  1.00  0.00    -0.199 A  
HETATM   16  C   UNL     1     -10.874   7.959  71.441  1.00  0.00    -0.226 A  
HETATM   17  C   UNL     1     -11.739  10.145  70.675  1.00  0.00    -0.338 A  
HETATM   18  N   UNL     1     -12.611  11.218  70.917  1.00  0.00    -0.375 NA 
HETATM   19  C   UNL     1     -11.654   9.119  71.630  1.00  0.00    -0.449 A  
HETATM   20  H2  UNL     1     -13.355  11.170  70.220  1.00  0.00     0.000 HD 
HETATM   21  H1  UNL     1     -13.051  11.383  71.823  1.00  0.00     0.000 HD 
BRANCH  15  22
HETATM   22  S   UNL     1     -11.131  11.158  68.151  1.00  0.00    -0.290 S  
HETATM   23  O   UNL     1     -11.129  10.460  66.879  1.00  0.00    -0.170 OA 
HETATM   24  O   UNL     1     -12.203  12.089  68.471  1.00  0.00    -0.340 OA 
BRANCH  22  25
HETATM   25  C   UNL     1      -9.580  12.008  68.340  1.00  0.00    -0.190 C  
HETATM   26  C   UNL     1      -9.011  12.393  66.982  1.00  0.00    -0.209 C  
ENDBRANCH  22  25
ENDBRANCH  15  22
BRANCH  16  27
HETATM   27  O   UNL     1     -10.940   7.101  72.503  1.00  0.00    -0.243 OA 
HETATM   28  C   UNL     1     -11.875   6.029  72.443  1.00  0.00    -0.231 C  
ENDBRANCH  16  27
ENDBRANCH  10  13
ENDBRANCH   8   9
ENDBRANCH   7   8
ENDBRANCH   2   3
TORSDOF 7
ENDMDL
MODEL      214
REMARK 921   NORMALIZED FREE ENERGY PREDICTED BY IDOCK:   -3.44 KCAL/MOL
REMARK 922        TOTAL FREE ENERGY PREDICTED BY IDOCK:   -5.88 KCAL/MOL
REMARK 923 INTER-LIGAND FREE ENERGY PREDICTED BY IDOCK:   -4.94 KCAL/MOL
REMARK 924 INTRA-LIGAND FREE ENERGY PREDICTED BY IDOCK:   -0.94 KCAL/MOL
REMARK 927      BINDING AFFINITY PREDICTED BY RF-SCORE:    0.00 PKD
ROOT
HETATM    1  C   UNL     1     -12.362  13.730  65.710  1.00  0.00    -0.523 C  
HETATM    2  C   UNL     1     -11.472  14.707  66.467  1.00  0.00    -0.351 C  
ENDROOT
BRANCH   2   3
HETATM    3  N   UNL     1     -11.057  14.206  67.785  1.00  0.00    -0.269 NA 
HETATM    4  C   UNL     1     -11.986  14.586  68.853  1.00  0.00    -0.290 C  
HETATM    5  C   UNL     1     -11.685  13.580  69.944  1.00  0.00    -0.341 C  
HETATM    6  C   UNL     1     -11.486  12.288  69.177  1.00  0.00    -0.352 C  
HETATM    7  C   UNL     1     -10.988  12.722  67.791  1.00  0.00    -0.237 C  
BRANCH   7   8
HETATM    8  C   UNL     1      -9.545  12.257  67.507  1.00  0.00    -0.184 C  
BRANCH   8   9
HETATM    9  N   UNL     1      -9.420  10.918  66.952  1.00  0.00    -0.174 N  
HETATM   10  C   UNL     1      -8.329  10.102  67.168  1.00  0.00    -0.125 C  
HETATM   11  H   UNL     1     -10.179  10.565  66.370  1.00  0.00     0.000 HD 
HETATM   12  O   UNL     1      -7.339  10.434  67.799  1.00  0.00    -0.086 OA 
BRANCH  10  13
HETATM   13  C   UNL     1      -8.416   8.765  66.516  1.00  0.00    -0.120 A  
HETATM   14  C   UNL     1      -8.818   7.703  67.350  1.00  0.00    -0.124 A  
HETATM   15  C   UNL     1      -8.935   6.398  66.861  1.00  0.00    -0.124 A  
HETATM   16  C   UNL     1      -8.203   8.517  65.157  1.00  0.00    -0.152 A  
HETATM   17  C   UNL     1      -8.657   6.114  65.522  1.00  0.00    -0.130 A  
HETATM   18  N   UNL     1      -8.889   4.857  64.943  1.00  0.00    -0.153 NA 
HETATM   19  C   UNL     1      -8.366   7.200  64.680  1.00  0.00     0.048 A  
HETATM   20  H2  UNL     1      -9.868   4.621  65.109  1.00  0.00     0.000 HD 
HETATM   21  H1  UNL     1      -8.686   4.650  63.965  1.00  0.00     0.000 HD 
BRANCH  15  22
HETATM   22  S   UNL     1      -9.273   5.108  68.047  1.00  0.00    -0.120 S  
HETATM   23  O   UNL     1      -9.873   4.003  67.322  1.00  0.00    -0.189 OA 
HETATM   24  O   UNL     1      -8.043   4.905  68.798  1.00  0.00    -0.083 OA 
BRANCH  22  25
HETATM   25  C   UNL     1     -10.489   5.800  69.144  1.00  0.00    -0.276 C  
HETATM   26  C   UNL     1      -9.846   6.235  70.453  1.00  0.00    -0.207 C  
ENDBRANCH  22  25
ENDBRANCH  15  22
BRANCH  16  27
HETATM   27  O   UNL     1      -7.923   9.408  64.158  1.00  0.00    -0.120 OA 
HETATM   28  C   UNL     1      -8.996   9.854  63.336  1.00  0.00    -0.256 C  
ENDBRANCH  16  27
ENDBRANCH  10  13
ENDBRANCH   8   9
ENDBRANCH   7   8
ENDBRANCH   2   3
TORSDOF 7
ENDMDL
MODEL      215
REMARK 921   NORMALIZED FREE ENERGY PREDICTED BY IDOCK:   -3.44 KCAL/MOL
REMARK 922        TOTAL FREE ENERGY PREDICTED BY IDOCK:   -5.87 KCAL/MOL
REMARK 923 INTER-LIGAND FREE ENERGY PREDICTED BY IDOCK:   -4.96 KCAL/MOL
REMARK 924 INTRA-LIGAND FREE ENERGY PREDICTED BY IDOCK:   -0.91 KCAL/MOL
REMARK 927      BINDING AFFINITY PREDICTED BY RF-SCORE:    0.00 PKD
ROOT
HETATM    1  C   UNL     1     -10.206   4.324  65.180  1.00  0.00    -0.228 C  
HETATM    2  C   UNL     1      -9.311   5.034  66.188  1.00  0.00    -0.153 C  
ENDROOT
BRANCH   2   3
HETATM    3  N   UNL     1      -8.114   5.629  65.578  1.00  0.00    -0.116 NA 
HETATM    4  C   UNL     1      -7.868   5.138  64.218  1.00  0.00    -0.094 C  
HETATM    5  C   UNL     1      -6.977   6.207  63.622  1.00  0.00    -0.046 C  
HETATM    6  C   UNL     1      -7.581   7.493  64.149  1.00  0.00    -0.109 C  
HETATM    7  C   UNL     1      -8.246   7.105  65.478  1.00  0.00    -0.139 C  
BRANCH   7   8
HETATM    8  C   UNL     1      -7.580   7.782  66.693  1.00  0.00    -0.097 C  
BRANCH   8   9
HETATM    9  N   UNL     1      -8.491   8.426  67.626  1.00  0.00    -0.129 N  
HETATM   10  C   UNL     1      -9.065   9.660  67.402  1.00  0.00    -0.130 C  
HETATM   11  H   UNL     1      -8.719   7.938  68.492  1.00  0.00     0.000 HD 
HETATM   12  O   UNL     1      -8.827  10.360  66.432  1.00  0.00    -0.143 OA 
BRANCH  10  13
HETATM   13  C   UNL     1      -9.979  10.124  68.482  1.00  0.00    -0.177 A  
HETATM   14  C   UNL     1     -10.428  11.456  68.372  1.00  0.00    -0.221 A  
HETATM   15  C   UNL     1     -11.287  12.014  69.324  1.00  0.00    -0.268 A  
HETATM   16  C   UNL     1     -10.467   9.328  69.523  1.00  0.00    -0.220 A  
HETATM   17  C   UNL     1     -11.729  11.259  70.412  1.00  0.00    -0.304 A  
HETATM   18  N   UNL     1     -12.697  11.718  71.319  1.00  0.00    -0.368 NA 
HETATM   19  C   UNL     1     -11.364   9.903  70.447  1.00  0.00    -0.376 A  
HETATM   20  H2  UNL     1     -13.520  11.984  70.778  1.00  0.00     0.000 HD 
HETATM   21  H1  UNL     1     -13.019  11.165  72.114  1.00  0.00     0.000 HD 
BRANCH  15  22
HETATM   22  S   UNL     1     -11.641  13.758  69.183  1.00  0.00    -0.338 S  
HETATM   23  O   UNL     1     -12.642  14.077  70.184  1.00  0.00    -0.334 OA 
HETATM   24  O   UNL     1     -10.356  14.442  69.191  1.00  0.00    -0.223 OA 
BRANCH  22  25
HETATM   25  C   UNL     1     -12.364  13.950  67.569  1.00  0.00    -0.078 C  
HETATM   26  C   UNL     1     -11.292  14.256  66.533  1.00  0.00    -0.351 C  
ENDBRANCH  22  25
ENDBRANCH  15  22
BRANCH  16  27
HETATM   27  O   UNL     1     -10.258   7.996  69.750  1.00  0.00    -0.197 OA 
HETATM   28  C   UNL     1     -11.393   7.140  69.816  1.00  0.00    -0.123 C  
ENDBRANCH  16  27
ENDBRANCH  10  13
ENDBRANCH   8   9
ENDBRANCH   7   8
ENDBRANCH   2   3
TORSDOF 7
ENDMDL
MODEL      216
REMARK 921   NORMALIZED FREE ENERGY PREDICTED BY IDOCK:   -3.42 KCAL/MOL
REMARK 922        TOTAL FREE ENERGY PREDICTED BY IDOCK:   -5.84 KCAL/MOL
REMARK 923 INTER-LIGAND FREE ENERGY PREDICTED BY IDOCK:   -4.81 KCAL/MOL
REMARK 924 INTRA-LIGAND FREE ENERGY PREDICTED BY IDOCK:   -1.03 KCAL/MOL
REMARK 927      BINDING AFFINITY PREDICTED BY RF-SCORE:    0.00 PKD
ROOT
HETATM    1  C   UNL     1      -8.910   9.832  62.344  1.00  0.00    -0.263 C  
HETATM    2  C   UNL     1      -9.281  10.098  63.798  1.00  0.00    -0.281 C  
ENDROOT
BRANCH   2   3
HETATM    3  N   UNL     1      -8.589   9.208  64.741  1.00  0.00    -0.179 NA 
HETATM    4  C   UNL     1      -7.771   8.195  64.066  1.00  0.00    -0.137 C  
HETATM    5  C   UNL     1      -6.791   7.773  65.141  1.00  0.00    -0.051 C  
HETATM    6  C   UNL     1      -6.439   9.081  65.821  1.00  0.00    -0.064 C  
HETATM    7  C   UNL     1      -7.671   9.976  65.621  1.00  0.00    -0.136 C  
BRANCH   7   8
HETATM    8  C   UNL     1      -8.374  10.322  66.950  1.00  0.00    -0.123 C  
BRANCH   8   9
HETATM    9  N   UNL     1      -8.622   9.194  67.835  1.00  0.00    -0.121 N  
HETATM   10  C   UNL     1      -9.839   8.550  67.926  1.00  0.00    -0.170 C  
HETATM   11  H   UNL     1      -7.856   8.863  68.420  1.00  0.00     0.000 HD 
HETATM   12  O   UNL     1     -10.841   8.890  67.319  1.00  0.00    -0.216 OA 
BRANCH  10  13
HETATM   13  C   UNL     1      -9.867   7.411  68.885  1.00  0.00    -0.157 A  
HETATM   14  C   UNL     1     -10.286   7.725  70.194  1.00  0.00    -0.205 A  
HETATM   15  C   UNL     1     -10.352   6.746  71.190  1.00  0.00    -0.205 A  
HETATM   16  C   UNL     1      -9.586   6.079  68.564  1.00  0.00    -0.121 A  
HETATM   17  C   UNL     1     -10.007   5.422  70.910  1.00  0.00    -0.202 A  
HETATM   18  N   UNL     1     -10.185   4.375  71.827  1.00  0.00    -0.166 NA 
HETATM   19  C   UNL     1      -9.699   5.105  69.577  1.00  0.00    -0.262 A  
HETATM   20  H2  UNL     1     -11.165   4.381  72.110  1.00  0.00     0.000 HD 
HETATM   21  H1  UNL     1      -9.932   3.408  71.622  1.00  0.00     0.000 HD 
BRANCH  15  22
HETATM   22  S   UNL     1     -10.718   7.292  72.850  1.00  0.00    -0.354 S  
HETATM   23  O   UNL     1     -11.689   8.367  72.745  1.00  0.00    -0.367 OA 
HETATM   24  O   UNL     1     -11.033   6.098  73.618  1.00  0.00    -0.196 OA 
BRANCH  22  25
HETATM   25  C   UNL     1      -9.188   7.961  73.461  1.00  0.00    -0.276 C  
HETATM   26  C   UNL     1      -8.294   6.853  73.998  1.00  0.00    -0.157 C  
ENDBRANCH  22  25
ENDBRANCH  15  22
BRANCH  16  27
HETATM   27  O   UNL     1      -9.278   5.540  67.346  1.00  0.00    -0.111 OA 
HETATM   28  C   UNL     1     -10.350   5.151  66.494  1.00  0.00    -0.291 C  
ENDBRANCH  16  27
ENDBRANCH  10  13
ENDBRANCH   8   9
ENDBRANCH   7   8
ENDBRANCH   2   3
TORSDOF 7
ENDMDL
MODEL      217
REMARK 921   NORMALIZED FREE ENERGY PREDICTED BY IDOCK:   -3.41 KCAL/MOL
REMARK 922        TOTAL FREE ENERGY PREDICTED BY IDOCK:   -5.83 KCAL/MOL
REMARK 923 INTER-LIGAND FREE ENERGY PREDICTED BY IDOCK:   -4.57 KCAL/MOL
REMARK 924 INTRA-LIGAND FREE ENERGY PREDICTED BY IDOCK:   -1.26 KCAL/MOL
REMARK 927      BINDING AFFINITY PREDICTED BY RF-SCORE:    0.00 PKD
ROOT
HETATM    1  C   UNL     1     -11.193  12.032  68.645  1.00  0.00    -0.309 C  
HETATM    2  C   UNL     1     -10.569  12.310  67.283  1.00  0.00    -0.224 C  
ENDROOT
BRANCH   2   3
HETATM    3  N   UNL     1     -10.009  11.108  66.650  1.00  0.00    -0.202 NA 
HETATM    4  C   UNL     1     -10.767  10.684  65.468  1.00  0.00    -0.035 C  
HETATM    5  C   UNL     1      -9.775   9.826  64.713  1.00  0.00    -0.213 C  
HETATM    6  C   UNL     1      -8.472  10.582  64.871  1.00  0.00    -0.161 C  
HETATM    7  C   UNL     1      -8.615  11.347  66.195  1.00  0.00    -0.128 C  
BRANCH   7   8
HETATM    8  C   UNL     1      -7.616  10.866  67.268  1.00  0.00    -0.104 C  
BRANCH   8   9
HETATM    9  N   UNL     1      -8.096   9.801  68.133  1.00  0.00    -0.108 N  
HETATM   10  C   UNL     1      -7.797   8.468  67.939  1.00  0.00    -0.103 C  
HETATM   11  H   UNL     1      -8.686  10.052  68.926  1.00  0.00     0.000 HD 
HETATM   12  O   UNL     1      -7.148   8.042  66.998  1.00  0.00    -0.078 OA 
BRANCH  10  13
HETATM   13  C   UNL     1      -8.381   7.547  68.953  1.00  0.00    -0.129 A  
HETATM   14  C   UNL     1      -9.377   8.102  69.781  1.00  0.00    -0.159 A  
HETATM   15  C   UNL     1     -10.002   7.344  70.776  1.00  0.00    -0.182 A  
HETATM   16  C   UNL     1      -8.069   6.190  69.084  1.00  0.00    -0.109 A  
HETATM   17  C   UNL     1      -9.654   6.006  70.973  1.00  0.00    -0.172 A  
HETATM   18  N   UNL     1     -10.340   5.160  71.858  1.00  0.00    -0.208 NA 
HETATM   19  C   UNL     1      -8.742   5.437  70.069  1.00  0.00    -0.130 A  
HETATM   20  H2  UNL     1     -11.327   5.183  71.599  1.00  0.00     0.000 HD 
HETATM   21  H1  UNL     1     -10.086   4.182  72.001  1.00  0.00     0.000 HD 
BRANCH  15  22
HETATM   22  S   UNL     1     -11.113   8.200  71.880  1.00  0.00    -0.308 S  
HETATM   23  O   UNL     1     -10.965   7.597  73.192  1.00  0.00    -0.392 OA 
HETATM   24  O   UNL     1     -10.862   9.622  71.698  1.00  0.00    -0.290 OA 
BRANCH  22  25
HETATM   25  C   UNL     1     -12.741   7.838  71.264  1.00  0.00    -0.250 C  
HETATM   26  C   UNL     1     -13.758   8.824  71.821  1.00  0.00    -0.461 C  
ENDBRANCH  22  25
ENDBRANCH  15  22
BRANCH  16  27
HETATM   27  O   UNL     1      -7.229   5.428  68.321  1.00  0.00    -0.068 OA 
HETATM   28  C   UNL     1      -6.688   4.244  68.897  1.00  0.00    -0.046 C  
ENDBRANCH  16  27
ENDBRANCH  10  13
ENDBRANCH   8   9
ENDBRANCH   7   8
ENDBRANCH   2   3
TORSDOF 7
ENDMDL
MODEL      218
REMARK 921   NORMALIZED FREE ENERGY PREDICTED BY IDOCK:   -3.38 KCAL/MOL
REMARK 922        TOTAL FREE ENERGY PREDICTED BY IDOCK:   -5.78 KCAL/MOL
REMARK 923 INTER-LIGAND FREE ENERGY PREDICTED BY IDOCK:   -4.81 KCAL/MOL
REMARK 924 INTRA-LIGAND FREE ENERGY PREDICTED BY IDOCK:   -0.97 KCAL/MOL
REMARK 927      BINDING AFFINITY PREDICTED BY RF-SCORE:    0.00 PKD
ROOT
HETATM    1  C   UNL     1     -10.896  15.851  69.968  1.00  0.00    -0.356 C  
HETATM    2  C   UNL     1     -10.997  14.344  69.773  1.00  0.00    -0.112 C  
ENDROOT
BRANCH   2   3
HETATM    3  N   UNL     1     -10.774  13.926  68.382  1.00  0.00    -0.249 NA 
HETATM    4  C   UNL     1     -11.745  14.512  67.452  1.00  0.00    -0.400 C  
HETATM    5  C   UNL     1     -11.048  14.401  66.112  1.00  0.00    -0.330 C  
HETATM    6  C   UNL     1      -9.610  14.751  66.440  1.00  0.00    -0.324 C  
HETATM    7  C   UNL     1      -9.429  14.348  67.911  1.00  0.00    -0.214 C  
BRANCH   7   8
HETATM    8  C   UNL     1      -8.419  13.196  68.089  1.00  0.00    -0.173 C  
BRANCH   8   9
HETATM    9  N   UNL     1      -8.928  11.868  67.787  1.00  0.00    -0.166 N  
HETATM   10  C   UNL     1      -8.384  10.708  68.299  1.00  0.00    -0.122 C  
HETATM   11  H   UNL     1      -9.730  11.789  67.162  1.00  0.00     0.000 HD 
HETATM   12  O   UNL     1      -7.394  10.672  69.009  1.00  0.00    -0.088 OA 
BRANCH  10  13
HETATM   13  C   UNL     1      -9.072   9.459  67.870  1.00  0.00    -0.136 A  
HETATM   14  C   UNL     1      -8.364   8.655  66.953  1.00  0.00    -0.108 A  
HETATM   15  C   UNL     1      -8.902   7.458  66.470  1.00  0.00    -0.148 A  
HETATM   16  C   UNL     1     -10.302   9.007  68.359  1.00  0.00    -0.205 A  
HETATM   17  C   UNL     1     -10.161   7.024  66.889  1.00  0.00    -0.226 A  
HETATM   18  N   UNL     1     -10.690   5.770  66.548  1.00  0.00    -0.557 NA 
HETATM   19  C   UNL     1     -10.803   7.777  67.885  1.00  0.00    -0.080 A  
HETATM   20  H2  UNL     1     -10.012   5.064  66.836  1.00  0.00     0.000 HD 
HETATM   21  H1  UNL     1     -11.610   5.453  66.855  1.00  0.00     0.000 HD 
BRANCH  15  22
HETATM   22  S   UNL     1      -7.998   6.620  65.178  1.00  0.00    -0.126 S  
HETATM   23  O   UNL     1      -8.867   5.586  64.647  1.00  0.00    -0.079 OA 
HETATM   24  O   UNL     1      -7.476   7.656  64.300  1.00  0.00    -0.086 OA 
BRANCH  22  25
HETATM   25  C   UNL     1      -6.627   5.846  66.005  1.00  0.00    -0.047 C  
HETATM   26  C   UNL     1      -6.972   4.416  66.393  1.00  0.00    -0.062 C  
ENDBRANCH  22  25
ENDBRANCH  15  22
BRANCH  16  27
HETATM   27  O   UNL     1     -11.094   9.562  69.326  1.00  0.00    -0.190 OA 
HETATM   28  C   UNL     1     -11.369   8.792  70.490  1.00  0.00    -0.227 C  
ENDBRANCH  16  27
ENDBRANCH  10  13
ENDBRANCH   8   9
ENDBRANCH   7   8
ENDBRANCH   2   3
TORSDOF 7
ENDMDL
MODEL      219
REMARK 921   NORMALIZED FREE ENERGY PREDICTED BY IDOCK:   -3.31 KCAL/MOL
REMARK 922        TOTAL FREE ENERGY PREDICTED BY IDOCK:   -5.69 KCAL/MOL
REMARK 923 INTER-LIGAND FREE ENERGY PREDICTED BY IDOCK:   -5.49 KCAL/MOL
REMARK 924 INTRA-LIGAND FREE ENERGY PREDICTED BY IDOCK:   -0.20 KCAL/MOL
REMARK 927      BINDING AFFINITY PREDICTED BY RF-SCORE:    0.00 PKD
ROOT
HETATM    1  C   UNL     1     -10.887   8.939  69.836  1.00  0.00    -0.219 C  
HETATM    2  C   UNL     1      -9.853  10.054  69.736  1.00  0.00    -0.235 C  
ENDROOT
BRANCH   2   3
HETATM    3  N   UNL     1      -9.325  10.230  68.376  1.00  0.00    -0.139 NA 
HETATM    4  C   UNL     1      -8.291   9.246  68.038  1.00  0.00    -0.120 C  
HETATM    5  C   UNL     1      -8.283   9.262  66.524  1.00  0.00    -0.107 C  
HETATM    6  C   UNL     1      -9.754   9.357  66.172  1.00  0.00    -0.334 C  
HETATM    7  C   UNL     1     -10.402  10.075  67.364  1.00  0.00    -0.238 C  
BRANCH   7   8
HETATM    8  C   UNL     1     -10.975  11.456  66.983  1.00  0.00    -0.292 C  
BRANCH   8   9
HETATM    9  N   UNL     1     -10.027  12.558  67.029  1.00  0.00    -0.212 N  
HETATM   10  C   UNL     1     -10.174  13.657  67.850  1.00  0.00    -0.250 C  
HETATM   11  H   UNL     1      -9.209  12.517  66.422  1.00  0.00     0.000 HD 
HETATM   12  O   UNL     1     -11.135  13.844  68.577  1.00  0.00    -0.244 OA 
BRANCH  10  13
HETATM   13  C   UNL     1      -9.078  14.660  67.747  1.00  0.00    -0.191 A  
HETATM   14  C   UNL     1      -9.461  16.004  67.926  1.00  0.00    -0.210 A  
HETATM   15  C   UNL     1      -8.527  17.043  67.850  1.00  0.00    -0.209 A  
HETATM   16  C   UNL     1      -7.725  14.359  67.565  1.00  0.00    -0.192 A  
HETATM   17  C   UNL     1      -7.181  16.770  67.597  1.00  0.00    -0.143 A  
HETATM   18  N   UNL     1      -6.180  17.753  67.646  1.00  0.00    -0.157 NA 
HETATM   19  C   UNL     1      -6.797  15.421  67.532  1.00  0.00    -0.223 A  
HETATM   20  H2  UNL     1      -6.234  18.197  68.563  1.00  0.00     0.000 HD 
HETATM   21  H1  UNL     1      -5.196  17.553  67.461  1.00  0.00     0.000 HD 
BRANCH  15  22
HETATM   22  S   UNL     1      -9.155  18.713  67.911  1.00  0.00    -0.300 S  
HETATM   23  O   UNL     1      -9.778  18.985  66.628  1.00  0.00    -0.309 OA 
HETATM   24  O   UNL     1      -9.932  18.817  69.137  1.00  0.00    -0.359 OA 
BRANCH  22  25
HETATM   25  C   UNL     1      -7.712  19.739  68.076  1.00  0.00    -0.304 C  
HETATM   26  C   UNL     1      -7.708  20.834  67.019  1.00  0.00    -0.271 C  
ENDBRANCH  22  25
ENDBRANCH  15  22
BRANCH  16  27
HETATM   27  O   UNL     1      -7.125  13.133  67.485  1.00  0.00    -0.148 OA 
HETATM   28  C   UNL     1      -6.552  12.588  68.669  1.00  0.00    -0.083 C  
ENDBRANCH  16  27
ENDBRANCH  10  13
ENDBRANCH   8   9
ENDBRANCH   7   8
ENDBRANCH   2   3
TORSDOF 7
ENDMDL
MODEL      220
REMARK 921   NORMALIZED FREE ENERGY PREDICTED BY IDOCK:   -3.30 KCAL/MOL
REMARK 922        TOTAL FREE ENERGY PREDICTED BY IDOCK:   -5.67 KCAL/MOL
REMARK 923 INTER-LIGAND FREE ENERGY PREDICTED BY IDOCK:   -4.54 KCAL/MOL
REMARK 924 INTRA-LIGAND FREE ENERGY PREDICTED BY IDOCK:   -1.13 KCAL/MOL
REMARK 927      BINDING AFFINITY PREDICTED BY RF-SCORE:    0.00 PKD
ROOT
HETATM    1  C   UNL     1      -7.915   6.092  65.784  1.00  0.00    -0.113 C  
HETATM    2  C   UNL     1      -7.790   6.895  67.073  1.00  0.00    -0.111 C  
ENDROOT
BRANCH   2   3
HETATM    3  N   UNL     1      -9.042   6.951  67.841  1.00  0.00    -0.123 NA 
HETATM    4  C   UNL     1     -10.058   6.023  67.335  1.00  0.00    -0.163 C  
HETATM    5  C   UNL     1     -10.992   5.859  68.516  1.00  0.00    -0.277 C  
HETATM    6  C   UNL     1     -10.046   5.790  69.697  1.00  0.00    -0.276 C  
HETATM    7  C   UNL     1      -8.808   6.589  69.263  1.00  0.00    -0.132 C  
BRANCH   7   8
HETATM    8  C   UNL     1      -8.600   7.863  70.107  1.00  0.00    -0.134 C  
BRANCH   8   9
HETATM    9  N   UNL     1      -8.660   9.116  69.371  1.00  0.00    -0.133 N  
HETATM   10  C   UNL     1      -7.730  10.125  69.507  1.00  0.00    -0.155 C  
HETATM   11  H   UNL     1      -9.432   9.256  68.719  1.00  0.00     0.000 HD 
HETATM   12  O   UNL     1      -6.797  10.096  70.293  1.00  0.00    -0.130 OA 
BRANCH  10  13
HETATM   13  C   UNL     1      -7.976  11.316  68.646  1.00  0.00    -0.145 A  
HETATM   14  C   UNL     1      -9.286  11.835  68.682  1.00  0.00    -0.088 A  
HETATM   15  C   UNL     1      -9.647  12.948  67.916  1.00  0.00    -0.215 A  
HETATM   16  C   UNL     1      -7.005  11.977  67.888  1.00  0.00    -0.095 A  
HETATM   17  C   UNL     1      -8.711  13.580  67.095  1.00  0.00    -0.215 A  
HETATM   18  N   UNL     1      -8.977  14.778  66.414  1.00  0.00    -0.451 NA 
HETATM   19  C   UNL     1      -7.386  13.121  67.156  1.00  0.00     0.052 A  
HETATM   20  H2  UNL     1      -9.286  15.461  67.107  1.00  0.00     0.000 HD 
HETATM   21  H1  UNL     1      -8.293  15.240  65.814  1.00  0.00     0.000 HD 
BRANCH  15  22
HETATM   22  S   UNL     1     -11.374  13.403  67.901  1.00  0.00    -0.309 S  
HETATM   23  O   UNL     1     -11.455  14.797  68.299  1.00  0.00    -0.289 OA 
HETATM   24  O   UNL     1     -11.901  12.980  66.612  1.00  0.00    -0.367 OA 
BRANCH  22  25
HETATM   25  C   UNL     1     -12.123  12.402  69.165  1.00  0.00    -0.146 C  
HETATM   26  C   UNL     1     -12.067  13.107  70.512  1.00  0.00    -0.385 C  
ENDBRANCH  22  25
ENDBRANCH  15  22
BRANCH  16  27
HETATM   27  O   UNL     1      -5.665  11.717  67.801  1.00  0.00    -0.047 OA 
HETATM   28  C   UNL     1      -5.185  11.048  66.640  1.00  0.00    -0.088 C  
ENDBRANCH  16  27
ENDBRANCH  10  13
ENDBRANCH   8   9
ENDBRANCH   7   8
ENDBRANCH   2   3
TORSDOF 7
ENDMDL
MODEL      221
REMARK 921   NORMALIZED FREE ENERGY PREDICTED BY IDOCK:   -3.29 KCAL/MOL
REMARK 922        TOTAL FREE ENERGY PREDICTED BY IDOCK:   -5.66 KCAL/MOL
REMARK 923 INTER-LIGAND FREE ENERGY PREDICTED BY IDOCK:   -4.87 KCAL/MOL
REMARK 924 INTRA-LIGAND FREE ENERGY PREDICTED BY IDOCK:   -0.78 KCAL/MOL
REMARK 927      BINDING AFFINITY PREDICTED BY RF-SCORE:    0.00 PKD
ROOT
HETATM    1  C   UNL     1     -11.883  11.510  68.122  1.00  0.00    -0.306 C  
HETATM    2  C   UNL     1     -11.457  12.254  69.382  1.00  0.00    -0.277 C  
ENDROOT
BRANCH   2   3
HETATM    3  N   UNL     1     -11.665  11.474  70.609  1.00  0.00    -0.177 NA 
HETATM    4  C   UNL     1     -12.938  11.783  71.268  1.00  0.00    -0.254 C  
HETATM    5  C   UNL     1     -13.180  10.567  72.137  1.00  0.00    -0.398 C  
HETATM    6  C   UNL     1     -12.743   9.417  71.252  1.00  0.00    -0.391 C  
HETATM    7  C   UNL     1     -11.684  10.017  70.316  1.00  0.00    -0.251 C  
BRANCH   7   8
HETATM    8  C   UNL     1     -10.283   9.412  70.543  1.00  0.00    -0.271 C  
BRANCH   8   9
HETATM    9  N   UNL     1     -10.210   7.962  70.464  1.00  0.00    -0.197 N  
HETATM   10  C   UNL     1      -9.050   7.244  70.671  1.00  0.00    -0.157 C  
HETATM   11  H   UNL     1     -11.062   7.447  70.244  1.00  0.00     0.000 HD 
HETATM   12  O   UNL     1      -7.961   7.750  70.886  1.00  0.00    -0.094 OA 
BRANCH  10  13
HETATM   13  C   UNL     1      -9.205   5.767  70.557  1.00  0.00    -0.168 A  
HETATM   14  C   UNL     1      -9.000   5.230  69.270  1.00  0.00    -0.126 A  
HETATM   15  C   UNL     1      -9.120   3.857  69.029  1.00  0.00    -0.137 A  
HETATM   16  C   UNL     1      -9.460   4.899  71.622  1.00  0.00    -0.153 A  
HETATM   17  C   UNL     1      -9.445   2.979  70.064  1.00  0.00    -0.125 A  
HETATM   18  N   UNL     1      -9.443   1.584  69.913  1.00  0.00    -0.094 NA 
HETATM   19  C   UNL     1      -9.537   3.515  71.359  1.00  0.00    -0.239 A  
HETATM   20  H2  UNL     1      -8.523   1.316  69.564  1.00  0.00     0.000 HD 
HETATM   21  H1  UNL     1      -9.681   0.943  70.670  1.00  0.00     0.000 HD 
BRANCH  15  22
HETATM   22  S   UNL     1      -9.019   3.315  67.331  1.00  0.00    -0.166 S  
HETATM   23  O   UNL     1      -9.352   1.902  67.310  1.00  0.00    -0.109 OA 
HETATM   24  O   UNL     1      -9.799   4.261  66.547  1.00  0.00    -0.207 OA 
BRANCH  22  25
HETATM   25  C   UNL     1      -7.306   3.504  66.890  1.00  0.00    -0.067 C  
HETATM   26  C   UNL     1      -7.135   4.617  65.867  1.00  0.00    -0.074 C  
ENDBRANCH  22  25
ENDBRANCH  15  22
BRANCH  16  27
HETATM   27  O   UNL     1      -9.576   5.189  72.953  1.00  0.00    -0.143 OA 
HETATM   28  C   UNL     1     -10.875   5.459  73.470  1.00  0.00    -0.293 C  
ENDBRANCH  16  27
ENDBRANCH  10  13
ENDBRANCH   8   9
ENDBRANCH   7   8
ENDBRANCH   2   3
TORSDOF 7
ENDMDL
MODEL      222
REMARK 921   NORMALIZED FREE ENERGY PREDICTED BY IDOCK:   -3.27 KCAL/MOL
REMARK 922        TOTAL FREE ENERGY PREDICTED BY IDOCK:   -5.63 KCAL/MOL
REMARK 923 INTER-LIGAND FREE ENERGY PREDICTED BY IDOCK:   -5.47 KCAL/MOL
REMARK 924 INTRA-LIGAND FREE ENERGY PREDICTED BY IDOCK:   -0.15 KCAL/MOL
REMARK 927      BINDING AFFINITY PREDICTED BY RF-SCORE:    0.00 PKD
ROOT
HETATM    1  C   UNL     1      -8.402  12.397  67.474  1.00  0.00    -0.173 C  
HETATM    2  C   UNL     1      -9.123  13.708  67.185  1.00  0.00    -0.239 C  
ENDROOT
BRANCH   2   3
HETATM    3  N   UNL     1     -10.442  13.516  66.566  1.00  0.00    -0.281 NA 
HETATM    4  C   UNL     1     -10.587  14.247  65.303  1.00  0.00    -0.381 C  
HETATM    5  C   UNL     1     -11.726  13.523  64.616  1.00  0.00    -0.412 C  
HETATM    6  C   UNL     1     -11.446  12.066  64.925  1.00  0.00    -0.352 C  
HETATM    7  C   UNL     1     -10.679  12.083  66.256  1.00  0.00    -0.267 C  
BRANCH   7   8
HETATM    8  C   UNL     1     -11.467  11.415  67.402  1.00  0.00    -0.251 C  
BRANCH   8   9
HETATM    9  N   UNL     1     -10.864  10.211  67.953  1.00  0.00    -0.271 N  
HETATM   10  C   UNL     1     -10.291   9.223  67.180  1.00  0.00    -0.260 C  
HETATM   11  H   UNL     1     -10.866  10.092  68.966  1.00  0.00     0.000 HD 
HETATM   12  O   UNL     1     -10.278   9.228  65.961  1.00  0.00    -0.269 OA 
BRANCH  10  13
HETATM   13  C   UNL     1      -9.720   8.085  67.953  1.00  0.00    -0.189 A  
HETATM   14  C   UNL     1      -9.178   8.412  69.212  1.00  0.00    -0.154 A  
HETATM   15  C   UNL     1      -8.608   7.435  70.034  1.00  0.00    -0.140 A  
HETATM   16  C   UNL     1      -9.752   6.744  67.556  1.00  0.00    -0.128 A  
HETATM   17  C   UNL     1      -8.564   6.100  69.626  1.00  0.00    -0.128 A  
HETATM   18  N   UNL     1      -8.132   5.059  70.462  1.00  0.00    -0.091 NA 
HETATM   19  C   UNL     1      -9.206   5.773  68.421  1.00  0.00    -0.121 A  
HETATM   20  H2  UNL     1      -8.692   5.099  71.314  1.00  0.00     0.000 HD 
HETATM   21  H1  UNL     1      -8.100   4.083  70.163  1.00  0.00     0.000 HD 
BRANCH  15  22
HETATM   22  S   UNL     1      -7.792   7.992  71.521  1.00  0.00    -0.109 S  
HETATM   23  O   UNL     1      -6.678   7.093  71.764  1.00  0.00    -0.051 OA 
HETATM   24  O   UNL     1      -7.556   9.418  71.353  1.00  0.00    -0.340 OA 
BRANCH  22  25
HETATM   25  C   UNL     1      -8.994   7.775  72.813  1.00  0.00    -0.181 C  
HETATM   26  C   UNL     1      -8.361   7.995  74.179  1.00  0.00    -0.311 C  
ENDBRANCH  22  25
ENDBRANCH  15  22
BRANCH  16  27
HETATM   27  O   UNL     1     -10.325   6.196  66.442  1.00  0.00    -0.137 OA 
HETATM   28  C   UNL     1     -10.476   4.781  66.393  1.00  0.00    -0.239 C  
ENDBRANCH  16  27
ENDBRANCH  10  13
ENDBRANCH   8   9
ENDBRANCH   7   8
ENDBRANCH   2   3
TORSDOF 7
ENDMDL
MODEL      223
REMARK 921   NORMALIZED FREE ENERGY PREDICTED BY IDOCK:   -3.24 KCAL/MOL
REMARK 922        TOTAL FREE ENERGY PREDICTED BY IDOCK:   -5.59 KCAL/MOL
REMARK 923 INTER-LIGAND FREE ENERGY PREDICTED BY IDOCK:   -4.47 KCAL/MOL
REMARK 924 INTRA-LIGAND FREE ENERGY PREDICTED BY IDOCK:   -1.12 KCAL/MOL
REMARK 927      BINDING AFFINITY PREDICTED BY RF-SCORE:    0.00 PKD
ROOT
HETATM    1  C   UNL     1      -9.391   2.960  72.037  1.00  0.00    -0.182 C  
HETATM    2  C   UNL     1      -8.595   4.167  71.556  1.00  0.00    -0.106 C  
ENDROOT
BRANCH   2   3
HETATM    3  N   UNL     1      -9.205   5.449  71.936  1.00  0.00    -0.138 NA 
HETATM    4  C   UNL     1     -10.510   5.285  72.585  1.00  0.00    -0.218 C  
HETATM    5  C   UNL     1     -10.689   6.590  73.331  1.00  0.00    -0.295 C  
HETATM    6  C   UNL     1      -9.304   6.868  73.880  1.00  0.00    -0.241 C  
HETATM    7  C   UNL     1      -8.343   6.183  72.898  1.00  0.00    -0.116 C  
BRANCH   7   8
HETATM    8  C   UNL     1      -7.447   7.189  72.147  1.00  0.00    -0.085 C  
BRANCH   8   9
HETATM    9  N   UNL     1      -7.957   7.641  70.862  1.00  0.00    -0.093 N  
HETATM   10  C   UNL     1      -8.768   8.747  70.710  1.00  0.00    -0.189 C  
HETATM   11  H   UNL     1      -7.703   7.111  70.029  1.00  0.00     0.000 HD 
HETATM   12  O   UNL     1      -9.183   9.424  71.635  1.00  0.00    -0.258 OA 
BRANCH  10  13
HETATM   13  C   UNL     1      -9.164   9.037  69.304  1.00  0.00    -0.145 A  
HETATM   14  C   UNL     1      -8.217   8.691  68.319  1.00  0.00    -0.122 A  
HETATM   15  C   UNL     1      -8.465   8.915  66.961  1.00  0.00    -0.112 A  
HETATM   16  C   UNL     1     -10.403   9.545  68.903  1.00  0.00    -0.208 A  
HETATM   17  C   UNL     1      -9.667   9.489  66.544  1.00  0.00    -0.222 A  
HETATM   18  N   UNL     1     -10.029   9.611  65.193  1.00  0.00    -0.402 NA 
HETATM   19  C   UNL     1     -10.644   9.725  67.525  1.00  0.00    -0.335 A  
HETATM   20  H2  UNL     1      -9.974   8.681  64.778  1.00  0.00     0.000 HD 
HETATM   21  H1  UNL     1     -10.908  10.030  64.889  1.00  0.00     0.000 HD 
BRANCH  15  22
HETATM   22  S   UNL     1      -7.124   8.607  65.823  1.00  0.00    -0.080 S  
HETATM   23  O   UNL     1      -6.190   7.718  66.490  1.00  0.00    -0.043 OA 
HETATM   24  O   UNL     1      -7.734   8.213  64.563  1.00  0.00    -0.105 OA 
BRANCH  22  25
HETATM   25  C   UNL     1      -6.344  10.189  65.595  1.00  0.00    -0.102 C  
HETATM   26  C   UNL     1      -5.778  10.310  64.187  1.00  0.00    -0.145 C  
ENDBRANCH  22  25
ENDBRANCH  15  22
BRANCH  16  27
HETATM   27  O   UNL     1     -11.496   9.837  69.671  1.00  0.00    -0.175 OA 
HETATM   28  C   UNL     1     -11.671  11.182  70.106  1.00  0.00    -0.353 C  
ENDBRANCH  16  27
ENDBRANCH  10  13
ENDBRANCH   8   9
ENDBRANCH   7   8
ENDBRANCH   2   3
TORSDOF 7
ENDMDL
MODEL      224
REMARK 921   NORMALIZED FREE ENERGY PREDICTED BY IDOCK:   -3.24 KCAL/MOL
REMARK 922        TOTAL FREE ENERGY PREDICTED BY IDOCK:   -5.59 KCAL/MOL
REMARK 923 INTER-LIGAND FREE ENERGY PREDICTED BY IDOCK:   -4.27 KCAL/MOL
REMARK 924 INTRA-LIGAND FREE ENERGY PREDICTED BY IDOCK:   -1.32 KCAL/MOL
REMARK 927      BINDING AFFINITY PREDICTED BY RF-SCORE:    0.00 PKD
ROOT
HETATM    1  C   UNL     1      -5.246   9.998  74.314  1.00  0.00    -0.013 C  
HETATM    2  C   UNL     1      -5.154   8.762  73.428  1.00  0.00    -0.068 C  
ENDROOT
BRANCH   2   3
HETATM    3  N   UNL     1      -6.401   7.985  73.390  1.00  0.00    -0.082 NA 
HETATM    4  C   UNL     1      -7.377   8.433  74.388  1.00  0.00    -0.190 C  
HETATM    5  C   UNL     1      -8.689   7.905  73.846  1.00  0.00    -0.332 C  
HETATM    6  C   UNL     1      -8.570   8.149  72.355  1.00  0.00    -0.245 C  
HETATM    7  C   UNL     1      -7.062   8.109  72.066  1.00  0.00    -0.083 C  
BRANCH   7   8
HETATM    8  C   UNL     1      -6.665   6.924  71.161  1.00  0.00    -0.057 C  
BRANCH   8   9
HETATM    9  N   UNL     1      -7.604   6.611  70.095  1.00  0.00    -0.094 N  
HETATM   10  C   UNL     1      -7.401   5.608  69.170  1.00  0.00    -0.078 C  
HETATM   11  H   UNL     1      -8.458   7.163  70.028  1.00  0.00     0.000 HD 
HETATM   12  O   UNL     1      -6.396   4.919  69.117  1.00  0.00    -0.029 OA 
BRANCH  10  13
HETATM   13  C   UNL     1      -8.498   5.450  68.175  1.00  0.00    -0.097 A  
HETATM   14  C   UNL     1      -8.245   4.545  67.125  1.00  0.00    -0.101 A  
HETATM   15  C   UNL     1      -9.192   4.310  66.124  1.00  0.00    -0.145 A  
HETATM   16  C   UNL     1      -9.751   6.066  68.253  1.00  0.00    -0.124 A  
HETATM   17  C   UNL     1     -10.423   4.969  66.142  1.00  0.00    -0.286 A  
HETATM   18  N   UNL     1     -11.462   4.672  65.246  1.00  0.00    -1.096 NA 
HETATM   19  C   UNL     1     -10.703   5.782  67.252  1.00  0.00    -0.345 A  
HETATM   20  H2  UNL     1     -11.651   3.672  65.318  1.00  0.00     0.000 HD 
HETATM   21  H1  UNL     1     -12.362   5.154  65.260  1.00  0.00     0.000 HD 
BRANCH  15  22
HETATM   22  S   UNL     1      -8.692   3.285  64.750  1.00  0.00    -0.108 S  
HETATM   23  O   UNL     1      -9.399   2.024  64.875  1.00  0.00    -0.134 OA 
HETATM   24  O   UNL     1      -8.851   4.095  63.551  1.00  0.00    -0.112 OA 
BRANCH  22  25
HETATM   25  C   UNL     1      -6.956   2.996  65.002  1.00  0.00    -0.053 C  
HETATM   26  C   UNL     1      -6.727   1.642  65.657  1.00  0.00    -0.031 C  
ENDBRANCH  22  25
ENDBRANCH  15  22
BRANCH  16  27
HETATM   27  O   UNL     1     -10.245   6.880  69.234  1.00  0.00    -0.175 OA 
HETATM   28  C   UNL     1     -10.502   8.241  68.910  1.00  0.00    -0.191 C  
ENDBRANCH  16  27
ENDBRANCH  10  13
ENDBRANCH   8   9
ENDBRANCH   7   8
ENDBRANCH   2   3
TORSDOF 7
ENDMDL
MODEL      225
REMARK 921   NORMALIZED FREE ENERGY PREDICTED BY IDOCK:   -3.22 KCAL/MOL
REMARK 922        TOTAL FREE ENERGY PREDICTED BY IDOCK:   -5.55 KCAL/MOL
REMARK 923 INTER-LIGAND FREE ENERGY PREDICTED BY IDOCK:   -4.47 KCAL/MOL
REMARK 924 INTRA-LIGAND FREE ENERGY PREDICTED BY IDOCK:   -1.09 KCAL/MOL
REMARK 927      BINDING AFFINITY PREDICTED BY RF-SCORE:    0.00 PKD
ROOT
HETATM    1  C   UNL     1     -11.121  13.488  66.517  1.00  0.00    -0.310 C  
HETATM    2  C   UNL     1     -10.303  13.122  67.749  1.00  0.00    -0.230 C  
ENDROOT
BRANCH   2   3
HETATM    3  N   UNL     1      -8.917  12.751  67.430  1.00  0.00    -0.186 NA 
HETATM    4  C   UNL     1      -7.956  13.807  67.766  1.00  0.00    -0.169 C  
HETATM    5  C   UNL     1      -6.643  13.059  67.863  1.00  0.00    -0.131 C  
HETATM    6  C   UNL     1      -7.030  11.771  68.563  1.00  0.00    -0.083 C  
HETATM    7  C   UNL     1      -8.503  11.544  68.191  1.00  0.00    -0.154 C  
BRANCH   7   8
HETATM    8  C   UNL     1      -8.708  10.279  67.332  1.00  0.00    -0.128 C  
BRANCH   8   9
HETATM    9  N   UNL     1      -8.867   9.039  68.077  1.00  0.00    -0.129 N  
HETATM   10  C   UNL     1     -10.047   8.660  68.682  1.00  0.00    -0.190 C  
HETATM   11  H   UNL     1      -8.062   8.418  68.156  1.00  0.00     0.000 HD 
HETATM   12  O   UNL     1     -11.057   9.343  68.702  1.00  0.00    -0.089 OA 
BRANCH  10  13
HETATM   13  C   UNL     1      -9.991   7.345  69.379  1.00  0.00    -0.176 A  
HETATM   14  C   UNL     1     -10.257   7.375  70.762  1.00  0.00    -0.200 A  
HETATM   15  C   UNL     1     -10.233   6.208  71.533  1.00  0.00    -0.203 A  
HETATM   16  C   UNL     1      -9.773   6.111  68.757  1.00  0.00    -0.129 A  
HETATM   17  C   UNL     1      -9.945   4.975  70.946  1.00  0.00    -0.216 A  
HETATM   18  N   UNL     1     -10.042   3.757  71.638  1.00  0.00    -0.131 NA 
HETATM   19  C   UNL     1      -9.793   4.945  69.550  1.00  0.00    -0.287 A  
HETATM   20  H2  UNL     1     -10.985   3.699  72.023  1.00  0.00     0.000 HD 
HETATM   21  H1  UNL     1      -9.832   2.856  71.208  1.00  0.00     0.000 HD 
BRANCH  15  22
HETATM   22  S   UNL     1     -10.404   6.393  73.301  1.00  0.00    -0.253 S  
HETATM   23  O   UNL     1     -10.973   7.706  73.543  1.00  0.00    -0.326 OA 
HETATM   24  O   UNL     1     -11.090   5.201  73.776  1.00  0.00    -0.297 OA 
BRANCH  22  25
HETATM   25  C   UNL     1      -8.740   6.366  73.928  1.00  0.00    -0.125 C  
HETATM   26  C   UNL     1      -8.385   4.982  74.450  1.00  0.00    -0.104 C  
ENDBRANCH  22  25
ENDBRANCH  15  22
BRANCH  16  27
HETATM   27  O   UNL     1      -9.611   5.841  67.427  1.00  0.00    -0.111 OA 
HETATM   28  C   UNL     1      -8.288   5.647  66.938  1.00  0.00    -0.108 C  
ENDBRANCH  16  27
ENDBRANCH  10  13
ENDBRANCH   8   9
ENDBRANCH   7   8
ENDBRANCH   2   3
TORSDOF 7
ENDMDL
MODEL      226
REMARK 921   NORMALIZED FREE ENERGY PREDICTED BY IDOCK:   -3.19 KCAL/MOL
REMARK 922        TOTAL FREE ENERGY PREDICTED BY IDOCK:   -5.52 KCAL/MOL
REMARK 923 INTER-LIGAND FREE ENERGY PREDICTED BY IDOCK:   -4.41 KCAL/MOL
REMARK 924 INTRA-LIGAND FREE ENERGY PREDICTED BY IDOCK:   -1.11 KCAL/MOL
REMARK 927      BINDING AFFINITY PREDICTED BY RF-SCORE:    0.00 PKD
ROOT
HETATM    1  C   UNL     1      -7.538   6.037  65.496  1.00  0.00    -0.085 C  
HETATM    2  C   UNL     1      -7.576   5.597  66.955  1.00  0.00    -0.096 C  
ENDROOT
BRANCH   2   3
HETATM    3  N   UNL     1      -8.136   4.250  67.136  1.00  0.00    -0.100 NA 
HETATM    4  C   UNL     1      -8.837   3.763  65.944  1.00  0.00    -0.122 C  
HETATM    5  C   UNL     1      -8.852   2.262  66.144  1.00  0.00    -0.124 C  
HETATM    6  C   UNL     1      -7.475   1.974  66.706  1.00  0.00    -0.064 C  
HETATM    7  C   UNL     1      -7.063   3.265  67.429  1.00  0.00    -0.058 C  
BRANCH   7   8
HETATM    8  C   UNL     1      -6.922   3.071  68.953  1.00  0.00    -0.048 C  
BRANCH   8   9
HETATM    9  N   UNL     1      -7.781   3.913  69.771  1.00  0.00    -0.052 N  
HETATM   10  C   UNL     1      -8.917   3.455  70.406  1.00  0.00    -0.099 C  
HETATM   11  H   UNL     1      -7.530   4.895  69.881  1.00  0.00     0.000 HD 
HETATM   12  O   UNL     1      -9.346   2.318  70.305  1.00  0.00    -0.115 OA 
BRANCH  10  13
HETATM   13  C   UNL     1      -9.639   4.484  71.204  1.00  0.00    -0.245 A  
HETATM   14  C   UNL     1      -9.656   5.782  70.655  1.00  0.00    -0.214 A  
HETATM   15  C   UNL     1     -10.297   6.839  71.307  1.00  0.00    -0.204 A  
HETATM   16  C   UNL     1     -10.344   4.239  72.386  1.00  0.00    -0.160 A  
HETATM   17  C   UNL     1     -10.946   6.633  72.526  1.00  0.00    -0.247 A  
HETATM   18  N   UNL     1     -11.721   7.618  73.157  1.00  0.00    -0.636 NA 
HETATM   19  C   UNL     1     -11.017   5.314  73.004  1.00  0.00    -0.354 A  
HETATM   20  H2  UNL     1     -12.424   7.929  72.486  1.00  0.00     0.000 HD 
HETATM   21  H1  UNL     1     -12.195   7.467  74.048  1.00  0.00     0.000 HD 
BRANCH  15  22
HETATM   22  S   UNL     1     -10.096   8.471  70.612  1.00  0.00    -0.200 S  
HETATM   23  O   UNL     1     -11.420   9.055  70.495  1.00  0.00    -0.259 OA 
HETATM   24  O   UNL     1      -9.074   9.136  71.406  1.00  0.00    -0.266 OA 
BRANCH  22  25
HETATM   25  C   UNL     1      -9.445   8.198  68.980  1.00  0.00    -0.155 C  
HETATM   26  C   UNL     1     -10.238   8.983  67.946  1.00  0.00    -0.272 C  
ENDBRANCH  22  25
ENDBRANCH  15  22
BRANCH  16  27
HETATM   27  O   UNL     1     -10.555   3.049  73.025  1.00  0.00    -0.155 OA 
HETATM   28  C   UNL     1      -9.467   2.467  73.736  1.00  0.00    -0.083 C  
ENDBRANCH  16  27
ENDBRANCH  10  13
ENDBRANCH   8   9
ENDBRANCH   7   8
ENDBRANCH   2   3
TORSDOF 7
ENDMDL
MODEL      227
REMARK 921   NORMALIZED FREE ENERGY PREDICTED BY IDOCK:   -3.15 KCAL/MOL
REMARK 922        TOTAL FREE ENERGY PREDICTED BY IDOCK:   -5.46 KCAL/MOL
REMARK 923 INTER-LIGAND FREE ENERGY PREDICTED BY IDOCK:   -4.41 KCAL/MOL
REMARK 924 INTRA-LIGAND FREE ENERGY PREDICTED BY IDOCK:   -1.05 KCAL/MOL
REMARK 927      BINDING AFFINITY PREDICTED BY RF-SCORE:    0.00 PKD
ROOT
HETATM    1  C   UNL     1      -5.233   5.935  70.098  1.00  0.00    -0.009 C  
HETATM    2  C   UNL     1      -5.364   4.750  71.048  1.00  0.00    -0.004 C  
ENDROOT
BRANCH   2   3
HETATM    3  N   UNL     1      -6.282   5.008  72.166  1.00  0.00    -0.029 NA 
HETATM    4  C   UNL     1      -5.587   5.139  73.451  1.00  0.00    -0.022 C  
HETATM    5  C   UNL     1      -6.585   5.891  74.306  1.00  0.00    -0.076 C  
HETATM    6  C   UNL     1      -7.160   6.914  73.348  1.00  0.00    -0.074 C  
HETATM    7  C   UNL     1      -7.031   6.274  71.958  1.00  0.00    -0.077 C  
BRANCH   7   8
HETATM    8  C   UNL     1      -8.400   5.981  71.311  1.00  0.00    -0.124 C  
BRANCH   8   9
HETATM    9  N   UNL     1      -8.675   6.705  70.080  1.00  0.00    -0.140 N  
HETATM   10  C   UNL     1      -9.516   7.796  70.009  1.00  0.00    -0.161 C  
HETATM   11  H   UNL     1      -8.223   6.388  69.223  1.00  0.00     0.000 HD 
HETATM   12  O   UNL     1     -10.154   8.232  70.953  1.00  0.00    -0.186 OA 
BRANCH  10  13
HETATM   13  C   UNL     1      -9.643   8.394  68.651  1.00  0.00    -0.153 A  
HETATM   14  C   UNL     1     -10.159   9.705  68.606  1.00  0.00    -0.196 A  
HETATM   15  C   UNL     1     -10.331  10.377  67.392  1.00  0.00    -0.228 A  
HETATM   16  C   UNL     1      -9.226   7.788  67.461  1.00  0.00    -0.132 A  
HETATM   17  C   UNL     1      -9.989   9.763  66.185  1.00  0.00    -0.268 A  
HETATM   18  N   UNL     1     -10.009  10.435  64.953  1.00  0.00    -0.327 NA 
HETATM   19  C   UNL     1      -9.374   8.503  66.254  1.00  0.00    -0.287 A  
HETATM   20  H2  UNL     1      -9.425  11.266  65.049  1.00  0.00     0.000 HD 
HETATM   21  H1  UNL     1      -9.759   9.986  64.071  1.00  0.00     0.000 HD 
BRANCH  15  22
HETATM   22  S   UNL     1     -11.161  11.957  67.443  1.00  0.00    -0.299 S  
HETATM   23  O   UNL     1     -11.965  12.060  66.239  1.00  0.00    -0.596 OA 
HETATM   24  O   UNL     1     -11.791  12.051  68.751  1.00  0.00    -0.300 OA 
BRANCH  22  25
HETATM   25  C   UNL     1      -9.856  13.163  67.365  1.00  0.00    -0.226 C  
HETATM   26  C   UNL     1     -10.368  14.536  67.777  1.00  0.00    -0.237 C  
ENDBRANCH  22  25
ENDBRANCH  15  22
BRANCH  16  27
HETATM   27  O   UNL     1      -8.600   6.585  67.288  1.00  0.00    -0.112 OA 
HETATM   28  C   UNL     1      -8.637   5.990  65.996  1.00  0.00    -0.147 C  
ENDBRANCH  16  27
ENDBRANCH  10  13
ENDBRANCH   8   9
ENDBRANCH   7   8
ENDBRANCH   2   3
TORSDOF 7
ENDMDL
MODEL      228
REMARK 921   NORMALIZED FREE ENERGY PREDICTED BY IDOCK:   -3.14 KCAL/MOL
REMARK 922        TOTAL FREE ENERGY PREDICTED BY IDOCK:   -5.45 KCAL/MOL
REMARK 923 INTER-LIGAND FREE ENERGY PREDICTED BY IDOCK:   -4.75 KCAL/MOL
REMARK 924 INTRA-LIGAND FREE ENERGY PREDICTED BY IDOCK:   -0.70 KCAL/MOL
REMARK 927      BINDING AFFINITY PREDICTED BY RF-SCORE:    0.00 PKD
ROOT
HETATM    1  C   UNL     1     -13.127   8.035  71.173  1.00  0.00    -0.089 C  
HETATM    2  C   UNL     1     -12.616   6.600  71.169  1.00  0.00    -0.135 C  
ENDROOT
BRANCH   2   3
HETATM    3  N   UNL     1     -11.871   6.250  72.387  1.00  0.00    -0.268 NA 
HETATM    4  C   UNL     1     -12.048   4.847  72.775  1.00  0.00     0.279 C  
HETATM    5  C   UNL     1     -10.851   4.583  73.664  1.00  0.00    -0.371 C  
HETATM    6  C   UNL     1      -9.727   5.311  72.955  1.00  0.00    -0.164 C  
HETATM    7  C   UNL     1     -10.413   6.455  72.194  1.00  0.00    -0.207 C  
BRANCH   7   8
HETATM    8  C   UNL     1      -9.998   7.846  72.716  1.00  0.00    -0.283 C  
BRANCH   8   9
HETATM    9  N   UNL     1      -9.723   8.841  71.691  1.00  0.00    -0.272 N  
HETATM   10  C   UNL     1      -8.481   9.023  71.121  1.00  0.00    -0.177 C  
HETATM   11  H   UNL     1     -10.490   9.435  71.378  1.00  0.00     0.000 HD 
HETATM   12  O   UNL     1      -7.479   8.412  71.452  1.00  0.00    -0.077 OA 
BRANCH  10  13
HETATM   13  C   UNL     1      -8.427  10.087  70.080  1.00  0.00    -0.126 A  
HETATM   14  C   UNL     1      -9.669  10.481  69.544  1.00  0.00    -0.147 A  
HETATM   15  C   UNL     1      -9.755  11.468  68.556  1.00  0.00    -0.189 A  
HETATM   16  C   UNL     1      -7.268  10.753  69.666  1.00  0.00    -0.125 A  
HETATM   17  C   UNL     1      -8.603  12.095  68.077  1.00  0.00    -0.175 A  
HETATM   18  N   UNL     1      -8.638  13.184  67.192  1.00  0.00    -0.241 NA 
HETATM   19  C   UNL     1      -7.386  11.772  68.699  1.00  0.00    -0.115 A  
HETATM   20  H2  UNL     1      -9.223  13.904  67.616  1.00  0.00     0.000 HD 
HETATM   21  H1  UNL     1      -7.796  13.642  66.841  1.00  0.00     0.000 HD 
BRANCH  15  22
HETATM   22  S   UNL     1     -11.358  11.754  67.824  1.00  0.00    -0.299 S  
HETATM   23  O   UNL     1     -12.264  10.760  68.370  1.00  0.00    -0.470 OA 
HETATM   24  O   UNL     1     -11.642  13.171  67.991  1.00  0.00    -0.291 OA 
BRANCH  22  25
HETATM   25  C   UNL     1     -11.133  11.431  66.089  1.00  0.00    -0.198 C  
HETATM   26  C   UNL     1     -11.914  12.432  65.251  1.00  0.00    -0.461 C  
ENDBRANCH  22  25
ENDBRANCH  15  22
BRANCH  16  27
HETATM   27  O   UNL     1      -5.990  10.614  70.132  1.00  0.00    -0.071 OA 
HETATM   28  C   UNL     1      -5.129  11.746  70.076  1.00  0.00    -0.075 C  
ENDBRANCH  16  27
ENDBRANCH  10  13
ENDBRANCH   8   9
ENDBRANCH   7   8
ENDBRANCH   2   3
TORSDOF 7
ENDMDL
MODEL      229
REMARK 921   NORMALIZED FREE ENERGY PREDICTED BY IDOCK:   -3.09 KCAL/MOL
REMARK 922        TOTAL FREE ENERGY PREDICTED BY IDOCK:   -5.38 KCAL/MOL
REMARK 923 INTER-LIGAND FREE ENERGY PREDICTED BY IDOCK:   -4.10 KCAL/MOL
REMARK 924 INTRA-LIGAND FREE ENERGY PREDICTED BY IDOCK:   -1.28 KCAL/MOL
REMARK 927      BINDING AFFINITY PREDICTED BY RF-SCORE:    0.00 PKD
ROOT
HETATM    1  C   UNL     1     -11.509  15.512  64.613  1.00  0.00    -0.326 C  
HETATM    2  C   UNL     1     -11.956  14.587  65.738  1.00  0.00    -0.306 C  
ENDROOT
BRANCH   2   3
HETATM    3  N   UNL     1     -11.872  13.164  65.382  1.00  0.00    -0.351 NA 
HETATM    4  C   UNL     1     -12.275  12.903  63.996  1.00  0.00    -0.426 C  
HETATM    5  C   UNL     1     -11.635  11.563  63.699  1.00  0.00    -0.323 C  
HETATM    6  C   UNL     1     -10.277  11.673  64.364  1.00  0.00    -0.346 C  
HETATM    7  C   UNL     1     -10.481  12.663  65.520  1.00  0.00    -0.281 C  
BRANCH   7   8
HETATM    8  C   UNL     1     -10.288  12.006  66.903  1.00  0.00    -0.213 C  
BRANCH   8   9
HETATM    9  N   UNL     1      -9.306  10.934  66.952  1.00  0.00    -0.167 N  
HETATM   10  C   UNL     1      -8.860  10.362  68.126  1.00  0.00    -0.132 C  
HETATM   11  H   UNL     1      -8.927  10.586  66.072  1.00  0.00     0.000 HD 
HETATM   12  O   UNL     1      -9.198  10.729  69.238  1.00  0.00    -0.153 OA 
BRANCH  10  13
HETATM   13  C   UNL     1      -7.864   9.270  67.944  1.00  0.00    -0.092 A  
HETATM   14  C   UNL     1      -8.235   8.012  68.460  1.00  0.00    -0.126 A  
HETATM   15  C   UNL     1      -7.387   6.905  68.357  1.00  0.00    -0.093 A  
HETATM   16  C   UNL     1      -6.655   9.388  67.250  1.00  0.00    -0.071 A  
HETATM   17  C   UNL     1      -6.143   7.018  67.732  1.00  0.00    -0.033 A  
HETATM   18  N   UNL     1      -5.312   5.916  67.477  1.00  0.00    -0.005 NA 
HETATM   19  C   UNL     1      -5.836   8.247  67.126  1.00  0.00    -0.043 A  
HETATM   20  H2  UNL     1      -5.859   5.238  66.947  1.00  0.00     0.000 HD 
HETATM   21  H1  UNL     1      -4.403   6.000  67.020  1.00  0.00     0.000 HD 
BRANCH  15  22
HETATM   22  S   UNL     1      -7.882   5.414  69.206  1.00  0.00    -0.090 S  
HETATM   23  O   UNL     1      -7.480   4.293  68.376  1.00  0.00    -0.063 OA 
HETATM   24  O   UNL     1      -7.384   5.530  70.568  1.00  0.00    -0.070 OA 
BRANCH  22  25
HETATM   25  C   UNL     1      -9.658   5.483  69.254  1.00  0.00    -0.136 C  
HETATM   26  C   UNL     1     -10.255   4.825  68.018  1.00  0.00    -0.057 C  
ENDBRANCH  22  25
ENDBRANCH  15  22
BRANCH  16  27
HETATM   27  O   UNL     1      -6.157  10.470  66.578  1.00  0.00    -0.065 OA 
HETATM   28  C   UNL     1      -5.964  10.357  65.173  1.00  0.00    -0.133 C  
ENDBRANCH  16  27
ENDBRANCH  10  13
ENDBRANCH   8   9
ENDBRANCH   7   8
ENDBRANCH   2   3
TORSDOF 7
ENDMDL
MODEL      230
REMARK 921   NORMALIZED FREE ENERGY PREDICTED BY IDOCK:   -3.07 KCAL/MOL
REMARK 922        TOTAL FREE ENERGY PREDICTED BY IDOCK:   -5.35 KCAL/MOL
REMARK 923 INTER-LIGAND FREE ENERGY PREDICTED BY IDOCK:   -4.40 KCAL/MOL
REMARK 924 INTRA-LIGAND FREE ENERGY PREDICTED BY IDOCK:   -0.95 KCAL/MOL
REMARK 927      BINDING AFFINITY PREDICTED BY RF-SCORE:    0.00 PKD
ROOT
HETATM    1  C   UNL     1     -13.649   8.556  71.815  1.00  0.00    -0.419 C  
HETATM    2  C   UNL     1     -12.912   7.284  71.414  1.00  0.00    -0.373 C  
ENDROOT
BRANCH   2   3
HETATM    3  N   UNL     1     -11.647   7.099  72.137  1.00  0.00    -0.272 NA 
HETATM    4  C   UNL     1     -11.556   5.791  72.795  1.00  0.00    -0.214 C  
HETATM    5  C   UNL     1     -10.067   5.611  72.998  1.00  0.00    -0.202 C  
HETATM    6  C   UNL     1      -9.474   6.148  71.711  1.00  0.00    -0.162 C  
HETATM    7  C   UNL     1     -10.488   7.187  71.211  1.00  0.00    -0.205 C  
BRANCH   7   8
HETATM    8  C   UNL     1      -9.917   8.620  71.211  1.00  0.00    -0.246 C  
BRANCH   8   9
HETATM    9  N   UNL     1      -9.310   9.050  69.961  1.00  0.00    -0.172 N  
HETATM   10  C   UNL     1      -8.071   9.653  69.882  1.00  0.00    -0.171 C  
HETATM   11  H   UNL     1      -9.828   8.897  69.096  1.00  0.00     0.000 HD 
HETATM   12  O   UNL     1      -7.385   9.936  70.850  1.00  0.00    -0.328 OA 
BRANCH  10  13
HETATM   13  C   UNL     1      -7.636   9.997  68.500  1.00  0.00    -0.087 A  
HETATM   14  C   UNL     1      -7.760   8.968  67.546  1.00  0.00    -0.096 A  
HETATM   15  C   UNL     1      -7.382   9.162  66.213  1.00  0.00    -0.092 A  
HETATM   16  C   UNL     1      -7.198  11.258  68.084  1.00  0.00    -0.081 A  
HETATM   17  C   UNL     1      -6.873  10.392  65.792  1.00  0.00    -0.132 A  
HETATM   18  N   UNL     1      -6.609  10.689  64.446  1.00  0.00    -0.362 NA 
HETATM   19  C   UNL     1      -6.861  11.440  66.727  1.00  0.00    -0.132 A  
HETATM   20  H2  UNL     1      -7.467  10.518  63.921  1.00  0.00     0.000 HD 
HETATM   21  H1  UNL     1      -6.237  11.588  64.138  1.00  0.00     0.000 HD 
BRANCH  15  22
HETATM   22  S   UNL     1      -7.411   7.736  65.139  1.00  0.00    -0.089 S  
HETATM   23  O   UNL     1      -8.065   6.663  65.866  1.00  0.00    -0.112 OA 
HETATM   24  O   UNL     1      -7.950   8.189  63.866  1.00  0.00    -0.141 OA 
BRANCH  22  25
HETATM   25  C   UNL     1      -5.702   7.308  64.901  1.00  0.00    -0.037 C  
HETATM   26  C   UNL     1      -5.303   7.481  63.442  1.00  0.00    -0.038 C  
ENDBRANCH  22  25
ENDBRANCH  15  22
BRANCH  16  27
HETATM   27  O   UNL     1      -7.113  12.416  68.807  1.00  0.00    -0.097 OA 
HETATM   28  C   UNL     1      -7.737  13.582  68.282  1.00  0.00    -0.137 C  
ENDBRANCH  16  27
ENDBRANCH  10  13
ENDBRANCH   8   9
ENDBRANCH   7   8
ENDBRANCH   2   3
TORSDOF 7
ENDMDL
MODEL      231
REMARK 921   NORMALIZED FREE ENERGY PREDICTED BY IDOCK:   -3.06 KCAL/MOL
REMARK 922        TOTAL FREE ENERGY PREDICTED BY IDOCK:   -5.34 KCAL/MOL
REMARK 923 INTER-LIGAND FREE ENERGY PREDICTED BY IDOCK:   -4.18 KCAL/MOL
REMARK 924 INTRA-LIGAND FREE ENERGY PREDICTED BY IDOCK:   -1.16 KCAL/MOL
REMARK 927      BINDING AFFINITY PREDICTED BY RF-SCORE:    0.00 PKD
ROOT
HETATM    1  C   UNL     1     -11.335  11.997  66.700  1.00  0.00    -0.399 C  
HETATM    2  C   UNL     1     -10.792  12.965  67.744  1.00  0.00    -0.229 C  
ENDROOT
BRANCH   2   3
HETATM    3  N   UNL     1     -10.911  12.458  69.118  1.00  0.00    -0.196 NA 
HETATM    4  C   UNL     1     -12.157  12.875  69.769  1.00  0.00    -0.245 C  
HETATM    5  C   UNL     1     -12.315  11.865  70.886  1.00  0.00    -0.400 C  
HETATM    6  C   UNL     1     -11.889  10.563  70.238  1.00  0.00    -0.418 C  
HETATM    7  C   UNL     1     -10.899  10.973  69.138  1.00  0.00    -0.237 C  
BRANCH   7   8
HETATM    8  C   UNL     1      -9.470  10.457  69.406  1.00  0.00    -0.183 C  
BRANCH   8   9
HETATM    9  N   UNL     1      -9.369   9.043  69.733  1.00  0.00    -0.164 N  
HETATM   10  C   UNL     1      -8.295   8.490  70.398  1.00  0.00    -0.124 C  
HETATM   11  H   UNL     1     -10.133   8.428  69.456  1.00  0.00     0.000 HD 
HETATM   12  O   UNL     1      -7.300   9.113  70.731  1.00  0.00    -0.090 OA 
BRANCH  10  13
HETATM   13  C   UNL     1      -8.405   7.025  70.644  1.00  0.00    -0.127 A  
HETATM   14  C   UNL     1      -9.001   6.653  71.865  1.00  0.00    -0.136 A  
HETATM   15  C   UNL     1      -9.160   5.309  72.217  1.00  0.00    -0.138 A  
HETATM   16  C   UNL     1      -8.035   6.026  69.738  1.00  0.00    -0.106 A  
HETATM   17  C   UNL     1      -8.732   4.294  71.359  1.00  0.00    -0.111 A  
HETATM   18  N   UNL     1      -8.989   2.935  71.594  1.00  0.00    -0.080 NA 
HETATM   19  C   UNL     1      -8.243   4.679  70.100  1.00  0.00    -0.068 A  
HETATM   20  H2  UNL     1      -9.997   2.830  71.710  1.00  0.00     0.000 HD 
HETATM   21  H1  UNL     1      -8.676   2.194  70.966  1.00  0.00     0.000 HD 
BRANCH  15  22
HETATM   22  S   UNL     1      -9.759   4.960  73.862  1.00  0.00    -0.145 S  
HETATM   23  O   UNL     1      -8.891   3.946  74.431  1.00  0.00    -0.094 OA 
HETATM   24  O   UNL     1      -9.913   6.245  74.527  1.00  0.00    -0.283 OA 
BRANCH  22  25
HETATM   25  C   UNL     1     -11.376   4.260  73.623  1.00  0.00    -0.191 C  
HETATM   26  C   UNL     1     -12.236   5.176  72.764  1.00  0.00     0.177 C  
ENDBRANCH  22  25
ENDBRANCH  15  22
BRANCH  16  27
HETATM   27  O   UNL     1      -7.551   6.161  68.466  1.00  0.00    -0.089 OA 
HETATM   28  C   UNL     1      -8.461   6.007  67.382  1.00  0.00    -0.104 C  
ENDBRANCH  16  27
ENDBRANCH  10  13
ENDBRANCH   8   9
ENDBRANCH   7   8
ENDBRANCH   2   3
TORSDOF 7
ENDMDL
MODEL      232
REMARK 921   NORMALIZED FREE ENERGY PREDICTED BY IDOCK:   -3.06 KCAL/MOL
REMARK 922        TOTAL FREE ENERGY PREDICTED BY IDOCK:   -5.33 KCAL/MOL
REMARK 923 INTER-LIGAND FREE ENERGY PREDICTED BY IDOCK:   -4.14 KCAL/MOL
REMARK 924 INTRA-LIGAND FREE ENERGY PREDICTED BY IDOCK:   -1.19 KCAL/MOL
REMARK 927      BINDING AFFINITY PREDICTED BY RF-SCORE:    0.00 PKD
ROOT
HETATM    1  C   UNL     1     -13.114  13.428  65.179  1.00  0.00    -0.085 C  
HETATM    2  C   UNL     1     -12.325  13.816  66.424  1.00  0.00    -0.412 C  
ENDROOT
BRANCH   2   3
HETATM    3  N   UNL     1     -10.880  13.924  66.180  1.00  0.00    -0.289 NA 
HETATM    4  C   UNL     1     -10.335  15.225  66.580  1.00  0.00    -0.280 C  
HETATM    5  C   UNL     1      -8.856  14.942  66.744  1.00  0.00    -0.291 C  
HETATM    6  C   UNL     1      -8.836  13.580  67.408  1.00  0.00    -0.221 C  
HETATM    7  C   UNL     1     -10.134  12.897  66.951  1.00  0.00    -0.241 C  
BRANCH   7   8
HETATM    8  C   UNL     1      -9.872  11.658  66.070  1.00  0.00    -0.230 C  
BRANCH   8   9
HETATM    9  N   UNL     1      -9.574  10.431  66.792  1.00  0.00    -0.167 N  
HETATM   10  C   UNL     1      -8.546   9.576  66.451  1.00  0.00    -0.134 C  
HETATM   11  H   UNL     1     -10.155  10.190  67.594  1.00  0.00     0.000 HD 
HETATM   12  O   UNL     1      -7.821   9.729  65.483  1.00  0.00    -0.112 OA 
BRANCH  10  13
HETATM   13  C   UNL     1      -8.411   8.385  67.335  1.00  0.00    -0.124 A  
HETATM   14  C   UNL     1      -8.064   7.181  66.690  1.00  0.00    -0.109 A  
HETATM   15  C   UNL     1      -7.910   5.990  67.407  1.00  0.00    -0.102 A  
HETATM   16  C   UNL     1      -8.528   8.399  68.729  1.00  0.00    -0.124 A  
HETATM   17  C   UNL     1      -8.093   5.966  68.791  1.00  0.00    -0.103 A  
HETATM   18  N   UNL     1      -7.818   4.837  69.579  1.00  0.00    -0.066 NA 
HETATM   19  C   UNL     1      -8.328   7.193  69.433  1.00  0.00    -0.133 A  
HETATM   20  H2  UNL     1      -6.852   4.565  69.395  1.00  0.00     0.000 HD 
HETATM   21  H1  UNL     1      -7.952   4.820  70.591  1.00  0.00     0.000 HD 
BRANCH  15  22
HETATM   22  S   UNL     1      -7.650   4.496  66.465  1.00  0.00    -0.091 S  
HETATM   23  O   UNL     1      -7.289   4.895  65.117  1.00  0.00    -0.069 OA 
HETATM   24  O   UNL     1      -6.747   3.666  67.247  1.00  0.00    -0.044 OA 
BRANCH  22  25
HETATM   25  C   UNL     1      -9.240   3.701  66.420  1.00  0.00    -0.167 C  
HETATM   26  C   UNL     1      -9.221   2.416  67.234  1.00  0.00    -0.151 C  
ENDBRANCH  22  25
ENDBRANCH  15  22
BRANCH  16  27
HETATM   27  O   UNL     1      -8.741   9.464  69.559  1.00  0.00    -0.139 OA 
HETATM   28  C   UNL     1      -9.967   9.517  70.280  1.00  0.00    -0.259 C  
ENDBRANCH  16  27
ENDBRANCH  10  13
ENDBRANCH   8   9
ENDBRANCH   7   8
ENDBRANCH   2   3
TORSDOF 7
ENDMDL
MODEL      233
REMARK 921   NORMALIZED FREE ENERGY PREDICTED BY IDOCK:   -3.03 KCAL/MOL
REMARK 922        TOTAL FREE ENERGY PREDICTED BY IDOCK:   -5.30 KCAL/MOL
REMARK 923 INTER-LIGAND FREE ENERGY PREDICTED BY IDOCK:   -4.45 KCAL/MOL
REMARK 924 INTRA-LIGAND FREE ENERGY PREDICTED BY IDOCK:   -0.85 KCAL/MOL
REMARK 927      BINDING AFFINITY PREDICTED BY RF-SCORE:    0.00 PKD
ROOT
HETATM    1  C   UNL     1     -11.326  15.503  70.123  1.00  0.00    -0.339 C  
HETATM    2  C   UNL     1     -10.223  15.598  69.076  1.00  0.00    -0.225 C  
ENDROOT
BRANCH   2   3
HETATM    3  N   UNL     1     -10.736  15.646  67.700  1.00  0.00    -0.296 NA 
HETATM    4  C   UNL     1     -10.631  16.982  67.104  1.00  0.00    -0.245 C  
HETATM    5  C   UNL     1     -10.698  16.700  65.617  1.00  0.00    -0.222 C  
HETATM    6  C   UNL     1      -9.860  15.446  65.465  1.00  0.00    -0.359 C  
HETATM    7  C   UNL     1      -9.973  14.727  66.817  1.00  0.00    -0.251 C  
BRANCH   7   8
HETATM    8  C   UNL     1     -10.700  13.371  66.707  1.00  0.00    -0.277 C  
BRANCH   8   9
HETATM    9  N   UNL     1      -9.944  12.219  67.172  1.00  0.00    -0.204 N  
HETATM   10  C   UNL     1      -9.605  11.153  66.364  1.00  0.00    -0.200 C  
HETATM   11  H   UNL     1      -9.649  12.197  68.148  1.00  0.00     0.000 HD 
HETATM   12  O   UNL     1      -9.947  11.041  65.199  1.00  0.00    -0.243 OA 
BRANCH  10  13
HETATM   13  C   UNL     1      -8.816  10.087  67.042  1.00  0.00    -0.147 A  
HETATM   14  C   UNL     1      -9.004   8.780  66.550  1.00  0.00    -0.180 A  
HETATM   15  C   UNL     1      -8.325   7.690  67.103  1.00  0.00    -0.121 A  
HETATM   16  C   UNL     1      -7.873  10.302  68.053  1.00  0.00    -0.100 A  
HETATM   17  C   UNL     1      -7.434   7.871  68.162  1.00  0.00    -0.107 A  
HETATM   18  N   UNL     1      -6.623   6.842  68.664  1.00  0.00    -0.049 NA 
HETATM   19  C   UNL     1      -7.173   9.191  68.567  1.00  0.00    -0.073 A  
HETATM   20  H2  UNL     1      -6.092   6.461  67.881  1.00  0.00     0.000 HD 
HETATM   21  H1  UNL     1      -5.972   6.974  69.439  1.00  0.00     0.000 HD 
BRANCH  15  22
HETATM   22  S   UNL     1      -8.780   6.064  66.523  1.00  0.00    -0.132 S  
HETATM   23  O   UNL     1      -8.046   5.101  67.323  1.00  0.00    -0.103 OA 
HETATM   24  O   UNL     1     -10.234   6.029  66.489  1.00  0.00    -0.181 OA 
BRANCH  22  25
HETATM   25  C   UNL     1      -8.182   5.991  64.849  1.00  0.00    -0.130 C  
HETATM   26  C   UNL     1      -7.246   4.805  64.665  1.00  0.00    -0.062 C  
ENDBRANCH  22  25
ENDBRANCH  15  22
BRANCH  16  27
HETATM   27  O   UNL     1      -7.453  11.485  68.593  1.00  0.00    -0.104 OA 
HETATM   28  C   UNL     1      -6.268  11.480  69.381  1.00  0.00    -0.094 C  
ENDBRANCH  16  27
ENDBRANCH  10  13
ENDBRANCH   8   9
ENDBRANCH   7   8
ENDBRANCH   2   3
TORSDOF 7
ENDMDL
MODEL      234
REMARK 921   NORMALIZED FREE ENERGY PREDICTED BY IDOCK:   -3.00 KCAL/MOL
REMARK 922        TOTAL FREE ENERGY PREDICTED BY IDOCK:   -5.25 KCAL/MOL
REMARK 923 INTER-LIGAND FREE ENERGY PREDICTED BY IDOCK:   -4.88 KCAL/MOL
REMARK 924 INTRA-LIGAND FREE ENERGY PREDICTED BY IDOCK:   -0.37 KCAL/MOL
REMARK 927      BINDING AFFINITY PREDICTED BY RF-SCORE:    0.00 PKD
ROOT
HETATM    1  C   UNL     1      -7.072   8.839  70.839  1.00  0.00    -0.076 C  
HETATM    2  C   UNL     1      -7.790   7.853  69.926  1.00  0.00    -0.103 C  
ENDROOT
BRANCH   2   3
HETATM    3  N   UNL     1      -6.925   6.758  69.466  1.00  0.00    -0.064 NA 
HETATM    4  C   UNL     1      -6.973   5.589  70.350  1.00  0.00    -0.057 C  
HETATM    5  C   UNL     1      -6.478   4.467  69.461  1.00  0.00    -0.033 C  
HETATM    6  C   UNL     1      -7.134   4.765  68.129  1.00  0.00    -0.061 C  
HETATM    7  C   UNL     1      -7.337   6.288  68.118  1.00  0.00    -0.089 C  
BRANCH   7   8
HETATM    8  C   UNL     1      -6.497   6.990  67.031  1.00  0.00    -0.050 C  
BRANCH   8   9
HETATM    9  N   UNL     1      -7.155   8.094  66.352  1.00  0.00    -0.073 N  
HETATM   10  C   UNL     1      -8.410   8.003  65.787  1.00  0.00    -0.138 C  
HETATM   11  H   UNL     1      -6.662   8.984  66.289  1.00  0.00     0.000 HD 
HETATM   12  O   UNL     1      -9.072   6.979  65.751  1.00  0.00    -0.080 OA 
BRANCH  10  13
HETATM   13  C   UNL     1      -8.899   9.260  65.154  1.00  0.00    -0.238 A  
HETATM   14  C   UNL     1      -9.551  10.164  66.017  1.00  0.00    -0.265 A  
HETATM   15  C   UNL     1     -10.060  11.379  65.546  1.00  0.00    -0.247 A  
HETATM   16  C   UNL     1      -8.694   9.623  63.820  1.00  0.00    -0.223 A  
HETATM   17  C   UNL     1      -9.930  11.730  64.201  1.00  0.00    -0.272 A  
HETATM   18  N   UNL     1     -10.295  12.989  63.700  1.00  0.00    -0.623 NA 
HETATM   19  C   UNL     1      -9.182  10.871  63.379  1.00  0.00    -0.276 A  
HETATM   20  H2  UNL     1      -9.797  13.691  64.248  1.00  0.00     0.000 HD 
HETATM   21  H1  UNL     1     -10.200  13.245  62.717  1.00  0.00     0.000 HD 
BRANCH  15  22
HETATM   22  S   UNL     1     -11.024  12.357  66.686  1.00  0.00    -0.282 S  
HETATM   23  O   UNL     1     -10.214  13.501  67.063  1.00  0.00    -0.245 OA 
HETATM   24  O   UNL     1     -12.324  12.557  66.062  1.00  0.00    -0.615 OA 
BRANCH  22  25
HETATM   25  C   UNL     1     -11.244  11.317  68.111  1.00  0.00    -0.286 C  
HETATM   26  C   UNL     1     -11.207  12.142  69.389  1.00  0.00    -0.248 C  
ENDBRANCH  22  25
ENDBRANCH  15  22
BRANCH  16  27
HETATM   27  O   UNL     1      -7.995   8.958  62.850  1.00  0.00    -0.142 OA 
HETATM   28  C   UNL     1      -8.147   7.546  62.763  1.00  0.00    -0.091 C  
ENDBRANCH  16  27
ENDBRANCH  10  13
ENDBRANCH   8   9
ENDBRANCH   7   8
ENDBRANCH   2   3
TORSDOF 7
ENDMDL
MODEL      235
REMARK 921   NORMALIZED FREE ENERGY PREDICTED BY IDOCK:   -2.89 KCAL/MOL
REMARK 922        TOTAL FREE ENERGY PREDICTED BY IDOCK:   -5.10 KCAL/MOL
REMARK 923 INTER-LIGAND FREE ENERGY PREDICTED BY IDOCK:   -3.84 KCAL/MOL
REMARK 924 INTRA-LIGAND FREE ENERGY PREDICTED BY IDOCK:   -1.26 KCAL/MOL
REMARK 927      BINDING AFFINITY PREDICTED BY RF-SCORE:    0.00 PKD
ROOT
HETATM    1  C   UNL     1     -10.205  10.821  67.947  1.00  0.00    -0.203 C  
HETATM    2  C   UNL     1      -9.129  11.660  67.267  1.00  0.00    -0.167 C  
ENDROOT
BRANCH   2   3
HETATM    3  N   UNL     1      -7.782  11.089  67.403  1.00  0.00    -0.110 NA 
HETATM    4  C   UNL     1      -7.216  10.661  66.120  1.00  0.00    -0.138 C  
HETATM    5  C   UNL     1      -5.728  10.620  66.397  1.00  0.00    -0.087 C  
HETATM    6  C   UNL     1      -5.501  11.850  67.252  1.00  0.00    -0.121 C  
HETATM    7  C   UNL     1      -6.838  12.086  67.971  1.00  0.00    -0.078 C  
BRANCH   7   8
HETATM    8  C   UNL     1      -6.729  11.904  69.499  1.00  0.00    -0.054 C  
BRANCH   8   9
HETATM    9  N   UNL     1      -7.251  10.650  70.016  1.00  0.00    -0.310 N  
HETATM   10  C   UNL     1      -6.676   9.958  71.062  1.00  0.00     0.099 C  
HETATM   11  H   UNL     1      -8.088  10.260  69.583  1.00  0.00     0.000 HD 
HETATM   12  O   UNL     1      -5.647  10.295  71.622  1.00  0.00    -0.256 OA 
BRANCH  10  13
HETATM   13  C   UNL     1      -7.384   8.703  71.440  1.00  0.00    -0.116 A  
HETATM   14  C   UNL     1      -8.725   8.607  71.016  1.00  0.00    -0.227 A  
HETATM   15  C   UNL     1      -9.502   7.482  71.309  1.00  0.00    -0.150 A  
HETATM   16  C   UNL     1      -6.803   7.617  72.101  1.00  0.00    -0.061 A  
HETATM   17  C   UNL     1      -8.962   6.415  72.032  1.00  0.00    -0.137 A  
HETATM   18  N   UNL     1      -9.646   5.207  72.236  1.00  0.00    -0.148 NA 
HETATM   19  C   UNL     1      -7.596   6.477  72.349  1.00  0.00    -0.095 A  
HETATM   20  H2  UNL     1      -9.914   4.849  71.319  1.00  0.00     0.000 HD 
HETATM   21  H1  UNL     1      -9.251   4.427  72.764  1.00  0.00     0.000 HD 
BRANCH  15  22
HETATM   22  S   UNL     1     -11.234   7.550  70.882  1.00  0.00    -0.272 S  
HETATM   23  O   UNL     1     -11.968   6.912  71.960  1.00  0.00    -0.298 OA 
HETATM   24  O   UNL     1     -11.517   8.931  70.524  1.00  0.00    -0.258 OA 
BRANCH  22  25
HETATM   25  C   UNL     1     -11.385   6.551  69.418  1.00  0.00    -0.332 C  
HETATM   26  C   UNL     1     -10.491   7.086  68.309  1.00  0.00    -0.237 C  
ENDBRANCH  22  25
ENDBRANCH  15  22
BRANCH  16  27
HETATM   27  O   UNL     1      -5.504   7.451  72.494  1.00  0.00    -0.037 OA 
HETATM   28  C   UNL     1      -5.188   7.655  73.867  1.00  0.00    -0.045 C  
ENDBRANCH  16  27
ENDBRANCH  10  13
ENDBRANCH   8   9
ENDBRANCH   7   8
ENDBRANCH   2   3
TORSDOF 7
ENDMDL
MODEL      236
REMARK 921   NORMALIZED FREE ENERGY PREDICTED BY IDOCK:   -2.87 KCAL/MOL
REMARK 922        TOTAL FREE ENERGY PREDICTED BY IDOCK:   -5.07 KCAL/MOL
REMARK 923 INTER-LIGAND FREE ENERGY PREDICTED BY IDOCK:   -4.23 KCAL/MOL
REMARK 924 INTRA-LIGAND FREE ENERGY PREDICTED BY IDOCK:   -0.83 KCAL/MOL
REMARK 927      BINDING AFFINITY PREDICTED BY RF-SCORE:    0.00 PKD
ROOT
HETATM    1  C   UNL     1     -11.908  11.052  68.902  1.00  0.00    -0.378 C  
HETATM    2  C   UNL     1     -11.833  11.654  70.300  1.00  0.00    -0.326 C  
ENDROOT
BRANCH   2   3
HETATM    3  N   UNL     1     -12.102  10.676  71.364  1.00  0.00    -0.296 NA 
HETATM    4  C   UNL     1     -13.532  10.542  71.661  1.00  0.00    -0.214 C  
HETATM    5  C   UNL     1     -13.616   9.192  72.341  1.00  0.00    -0.544 C  
HETATM    6  C   UNL     1     -12.658   8.338  71.535  1.00  0.00    -0.333 C  
HETATM    7  C   UNL     1     -11.622   9.324  70.976  1.00  0.00    -0.313 C  
BRANCH   7   8
HETATM    8  C   UNL     1     -10.208   9.081  71.541  1.00  0.00    -0.344 C  
BRANCH   8   9
HETATM    9  N   UNL     1      -9.582   7.832  71.137  1.00  0.00    -0.158 N  
HETATM   10  C   UNL     1      -8.440   7.326  71.725  1.00  0.00    -0.111 C  
HETATM   11  H   UNL     1     -10.009   7.301  70.379  1.00  0.00     0.000 HD 
HETATM   12  O   UNL     1      -7.811   7.896  72.600  1.00  0.00    -0.102 OA 
BRANCH  10  13
HETATM   13  C   UNL     1      -7.979   6.025  71.165  1.00  0.00    -0.116 A  
HETATM   14  C   UNL     1      -7.670   6.027  69.791  1.00  0.00    -0.096 A  
HETATM   15  C   UNL     1      -7.229   4.868  69.143  1.00  0.00    -0.053 A  
HETATM   16  C   UNL     1      -7.768   4.858  71.907  1.00  0.00    -0.103 A  
HETATM   17  C   UNL     1      -7.081   3.672  69.850  1.00  0.00    -0.042 A  
HETATM   18  N   UNL     1      -6.514   2.518  69.288  1.00  0.00    -0.029 NA 
HETATM   19  C   UNL     1      -7.286   3.714  71.238  1.00  0.00    -0.033 A  
HETATM   20  H2  UNL     1      -5.595   2.774  68.926  1.00  0.00     0.000 HD 
HETATM   21  H1  UNL     1      -6.405   1.644  69.804  1.00  0.00     0.000 HD 
BRANCH  15  22
HETATM   22  S   UNL     1      -7.044   4.943  67.369  1.00  0.00    -0.067 S  
HETATM   23  O   UNL     1      -6.569   6.275  67.042  1.00  0.00    -0.054 OA 
HETATM   24  O   UNL     1      -6.264   3.776  66.986  1.00  0.00    -0.033 OA 
BRANCH  22  25
HETATM   25  C   UNL     1      -8.691   4.749  66.727  1.00  0.00    -0.107 C  
HETATM   26  C   UNL     1      -9.230   3.361  67.042  1.00  0.00    -0.208 C  
ENDBRANCH  22  25
ENDBRANCH  15  22
BRANCH  16  27
HETATM   27  O   UNL     1      -7.891   4.668  73.255  1.00  0.00    -0.093 OA 
HETATM   28  C   UNL     1      -8.607   3.524  73.708  1.00  0.00    -0.082 C  
ENDBRANCH  16  27
ENDBRANCH  10  13
ENDBRANCH   8   9
ENDBRANCH   7   8
ENDBRANCH   2   3
TORSDOF 7
ENDMDL
MODEL      237
REMARK 921   NORMALIZED FREE ENERGY PREDICTED BY IDOCK:   -2.79 KCAL/MOL
REMARK 922        TOTAL FREE ENERGY PREDICTED BY IDOCK:   -4.96 KCAL/MOL
REMARK 923 INTER-LIGAND FREE ENERGY PREDICTED BY IDOCK:   -4.17 KCAL/MOL
REMARK 924 INTRA-LIGAND FREE ENERGY PREDICTED BY IDOCK:   -0.79 KCAL/MOL
REMARK 927      BINDING AFFINITY PREDICTED BY RF-SCORE:    0.00 PKD
ROOT
HETATM    1  C   UNL     1     -12.957   7.990  71.647  1.00  0.00    -0.351 C  
HETATM    2  C   UNL     1     -12.241   6.671  71.911  1.00  0.00    -0.335 C  
ENDROOT
BRANCH   2   3
HETATM    3  N   UNL     1     -10.867   6.848  72.399  1.00  0.00    -0.226 NA 
HETATM    4  C   UNL     1     -10.636   6.195  73.692  1.00  0.00    -0.263 C  
HETATM    5  C   UNL     1      -9.130   6.046  73.737  1.00  0.00    -0.127 C  
HETATM    6  C   UNL     1      -8.778   5.650  72.318  1.00  0.00    -0.132 C  
HETATM    7  C   UNL     1      -9.886   6.263  71.449  1.00  0.00    -0.173 C  
BRANCH   7   8
HETATM    8  C   UNL     1      -9.355   7.354  70.496  1.00  0.00    -0.157 C  
BRANCH   8   9
HETATM    9  N   UNL     1      -9.001   6.897  69.161  1.00  0.00    -0.134 N  
HETATM   10  C   UNL     1      -9.927   6.477  68.229  1.00  0.00    -0.143 C  
HETATM   11  H   UNL     1      -8.016   6.887  68.900  1.00  0.00     0.000 HD 
HETATM   12  O   UNL     1     -11.125   6.393  68.443  1.00  0.00    -0.315 OA 
BRANCH  10  13
HETATM   13  C   UNL     1      -9.347   6.065  66.920  1.00  0.00    -0.140 A  
HETATM   14  C   UNL     1      -8.822   7.107  66.130  1.00  0.00    -0.171 A  
HETATM   15  C   UNL     1      -8.253   6.853  64.878  1.00  0.00    -0.074 A  
HETATM   16  C   UNL     1      -9.225   4.746  66.472  1.00  0.00    -0.133 A  
HETATM   17  C   UNL     1      -8.186   5.551  64.379  1.00  0.00    -0.127 A  
HETATM   18  N   UNL     1      -7.505   5.220  63.197  1.00  0.00    -0.050 NA 
HETATM   19  C   UNL     1      -8.610   4.514  65.224  1.00  0.00    -0.128 A  
HETATM   20  H2  UNL     1      -6.547   5.560  63.291  1.00  0.00     0.000 HD 
HETATM   21  H1  UNL     1      -7.456   4.268  62.832  1.00  0.00     0.000 HD 
BRANCH  15  22
HETATM   22  S   UNL     1      -7.789   8.266  63.890  1.00  0.00    -0.148 S  
HETATM   23  O   UNL     1      -7.734   7.826  62.508  1.00  0.00    -0.109 OA 
HETATM   24  O   UNL     1      -8.679   9.350  64.276  1.00  0.00    -0.191 OA 
BRANCH  22  25
HETATM   25  C   UNL     1      -6.144   8.679  64.424  1.00  0.00    -0.066 C  
HETATM   26  C   UNL     1      -5.907  10.179  64.323  1.00  0.00    -0.139 C  
ENDBRANCH  22  25
ENDBRANCH  15  22
BRANCH  16  27
HETATM   27  O   UNL     1      -9.556   3.588  67.120  1.00  0.00    -0.207 OA 
HETATM   28  C   UNL     1      -8.919   2.384  66.709  1.00  0.00    -0.125 C  
ENDBRANCH  16  27
ENDBRANCH  10  13
ENDBRANCH   8   9
ENDBRANCH   7   8
ENDBRANCH   2   3
TORSDOF 7
ENDMDL
MODEL      238
REMARK 921   NORMALIZED FREE ENERGY PREDICTED BY IDOCK:   -2.76 KCAL/MOL
REMARK 922        TOTAL FREE ENERGY PREDICTED BY IDOCK:   -4.91 KCAL/MOL
REMARK 923 INTER-LIGAND FREE ENERGY PREDICTED BY IDOCK:   -4.39 KCAL/MOL
REMARK 924 INTRA-LIGAND FREE ENERGY PREDICTED BY IDOCK:   -0.52 KCAL/MOL
REMARK 927      BINDING AFFINITY PREDICTED BY RF-SCORE:    0.00 PKD
ROOT
HETATM    1  C   UNL     1     -14.333   7.961  71.700  1.00  0.00    -0.595 C  
HETATM    2  C   UNL     1     -13.190   7.121  71.144  1.00  0.00    -0.191 C  
ENDROOT
BRANCH   2   3
HETATM    3  N   UNL     1     -12.058   7.002  72.073  1.00  0.00    -0.305 NA 
HETATM    4  C   UNL     1     -11.985   5.684  72.712  1.00  0.00    -0.024 C  
HETATM    5  C   UNL     1     -10.543   5.602  73.168  1.00  0.00    -0.277 C  
HETATM    6  C   UNL     1      -9.780   6.221  72.015  1.00  0.00    -0.164 C  
HETATM    7  C   UNL     1     -10.767   7.202  71.365  1.00  0.00    -0.225 C  
BRANCH   7   8
HETATM    8  C   UNL     1     -10.313   8.670  71.493  1.00  0.00    -0.271 C  
BRANCH   8   9
HETATM    9  N   UNL     1      -9.458   9.154  70.421  1.00  0.00    -0.208 N  
HETATM   10  C   UNL     1      -9.698   8.908  69.084  1.00  0.00    -0.168 C  
HETATM   11  H   UNL     1      -8.636   9.703  70.669  1.00  0.00     0.000 HD 
HETATM   12  O   UNL     1     -10.615   8.221  68.669  1.00  0.00    -0.192 OA 
BRANCH  10  13
HETATM   13  C   UNL     1      -8.703   9.510  68.154  1.00  0.00    -0.120 A  
HETATM   14  C   UNL     1      -8.123  10.722  68.580  1.00  0.00    -0.136 A  
HETATM   15  C   UNL     1      -7.177  11.391  67.797  1.00  0.00    -0.089 A  
HETATM   16  C   UNL     1      -8.263   8.932  66.959  1.00  0.00    -0.106 A  
HETATM   17  C   UNL     1      -6.778  10.868  66.565  1.00  0.00    -0.133 A  
HETATM   18  N   UNL     1      -5.736  11.419  65.803  1.00  0.00    -0.502 NA 
HETATM   19  C   UNL     1      -7.279   9.606  66.207  1.00  0.00    -0.094 A  
HETATM   20  H2  UNL     1      -4.909  11.460  66.399  1.00  0.00     0.000 HD 
HETATM   21  H1  UNL     1      -5.444  11.036  64.903  1.00  0.00     0.000 HD 
BRANCH  15  22
HETATM   22  S   UNL     1      -6.650  13.004  68.351  1.00  0.00    -0.103 S  
HETATM   23  O   UNL     1      -7.002  13.113  69.755  1.00  0.00     0.141 OA 
HETATM   24  O   UNL     1      -5.265  13.153  67.932  1.00  0.00    -0.097 OA 
BRANCH  22  25
HETATM   25  C   UNL     1      -7.640  14.154  67.422  1.00  0.00    -0.158 C  
HETATM   26  C   UNL     1      -8.603  14.896  68.338  1.00  0.00    -0.159 C  
ENDBRANCH  22  25
ENDBRANCH  15  22
BRANCH  16  27
HETATM   27  O   UNL     1      -8.601   7.721  66.420  1.00  0.00    -0.130 OA 
HETATM   28  C   UNL     1      -7.562   6.777  66.188  1.00  0.00    -0.086 C  
ENDBRANCH  16  27
ENDBRANCH  10  13
ENDBRANCH   8   9
ENDBRANCH   7   8
ENDBRANCH   2   3
TORSDOF 7
ENDMDL
MODEL      239
REMARK 921   NORMALIZED FREE ENERGY PREDICTED BY IDOCK:   -2.74 KCAL/MOL
REMARK 922        TOTAL FREE ENERGY PREDICTED BY IDOCK:   -4.88 KCAL/MOL
REMARK 923 INTER-LIGAND FREE ENERGY PREDICTED BY IDOCK:   -3.99 KCAL/MOL
REMARK 924 INTRA-LIGAND FREE ENERGY PREDICTED BY IDOCK:   -0.89 KCAL/MOL
REMARK 927      BINDING AFFINITY PREDICTED BY RF-SCORE:    0.00 PKD
ROOT
HETATM    1  C   UNL     1     -10.894  10.540  67.688  1.00  0.00    -0.355 C  
HETATM    2  C   UNL     1      -9.902  11.289  66.807  1.00  0.00    -0.199 C  
ENDROOT
BRANCH   2   3
HETATM    3  N   UNL     1      -8.546  10.725  66.858  1.00  0.00    -0.130 NA 
HETATM    4  C   UNL     1      -8.045  10.335  65.535  1.00  0.00    -0.156 C  
HETATM    5  C   UNL     1      -6.545  10.297  65.734  1.00  0.00    -0.119 C  
HETATM    6  C   UNL     1      -6.281  11.507  66.608  1.00  0.00    -0.113 C  
HETATM    7  C   UNL     1      -7.579  11.714  67.401  1.00  0.00    -0.139 C  
BRANCH   7   8
HETATM    8  C   UNL     1      -7.389  11.493  68.916  1.00  0.00    -0.116 C  
BRANCH   8   9
HETATM    9  N   UNL     1      -7.683  10.150  69.392  1.00  0.00    -0.123 N  
HETATM   10  C   UNL     1      -7.089   9.588  70.503  1.00  0.00    -0.127 C  
HETATM   11  H   UNL     1      -8.364   9.593  68.876  1.00  0.00     0.000 HD 
HETATM   12  O   UNL     1      -6.223  10.134  71.166  1.00  0.00    -0.289 OA 
BRANCH  10  13
HETATM   13  C   UNL     1      -7.547   8.207  70.820  1.00  0.00    -0.071 A  
HETATM   14  C   UNL     1      -8.098   7.484  69.742  1.00  0.00    -0.126 A  
HETATM   15  C   UNL     1      -8.569   6.178  69.908  1.00  0.00    -0.132 A  
HETATM   16  C   UNL     1      -7.403   7.573  72.058  1.00  0.00    -0.069 A  
HETATM   17  C   UNL     1      -8.501   5.551  71.154  1.00  0.00    -0.126 A  
HETATM   18  N   UNL     1      -8.828   4.200  71.350  1.00  0.00    -0.105 NA 
HETATM   19  C   UNL     1      -7.849   6.242  72.189  1.00  0.00    -0.104 A  
HETATM   20  H2  UNL     1      -8.262   3.652  70.701  1.00  0.00     0.000 HD 
HETATM   21  H1  UNL     1      -8.779   3.743  72.260  1.00  0.00     0.000 HD 
BRANCH  15  22
HETATM   22  S   UNL     1      -9.411   5.430  68.523  1.00  0.00    -0.123 S  
HETATM   23  O   UNL     1      -8.692   5.818  67.323  1.00  0.00    -0.110 OA 
HETATM   24  O   UNL     1      -9.576   4.022  68.851  1.00  0.00    -0.170 OA 
BRANCH  22  25
HETATM   25  C   UNL     1     -11.018   6.190  68.498  1.00  0.00    -0.320 C  
HETATM   26  C   UNL     1     -11.586   6.291  69.906  1.00  0.00    -0.361 C  
ENDBRANCH  22  25
ENDBRANCH  15  22
BRANCH  16  27
HETATM   27  O   UNL     1      -6.799   8.040  73.192  1.00  0.00    -0.085 OA 
HETATM   28  C   UNL     1      -7.610   8.258  74.342  1.00  0.00    -0.223 C  
ENDBRANCH  16  27
ENDBRANCH  10  13
ENDBRANCH   8   9
ENDBRANCH   7   8
ENDBRANCH   2   3
TORSDOF 7
ENDMDL
MODEL      240
REMARK 921   NORMALIZED FREE ENERGY PREDICTED BY IDOCK:   -2.73 KCAL/MOL
REMARK 922        TOTAL FREE ENERGY PREDICTED BY IDOCK:   -4.87 KCAL/MOL
REMARK 923 INTER-LIGAND FREE ENERGY PREDICTED BY IDOCK:   -4.47 KCAL/MOL
REMARK 924 INTRA-LIGAND FREE ENERGY PREDICTED BY IDOCK:   -0.41 KCAL/MOL
REMARK 927      BINDING AFFINITY PREDICTED BY RF-SCORE:    0.00 PKD
ROOT
HETATM    1  C   UNL     1      -7.050   8.715  71.395  1.00  0.00    -0.092 C  
HETATM    2  C   UNL     1      -8.284   8.507  72.265  1.00  0.00    -0.103 C  
ENDROOT
BRANCH   2   3
HETATM    3  N   UNL     1      -9.482   8.156  71.490  1.00  0.00    -0.159 NA 
HETATM    4  C   UNL     1     -10.596   7.717  72.338  1.00  0.00    -0.278 C  
HETATM    5  C   UNL     1     -11.805   7.920  71.449  1.00  0.00    -0.328 C  
HETATM    6  C   UNL     1     -11.507   9.233  70.754  1.00  0.00    -0.351 C  
HETATM    7  C   UNL     1      -9.975   9.323  70.715  1.00  0.00    -0.290 C  
BRANCH   7   8
HETATM    8  C   UNL     1      -9.416   9.280  69.277  1.00  0.00    -0.160 C  
BRANCH   8   9
HETATM    9  N   UNL     1      -9.230  10.575  68.642  1.00  0.00    -0.164 N  
HETATM   10  C   UNL     1      -8.008  11.208  68.544  1.00  0.00    -0.143 C  
HETATM   11  H   UNL     1     -10.047  11.040  68.247  1.00  0.00     0.000 HD 
HETATM   12  O   UNL     1      -6.974  10.777  69.025  1.00  0.00    -0.068 OA 
BRANCH  10  13
HETATM   13  C   UNL     1      -8.044  12.520  67.841  1.00  0.00    -0.163 A  
HETATM   14  C   UNL     1      -9.069  12.673  66.886  1.00  0.00    -0.218 A  
HETATM   15  C   UNL     1      -9.209  13.857  66.154  1.00  0.00    -0.011 A  
HETATM   16  C   UNL     1      -7.201  13.602  68.110  1.00  0.00    -0.117 A  
HETATM   17  C   UNL     1      -8.333  14.925  66.355  1.00  0.00     0.261 A  
HETATM   18  N   UNL     1      -8.507  16.181  65.753  1.00  0.00    -0.155 NA 
HETATM   19  C   UNL     1      -7.388  14.798  67.386  1.00  0.00    -0.214 A  
HETATM   20  H2  UNL     1      -9.444  16.506  65.992  1.00  0.00     0.000 HD 
HETATM   21  H1  UNL     1      -7.866  16.961  65.901  1.00  0.00     0.000 HD 
BRANCH  15  22
HETATM   22  S   UNL     1     -10.426  13.870  64.847  1.00  0.00    -0.414 S  
HETATM   23  O   UNL     1     -10.814  15.252  64.634  1.00  0.00    -0.379 OA 
HETATM   24  O   UNL     1      -9.864  13.093  63.752  1.00  0.00    -0.061 OA 
BRANCH  22  25
HETATM   25  C   UNL     1     -11.817  12.980  65.506  1.00  0.00    -0.395 C  
HETATM   26  C   UNL     1     -12.722  13.910  66.301  1.00  0.00    -0.260 C  
ENDBRANCH  22  25
ENDBRANCH  15  22
BRANCH  16  27
HETATM   27  O   UNL     1      -6.226  13.711  69.063  1.00  0.00    -0.086 OA 
HETATM   28  C   UNL     1      -6.020  14.981  69.670  1.00  0.00    -0.116 C  
ENDBRANCH  16  27
ENDBRANCH  10  13
ENDBRANCH   8   9
ENDBRANCH   7   8
ENDBRANCH   2   3
TORSDOF 7
ENDMDL
MODEL      241
REMARK 921   NORMALIZED FREE ENERGY PREDICTED BY IDOCK:   -2.69 KCAL/MOL
REMARK 922        TOTAL FREE ENERGY PREDICTED BY IDOCK:   -4.82 KCAL/MOL
REMARK 923 INTER-LIGAND FREE ENERGY PREDICTED BY IDOCK:   -5.48 KCAL/MOL
REMARK 924 INTRA-LIGAND FREE ENERGY PREDICTED BY IDOCK:    0.67 KCAL/MOL
REMARK 927      BINDING AFFINITY PREDICTED BY RF-SCORE:    0.00 PKD
ROOT
HETATM    1  C   UNL     1     -11.141  16.237  69.466  1.00  0.00    -0.330 C  
HETATM    2  C   UNL     1     -12.443  15.633  69.977  1.00  0.00    -0.217 C  
ENDROOT
BRANCH   2   3
HETATM    3  N   UNL     1     -12.233  14.505  70.895  1.00  0.00    -0.316 NA 
HETATM    4  C   UNL     1     -13.115  14.556  72.066  1.00  0.00    -0.344 C  
HETATM    5  C   UNL     1     -13.117  13.123  72.556  1.00  0.00    -0.320 C  
HETATM    6  C   UNL     1     -13.170  12.318  71.274  1.00  0.00    -0.071 C  
HETATM    7  C   UNL     1     -12.503  13.211  70.217  1.00  0.00    -0.163 C  
BRANCH   7   8
HETATM    8  C   UNL     1     -11.189  12.610  69.677  1.00  0.00    -0.007 C  
BRANCH   8   9
HETATM    9  N   UNL     1     -10.271  13.561  69.072  1.00  0.00    -0.431 N  
HETATM   10  C   UNL     1      -9.905  13.527  67.742  1.00  0.00    -0.233 C  
HETATM   11  H   UNL     1      -9.875  14.292  69.662  1.00  0.00     0.000 HD 
HETATM   12  O   UNL     1     -10.268  12.671  66.954  1.00  0.00    -0.231 OA 
BRANCH  10  13
HETATM   13  C   UNL     1      -8.964  14.606  67.330  1.00  0.00    -0.202 A  
HETATM   14  C   UNL     1      -9.559  15.831  66.969  1.00  0.00    -0.236 A  
HETATM   15  C   UNL     1      -8.786  16.922  66.560  1.00  0.00    -0.271 A  
HETATM   16  C   UNL     1      -7.569  14.509  67.349  1.00  0.00    -0.184 A  
HETATM   17  C   UNL     1      -7.395  16.825  66.502  1.00  0.00    -0.271 A  
HETATM   18  N   UNL     1      -6.562  17.922  66.233  1.00  0.00    -0.226 NA 
HETATM   19  C   UNL     1      -6.811  15.637  66.970  1.00  0.00    -0.009 A  
HETATM   20  H2  UNL     1      -6.789  18.651  66.911  1.00  0.00     0.000 HD 
HETATM   21  H1  UNL     1      -5.545  17.851  66.191  1.00  0.00     0.000 HD 
BRANCH  15  22
HETATM   22  S   UNL     1      -9.656  18.358  65.953  1.00  0.00     0.279 S  
HETATM   23  O   UNL     1      -8.656  19.304  65.492  1.00  0.00    -0.211 OA 
HETATM   24  O   UNL     1     -10.674  17.868  65.037  1.00  0.00    -0.653 OA 
BRANCH  22  25
HETATM   25  C   UNL     1     -10.471  19.037  67.380  1.00  0.00    -0.457 C  
HETATM   26  C   UNL     1     -10.048  20.482  67.605  1.00  0.00    -0.412 C  
ENDBRANCH  22  25
ENDBRANCH  15  22
BRANCH  16  27
HETATM   27  O   UNL     1      -6.790  13.468  67.770  1.00  0.00    -0.132 OA 
HETATM   28  C   UNL     1      -6.475  12.444  66.832  1.00  0.00     0.164 C  
ENDBRANCH  16  27
ENDBRANCH  10  13
ENDBRANCH   8   9
ENDBRANCH   7   8
ENDBRANCH   2   3
TORSDOF 7
ENDMDL
MODEL      242
REMARK 921   NORMALIZED FREE ENERGY PREDICTED BY IDOCK:   -2.67 KCAL/MOL
REMARK 922        TOTAL FREE ENERGY PREDICTED BY IDOCK:   -4.78 KCAL/MOL
REMARK 923 INTER-LIGAND FREE ENERGY PREDICTED BY IDOCK:   -4.04 KCAL/MOL
REMARK 924 INTRA-LIGAND FREE ENERGY PREDICTED BY IDOCK:   -0.74 KCAL/MOL
REMARK 927      BINDING AFFINITY PREDICTED BY RF-SCORE:    0.00 PKD
ROOT
HETATM    1  C   UNL     1      -9.150  10.611  64.363  1.00  0.00    -0.240 C  
HETATM    2  C   UNL     1      -7.982   9.652  64.172  1.00  0.00    -0.143 C  
ENDROOT
BRANCH   2   3
HETATM    3  N   UNL     1      -7.954   8.572  65.168  1.00  0.00    -0.122 NA 
HETATM    4  C   UNL     1      -7.267   7.371  64.682  1.00  0.00    -0.069 C  
HETATM    5  C   UNL     1      -6.900   6.645  65.960  1.00  0.00    -0.053 C  
HETATM    6  C   UNL     1      -6.465   7.767  66.882  1.00  0.00    -0.055 C  
HETATM    7  C   UNL     1      -7.239   9.002  66.397  1.00  0.00    -0.087 C  
BRANCH   7   8
HETATM    8  C   UNL     1      -8.246   9.518  67.445  1.00  0.00    -0.114 C  
BRANCH   8   9
HETATM    9  N   UNL     1      -8.663   8.544  68.441  1.00  0.00    -0.142 N  
HETATM   10  C   UNL     1      -9.932   8.503  68.983  1.00  0.00    -0.193 C  
HETATM   11  H   UNL     1      -7.982   7.854  68.757  1.00  0.00     0.000 HD 
HETATM   12  O   UNL     1     -10.812   9.306  68.726  1.00  0.00    -0.187 OA 
BRANCH  10  13
HETATM   13  C   UNL     1     -10.147   7.414  69.976  1.00  0.00    -0.191 A  
HETATM   14  C   UNL     1      -9.555   6.174  69.661  1.00  0.00    -0.171 A  
HETATM   15  C   UNL     1      -9.686   5.070  70.509  1.00  0.00    -0.204 A  
HETATM   16  C   UNL     1     -10.812   7.556  71.197  1.00  0.00    -0.238 A  
HETATM   17  C   UNL     1     -10.408   5.170  71.699  1.00  0.00    -0.207 A  
HETATM   18  N   UNL     1     -10.457   4.141  72.653  1.00  0.00    -0.175 NA 
HETATM   19  C   UNL     1     -10.896   6.438  72.053  1.00  0.00    -0.277 A  
HETATM   20  H2  UNL     1      -9.495   3.907  72.899  1.00  0.00     0.000 HD 
HETATM   21  H1  UNL     1     -10.986   4.215  73.523  1.00  0.00     0.000 HD 
BRANCH  15  22
HETATM   22  S   UNL     1      -9.051   3.508  69.921  1.00  0.00    -0.141 S  
HETATM   23  O   UNL     1      -9.575   2.474  70.794  1.00  0.00    -0.146 OA 
HETATM   24  O   UNL     1      -9.324   3.463  68.492  1.00  0.00    -0.157 OA 
BRANCH  22  25
HETATM   25  C   UNL     1      -7.291   3.613  70.150  1.00  0.00    -0.041 C  
HETATM   26  C   UNL     1      -6.574   2.593  69.277  1.00  0.00    -0.033 C  
ENDBRANCH  22  25
ENDBRANCH  15  22
BRANCH  16  27
HETATM   27  O   UNL     1     -11.354   8.684  71.749  1.00  0.00    -0.278 OA 
HETATM   28  C   UNL     1     -12.741   8.675  72.068  1.00  0.00    -0.376 C  
ENDBRANCH  16  27
ENDBRANCH  10  13
ENDBRANCH   8   9
ENDBRANCH   7   8
ENDBRANCH   2   3
TORSDOF 7
ENDMDL
MODEL      243
REMARK 921   NORMALIZED FREE ENERGY PREDICTED BY IDOCK:   -2.55 KCAL/MOL
REMARK 922        TOTAL FREE ENERGY PREDICTED BY IDOCK:   -4.62 KCAL/MOL
REMARK 923 INTER-LIGAND FREE ENERGY PREDICTED BY IDOCK:   -3.13 KCAL/MOL
REMARK 924 INTRA-LIGAND FREE ENERGY PREDICTED BY IDOCK:   -1.50 KCAL/MOL
REMARK 927      BINDING AFFINITY PREDICTED BY RF-SCORE:    0.00 PKD
ROOT
HETATM    1  C   UNL     1      -6.618   2.732  72.177  1.00  0.00    -0.015 C  
HETATM    2  C   UNL     1      -6.935   1.942  70.913  1.00  0.00    -0.032 C  
ENDROOT
BRANCH   2   3
HETATM    3  N   UNL     1      -7.732   2.704  69.942  1.00  0.00    -0.043 NA 
HETATM    4  C   UNL     1      -7.355   2.421  68.553  1.00  0.00    -0.047 C  
HETATM    5  C   UNL     1      -8.575   2.858  67.770  1.00  0.00    -0.115 C  
HETATM    6  C   UNL     1      -9.727   2.381  68.631  1.00  0.00     0.064 C  
HETATM    7  C   UNL     1      -9.175   2.373  70.064  1.00  0.00    -0.119 C  
BRANCH   7   8
HETATM    8  C   UNL     1      -9.880   3.399  70.976  1.00  0.00    -0.066 C  
BRANCH   8   9
HETATM    9  N   UNL     1      -9.405   4.768  70.857  1.00  0.00    -0.139 N  
HETATM   10  C   UNL     1      -9.969   5.700  70.010  1.00  0.00    -0.204 C  
HETATM   11  H   UNL     1      -8.612   5.055  71.430  1.00  0.00     0.000 HD 
HETATM   12  O   UNL     1     -10.882   5.460  69.238  1.00  0.00    -0.221 OA 
BRANCH  10  13
HETATM   13  C   UNL     1      -9.334   7.046  70.058  1.00  0.00    -0.158 A  
HETATM   14  C   UNL     1      -9.108   7.661  68.810  1.00  0.00    -0.139 A  
HETATM   15  C   UNL     1      -8.515   8.924  68.718  1.00  0.00    -0.131 A  
HETATM   16  C   UNL     1      -9.026   7.751  71.226  1.00  0.00    -0.134 A  
HETATM   17  C   UNL     1      -8.133   9.615  69.870  1.00  0.00    -0.171 A  
HETATM   18  N   UNL     1      -7.663  10.937  69.848  1.00  0.00    -0.351 NA 
HETATM   19  C   UNL     1      -8.465   9.040  71.107  1.00  0.00    -0.234 A  
HETATM   20  H2  UNL     1      -8.366  11.503  69.372  1.00  0.00     0.000 HD 
HETATM   21  H1  UNL     1      -7.383  11.441  70.690  1.00  0.00     0.000 HD 
BRANCH  15  22
HETATM   22  S   UNL     1      -8.113   9.521  67.084  1.00  0.00    -0.106 S  
HETATM   23  O   UNL     1      -8.856  10.752  66.881  1.00  0.00    -0.137 OA 
HETATM   24  O   UNL     1      -6.661   9.521  66.990  1.00  0.00    -0.070 OA 
BRANCH  22  25
HETATM   25  C   UNL     1      -8.744   8.282  65.975  1.00  0.00    -0.155 C  
HETATM   26  C   UNL     1      -8.403   8.629  64.533  1.00  0.00    -0.157 C  
ENDBRANCH  22  25
ENDBRANCH  15  22
BRANCH  16  27
HETATM   27  O   UNL     1      -9.264   7.398  72.525  1.00  0.00    -0.135 OA 
HETATM   28  C   UNL     1      -8.207   6.790  73.260  1.00  0.00    -0.110 C  
ENDBRANCH  16  27
ENDBRANCH  10  13
ENDBRANCH   8   9
ENDBRANCH   7   8
ENDBRANCH   2   3
TORSDOF 7
ENDMDL
MODEL      244
REMARK 921   NORMALIZED FREE ENERGY PREDICTED BY IDOCK:   -2.49 KCAL/MOL
REMARK 922        TOTAL FREE ENERGY PREDICTED BY IDOCK:   -4.54 KCAL/MOL
REMARK 923 INTER-LIGAND FREE ENERGY PREDICTED BY IDOCK:   -3.78 KCAL/MOL
REMARK 924 INTRA-LIGAND FREE ENERGY PREDICTED BY IDOCK:   -0.75 KCAL/MOL
REMARK 927      BINDING AFFINITY PREDICTED BY RF-SCORE:    0.00 PKD
ROOT
HETATM    1  C   UNL     1     -13.537   7.937  71.703  1.00  0.00    -0.397 C  
HETATM    2  C   UNL     1     -12.435   8.965  71.931  1.00  0.00    -0.378 C  
ENDROOT
BRANCH   2   3
HETATM    3  N   UNL     1     -11.440   8.991  70.850  1.00  0.00    -0.281 NA 
HETATM    4  C   UNL     1     -10.662  10.234  70.827  1.00  0.00     0.057 C  
HETATM    5  C   UNL     1      -9.422   9.849  70.049  1.00  0.00    -0.246 C  
HETATM    6  C   UNL     1      -9.107   8.459  70.564  1.00  0.00    -0.163 C  
HETATM    7  C   UNL     1     -10.462   7.883  71.003  1.00  0.00    -0.203 C  
BRANCH   7   8
HETATM    8  C   UNL     1     -10.894   6.672  70.150  1.00  0.00    -0.279 C  
BRANCH   8   9
HETATM    9  N   UNL     1      -9.892   6.175  69.221  1.00  0.00    -0.145 N  
HETATM   10  C   UNL     1     -10.055   6.180  67.851  1.00  0.00    -0.153 C  
HETATM   11  H   UNL     1      -9.023   5.803  69.602  1.00  0.00     0.000 HD 
HETATM   12  O   UNL     1     -11.070   6.547  67.283  1.00  0.00    -0.378 OA 
BRANCH  10  13
HETATM   13  C   UNL     1      -8.897   5.638  67.087  1.00  0.00    -0.106 A  
HETATM   14  C   UNL     1      -9.180   4.547  66.240  1.00  0.00    -0.137 A  
HETATM   15  C   UNL     1      -8.179   3.944  65.472  1.00  0.00    -0.105 A  
HETATM   16  C   UNL     1      -7.604   6.170  67.097  1.00  0.00    -0.092 A  
HETATM   17  C   UNL     1      -6.865   4.414  65.522  1.00  0.00    -0.057 A  
HETATM   18  N   UNL     1      -5.852   3.942  64.674  1.00  0.00    -0.017 NA 
HETATM   19  C   UNL     1      -6.622   5.569  66.282  1.00  0.00    -0.055 A  
HETATM   20  H2  UNL     1      -6.179   4.054  63.714  1.00  0.00     0.000 HD 
HETATM   21  H1  UNL     1      -4.891   4.285  64.711  1.00  0.00     0.000 HD 
BRANCH  15  22
HETATM   22  S   UNL     1      -8.615   2.460  64.580  1.00  0.00    -0.097 S  
HETATM   23  O   UNL     1      -7.426   2.015  63.877  1.00  0.00    -0.055 OA 
HETATM   24  O   UNL     1      -9.270   1.581  65.537  1.00  0.00    -0.109 OA 
BRANCH  22  25
HETATM   25  C   UNL     1      -9.825   2.982  63.386  1.00  0.00    -0.117 C  
HETATM   26  C   UNL     1      -9.432   4.318  62.772  1.00  0.00    -0.131 C  
ENDBRANCH  22  25
ENDBRANCH  15  22
BRANCH  16  27
HETATM   27  O   UNL     1      -7.142   7.281  67.746  1.00  0.00    -0.083 OA 
HETATM   28  C   UNL     1      -6.352   8.209  67.010  1.00  0.00    -0.056 C  
ENDBRANCH  16  27
ENDBRANCH  10  13
ENDBRANCH   8   9
ENDBRANCH   7   8
ENDBRANCH   2   3
TORSDOF 7
ENDMDL
MODEL      245
REMARK 921   NORMALIZED FREE ENERGY PREDICTED BY IDOCK:   -2.47 KCAL/MOL
REMARK 922        TOTAL FREE ENERGY PREDICTED BY IDOCK:   -4.51 KCAL/MOL
REMARK 923 INTER-LIGAND FREE ENERGY PREDICTED BY IDOCK:   -3.37 KCAL/MOL
REMARK 924 INTRA-LIGAND FREE ENERGY PREDICTED BY IDOCK:   -1.14 KCAL/MOL
REMARK 927      BINDING AFFINITY PREDICTED BY RF-SCORE:    0.00 PKD
ROOT
HETATM    1  C   UNL     1      -8.377  10.316  64.436  1.00  0.00    -0.166 C  
HETATM    2  C   UNL     1      -7.760   9.071  63.810  1.00  0.00    -0.125 C  
ENDROOT
BRANCH   2   3
HETATM    3  N   UNL     1      -7.797   7.901  64.697  1.00  0.00    -0.127 NA 
HETATM    4  C   UNL     1      -7.943   6.639  63.964  1.00  0.00    -0.084 C  
HETATM    5  C   UNL     1      -7.440   5.608  64.953  1.00  0.00    -0.078 C  
HETATM    6  C   UNL     1      -6.242   6.288  65.583  1.00  0.00    -0.037 C  
HETATM    7  C   UNL     1      -6.541   7.791  65.483  1.00  0.00    -0.045 C  
BRANCH   7   8
HETATM    8  C   UNL     1      -6.719   8.453  66.865  1.00  0.00    -0.062 C  
BRANCH   8   9
HETATM    9  N   UNL     1      -7.192   7.572  67.921  1.00  0.00    -0.088 N  
HETATM   10  C   UNL     1      -7.578   8.016  69.169  1.00  0.00    -0.097 C  
HETATM   11  H   UNL     1      -7.241   6.572  67.729  1.00  0.00     0.000 HD 
HETATM   12  O   UNL     1      -7.512   9.179  69.532  1.00  0.00    -0.072 OA 
BRANCH  10  13
HETATM   13  C   UNL     1      -8.043   6.945  70.093  1.00  0.00    -0.127 A  
HETATM   14  C   UNL     1      -9.302   7.157  70.690  1.00  0.00    -0.158 A  
HETATM   15  C   UNL     1      -9.850   6.228  71.580  1.00  0.00    -0.165 A  
HETATM   16  C   UNL     1      -7.369   5.745  70.340  1.00  0.00    -0.080 A  
HETATM   17  C   UNL     1      -9.160   5.056  71.898  1.00  0.00    -0.137 A  
HETATM   18  N   UNL     1      -9.718   4.027  72.672  1.00  0.00    -0.139 NA 
HETATM   19  C   UNL     1      -7.962   4.806  71.210  1.00  0.00    -0.096 A  
HETATM   20  H2  UNL     1     -10.596   3.754  72.230  1.00  0.00     0.000 HD 
HETATM   21  H1  UNL     1      -9.214   3.170  72.904  1.00  0.00     0.000 HD 
BRANCH  15  22
HETATM   22  S   UNL     1     -11.360   6.687  72.414  1.00  0.00    -0.263 S  
HETATM   23  O   UNL     1     -12.199   5.504  72.469  1.00  0.00    -0.134 OA 
HETATM   24  O   UNL     1     -10.966   7.359  73.643  1.00  0.00    -0.306 OA 
BRANCH  22  25
HETATM   25  C   UNL     1     -12.128   7.884  71.346  1.00  0.00    -0.307 C  
HETATM   26  C   UNL     1     -11.998   9.284  71.928  1.00  0.00    -0.433 C  
ENDBRANCH  22  25
ENDBRANCH  15  22
BRANCH  16  27
HETATM   27  O   UNL     1      -6.206   5.287  69.784  1.00  0.00    -0.023 OA 
HETATM   28  C   UNL     1      -6.001   3.880  69.723  1.00  0.00    -0.022 C  
ENDBRANCH  16  27
ENDBRANCH  10  13
ENDBRANCH   8   9
ENDBRANCH   7   8
ENDBRANCH   2   3
TORSDOF 7
ENDMDL
MODEL      246
REMARK 921   NORMALIZED FREE ENERGY PREDICTED BY IDOCK:   -2.14 KCAL/MOL
REMARK 922        TOTAL FREE ENERGY PREDICTED BY IDOCK:   -4.04 KCAL/MOL
REMARK 923 INTER-LIGAND FREE ENERGY PREDICTED BY IDOCK:   -3.11 KCAL/MOL
REMARK 924 INTRA-LIGAND FREE ENERGY PREDICTED BY IDOCK:   -0.93 KCAL/MOL
REMARK 927      BINDING AFFINITY PREDICTED BY RF-SCORE:    0.00 PKD
ROOT
HETATM    1  C   UNL     1     -10.775  13.393  66.675  1.00  0.00    -0.282 C  
HETATM    2  C   UNL     1      -9.769  12.758  67.627  1.00  0.00    -0.205 C  
ENDROOT
BRANCH   2   3
HETATM    3  N   UNL     1      -8.391  12.795  67.117  1.00  0.00    -0.183 NA 
HETATM    4  C   UNL     1      -7.541  13.739  67.849  1.00  0.00    -0.156 C  
HETATM    5  C   UNL     1      -6.141  13.249  67.544  1.00  0.00    -0.098 C  
HETATM    6  C   UNL     1      -6.281  11.741  67.608  1.00  0.00    -0.078 C  
HETATM    7  C   UNL     1      -7.745  11.463  67.237  1.00  0.00    -0.145 C  
BRANCH   7   8
HETATM    8  C   UNL     1      -7.882  10.685  65.911  1.00  0.00    -0.150 C  
BRANCH   8   9
HETATM    9  N   UNL     1      -8.375   9.322  66.036  1.00  0.00    -0.110 N  
HETATM   10  C   UNL     1      -7.574   8.250  66.371  1.00  0.00    -0.091 C  
HETATM   11  H   UNL     1      -9.365   9.150  65.867  1.00  0.00     0.000 HD 
HETATM   12  O   UNL     1      -6.369   8.322  66.542  1.00  0.00    -0.052 OA 
BRANCH  10  13
HETATM   13  C   UNL     1      -8.288   6.946  66.458  1.00  0.00    -0.121 A  
HETATM   14  C   UNL     1      -8.021   6.032  65.418  1.00  0.00    -0.118 A  
HETATM   15  C   UNL     1      -8.631   4.774  65.381  1.00  0.00    -0.134 A  
HETATM   16  C   UNL     1      -9.122   6.552  67.509  1.00  0.00    -0.115 A  
HETATM   17  C   UNL     1      -9.523   4.388  66.383  1.00  0.00    -0.176 A  
HETATM   18  N   UNL     1     -10.057   3.093  66.474  1.00  0.00     0.069 NA 
HETATM   19  C   UNL     1      -9.693   5.263  67.468  1.00  0.00    -0.167 A  
HETATM   20  H2  UNL     1      -9.273   2.441  66.495  1.00  0.00     0.000 HD 
HETATM   21  H1  UNL     1     -10.709   2.811  67.206  1.00  0.00     0.000 HD 
BRANCH  15  22
HETATM   22  S   UNL     1      -8.360   3.777  63.925  1.00  0.00    -0.092 S  
HETATM   23  O   UNL     1      -7.062   4.143  63.389  1.00  0.00    -0.043 OA 
HETATM   24  O   UNL     1      -8.628   2.400  64.312  1.00  0.00    -0.088 OA 
BRANCH  22  25
HETATM   25  C   UNL     1      -9.618   4.289  62.778  1.00  0.00    -0.120 C  
HETATM   26  C   UNL     1     -10.894   3.485  62.985  1.00  0.00    -0.151 C  
ENDBRANCH  22  25
ENDBRANCH  15  22
BRANCH  16  27
HETATM   27  O   UNL     1      -9.422   7.225  68.660  1.00  0.00    -0.139 OA 
HETATM   28  C   UNL     1     -10.529   8.120  68.645  1.00  0.00    -0.165 C  
ENDBRANCH  16  27
ENDBRANCH  10  13
ENDBRANCH   8   9
ENDBRANCH   7   8
ENDBRANCH   2   3
TORSDOF 7
ENDMDL
MODEL      247
REMARK 921   NORMALIZED FREE ENERGY PREDICTED BY IDOCK:   -2.13 KCAL/MOL
REMARK 922        TOTAL FREE ENERGY PREDICTED BY IDOCK:   -4.02 KCAL/MOL
REMARK 923 INTER-LIGAND FREE ENERGY PREDICTED BY IDOCK:   -3.12 KCAL/MOL
REMARK 924 INTRA-LIGAND FREE ENERGY PREDICTED BY IDOCK:   -0.90 KCAL/MOL
REMARK 927      BINDING AFFINITY PREDICTED BY RF-SCORE:    0.00 PKD
ROOT
HETATM    1  C   UNL     1     -10.405  16.295  70.326  1.00  0.00     0.160 C  
HETATM    2  C   UNL     1     -10.506  14.787  70.131  1.00  0.00     0.111 C  
ENDROOT
BRANCH   2   3
HETATM    3  N   UNL     1     -10.283  14.370  68.740  1.00  0.00    -0.240 NA 
HETATM    4  C   UNL     1     -11.254  14.955  67.810  1.00  0.00    -0.321 C  
HETATM    5  C   UNL     1     -10.557  14.844  66.470  1.00  0.00    -0.306 C  
HETATM    6  C   UNL     1      -9.120  15.194  66.798  1.00  0.00    -0.282 C  
HETATM    7  C   UNL     1      -8.938  14.792  68.269  1.00  0.00    -0.181 C  
BRANCH   7   8
HETATM    8  C   UNL     1      -7.928  13.640  68.447  1.00  0.00    -0.147 C  
BRANCH   8   9
HETATM    9  N   UNL     1      -8.437  12.311  68.145  1.00  0.00    -0.170 N  
HETATM   10  C   UNL     1      -7.893  11.151  68.657  1.00  0.00    -0.138 C  
HETATM   11  H   UNL     1      -9.239  12.233  67.520  1.00  0.00     0.000 HD 
HETATM   12  O   UNL     1      -6.903  11.115  69.368  1.00  0.00    -0.102 OA 
BRANCH  10  13
HETATM   13  C   UNL     1      -8.581   9.902  68.228  1.00  0.00    -0.115 A  
HETATM   14  C   UNL     1      -7.934   8.699  68.574  1.00  0.00    -0.116 A  
HETATM   15  C   UNL     1      -8.474   7.457  68.226  1.00  0.00    -0.125 A  
HETATM   16  C   UNL     1      -9.825   9.844  67.592  1.00  0.00    -0.163 A  
HETATM   17  C   UNL     1      -9.679   7.377  67.526  1.00  0.00    -0.148 A  
HETATM   18  N   UNL     1     -10.338   6.164  67.272  1.00  0.00    -0.187 NA 
HETATM   19  C   UNL     1     -10.367   8.578  67.287  1.00  0.00    -0.372 A  
HETATM   20  H2  UNL     1     -10.474   5.697  68.169  1.00  0.00     0.000 HD 
HETATM   21  H1  UNL     1     -11.219   6.106  66.760  1.00  0.00     0.000 HD 
BRANCH  15  22
HETATM   22  S   UNL     1      -7.478   6.011  68.554  1.00  0.00    -0.088 S  
HETATM   23  O   UNL     1      -8.100   4.895  67.866  1.00  0.00    -0.093 OA 
HETATM   24  O   UNL     1      -6.103   6.380  68.253  1.00  0.00    -0.024 OA 
BRANCH  22  25
HETATM   25  C   UNL     1      -7.614   5.749  70.308  1.00  0.00    -0.090 C  
HETATM   26  C   UNL     1      -7.052   6.938  71.074  1.00  0.00    -0.071 C  
ENDBRANCH  22  25
ENDBRANCH  15  22
BRANCH  16  27
HETATM   27  O   UNL     1     -10.670  10.870  67.271  1.00  0.00    -0.235 OA 
HETATM   28  C   UNL     1     -11.973  10.869  67.844  1.00  0.00     0.325 C  
ENDBRANCH  16  27
ENDBRANCH  10  13
ENDBRANCH   8   9
ENDBRANCH   7   8
ENDBRANCH   2   3
TORSDOF 7
ENDMDL
MODEL      248
REMARK 921   NORMALIZED FREE ENERGY PREDICTED BY IDOCK:   -1.90 KCAL/MOL
REMARK 922        TOTAL FREE ENERGY PREDICTED BY IDOCK:   -3.69 KCAL/MOL
REMARK 923 INTER-LIGAND FREE ENERGY PREDICTED BY IDOCK:   -3.10 KCAL/MOL
REMARK 924 INTRA-LIGAND FREE ENERGY PREDICTED BY IDOCK:   -0.59 KCAL/MOL
REMARK 927      BINDING AFFINITY PREDICTED BY RF-SCORE:    0.00 PKD
ROOT
HETATM    1  C   UNL     1      -6.402   5.470  63.269  1.00  0.00    -0.022 C  
HETATM    2  C   UNL     1      -7.513   4.499  62.890  1.00  0.00    -0.052 C  
ENDROOT
BRANCH   2   3
HETATM    3  N   UNL     1      -8.515   4.328  63.951  1.00  0.00    -0.103 NA 
HETATM    4  C   UNL     1      -8.751   2.919  64.285  1.00  0.00    -0.095 C  
HETATM    5  C   UNL     1      -9.359   2.992  65.670  1.00  0.00    -0.091 C  
HETATM    6  C   UNL     1      -8.548   4.078  66.347  1.00  0.00    -0.110 C  
HETATM    7  C   UNL     1      -8.079   4.993  65.206  1.00  0.00    -0.117 C  
BRANCH   7   8
HETATM    8  C   UNL     1      -8.685   6.409  65.295  1.00  0.00     0.024 C  
BRANCH   8   9
HETATM    9  N   UNL     1      -9.043   6.850  66.634  1.00  0.00    -0.146 N  
HETATM   10  C   UNL     1      -8.140   7.391  67.525  1.00  0.00    -0.114 C  
HETATM   11  H   UNL     1     -10.014   6.754  66.929  1.00  0.00     0.000 HD 
HETATM   12  O   UNL     1      -6.946   7.505  67.306  1.00  0.00    -0.078 OA 
BRANCH  10  13
HETATM   13  C   UNL     1      -8.725   7.789  68.836  1.00  0.00    -0.135 A  
HETATM   14  C   UNL     1      -8.466   6.915  69.911  1.00  0.00    -0.140 A  
HETATM   15  C   UNL     1      -8.962   7.173  71.193  1.00  0.00    -0.145 A  
HETATM   16  C   UNL     1      -9.428   8.973  69.079  1.00  0.00    -0.155 A  
HETATM   17  C   UNL     1      -9.728   8.313  71.442  1.00  0.00    -0.183 A  
HETATM   18  N   UNL     1     -10.135   8.695  72.730  1.00  0.00    -0.105 NA 
HETATM   19  C   UNL     1      -9.883   9.229  70.389  1.00  0.00    -0.290 A  
HETATM   20  H2  UNL     1      -9.296   8.759  73.308  1.00  0.00     0.000 HD 
HETATM   21  H1  UNL     1     -10.695   9.528  72.912  1.00  0.00     0.000 HD 
BRANCH  15  22
HETATM   22  S   UNL     1      -8.726   5.908  72.430  1.00  0.00    -0.126 S  
HETATM   23  O   UNL     1      -7.490   5.218  72.110  1.00  0.00    -0.089 OA 
HETATM   24  O   UNL     1      -8.886   6.558  73.722  1.00  0.00    -0.122 OA 
BRANCH  22  25
HETATM   25  C   UNL     1     -10.084   4.783  72.200  1.00  0.00    -0.191 C  
HETATM   26  C   UNL     1      -9.596   3.342  72.213  1.00  0.00    -0.202 C  
ENDBRANCH  22  25
ENDBRANCH  15  22
BRANCH  16  27
HETATM   27  O   UNL     1      -9.689  10.004  68.219  1.00  0.00    -0.139 OA 
HETATM   28  C   UNL     1      -9.534  11.334  68.700  1.00  0.00    -0.175 C  
ENDBRANCH  16  27
ENDBRANCH  10  13
ENDBRANCH   8   9
ENDBRANCH   7   8
ENDBRANCH   2   3
TORSDOF 7
ENDMDL
MODEL      249
REMARK 921   NORMALIZED FREE ENERGY PREDICTED BY IDOCK:   -1.79 KCAL/MOL
REMARK 922        TOTAL FREE ENERGY PREDICTED BY IDOCK:   -3.54 KCAL/MOL
REMARK 923 INTER-LIGAND FREE ENERGY PREDICTED BY IDOCK:   -2.70 KCAL/MOL
REMARK 924 INTRA-LIGAND FREE ENERGY PREDICTED BY IDOCK:   -0.84 KCAL/MOL
REMARK 927      BINDING AFFINITY PREDICTED BY RF-SCORE:    0.00 PKD
ROOT
HETATM    1  C   UNL     1      -6.236   5.100  62.583  1.00  0.00    -0.021 C  
HETATM    2  C   UNL     1      -7.460   4.225  62.344  1.00  0.00    -0.044 C  
ENDROOT
BRANCH   2   3
HETATM    3  N   UNL     1      -8.380   4.195  63.489  1.00  0.00    -0.093 NA 
HETATM    4  C   UNL     1      -8.768   2.832  63.869  1.00  0.00    -0.086 C  
HETATM    5  C   UNL     1      -9.238   2.995  65.299  1.00  0.00    -0.146 C  
HETATM    6  C   UNL     1      -8.237   3.971  65.883  1.00  0.00    -0.108 C  
HETATM    7  C   UNL     1      -7.753   4.807  64.689  1.00  0.00    -0.078 C  
BRANCH   7   8
HETATM    8  C   UNL     1      -8.160   6.291  64.802  1.00  0.00    -0.127 C  
BRANCH   8   9
HETATM    9  N   UNL     1      -8.428   6.762  66.152  1.00  0.00    -0.130 N  
HETATM   10  C   UNL     1      -7.440   7.126  67.043  1.00  0.00    -0.097 C  
HETATM   11  H   UNL     1      -9.399   6.827  66.456  1.00  0.00     0.000 HD 
HETATM   12  O   UNL     1      -6.245   7.039  66.814  1.00  0.00    -0.039 OA 
BRANCH  10  13
HETATM   13  C   UNL     1      -7.939   7.593  68.366  1.00  0.00    -0.123 A  
HETATM   14  C   UNL     1      -7.154   7.230  69.479  1.00  0.00    -0.074 A  
HETATM   15  C   UNL     1      -7.516   7.604  70.777  1.00  0.00    -0.071 A  
HETATM   16  C   UNL     1      -9.060   8.406  68.563  1.00  0.00    -0.136 A  
HETATM   17  C   UNL     1      -8.671   8.355  71.004  1.00  0.00    -0.156 A  
HETATM   18  N   UNL     1      -9.009   8.875  72.263  1.00  0.00    -0.365 NA 
HETATM   19  C   UNL     1      -9.381   8.802  69.878  1.00  0.00    -0.165 A  
HETATM   20  H2  UNL     1      -8.217   9.429  72.588  1.00  0.00     0.000 HD 
HETATM   21  H1  UNL     1      -9.854   9.423  72.429  1.00  0.00     0.000 HD 
BRANCH  15  22
HETATM   22  S   UNL     1      -6.548   6.935  72.120  1.00  0.00    -0.057 S  
HETATM   23  O   UNL     1      -7.424   6.831  73.272  1.00  0.00    -0.083 OA 
HETATM   24  O   UNL     1      -5.883   5.750  71.599  1.00  0.00    -0.024 OA 
BRANCH  22  25
HETATM   25  C   UNL     1      -5.310   8.168  72.452  1.00  0.00    -0.037 C  
HETATM   26  C   UNL     1      -5.733   9.054  73.615  1.00  0.00    -0.083 C  
ENDBRANCH  22  25
ENDBRANCH  15  22
BRANCH  16  27
HETATM   27  O   UNL     1      -9.887   8.963  67.628  1.00  0.00    -0.164 OA 
HETATM   28  C   UNL     1     -10.335  10.297  67.840  1.00  0.00    -0.196 C  
ENDBRANCH  16  27
ENDBRANCH  10  13
ENDBRANCH   8   9
ENDBRANCH   7   8
ENDBRANCH   2   3
TORSDOF 7
ENDMDL
MODEL      250
REMARK 921   NORMALIZED FREE ENERGY PREDICTED BY IDOCK:   -1.56 KCAL/MOL
REMARK 922        TOTAL FREE ENERGY PREDICTED BY IDOCK:   -3.22 KCAL/MOL
REMARK 923 INTER-LIGAND FREE ENERGY PREDICTED BY IDOCK:   -1.93 KCAL/MOL
REMARK 924 INTRA-LIGAND FREE ENERGY PREDICTED BY IDOCK:   -1.29 KCAL/MOL
REMARK 927      BINDING AFFINITY PREDICTED BY RF-SCORE:    0.00 PKD
ROOT
HETATM    1  C   UNL     1      -5.611  10.591  74.022  1.00  0.00     0.682 C  
HETATM    2  C   UNL     1      -5.130   9.329  73.316  1.00  0.00    -0.090 C  
ENDROOT
BRANCH   2   3
HETATM    3  N   UNL     1      -6.221   8.402  72.985  1.00  0.00    -0.090 NA 
HETATM    4  C   UNL     1      -7.260   8.359  74.019  1.00  0.00    -0.123 C  
HETATM    5  C   UNL     1      -8.459   7.806  73.277  1.00  0.00    -0.230 C  
HETATM    6  C   UNL     1      -8.385   8.501  71.933  1.00  0.00    -0.218 C  
HETATM    7  C   UNL     1      -6.894   8.803  71.724  1.00  0.00    -0.062 C  
BRANCH   7   8
HETATM    8  C   UNL     1      -6.295   8.028  70.532  1.00  0.00    -0.036 C  
BRANCH   8   9
HETATM    9  N   UNL     1      -7.044   6.855  70.111  1.00  0.00    -0.069 N  
HETATM   10  C   UNL     1      -6.506   5.840  69.347  1.00  0.00    -0.042 C  
HETATM   11  H   UNL     1      -8.020   6.778  70.396  1.00  0.00     0.000 HD 
HETATM   12  O   UNL     1      -5.371   5.847  68.902  1.00  0.00    -0.003 OA 
BRANCH  10  13
HETATM   13  C   UNL     1      -7.447   4.726  69.044  1.00  0.00    -0.057 A  
HETATM   14  C   UNL     1      -7.601   4.412  67.679  1.00  0.00    -0.077 A  
HETATM   15  C   UNL     1      -8.459   3.389  67.261  1.00  0.00    -0.098 A  
HETATM   16  C   UNL     1      -8.109   3.947  69.998  1.00  0.00    -0.053 A  
HETATM   17  C   UNL     1      -9.185   2.646  68.193  1.00  0.00    -0.204 A  
HETATM   18  N   UNL     1      -9.951   1.522  67.846  1.00  0.00    -0.247 NA 
HETATM   19  C   UNL     1      -8.937   2.896  69.552  1.00  0.00    -0.171 A  
HETATM   20  H2  UNL     1      -9.336   0.875  67.352  1.00  0.00     0.000 HD 
HETATM   21  H1  UNL     1     -10.482   0.979  68.528  1.00  0.00     0.000 HD 
BRANCH  15  22
HETATM   22  S   UNL     1      -8.713   3.202  65.504  1.00  0.00    -0.127 S  
HETATM   23  O   UNL     1      -7.740   4.047  64.836  1.00  0.00    -0.079 OA 
HETATM   24  O   UNL     1      -8.741   1.772  65.240  1.00  0.00    -0.104 OA 
BRANCH  22  25
HETATM   25  C   UNL     1     -10.339   3.857  65.204  1.00  0.00    -0.068 C  
HETATM   26  C   UNL     1     -10.509   5.207  65.884  1.00  0.00    -0.172 C  
ENDBRANCH  22  25
ENDBRANCH  15  22
BRANCH  16  27
HETATM   27  O   UNL     1      -8.014   4.002  71.361  1.00  0.00    -0.069 OA 
HETATM   28  C   UNL     1      -9.220   4.040  72.116  1.00  0.00    -0.123 C  
ENDBRANCH  16  27
ENDBRANCH  10  13
ENDBRANCH   8   9
ENDBRANCH   7   8
ENDBRANCH   2   3
TORSDOF 7
ENDMDL
MODEL      251
REMARK 921   NORMALIZED FREE ENERGY PREDICTED BY IDOCK:   -1.49 KCAL/MOL
REMARK 922        TOTAL FREE ENERGY PREDICTED BY IDOCK:   -3.12 KCAL/MOL
REMARK 923 INTER-LIGAND FREE ENERGY PREDICTED BY IDOCK:   -3.38 KCAL/MOL
REMARK 924 INTRA-LIGAND FREE ENERGY PREDICTED BY IDOCK:    0.26 KCAL/MOL
REMARK 927      BINDING AFFINITY PREDICTED BY RF-SCORE:    0.00 PKD
ROOT
HETATM    1  C   UNL     1     -10.462  20.785  69.396  1.00  0.00     0.574 C  
HETATM    2  C   UNL     1      -9.976  20.498  67.980  1.00  0.00    -0.145 C  
ENDROOT
BRANCH   2   3
HETATM    3  N   UNL     1     -10.062  19.076  67.619  1.00  0.00    -0.352 NA 
HETATM    4  C   UNL     1     -10.712  18.859  66.323  1.00  0.00    -0.287 C  
HETATM    5  C   UNL     1     -10.235  17.478  65.926  1.00  0.00    -0.251 C  
HETATM    6  C   UNL     1      -8.780  17.480  66.350  1.00  0.00    -0.273 C  
HETATM    7  C   UNL     1      -8.709  18.471  67.521  1.00  0.00    -0.262 C  
BRANCH   7   8
HETATM    8  C   UNL     1      -8.335  17.788  68.853  1.00  0.00    -0.131 C  
BRANCH   8   9
HETATM    9  N   UNL     1      -8.139  16.348  68.781  1.00  0.00    -0.222 N  
HETATM   10  C   UNL     1      -9.176  15.438  68.755  1.00  0.00    -0.206 C  
HETATM   11  H   UNL     1      -7.184  15.992  68.749  1.00  0.00     0.000 HD 
HETATM   12  O   UNL     1     -10.354  15.740  68.842  1.00  0.00    -0.208 OA 
BRANCH  10  13
HETATM   13  C   UNL     1      -8.749  14.014  68.665  1.00  0.00    -0.103 A  
HETATM   14  C   UNL     1      -9.767  13.058  68.857  1.00  0.00     0.177 A  
HETATM   15  C   UNL     1      -9.496  11.687  68.802  1.00  0.00    -0.058 A  
HETATM   16  C   UNL     1      -7.461  13.578  68.339  1.00  0.00    -0.124 A  
HETATM   17  C   UNL     1      -8.202  11.229  68.549  1.00  0.00    -0.150 A  
HETATM   18  N   UNL     1      -7.897   9.874  68.346  1.00  0.00    -0.084 NA 
HETATM   19  C   UNL     1      -7.223  12.190  68.250  1.00  0.00    -0.095 A  
HETATM   20  H2  UNL     1      -8.493   9.537  67.589  1.00  0.00     0.000 HD 
HETATM   21  H1  UNL     1      -6.951   9.539  68.161  1.00  0.00     0.000 HD 
BRANCH  15  22
HETATM   22  S   UNL     1     -10.821  10.574  69.240  1.00  0.00    -0.260 S  
HETATM   23  O   UNL     1     -11.274   9.941  68.015  1.00  0.00    -0.214 OA 
HETATM   24  O   UNL     1     -10.331   9.762  70.343  1.00  0.00    -0.266 OA 
BRANCH  22  25
HETATM   25  C   UNL     1     -12.118  11.625  69.854  1.00  0.00    -0.301 C  
HETATM   26  C   UNL     1     -12.537  11.199  71.254  1.00  0.00    -0.503 C  
ENDBRANCH  22  25
ENDBRANCH  15  22
BRANCH  16  27
HETATM   27  O   UNL     1      -6.365  14.323  68.004  1.00  0.00    -0.123 OA 
HETATM   28  C   UNL     1      -6.497  15.278  66.957  1.00  0.00     0.487 C  
ENDBRANCH  16  27
ENDBRANCH  10  13
ENDBRANCH   8   9
ENDBRANCH   7   8
ENDBRANCH   2   3
TORSDOF 7
ENDMDL
MODEL      252
REMARK 921   NORMALIZED FREE ENERGY PREDICTED BY IDOCK:   -1.17 KCAL/MOL
REMARK 922        TOTAL FREE ENERGY PREDICTED BY IDOCK:   -2.67 KCAL/MOL
REMARK 923 INTER-LIGAND FREE ENERGY PREDICTED BY IDOCK:   -1.81 KCAL/MOL
REMARK 924 INTRA-LIGAND FREE ENERGY PREDICTED BY IDOCK:   -0.86 KCAL/MOL
REMARK 927      BINDING AFFINITY PREDICTED BY RF-SCORE:    0.00 PKD
ROOT
HETATM    1  C   UNL     1      -7.283   9.763  71.587  1.00  0.00     0.917 C  
HETATM    2  C   UNL     1      -8.054   8.497  71.235  1.00  0.00    -0.136 C  
ENDROOT
BRANCH   2   3
HETATM    3  N   UNL     1      -7.311   7.266  71.538  1.00  0.00    -0.079 NA 
HETATM    4  C   UNL     1      -7.203   7.009  72.978  1.00  0.00    -0.073 C  
HETATM    5  C   UNL     1      -6.906   5.526  73.041  1.00  0.00    -0.079 C  
HETATM    6  C   UNL     1      -7.803   4.947  71.965  1.00  0.00    -0.108 C  
HETATM    7  C   UNL     1      -7.982   6.081  70.945  1.00  0.00    -0.115 C  
BRANCH   7   8
HETATM    8  C   UNL     1      -7.358   5.748  69.574  1.00  0.00    -0.071 C  
BRANCH   8   9
HETATM    9  N   UNL     1      -7.545   6.756  68.543  1.00  0.00    -0.102 N  
HETATM   10  C   UNL     1      -8.595   6.746  67.648  1.00  0.00    -0.121 C  
HETATM   11  H   UNL     1      -6.863   7.511  68.477  1.00  0.00     0.000 HD 
HETATM   12  O   UNL     1      -9.440   5.868  67.594  1.00  0.00    -0.111 OA 
BRANCH  10  13
HETATM   13  C   UNL     1      -8.601   7.883  66.686  1.00  0.00    -0.138 A  
HETATM   14  C   UNL     1      -8.447   9.164  67.252  1.00  0.00    -0.121 A  
HETATM   15  C   UNL     1      -8.439  10.314  66.457  1.00  0.00    -0.125 A  
HETATM   16  C   UNL     1      -8.672   7.760  65.295  1.00  0.00     0.028 A  
HETATM   17  C   UNL     1      -8.581  10.221  65.071  1.00  0.00    -0.180 A  
HETATM   18  N   UNL     1      -8.443  11.322  64.213  1.00  0.00    -0.230 NA 
HETATM   19  C   UNL     1      -8.622   8.933  64.513  1.00  0.00    -0.155 A  
HETATM   20  H2  UNL     1      -7.531  11.741  64.398  1.00  0.00     0.000 HD 
HETATM   21  H1  UNL     1      -8.547  11.254  63.200  1.00  0.00     0.000 HD 
BRANCH  15  22
HETATM   22  S   UNL     1      -8.421  11.889  67.298  1.00  0.00    -0.179 S  
HETATM   23  O   UNL     1      -8.607  11.623  68.713  1.00  0.00    -0.123 OA 
HETATM   24  O   UNL     1      -7.232  12.590  66.837  1.00  0.00    -0.032 OA 
BRANCH  22  25
HETATM   25  C   UNL     1      -9.850  12.752  66.686  1.00  0.00    -0.250 C  
HETATM   26  C   UNL     1     -11.120  12.212  67.327  1.00  0.00    -0.341 C  
ENDBRANCH  22  25
ENDBRANCH  15  22
BRANCH  16  27
HETATM   27  O   UNL     1      -8.708   6.623  64.537  1.00  0.00     0.195 OA 
HETATM   28  C   UNL     1      -7.507   5.872  64.396  1.00  0.00    -0.077 C  
ENDBRANCH  16  27
ENDBRANCH  10  13
ENDBRANCH   8   9
ENDBRANCH   7   8
ENDBRANCH   2   3
TORSDOF 7
ENDMDL
MODEL      253
REMARK 921   NORMALIZED FREE ENERGY PREDICTED BY IDOCK:   -0.85 KCAL/MOL
REMARK 922        TOTAL FREE ENERGY PREDICTED BY IDOCK:   -2.22 KCAL/MOL
REMARK 923 INTER-LIGAND FREE ENERGY PREDICTED BY IDOCK:   -1.21 KCAL/MOL
REMARK 924 INTRA-LIGAND FREE ENERGY PREDICTED BY IDOCK:   -1.01 KCAL/MOL
REMARK 927      BINDING AFFINITY PREDICTED BY RF-SCORE:    0.00 PKD
ROOT
HETATM    1  C   UNL     1      -9.209  15.509  69.211  1.00  0.00    -0.268 C  
HETATM    2  C   UNL     1      -9.456  14.008  69.306  1.00  0.00     0.369 C  
ENDROOT
BRANCH   2   3
HETATM    3  N   UNL     1      -8.489  13.216  68.534  1.00  0.00    -0.110 NA 
HETATM    4  C   UNL     1      -8.241  13.769  67.198  1.00  0.00    -0.108 C  
HETATM    5  C   UNL     1      -6.908  13.160  66.817  1.00  0.00     1.063 C  
HETATM    6  C   UNL     1      -6.118  13.220  68.108  1.00  0.00    -0.108 C  
HETATM    7  C   UNL     1      -7.174  13.166  69.222  1.00  0.00     0.155 C  
BRANCH   7   8
HETATM    8  C   UNL     1      -7.069  11.884  70.075  1.00  0.00     0.754 C  
BRANCH   8   9
HETATM    9  N   UNL     1      -7.831  10.746  69.586  1.00  0.00    -0.369 N  
HETATM   10  C   UNL     1      -8.093   9.622  70.342  1.00  0.00    -0.168 C  
HETATM   11  H   UNL     1      -8.190  10.780  68.632  1.00  0.00     0.000 HD 
HETATM   12  O   UNL     1      -7.671   9.444  71.472  1.00  0.00    -0.321 OA 
BRANCH  10  13
HETATM   13  C   UNL     1      -8.904   8.583  69.648  1.00  0.00    -0.137 A  
HETATM   14  C   UNL     1      -8.271   7.935  68.568  1.00  0.00    -0.127 A  
HETATM   15  C   UNL     1      -8.926   6.943  67.832  1.00  0.00    -0.121 A  
HETATM   16  C   UNL     1     -10.183   8.169  70.033  1.00  0.00    -0.202 A  
HETATM   17  C   UNL     1     -10.231   6.564  68.153  1.00  0.00    -0.168 A  
HETATM   18  N   UNL     1     -10.886   5.484  67.542  1.00  0.00    -0.240 NA 
HETATM   19  C   UNL     1     -10.806   7.138  69.298  1.00  0.00    -0.204 A  
HETATM   20  H2  UNL     1     -10.292   4.662  67.658  1.00  0.00     0.000 HD 
HETATM   21  H1  UNL     1     -11.840   5.207  67.777  1.00  0.00     0.000 HD 
BRANCH  15  22
HETATM   22  S   UNL     1      -8.097   6.324  66.377  1.00  0.00    -0.115 S  
HETATM   23  O   UNL     1      -9.120   6.025  65.392  1.00  0.00    -0.050 OA 
HETATM   24  O   UNL     1      -7.042   7.277  66.066  1.00  0.00    -0.063 OA 
BRANCH  22  25
HETATM   25  C   UNL     1      -7.338   4.801  66.894  1.00  0.00    -0.082 C  
HETATM   26  C   UNL     1      -7.489   3.734  65.820  1.00  0.00    -0.077 C  
ENDBRANCH  22  25
ENDBRANCH  15  22
BRANCH  16  27
HETATM   27  O   UNL     1     -10.926   8.574  71.106  1.00  0.00    -0.235 OA 
HETATM   28  C   UNL     1     -11.227   9.960  71.229  1.00  0.00    -0.286 C  
ENDBRANCH  16  27
ENDBRANCH  10  13
ENDBRANCH   8   9
ENDBRANCH   7   8
ENDBRANCH   2   3
TORSDOF 7
ENDMDL
MODEL      254
REMARK 921   NORMALIZED FREE ENERGY PREDICTED BY IDOCK:    0.05 KCAL/MOL
REMARK 922        TOTAL FREE ENERGY PREDICTED BY IDOCK:   -0.95 KCAL/MOL
REMARK 923 INTER-LIGAND FREE ENERGY PREDICTED BY IDOCK:   -0.82 KCAL/MOL
REMARK 924 INTRA-LIGAND FREE ENERGY PREDICTED BY IDOCK:   -0.14 KCAL/MOL
REMARK 927      BINDING AFFINITY PREDICTED BY RF-SCORE:    0.00 PKD
ROOT
HETATM    1  C   UNL     1     -11.682  15.925  64.477  1.00  0.00    -0.161 C  
HETATM    2  C   UNL     1     -11.042  14.682  63.870  1.00  0.00     0.811 C  
ENDROOT
BRANCH   2   3
HETATM    3  N   UNL     1     -11.606  13.430  64.392  1.00  0.00    -0.368 NA 
HETATM    4  C   UNL     1     -13.056  13.337  64.198  1.00  0.00     0.613 C  
HETATM    5  C   UNL     1     -13.322  11.850  64.301  1.00  0.00     0.720 C  
HETATM    6  C   UNL     1     -12.153  11.237  63.558  1.00  0.00     0.364 C  
HETATM    7  C   UNL     1     -11.011  12.253  63.708  1.00  0.00    -0.435 C  
BRANCH   7   8
HETATM    8  C   UNL     1      -9.830  11.699  64.533  1.00  0.00    -0.224 C  
BRANCH   8   9
HETATM    9  N   UNL     1      -9.290  12.606  65.533  1.00  0.00    -0.443 N  
HETATM   10  C   UNL     1      -8.131  12.357  66.240  1.00  0.00     0.523 C  
HETATM   11  H   UNL     1      -9.794  13.471  65.723  1.00  0.00     0.000 HD 
HETATM   12  O   UNL     1      -7.474  11.335  66.140  1.00  0.00    -0.079 OA 
BRANCH  10  13
HETATM   13  C   UNL     1      -7.753  13.427  67.205  1.00  0.00    -0.092 A  
HETATM   14  C   UNL     1      -8.421  14.657  67.047  1.00  0.00    -0.237 A  
HETATM   15  C   UNL     1      -8.153  15.744  67.886  1.00  0.00    -0.141 A  
HETATM   16  C   UNL     1      -6.861  13.272  68.271  1.00  0.00    -0.105 A  
HETATM   17  C   UNL     1      -7.213  15.633  68.912  1.00  0.00    -0.146 A  
HETATM   18  N   UNL     1      -7.003  16.639  69.868  1.00  0.00     0.164 NA 
HETATM   19  C   UNL     1      -6.638  14.370  69.128  1.00  0.00    -0.112 A  
HETATM   20  H2  UNL     1      -7.904  16.841  70.301  1.00  0.00     0.000 HD 
HETATM   21  H1  UNL     1      -6.316  16.558  70.618  1.00  0.00     0.000 HD 
BRANCH  15  22
HETATM   22  S   UNL     1      -8.922  17.302  67.477  1.00  0.00    -0.224 S  
HETATM   23  O   UNL     1     -10.214  17.002  66.887  1.00  0.00    -0.291 OA 
HETATM   24  O   UNL     1      -8.839  18.130  68.671  1.00  0.00    -0.302 OA 
BRANCH  22  25
HETATM   25  C   UNL     1      -7.875  18.016  66.229  1.00  0.00    -0.253 C  
HETATM   26  C   UNL     1      -6.492  17.383  66.261  1.00  0.00    -0.270 C  
ENDBRANCH  22  25
ENDBRANCH  15  22
BRANCH  16  27
HETATM   27  O   UNL     1      -6.199  12.146  68.676  1.00  0.00    -0.054 OA 
HETATM   28  C   UNL     1      -5.219  12.275  69.699  1.00  0.00    -0.074 C  
ENDBRANCH  16  27
ENDBRANCH  10  13
ENDBRANCH   8   9
ENDBRANCH   7   8
ENDBRANCH   2   3
TORSDOF 7
ENDMDL
MODEL      255
REMARK 921   NORMALIZED FREE ENERGY PREDICTED BY IDOCK:    0.11 KCAL/MOL
REMARK 922        TOTAL FREE ENERGY PREDICTED BY IDOCK:   -0.86 KCAL/MOL
REMARK 923 INTER-LIGAND FREE ENERGY PREDICTED BY IDOCK:   -0.41 KCAL/MOL
REMARK 924 INTRA-LIGAND FREE ENERGY PREDICTED BY IDOCK:   -0.45 KCAL/MOL
REMARK 927      BINDING AFFINITY PREDICTED BY RF-SCORE:    0.00 PKD
ROOT
HETATM    1  C   UNL     1     -10.857  17.068  65.671  1.00  0.00    -0.063 C  
HETATM    2  C   UNL     1     -11.553  16.058  66.575  1.00  0.00     0.605 C  
ENDROOT
BRANCH   2   3
HETATM    3  N   UNL     1     -11.204  14.666  66.260  1.00  0.00    -0.337 NA 
HETATM    4  C   UNL     1     -12.376  13.786  66.208  1.00  0.00    -0.433 C  
HETATM    5  C   UNL     1     -11.886  12.609  65.390  1.00  0.00    -0.473 C  
HETATM    6  C   UNL     1     -11.053  13.265  64.306  1.00  0.00    -0.414 C  
HETATM    7  C   UNL     1     -10.544  14.571  64.932  1.00  0.00    -0.427 C  
BRANCH   7   8
HETATM    8  C   UNL     1      -9.010  14.589  65.099  1.00  0.00     2.051 C  
BRANCH   8   9
HETATM    9  N   UNL     1      -8.502  13.879  66.262  1.00  0.00    -0.072 N  
HETATM   10  C   UNL     1      -7.855  14.500  67.311  1.00  0.00    -0.173 C  
HETATM   11  H   UNL     1      -8.629  12.869  66.305  1.00  0.00     0.000 HD 
HETATM   12  O   UNL     1      -7.597  15.691  67.347  1.00  0.00    -0.160 OA 
BRANCH  10  13
HETATM   13  C   UNL     1      -7.430  13.585  68.407  1.00  0.00    -0.124 A  
HETATM   14  C   UNL     1      -7.925  12.268  68.329  1.00  0.00    -0.163 A  
HETATM   15  C   UNL     1      -7.603  11.312  69.297  1.00  0.00    -0.019 A  
HETATM   16  C   UNL     1      -6.540  13.915  69.433  1.00  0.00    -0.114 A  
HETATM   17  C   UNL     1      -6.774  11.640  70.372  1.00  0.00     0.703 A  
HETATM   18  N   UNL     1      -6.307  10.692  71.294  1.00  0.00    -0.191 NA 
HETATM   19  C   UNL     1      -6.200  12.922  70.375  1.00  0.00     0.075 A  
HETATM   20  H2  UNL     1      -5.842   9.954  70.765  1.00  0.00     0.000 HD 
HETATM   21  H1  UNL     1      -5.700  10.932  72.080  1.00  0.00     0.000 HD 
BRANCH  15  22
HETATM   22  S   UNL     1      -8.433   9.734  69.196  1.00  0.00    -0.155 S  
HETATM   23  O   UNL     1      -7.495   8.792  68.613  1.00  0.00    -0.088 OA 
HETATM   24  O   UNL     1      -9.000   9.480  70.511  1.00  0.00    -0.242 OA 
BRANCH  22  25
HETATM   25  C   UNL     1      -9.770   9.992  68.052  1.00  0.00    -0.139 C  
HETATM   26  C   UNL     1     -10.869   8.962  68.271  1.00  0.00    -0.048 C  
ENDBRANCH  22  25
ENDBRANCH  15  22
BRANCH  16  27
HETATM   27  O   UNL     1      -5.859  15.084  69.631  1.00  0.00    -0.100 OA 
HETATM   28  C   UNL     1      -6.592  16.222  70.071  1.00  0.00     0.091 C  
ENDBRANCH  16  27
ENDBRANCH  10  13
ENDBRANCH   8   9
ENDBRANCH   7   8
ENDBRANCH   2   3
TORSDOF 7
ENDMDL
MODEL      256
REMARK 921   NORMALIZED FREE ENERGY PREDICTED BY IDOCK:    0.31 KCAL/MOL
REMARK 922        TOTAL FREE ENERGY PREDICTED BY IDOCK:   -0.58 KCAL/MOL
REMARK 923 INTER-LIGAND FREE ENERGY PREDICTED BY IDOCK:   -3.43 KCAL/MOL
REMARK 924 INTRA-LIGAND FREE ENERGY PREDICTED BY IDOCK:    2.85 KCAL/MOL
REMARK 927      BINDING AFFINITY PREDICTED BY RF-SCORE:    0.00 PKD
ROOT
HETATM    1  C   UNL     1      -7.479   2.180  71.985  1.00  0.00    -0.040 C  
HETATM    2  C   UNL     1      -6.305   2.090  71.017  1.00  0.00    -0.019 C  
ENDROOT
BRANCH   2   3
HETATM    3  N   UNL     1      -6.483   2.921  69.818  1.00  0.00    -0.029 NA 
HETATM    4  C   UNL     1      -5.228   3.523  69.355  1.00  0.00    -0.011 C  
HETATM    5  C   UNL     1      -5.521   3.858  67.908  1.00  0.00    -0.016 C  
HETATM    6  C   UNL     1      -6.314   2.659  67.429  1.00  0.00    -0.032 C  
HETATM    7  C   UNL     1      -7.007   2.113  68.686  1.00  0.00    -0.040 C  
BRANCH   7   8
HETATM    8  C   UNL     1      -8.543   2.234  68.615  1.00  0.00    -0.074 C  
BRANCH   8   9
HETATM    9  N   UNL     1      -9.092   3.496  69.085  1.00  0.00    -0.125 N  
HETATM   10  C   UNL     1      -9.142   4.640  68.315  1.00  0.00    -0.120 C  
HETATM   11  H   UNL     1      -9.459   3.539  70.035  1.00  0.00     0.000 HD 
HETATM   12  O   UNL     1      -8.687   4.726  67.187  1.00  0.00    -0.105 OA 
BRANCH  10  13
HETATM   13  C   UNL     1      -9.758   5.816  68.990  1.00  0.00    -0.180 A  
HETATM   14  C   UNL     1      -9.729   7.023  68.263  1.00  0.00    -0.136 A  
HETATM   15  C   UNL     1     -10.271   8.201  68.787  1.00  0.00    -0.207 A  
HETATM   16  C   UNL     1     -10.410   5.785  70.227  1.00  0.00    -0.252 A  
HETATM   17  C   UNL     1     -10.862   8.209  70.052  1.00  0.00    -0.233 A  
HETATM   18  N   UNL     1     -11.543   9.322  70.571  1.00  0.00    -0.373 NA 
HETATM   19  C   UNL     1     -10.983   6.977  70.716  1.00  0.00    -0.285 A  
HETATM   20  H2  UNL     1     -12.263   9.581  69.896  1.00  0.00     0.000 HD 
HETATM   21  H1  UNL     1     -11.975   9.328  71.495  1.00  0.00     0.000 HD 
BRANCH  15  22
HETATM   22  S   UNL     1     -10.014   9.703  67.858  1.00  0.00    -0.175 S  
HETATM   23  O   UNL     1     -11.313  10.142  67.382  1.00  0.00    -0.257 OA 
HETATM   24  O   UNL     1      -9.211  10.577  68.699  1.00  0.00    -0.156 OA 
BRANCH  22  25
HETATM   25  C   UNL     1      -9.028   9.215  66.461  1.00  0.00    -0.148 C  
HETATM   26  C   UNL     1      -8.726  10.412  65.571  1.00  0.00    -0.190 C  
ENDBRANCH  22  25
ENDBRANCH  15  22
BRANCH  16  27
HETATM   27  O   UNL     1     -10.654   4.712  71.039  1.00  0.00    -0.055 OA 
HETATM   28  C   UNL     1      -9.709   3.648  71.046  1.00  0.00    -0.173 C  
ENDBRANCH  16  27
ENDBRANCH  10  13
ENDBRANCH   8   9
ENDBRANCH   7   8
ENDBRANCH   2   3
TORSDOF 7
ENDMDL
MODEL      257
REMARK 921   NORMALIZED FREE ENERGY PREDICTED BY IDOCK:    0.42 KCAL/MOL
REMARK 922        TOTAL FREE ENERGY PREDICTED BY IDOCK:   -0.44 KCAL/MOL
REMARK 923 INTER-LIGAND FREE ENERGY PREDICTED BY IDOCK:   -3.95 KCAL/MOL
REMARK 924 INTRA-LIGAND FREE ENERGY PREDICTED BY IDOCK:    3.52 KCAL/MOL
REMARK 927      BINDING AFFINITY PREDICTED BY RF-SCORE:    0.00 PKD
ROOT
HETATM    1  C   UNL     1      -8.507  15.375  66.046  1.00  0.00     0.389 C  
HETATM    2  C   UNL     1      -9.968  15.201  66.445  1.00  0.00    -0.272 C  
ENDROOT
BRANCH   2   3
HETATM    3  N   UNL     1     -10.150  14.289  67.582  1.00  0.00    -0.228 NA 
HETATM    4  C   UNL     1     -10.919  14.893  68.675  1.00  0.00    -0.257 C  
HETATM    5  C   UNL     1     -11.422  13.692  69.447  1.00  0.00    -0.343 C  
HETATM    6  C   UNL     1     -11.800  12.712  68.354  1.00  0.00    -0.347 C  
HETATM    7  C   UNL     1     -10.889  13.068  67.170  1.00  0.00    -0.260 C  
BRANCH   7   8
HETATM    8  C   UNL     1      -9.897  11.937  66.826  1.00  0.00    -0.197 C  
BRANCH   8   9
HETATM    9  N   UNL     1     -10.116  10.682  67.527  1.00  0.00    -0.178 N  
HETATM   10  C   UNL     1      -9.158  10.066  68.306  1.00  0.00    -0.122 C  
HETATM   11  H   UNL     1     -11.026  10.231  67.436  1.00  0.00     0.000 HD 
HETATM   12  O   UNL     1      -8.019  10.479  68.444  1.00  0.00    -0.107 OA 
BRANCH  10  13
HETATM   13  C   UNL     1      -9.600   8.795  68.943  1.00  0.00    -0.158 A  
HETATM   14  C   UNL     1      -8.787   7.671  68.694  1.00  0.00    -0.127 A  
HETATM   15  C   UNL     1      -9.095   6.417  69.231  1.00  0.00    -0.136 A  
HETATM   16  C   UNL     1     -10.692   8.663  69.806  1.00  0.00    -0.215 A  
HETATM   17  C   UNL     1     -10.222   6.247  70.037  1.00  0.00    -0.188 A  
HETATM   18  N   UNL     1     -10.505   5.050  70.714  1.00  0.00    -0.199 NA 
HETATM   19  C   UNL     1     -10.958   7.396  70.367  1.00  0.00    -0.269 A  
HETATM   20  H2  UNL     1      -9.687   4.820  71.279  1.00  0.00     0.000 HD 
HETATM   21  H1  UNL     1     -11.328   4.926  71.303  1.00  0.00     0.000 HD 
BRANCH  15  22
HETATM   22  S   UNL     1      -8.100   5.034  68.699  1.00  0.00    -0.085 S  
HETATM   23  O   UNL     1      -8.216   4.949  67.255  1.00  0.00    -0.106 OA 
HETATM   24  O   UNL     1      -6.793   5.203  69.317  1.00  0.00    -0.050 OA 
BRANCH  22  25
HETATM   25  C   UNL     1      -8.876   3.606  69.420  1.00  0.00    -0.092 C  
HETATM   26  C   UNL     1      -7.846   2.528  69.721  1.00  0.00    -0.050 C  
ENDBRANCH  22  25
ENDBRANCH  15  22
BRANCH  16  27
HETATM   27  O   UNL     1     -11.536   9.633  70.272  1.00  0.00    -0.252 OA 
HETATM   28  C   UNL     1     -12.065  10.567  69.337  1.00  0.00    -0.104 C  
ENDBRANCH  16  27
ENDBRANCH  10  13
ENDBRANCH   8   9
ENDBRANCH   7   8
ENDBRANCH   2   3
TORSDOF 7
ENDMDL
MODEL      258
REMARK 921   NORMALIZED FREE ENERGY PREDICTED BY IDOCK:    1.05 KCAL/MOL
REMARK 922        TOTAL FREE ENERGY PREDICTED BY IDOCK:    0.45 KCAL/MOL
REMARK 923 INTER-LIGAND FREE ENERGY PREDICTED BY IDOCK:   -3.05 KCAL/MOL
REMARK 924 INTRA-LIGAND FREE ENERGY PREDICTED BY IDOCK:    3.50 KCAL/MOL
REMARK 927      BINDING AFFINITY PREDICTED BY RF-SCORE:    0.00 PKD
ROOT
HETATM    1  C   UNL     1     -12.687  13.439  63.106  1.00  0.00     0.396 C  
HETATM    2  C   UNL     1     -12.429  13.398  64.607  1.00  0.00    -0.331 C  
ENDROOT
BRANCH   2   3
HETATM    3  N   UNL     1     -11.003  13.287  64.944  1.00  0.00    -0.314 NA 
HETATM    4  C   UNL     1     -10.331  14.590  64.994  1.00  0.00    -0.413 C  
HETATM    5  C   UNL     1      -9.102  14.310  65.834  1.00  0.00     0.226 C  
HETATM    6  C   UNL     1      -9.626  13.391  66.919  1.00  0.00    -0.257 C  
HETATM    7  C   UNL     1     -10.820  12.665  66.281  1.00  0.00    -0.273 C  
BRANCH   7   8
HETATM    8  C   UNL     1     -10.581  11.149  66.133  1.00  0.00    -0.248 C  
BRANCH   8   9
HETATM    9  N   UNL     1      -9.579  10.586  67.024  1.00  0.00    -0.170 N  
HETATM   10  C   UNL     1      -9.138  11.216  68.170  1.00  0.00    -0.159 C  
HETATM   11  H   UNL     1      -9.181   9.677  66.790  1.00  0.00     0.000 HD 
HETATM   12  O   UNL     1      -9.499  12.326  68.523  1.00  0.00    -0.192 OA 
BRANCH  10  13
HETATM   13  C   UNL     1      -8.118  10.454  68.943  1.00  0.00    -0.129 A  
HETATM   14  C   UNL     1      -8.321   9.061  69.015  1.00  0.00    -0.124 A  
HETATM   15  C   UNL     1      -7.437   8.233  69.714  1.00  0.00    -0.077 A  
HETATM   16  C   UNL     1      -6.968  11.002  69.520  1.00  0.00    -0.126 A  
HETATM   17  C   UNL     1      -6.321   8.769  70.360  1.00  0.00    -0.040 A  
HETATM   18  N   UNL     1      -5.329   7.976  70.957  1.00  0.00    -0.029 NA 
HETATM   19  C   UNL     1      -6.072  10.140  70.185  1.00  0.00    -0.077 A  
HETATM   20  H2  UNL     1      -4.988   7.327  70.246  1.00  0.00     0.000 HD 
HETATM   21  H1  UNL     1      -4.513   8.368  71.428  1.00  0.00     0.000 HD 
BRANCH  15  22
HETATM   22  S   UNL     1      -7.893   6.516  69.892  1.00  0.00    -0.117 S  
HETATM   23  O   UNL     1      -6.664   5.755  70.016  1.00  0.00    -0.047 OA 
HETATM   24  O   UNL     1      -8.895   6.462  70.945  1.00  0.00    -0.135 OA 
BRANCH  22  25
HETATM   25  C   UNL     1      -8.678   6.089  68.354  1.00  0.00    -0.113 C  
HETATM   26  C   UNL     1      -8.576   4.592  68.097  1.00  0.00    -0.108 C  
ENDBRANCH  22  25
ENDBRANCH  15  22
BRANCH  16  27
HETATM   27  O   UNL     1      -6.519  12.293  69.472  1.00  0.00    -0.116 OA 
HETATM   28  C   UNL     1      -5.976  12.769  68.246  1.00  0.00    -0.075 C  
ENDBRANCH  16  27
ENDBRANCH  10  13
ENDBRANCH   8   9
ENDBRANCH   7   8
ENDBRANCH   2   3
TORSDOF 7
ENDMDL
MODEL      259
REMARK 921   NORMALIZED FREE ENERGY PREDICTED BY IDOCK:    1.12 KCAL/MOL
REMARK 922        TOTAL FREE ENERGY PREDICTED BY IDOCK:    0.56 KCAL/MOL
REMARK 923 INTER-LIGAND FREE ENERGY PREDICTED BY IDOCK:    0.88 KCAL/MOL
REMARK 924 INTRA-LIGAND FREE ENERGY PREDICTED BY IDOCK:   -0.32 KCAL/MOL
REMARK 927      BINDING AFFINITY PREDICTED BY RF-SCORE:    0.00 PKD
ROOT
HETATM    1  C   UNL     1     -11.691  15.853  64.357  1.00  0.00    -0.179 C  
HETATM    2  C   UNL     1     -11.007  14.654  63.711  1.00  0.00     1.391 C  
ENDROOT
BRANCH   2   3
HETATM    3  N   UNL     1     -11.525  13.366  64.194  1.00  0.00    -0.389 NA 
HETATM    4  C   UNL     1     -12.914  13.127  63.790  1.00  0.00     0.446 C  
HETATM    5  C   UNL     1     -13.054  11.624  63.912  1.00  0.00     0.178 C  
HETATM    6  C   UNL     1     -11.733  11.110  63.375  1.00  0.00     0.510 C  
HETATM    7  C   UNL     1     -10.727  12.236  63.652  1.00  0.00    -0.467 C  
BRANCH   7   8
HETATM    8  C   UNL     1      -9.638  11.822  64.664  1.00  0.00    -0.077 C  
BRANCH   8   9
HETATM    9  N   UNL     1      -9.392  12.771  65.738  1.00  0.00    -0.458 N  
HETATM   10  C   UNL     1      -9.991  12.692  66.978  1.00  0.00    -0.219 C  
HETATM   11  H   UNL     1      -8.741  13.537  65.565  1.00  0.00     0.000 HD 
HETATM   12  O   UNL     1     -10.825  11.856  67.283  1.00  0.00    -0.226 OA 
BRANCH  10  13
HETATM   13  C   UNL     1      -9.584  13.760  67.933  1.00  0.00    -0.222 A  
HETATM   14  C   UNL     1      -8.297  14.299  67.734  1.00  0.00    -0.174 A  
HETATM   15  C   UNL     1      -7.794  15.306  68.565  1.00  0.00    -0.134 A  
HETATM   16  C   UNL     1     -10.397  14.298  68.935  1.00  0.00    -0.215 A  
HETATM   17  C   UNL     1      -8.562  15.807  69.618  1.00  0.00    -0.027 A  
HETATM   18  N   UNL     1      -8.168  16.907  70.396  1.00  0.00     2.700 NA 
HETATM   19  C   UNL     1      -9.881  15.339  69.734  1.00  0.00    -0.188 A  
HETATM   20  H2  UNL     1      -7.983  17.681  69.757  1.00  0.00     0.000 HD 
HETATM   21  H1  UNL     1      -8.729  17.273  71.165  1.00  0.00     0.000 HD 
BRANCH  15  22
HETATM   22  S   UNL     1      -6.089  15.781  68.333  1.00  0.00    -0.108 S  
HETATM   23  O   UNL     1      -5.837  15.794  66.903  1.00  0.00    -0.260 OA 
HETATM   24  O   UNL     1      -5.886  16.988  69.120  1.00  0.00    -0.154 OA 
BRANCH  22  25
HETATM   25  C   UNL     1      -5.143  14.469  69.069  1.00  0.00    -0.083 C  
HETATM   26  C   UNL     1      -5.993  13.680  70.054  1.00  0.00    -0.146 C  
ENDBRANCH  22  25
ENDBRANCH  15  22
BRANCH  16  27
HETATM   27  O   UNL     1     -11.702  14.008  69.225  1.00  0.00    -0.280 OA 
HETATM   28  C   UNL     1     -12.301  14.659  70.340  1.00  0.00    -0.339 C  
ENDBRANCH  16  27
ENDBRANCH  10  13
ENDBRANCH   8   9
ENDBRANCH   7   8
ENDBRANCH   2   3
TORSDOF 7
ENDMDL
MODEL      260
REMARK 921   NORMALIZED FREE ENERGY PREDICTED BY IDOCK:    1.35 KCAL/MOL
REMARK 922        TOTAL FREE ENERGY PREDICTED BY IDOCK:    0.88 KCAL/MOL
REMARK 923 INTER-LIGAND FREE ENERGY PREDICTED BY IDOCK:   -0.33 KCAL/MOL
REMARK 924 INTRA-LIGAND FREE ENERGY PREDICTED BY IDOCK:    1.21 KCAL/MOL
REMARK 927      BINDING AFFINITY PREDICTED BY RF-SCORE:    0.00 PKD
ROOT
HETATM    1  C   UNL     1     -10.584  13.516  66.903  1.00  0.00    -0.270 C  
HETATM    2  C   UNL     1      -9.702  13.360  68.136  1.00  0.00    -0.226 C  
ENDROOT
BRANCH   2   3
HETATM    3  N   UNL     1      -8.329  12.945  67.814  1.00  0.00    -0.164 NA 
HETATM    4  C   UNL     1      -7.345  14.005  68.058  1.00  0.00    -0.141 C  
HETATM    5  C   UNL     1      -6.042  13.243  68.177  1.00  0.00    -0.108 C  
HETATM    6  C   UNL     1      -6.433  12.011  68.969  1.00  0.00    -0.091 C  
HETATM    7  C   UNL     1      -7.917  11.785  68.644  1.00  0.00    -0.116 C  
BRANCH   7   8
HETATM    8  C   UNL     1      -8.161  10.469  67.876  1.00  0.00    -0.107 C  
BRANCH   8   9
HETATM    9  N   UNL     1      -8.087   9.257  68.677  1.00  0.00    -0.104 N  
HETATM   10  C   UNL     1      -7.007   8.934  69.473  1.00  0.00    -0.051 C  
HETATM   11  H   UNL     1      -8.876   8.612  68.649  1.00  0.00     0.000 HD 
HETATM   12  O   UNL     1      -5.987   9.598  69.546  1.00  0.00    -0.033 OA 
BRANCH  10  13
HETATM   13  C   UNL     1      -7.149   7.653  70.220  1.00  0.00    -0.058 A  
HETATM   14  C   UNL     1      -6.933   6.481  69.467  1.00  0.00    -0.067 A  
HETATM   15  C   UNL     1      -7.039   5.213  70.050  1.00  0.00    -0.058 A  
HETATM   16  C   UNL     1      -7.400   7.542  71.591  1.00  0.00    -0.075 A  
HETATM   17  C   UNL     1      -7.361   5.077  71.401  1.00  0.00    -0.077 A  
HETATM   18  N   UNL     1      -7.346   3.844  72.071  1.00  0.00    -0.057 NA 
HETATM   19  C   UNL     1      -7.463   6.254  72.162  1.00  0.00    -0.094 A  
HETATM   20  H2  UNL     1      -6.421   3.434  71.934  1.00  0.00     0.000 HD 
HETATM   21  H1  UNL     1      -7.581   3.745  73.059  1.00  0.00     0.000 HD 
BRANCH  15  22
HETATM   22  S   UNL     1      -6.925   3.802  68.962  1.00  0.00    -0.046 S  
HETATM   23  O   UNL     1      -5.921   4.111  67.961  1.00  0.00    -0.025 OA 
HETATM   24  O   UNL     1      -6.770   2.634  69.816  1.00  0.00    -0.033 OA 
BRANCH  22  25
HETATM   25  C   UNL     1      -8.513   3.706  68.168  1.00  0.00    -0.093 C  
HETATM   26  C   UNL     1      -9.633   3.858  69.187  1.00  0.00    -0.218 C  
ENDBRANCH  22  25
ENDBRANCH  15  22
BRANCH  16  27
HETATM   27  O   UNL     1      -7.525   8.537  72.520  1.00  0.00    -0.238 OA 
HETATM   28  C   UNL     1      -8.314   9.673  72.184  1.00  0.00     2.217 C  
ENDBRANCH  16  27
ENDBRANCH  10  13
ENDBRANCH   8   9
ENDBRANCH   7   8
ENDBRANCH   2   3
TORSDOF 7
ENDMDL
MODEL      261
REMARK 921   NORMALIZED FREE ENERGY PREDICTED BY IDOCK:    3.43 KCAL/MOL
REMARK 922        TOTAL FREE ENERGY PREDICTED BY IDOCK:    3.82 KCAL/MOL
REMARK 923 INTER-LIGAND FREE ENERGY PREDICTED BY IDOCK:    2.44 KCAL/MOL
REMARK 924 INTRA-LIGAND FREE ENERGY PREDICTED BY IDOCK:    1.38 KCAL/MOL
REMARK 927      BINDING AFFINITY PREDICTED BY RF-SCORE:    0.00 PKD
ROOT
HETATM    1  C   UNL     1      -9.848   6.352  66.683  1.00  0.00    -0.203 C  
HETATM    2  C   UNL     1      -8.901   6.735  67.813  1.00  0.00    -0.118 C  
ENDROOT
BRANCH   2   3
HETATM    3  N   UNL     1      -7.610   7.249  67.335  1.00  0.00    -0.103 NA 
HETATM    4  C   UNL     1      -6.493   6.875  68.208  1.00  0.00    -0.050 C  
HETATM    5  C   UNL     1      -5.286   7.025  67.305  1.00  0.00    -0.017 C  
HETATM    6  C   UNL     1      -5.775   6.473  65.981  1.00  0.00    -0.021 C  
HETATM    7  C   UNL     1      -7.292   6.712  65.987  1.00  0.00    -0.076 C  
BRANCH   7   8
HETATM    8  C   UNL     1      -7.738   7.710  64.898  1.00  0.00    -0.107 C  
BRANCH   8   9
HETATM    9  N   UNL     1      -8.262   8.975  65.390  1.00  0.00    -0.122 N  
HETATM   10  C   UNL     1      -7.858  10.205  64.912  1.00  0.00    -0.147 C  
HETATM   11  H   UNL     1      -8.965   8.952  66.128  1.00  0.00     0.000 HD 
HETATM   12  O   UNL     1      -6.988  10.361  64.072  1.00  0.00    -0.088 OA 
BRANCH  10  13
HETATM   13  C   UNL     1      -8.535  11.370  65.546  1.00  0.00     0.163 A  
HETATM   14  C   UNL     1      -9.665  11.866  64.865  1.00  0.00    -0.158 A  
HETATM   15  C   UNL     1     -10.387  12.959  65.354  1.00  0.00    -0.296 A  
HETATM   16  C   UNL     1      -8.180  11.938  66.774  1.00  0.00    -0.129 A  
HETATM   17  C   UNL     1     -10.007  13.587  66.541  1.00  0.00    -0.287 A  
HETATM   18  N   UNL     1     -10.770  14.595  67.151  1.00  0.00    -0.287 NA 
HETATM   19  C   UNL     1      -8.949  13.013  67.265  1.00  0.00    -0.212 A  
HETATM   20  H2  UNL     1     -11.710  14.224  67.290  1.00  0.00     0.000 HD 
HETATM   21  H1  UNL     1     -10.492  15.054  68.019  1.00  0.00     0.000 HD 
BRANCH  15  22
HETATM   22  S   UNL     1     -11.684  13.612  64.315  1.00  0.00    -0.390 S  
HETATM   23  O   UNL     1     -12.216  14.788  64.980  1.00  0.00    -0.342 OA 
HETATM   24  O   UNL     1     -11.125  13.721  62.976  1.00  0.00     1.223 OA 
BRANCH  22  25
HETATM   25  C   UNL     1     -12.936  12.350  64.296  1.00  0.00    -0.157 C  
HETATM   26  C   UNL     1     -14.141  12.801  63.483  1.00  0.00     4.536 C  
ENDBRANCH  22  25
ENDBRANCH  15  22
BRANCH  16  27
HETATM   27  O   UNL     1      -7.205  11.545  67.648  1.00  0.00    -0.092 OA 
HETATM   28  C   UNL     1      -6.846  10.168  67.678  1.00  0.00    -0.076 C  
ENDBRANCH  16  27
ENDBRANCH  10  13
ENDBRANCH   8   9
ENDBRANCH   7   8
ENDBRANCH   2   3
TORSDOF 7
ENDMDL
MODEL      262
REMARK 921   NORMALIZED FREE ENERGY PREDICTED BY IDOCK:    3.60 KCAL/MOL
REMARK 922        TOTAL FREE ENERGY PREDICTED BY IDOCK:    4.05 KCAL/MOL
REMARK 923 INTER-LIGAND FREE ENERGY PREDICTED BY IDOCK:    4.45 KCAL/MOL
REMARK 924 INTRA-LIGAND FREE ENERGY PREDICTED BY IDOCK:   -0.41 KCAL/MOL
REMARK 927      BINDING AFFINITY PREDICTED BY RF-SCORE:    0.00 PKD
ROOT
HETATM    1  C   UNL     1      -7.479   2.176  71.984  1.00  0.00    -0.040 C  
HETATM    2  C   UNL     1      -6.280   2.077  71.049  1.00  0.00    -0.019 C  
ENDROOT
BRANCH   2   3
HETATM    3  N   UNL     1      -6.408   2.925  69.856  1.00  0.00    -0.028 NA 
HETATM    4  C   UNL     1      -5.129   3.508  69.436  1.00  0.00    -0.007 C  
HETATM    5  C   UNL     1      -5.376   3.867  67.986  1.00  0.00    -0.012 C  
HETATM    6  C   UNL     1      -6.179   2.690  67.470  1.00  0.00    -0.028 C  
HETATM    7  C   UNL     1      -6.917   2.143  68.701  1.00  0.00    -0.040 C  
BRANCH   7   8
HETATM    8  C   UNL     1      -8.448   2.296  68.589  1.00  0.00    -0.064 C  
BRANCH   8   9
HETATM    9  N   UNL     1      -8.991   3.538  69.117  1.00  0.00    -0.106 N  
HETATM   10  C   UNL     1      -8.948   4.738  68.437  1.00  0.00    -0.111 C  
HETATM   11  H   UNL     1      -9.425   3.521  70.039  1.00  0.00     0.000 HD 
HETATM   12  O   UNL     1      -8.408   4.893  67.355  1.00  0.00    -0.106 OA 
BRANCH  10  13
HETATM   13  C   UNL     1      -9.576   5.881  69.156  1.00  0.00    -0.166 A  
HETATM   14  C   UNL     1      -8.766   6.515  70.120  1.00  0.00    -0.140 A  
HETATM   15  C   UNL     1      -9.239   7.599  70.867  1.00  0.00    -0.149 A  
HETATM   16  C   UNL     1     -10.849   6.397  68.895  1.00  0.00    -0.325 A  
HETATM   17  C   UNL     1     -10.533   8.085  70.673  1.00  0.00    -0.210 A  
HETATM   18  N   UNL     1     -11.013   9.250  71.291  1.00  0.00    -0.323 NA 
HETATM   19  C   UNL     1     -11.287   7.515  69.634  1.00  0.00     0.067 A  
HETATM   20  H2  UNL     1     -10.366  10.005  71.062  1.00  0.00     0.000 HD 
HETATM   21  H1  UNL     1     -11.959   9.605  71.149  1.00  0.00     0.000 HD 
BRANCH  15  22
HETATM   22  S   UNL     1      -8.193   8.203  72.182  1.00  0.00    -0.162 S  
HETATM   23  O   UNL     1      -7.763   9.538  71.810  1.00  0.00    -0.096 OA 
HETATM   24  O   UNL     1      -8.924   7.990  73.422  1.00  0.00    -0.245 OA 
BRANCH  22  25
HETATM   25  C   UNL     1      -6.779   7.124  72.176  1.00  0.00    -0.056 C  
HETATM   26  C   UNL     1      -5.793   7.525  73.263  1.00  0.00    -0.048 C  
ENDBRANCH  22  25
ENDBRANCH  15  22
BRANCH  16  27
HETATM   27  O   UNL     1     -11.746   6.014  67.937  1.00  0.00     0.672 OA 
HETATM   28  C   UNL     1     -11.743   4.654  67.519  1.00  0.00     6.194 C  
ENDBRANCH  16  27
ENDBRANCH  10  13
ENDBRANCH   8   9
ENDBRANCH   7   8
ENDBRANCH   2   3
TORSDOF 7
ENDMDL
MODEL      263
REMARK 921   NORMALIZED FREE ENERGY PREDICTED BY IDOCK:   11.25 KCAL/MOL
REMARK 922        TOTAL FREE ENERGY PREDICTED BY IDOCK:   14.83 KCAL/MOL
REMARK 923 INTER-LIGAND FREE ENERGY PREDICTED BY IDOCK:   14.48 KCAL/MOL
REMARK 924 INTRA-LIGAND FREE ENERGY PREDICTED BY IDOCK:    0.35 KCAL/MOL
REMARK 927      BINDING AFFINITY PREDICTED BY RF-SCORE:    0.00 PKD
ROOT
HETATM    1  C   UNL     1     -13.823   8.027  72.894  1.00  0.00     0.515 C  
HETATM    2  C   UNL     1     -12.820   8.919  73.615  1.00  0.00     3.240 C  
ENDROOT
BRANCH   2   3
HETATM    3  N   UNL     1     -11.532   9.023  72.915  1.00  0.00     0.704 NA 
HETATM    4  C   UNL     1     -10.540   9.798  73.666  1.00  0.00     8.991 C  
HETATM    5  C   UNL     1      -9.225   9.346  73.065  1.00  0.00     2.849 C  
HETATM    6  C   UNL     1      -9.425   7.856  72.877  1.00  0.00    -0.321 C  
HETATM    7  C   UNL     1     -10.939   7.679  72.692  1.00  0.00    -0.351 C  
BRANCH   7   8
HETATM    8  C   UNL     1     -11.307   7.163  71.285  1.00  0.00    -0.268 C  
BRANCH   8   9
HETATM    9  N   UNL     1     -10.312   7.406  70.252  1.00  0.00    -0.208 N  
HETATM   10  C   UNL     1     -10.627   7.620  68.926  1.00  0.00    -0.159 C  
HETATM   11  H   UNL     1      -9.329   7.419  70.523  1.00  0.00     0.000 HD 
HETATM   12  O   UNL     1     -11.759   7.574  68.475  1.00  0.00     0.915 OA 
BRANCH  10  13
HETATM   13  C   UNL     1      -9.454   7.864  68.042  1.00  0.00    -0.159 A  
HETATM   14  C   UNL     1      -8.739   6.716  67.646  1.00  0.00    -0.118 A  
HETATM   15  C   UNL     1      -7.614   6.809  66.819  1.00  0.00    -0.090 A  
HETATM   16  C   UNL     1      -9.072   9.109  67.534  1.00  0.00    -0.124 A  
HETATM   17  C   UNL     1      -7.172   8.050  66.359  1.00  0.00    -0.079 A  
HETATM   18  N   UNL     1      -6.139   8.194  65.419  1.00  0.00    -0.045 NA 
HETATM   19  C   UNL     1      -7.958   9.171  66.670  1.00  0.00    -0.104 A  
HETATM   20  H2  UNL     1      -6.390   7.637  64.602  1.00  0.00     0.000 HD 
HETATM   21  H1  UNL     1      -5.816   9.101  65.083  1.00  0.00     0.000 HD 
BRANCH  15  22
HETATM   22  S   UNL     1      -6.684   5.312  66.533  1.00  0.00    -0.059 S  
HETATM   23  O   UNL     1      -5.948   5.492  65.295  1.00  0.00    -0.024 OA 
HETATM   24  O   UNL     1      -5.972   5.026  67.770  1.00  0.00    -0.021 OA 
BRANCH  22  25
HETATM   25  C   UNL     1      -7.911   4.048  66.292  1.00  0.00    -0.098 C  
HETATM   26  C   UNL     1      -9.255   4.666  65.934  1.00  0.00    -0.144 C  
ENDBRANCH  22  25
ENDBRANCH  15  22
BRANCH  16  27
HETATM   27  O   UNL     1      -9.684  10.322  67.692  1.00  0.00    -0.160 OA 
HETATM   28  C   UNL     1      -9.807  11.165  66.552  1.00  0.00    -0.208 C  
ENDBRANCH  16  27
ENDBRANCH  10  13
ENDBRANCH   8   9
ENDBRANCH   7   8
ENDBRANCH   2   3
TORSDOF 7
ENDMDL
MODEL      264
REMARK 921   NORMALIZED FREE ENERGY PREDICTED BY IDOCK:   22.01 KCAL/MOL
REMARK 922        TOTAL FREE ENERGY PREDICTED BY IDOCK:   30.00 KCAL/MOL
REMARK 923 INTER-LIGAND FREE ENERGY PREDICTED BY IDOCK:   31.10 KCAL/MOL
REMARK 924 INTRA-LIGAND FREE ENERGY PREDICTED BY IDOCK:   -1.10 KCAL/MOL
REMARK 927      BINDING AFFINITY PREDICTED BY RF-SCORE:    0.00 PKD
ROOT
HETATM    1  C   UNL     1      -6.447  20.130  65.303  1.00  0.00    -0.314 C  
HETATM    2  C   UNL     1      -7.807  19.480  65.531  1.00  0.00     0.171 C  
ENDROOT
BRANCH   2   3
HETATM    3  N   UNL     1      -7.842  18.065  65.137  1.00  0.00     0.912 NA 
HETATM    4  C   UNL     1      -7.225  17.826  63.827  1.00  0.00     9.970 C  
HETATM    5  C   UNL     1      -6.900  16.348  63.865  1.00  0.00    15.580 C  
HETATM    6  C   UNL     1      -6.401  16.139  65.281  1.00  0.00     6.348 C  
HETATM    7  C   UNL     1      -7.102  17.223  66.112  1.00  0.00    -0.249 C  
BRANCH   7   8
HETATM    8  C   UNL     1      -8.078  16.633  67.152  1.00  0.00    -0.182 C  
BRANCH   8   9
HETATM    9  N   UNL     1      -8.413  15.230  66.966  1.00  0.00    -0.211 N  
HETATM   10  C   UNL     1      -9.541  14.640  67.497  1.00  0.00    -0.206 C  
HETATM   11  H   UNL     1      -7.780  14.652  66.415  1.00  0.00     0.000 HD 
HETATM   12  O   UNL     1     -10.341  15.214  68.216  1.00  0.00    -0.226 OA 
BRANCH  10  13
HETATM   13  C   UNL     1      -9.696  13.195  67.170  1.00  0.00    -0.235 A  
HETATM   14  C   UNL     1      -9.348  12.296  68.198  1.00  0.00    -0.205 A  
HETATM   15  C   UNL     1      -9.445  10.912  68.018  1.00  0.00    -0.163 A  
HETATM   16  C   UNL     1     -10.219  12.689  65.976  1.00  0.00    -0.272 A  
HETATM   17  C   UNL     1      -9.896  10.384  66.806  1.00  0.00    -0.195 A  
HETATM   18  N   UNL     1     -10.144   9.016  66.614  1.00  0.00    -0.278 NA 
HETATM   19  C   UNL     1     -10.343  11.292  65.833  1.00  0.00    -0.304 A  
HETATM   20  H2  UNL     1     -10.799   8.720  67.338  1.00  0.00     0.000 HD 
HETATM   21  H1  UNL     1     -10.474   8.630  65.729  1.00  0.00     0.000 HD 
BRANCH  15  22
HETATM   22  S   UNL     1      -8.805   9.871  69.319  1.00  0.00    -0.186 S  
HETATM   23  O   UNL     1      -7.966   8.866  68.693  1.00  0.00    -0.100 OA 
HETATM   24  O   UNL     1      -8.249  10.763  70.325  1.00  0.00     0.465 OA 
BRANCH  22  25
HETATM   25  C   UNL     1     -10.235   9.073  70.012  1.00  0.00    -0.203 C  
HETATM   26  C   UNL     1     -10.945   9.997  70.991  1.00  0.00    -0.267 C  
ENDBRANCH  22  25
ENDBRANCH  15  22
BRANCH  16  27
HETATM   27  O   UNL     1     -10.721  13.375  64.904  1.00  0.00    -0.327 OA 
HETATM   28  C   UNL     1      -9.962  13.386  63.700  1.00  0.00     1.778 C  
ENDBRANCH  16  27
ENDBRANCH  10  13
ENDBRANCH   8   9
ENDBRANCH   7   8
ENDBRANCH   2   3
TORSDOF 7
ENDMDL
MODEL      265
REMARK 921   NORMALIZED FREE ENERGY PREDICTED BY IDOCK:   27.91 KCAL/MOL
REMARK 922        TOTAL FREE ENERGY PREDICTED BY IDOCK:   38.32 KCAL/MOL
REMARK 923 INTER-LIGAND FREE ENERGY PREDICTED BY IDOCK:   39.48 KCAL/MOL
REMARK 924 INTRA-LIGAND FREE ENERGY PREDICTED BY IDOCK:   -1.16 KCAL/MOL
REMARK 927      BINDING AFFINITY PREDICTED BY RF-SCORE:    0.00 PKD
ROOT
HETATM    1  C   UNL     1      -5.561  19.068  65.910  1.00  0.00    -0.182 C  
HETATM    2  C   UNL     1      -6.925  18.404  66.058  1.00  0.00    -0.275 C  
ENDROOT
BRANCH   2   3
HETATM    3  N   UNL     1      -6.931  16.999  65.629  1.00  0.00     0.296 NA 
HETATM    4  C   UNL     1      -6.435  16.823  64.260  1.00  0.00     9.064 C  
HETATM    5  C   UNL     1      -6.038  15.362  64.224  1.00  0.00    19.170 C  
HETATM    6  C   UNL     1      -5.394  15.145  65.578  1.00  0.00     9.083 C  
HETATM    7  C   UNL     1      -6.061  16.173  66.504  1.00  0.00     0.847 C  
BRANCH   7   8
HETATM    8  C   UNL     1      -6.901  15.510  67.615  1.00  0.00    -0.181 C  
BRANCH   8   9
HETATM    9  N   UNL     1      -6.960  14.058  67.570  1.00  0.00    -0.211 N  
HETATM   10  C   UNL     1      -8.023  13.323  68.054  1.00  0.00    -0.152 C  
HETATM   11  H   UNL     1      -6.175  13.556  67.158  1.00  0.00     0.000 HD 
HETATM   12  O   UNL     1      -8.991  13.807  68.616  1.00  0.00    -0.151 OA 
BRANCH  10  13
HETATM   13  C   UNL     1      -7.882  11.849  67.893  1.00  0.00    -0.138 A  
HETATM   14  C   UNL     1      -7.684  11.120  69.082  1.00  0.00    -0.076 A  
HETATM   15  C   UNL     1      -7.533   9.730  69.067  1.00  0.00    -0.080 A  
HETATM   16  C   UNL     1      -8.005  11.155  66.685  1.00  0.00    -0.159 A  
HETATM   17  C   UNL     1      -7.580   9.024  67.863  1.00  0.00    -0.093 A  
HETATM   18  N   UNL     1      -7.574   7.622  67.798  1.00  0.00    -0.114 NA 
HETATM   19  C   UNL     1      -7.889   9.750  66.701  1.00  0.00    -0.109 A  
HETATM   20  H2  UNL     1      -8.343   7.286  68.378  1.00  0.00     0.000 HD 
HETATM   21  H1  UNL     1      -7.608   7.106  66.918  1.00  0.00     0.000 HD 
BRANCH  15  22
HETATM   22  S   UNL     1      -7.105   8.936  70.608  1.00  0.00    -0.082 S  
HETATM   23  O   UNL     1      -6.008   8.026  70.333  1.00  0.00    -0.029 OA 
HETATM   24  O   UNL     1      -6.944   9.999  71.588  1.00  0.00     0.103 OA 
BRANCH  22  25
HETATM   25  C   UNL     1      -8.542   7.985  71.048  1.00  0.00    -0.133 C  
HETATM   26  C   UNL     1      -9.586   8.867  71.715  1.00  0.00    -0.353 C  
ENDBRANCH  22  25
ENDBRANCH  15  22
BRANCH  16  27
HETATM   27  O   UNL     1      -8.309  11.644  65.445  1.00  0.00     0.288 OA 
HETATM   28  C   UNL     1      -7.266  11.723  64.480  1.00  0.00     3.147 C  
ENDBRANCH  16  27
ENDBRANCH  10  13
ENDBRANCH   8   9
ENDBRANCH   7   8
ENDBRANCH   2   3
TORSDOF 7
ENDMDL
MODEL      266
REMARK 921   NORMALIZED FREE ENERGY PREDICTED BY IDOCK:   28.00 KCAL/MOL
REMARK 922        TOTAL FREE ENERGY PREDICTED BY IDOCK:   38.44 KCAL/MOL
REMARK 923 INTER-LIGAND FREE ENERGY PREDICTED BY IDOCK:   39.37 KCAL/MOL
REMARK 924 INTRA-LIGAND FREE ENERGY PREDICTED BY IDOCK:   -0.93 KCAL/MOL
REMARK 927      BINDING AFFINITY PREDICTED BY RF-SCORE:    0.00 PKD
ROOT
HETATM    1  C   UNL     1      -7.149  10.354  71.245  1.00  0.00     1.513 C  
HETATM    2  C   UNL     1      -7.776   9.018  70.868  1.00  0.00    -0.128 C  
ENDROOT
BRANCH   2   3
HETATM    3  N   UNL     1      -6.937   7.866  71.226  1.00  0.00    -0.049 NA 
HETATM    4  C   UNL     1      -6.622   7.817  72.657  1.00  0.00    -0.066 C  
HETATM    5  C   UNL     1      -6.243   6.368  72.876  1.00  0.00    -0.055 C  
HETATM    6  C   UNL     1      -7.247   5.615  72.026  1.00  0.00    -0.088 C  
HETATM    7  C   UNL     1      -7.620   6.588  70.898  1.00  0.00    -0.089 C  
BRANCH   7   8
HETATM    8  C   UNL     1      -7.172   6.086  69.510  1.00  0.00    -0.070 C  
BRANCH   8   9
HETATM    9  N   UNL     1      -8.084   6.381  68.416  1.00  0.00    -0.112 N  
HETATM   10  C   UNL     1      -9.168   5.590  68.094  1.00  0.00    -0.109 C  
HETATM   11  H   UNL     1      -7.913   7.216  67.857  1.00  0.00     0.000 HD 
HETATM   12  O   UNL     1      -9.441   4.542  68.653  1.00  0.00    -0.138 OA 
BRANCH  10  13
HETATM   13  C   UNL     1      -9.977   6.086  66.946  1.00  0.00    -0.207 A  
HETATM   14  C   UNL     1     -10.300   5.126  65.966  1.00  0.00    -0.231 A  
HETATM   15  C   UNL     1     -11.052   5.465  64.837  1.00  0.00     2.010 A  
HETATM   16  C   UNL     1     -10.485   7.383  66.818  1.00  0.00    -0.246 A  
HETATM   17  C   UNL     1     -11.508   6.772  64.653  1.00  0.00    10.988 A  
HETATM   18  N   UNL     1     -12.380   7.138  63.615  1.00  0.00    17.788 NA 
HETATM   19  C   UNL     1     -11.274   7.689  65.690  1.00  0.00     5.411 A  
HETATM   20  H2  UNL     1     -13.200   6.535  63.678  1.00  0.00     0.000 HD 
HETATM   21  H1  UNL     1     -12.713   8.093  63.481  1.00  0.00     0.000 HD 
BRANCH  15  22
HETATM   22  S   UNL     1     -11.243   4.214  63.577  1.00  0.00     0.821 S  
HETATM   23  O   UNL     1     -11.145   2.924  64.234  1.00  0.00     0.073 OA 
HETATM   24  O   UNL     1     -12.440   4.563  62.827  1.00  0.00     2.441 OA 
BRANCH  22  25
HETATM   25  C   UNL     1      -9.837   4.421  62.509  1.00  0.00    -0.071 C  
HETATM   26  C   UNL     1      -8.569   3.921  63.186  1.00  0.00    -0.095 C  
ENDBRANCH  22  25
ENDBRANCH  15  22
BRANCH  16  27
HETATM   27  O   UNL     1     -10.393   8.427  67.696  1.00  0.00    -0.226 OA 
HETATM   28  C   UNL     1     -11.064   8.314  68.946  1.00  0.00     0.301 C  
ENDBRANCH  16  27
ENDBRANCH  10  13
ENDBRANCH   8   9
ENDBRANCH   7   8
ENDBRANCH   2   3
TORSDOF 7
ENDMDL
