MODEL        1
REMARK 921   NORMALIZED FREE ENERGY PREDICTED BY IDOCK:   -7.64 KCAL/MOL
REMARK 922        TOTAL FREE ENERGY PREDICTED BY IDOCK:   -8.85 KCAL/MOL
REMARK 923 INTER-LIGAND FREE ENERGY PREDICTED BY IDOCK:   -8.53 KCAL/MOL
REMARK 924 INTRA-LIGAND FREE ENERGY PREDICTED BY IDOCK:   -0.31 KCAL/MOL
REMARK 927      BINDING AFFINITY PREDICTED BY RF-SCORE:    0.00 PKD
ROOT
HETATM    1  C   UNL     1     -12.623  11.849  63.350  1.00  0.00    -0.431 C  
HETATM    2  N   UNL     1     -11.900  12.972  64.042  1.00  0.00    -0.413 N  
HETATM    3  C   UNL     1     -12.252  12.967  65.528  1.00  0.00    -0.469 C  
HETATM    4  O   UNL     1     -12.294  14.153  63.466  1.00  0.00    -0.738 OA 
HETATM    5  C   UNL     1     -10.419  12.785  63.840  1.00  0.00    -0.372 C  
ENDROOT
BRANCH   3   6
HETATM    6  C   UNL     1     -11.607  14.122  66.301  1.00  0.00    -0.379 C  
BRANCH   6   7
HETATM    7  C   UNL     1     -12.151  14.328  67.696  1.00  0.00    -0.332 C  
HETATM    8  C   UNL     1     -11.685  13.725  68.819  1.00  0.00    -0.391 C  
HETATM    9  C   UNL     1     -10.573  12.748  68.700  1.00  0.00    -0.256 A  
HETATM   10  C   UNL     1      -9.290  13.157  68.308  1.00  0.00    -0.201 A  
HETATM   11  C   UNL     1      -8.263  12.226  68.156  1.00  0.00    -0.168 A  
HETATM   12  C   UNL     1      -8.501  10.879  68.417  1.00  0.00    -0.141 A  
HETATM   13  C   UNL     1      -9.764  10.465  68.839  1.00  0.00    -0.203 A  
HETATM   14  C   UNL     1     -10.806  11.393  68.985  1.00  0.00    -0.265 A  
HETATM   15  C   UNL     1     -12.159  10.954  69.479  1.00  0.00    -0.380 C  
HETATM   16  C   UNL     1     -12.444  11.502  70.878  1.00  0.00    -0.464 C  
HETATM   17  C   UNL     1     -12.689  12.992  71.054  1.00  0.00    -0.347 A  
HETATM   18  C   UNL     1     -13.251  13.370  72.295  1.00  0.00    -0.570 A  
HETATM   19  C   UNL     1     -13.501  14.704  72.608  1.00  0.00    -0.580 A  
HETATM   20  C   UNL     1     -13.184  15.694  71.692  1.00  0.00    -0.554 A  
HETATM   21  C   UNL     1     -12.610  15.347  70.471  1.00  0.00    -0.471 A  
HETATM   22  C   UNL     1     -12.362  14.002  70.121  1.00  0.00    -0.409 A  
ENDBRANCH   6   7
ENDBRANCH   3   6
TORSDOF 2
ENDMDL
MODEL        2
REMARK 921   NORMALIZED FREE ENERGY PREDICTED BY IDOCK:   -7.31 KCAL/MOL
REMARK 922        TOTAL FREE ENERGY PREDICTED BY IDOCK:   -8.48 KCAL/MOL
REMARK 923 INTER-LIGAND FREE ENERGY PREDICTED BY IDOCK:   -8.10 KCAL/MOL
REMARK 924 INTRA-LIGAND FREE ENERGY PREDICTED BY IDOCK:   -0.37 KCAL/MOL
REMARK 927      BINDING AFFINITY PREDICTED BY RF-SCORE:    0.00 PKD
ROOT
HETATM    1  C   UNL     1     -14.409  15.567  72.273  1.00  0.00    -0.462 C  
HETATM    2  N   UNL     1     -13.109  14.879  71.958  1.00  0.00    -0.317 N  
HETATM    3  C   UNL     1     -12.828  14.978  70.461  1.00  0.00    -0.333 C  
HETATM    4  O   UNL     1     -13.219  13.565  72.334  1.00  0.00    -0.465 OA 
HETATM    5  C   UNL     1     -12.013  15.538  72.755  1.00  0.00    -0.466 C  
ENDROOT
BRANCH   3   6
HETATM    6  C   UNL     1     -11.550  14.246  70.040  1.00  0.00    -0.325 C  
BRANCH   6   7
HETATM    7  C   UNL     1     -11.504  13.844  68.583  1.00  0.00    -0.333 C  
HETATM    8  C   UNL     1     -11.413  12.572  68.121  1.00  0.00    -0.368 C  
HETATM    9  C   UNL     1     -11.313  11.458  69.098  1.00  0.00    -0.353 A  
HETATM   10  C   UNL     1     -12.383  11.143  69.948  1.00  0.00    -0.330 A  
HETATM   11  C   UNL     1     -12.263  10.124  70.893  1.00  0.00    -0.455 A  
HETATM   12  C   UNL     1     -11.081   9.394  70.982  1.00  0.00    -0.414 A  
HETATM   13  C   UNL     1     -10.022   9.677  70.121  1.00  0.00    -0.309 A  
HETATM   14  C   UNL     1     -10.130  10.706  69.174  1.00  0.00    -0.234 A  
HETATM   15  C   UNL     1      -9.002  10.986  68.215  1.00  0.00    -0.155 C  
HETATM   16  C   UNL     1      -9.384  10.609  66.783  1.00  0.00    -0.179 C  
HETATM   17  C   UNL     1     -10.423  11.443  66.050  1.00  0.00    -0.305 A  
HETATM   18  C   UNL     1     -10.488  11.236  64.654  1.00  0.00    -0.387 A  
HETATM   19  C   UNL     1     -11.414  11.907  63.857  1.00  0.00    -0.511 A  
HETATM   20  C   UNL     1     -12.305  12.793  64.442  1.00  0.00    -0.498 A  
HETATM   21  C   UNL     1     -12.273  12.998  65.819  1.00  0.00    -0.511 A  
HETATM   22  C   UNL     1     -11.335  12.344  66.647  1.00  0.00    -0.394 A  
ENDBRANCH   6   7
ENDBRANCH   3   6
TORSDOF 2
ENDMDL
MODEL        3
REMARK 921   NORMALIZED FREE ENERGY PREDICTED BY IDOCK:   -7.04 KCAL/MOL
REMARK 922        TOTAL FREE ENERGY PREDICTED BY IDOCK:   -8.18 KCAL/MOL
REMARK 923 INTER-LIGAND FREE ENERGY PREDICTED BY IDOCK:   -7.89 KCAL/MOL
REMARK 924 INTRA-LIGAND FREE ENERGY PREDICTED BY IDOCK:   -0.28 KCAL/MOL
REMARK 927      BINDING AFFINITY PREDICTED BY RF-SCORE:    0.00 PKD
ROOT
HETATM    1  C   UNL     1     -12.078  13.058  63.205  1.00  0.00    -0.422 C  
HETATM    2  N   UNL     1     -11.302  12.627  64.420  1.00  0.00    -0.324 N  
HETATM    3  C   UNL     1     -12.255  12.459  65.601  1.00  0.00    -0.250 C  
HETATM    4  O   UNL     1     -10.370  13.594  64.697  1.00  0.00    -0.418 OA 
HETATM    5  C   UNL     1     -10.601  11.331  64.106  1.00  0.00    -0.373 C  
ENDROOT
BRANCH   3   6
HETATM    6  C   UNL     1     -11.539  12.082  66.902  1.00  0.00    -0.389 C  
BRANCH   6   7
HETATM    7  C   UNL     1     -11.969  12.879  68.112  1.00  0.00    -0.306 C  
HETATM    8  C   UNL     1     -11.733  12.535  69.403  1.00  0.00    -0.383 C  
HETATM    9  C   UNL     1     -11.030  11.259  69.690  1.00  0.00    -0.214 A  
HETATM   10  C   UNL     1      -9.688  11.076  69.329  1.00  0.00    -0.033 A  
HETATM   11  C   UNL     1      -9.048   9.858  69.562  1.00  0.00    -0.237 A  
HETATM   12  C   UNL     1      -9.738   8.819  70.181  1.00  0.00    -0.188 A  
HETATM   13  C   UNL     1     -11.063   9.000  70.575  1.00  0.00    -0.297 A  
HETATM   14  C   UNL     1     -11.717  10.218  70.336  1.00  0.00    -0.404 A  
HETATM   15  C   UNL     1     -13.135  10.429  70.796  1.00  0.00    -0.362 C  
HETATM   16  C   UNL     1     -13.203  11.446  71.936  1.00  0.00    -0.485 C  
HETATM   17  C   UNL     1     -12.915  12.910  71.641  1.00  0.00    -0.410 A  
HETATM   18  C   UNL     1     -13.302  13.818  72.652  1.00  0.00    -0.618 A  
HETATM   19  C   UNL     1     -13.072  15.187  72.533  1.00  0.00    -0.488 A  
HETATM   20  C   UNL     1     -12.436  15.679  71.404  1.00  0.00    -0.500 A  
HETATM   21  C   UNL     1     -12.027  14.800  70.403  1.00  0.00    -0.368 A  
HETATM   22  C   UNL     1     -12.263  13.411  70.491  1.00  0.00    -0.425 A  
ENDBRANCH   6   7
ENDBRANCH   3   6
TORSDOF 2
ENDMDL
MODEL        4
REMARK 921   NORMALIZED FREE ENERGY PREDICTED BY IDOCK:   -6.92 KCAL/MOL
REMARK 922        TOTAL FREE ENERGY PREDICTED BY IDOCK:   -8.04 KCAL/MOL
REMARK 923 INTER-LIGAND FREE ENERGY PREDICTED BY IDOCK:   -7.53 KCAL/MOL
REMARK 924 INTRA-LIGAND FREE ENERGY PREDICTED BY IDOCK:   -0.51 KCAL/MOL
REMARK 927      BINDING AFFINITY PREDICTED BY RF-SCORE:    0.00 PKD
ROOT
HETATM    1  C   UNL     1      -7.915   9.997  66.709  1.00  0.00    -0.114 C  
HETATM    2  N   UNL     1      -9.391  10.286  66.742  1.00  0.00    -0.157 N  
HETATM    3  C   UNL     1      -9.810  10.640  68.167  1.00  0.00    -0.155 C  
HETATM    4  O   UNL     1     -10.056   9.164  66.317  1.00  0.00    -0.286 OA 
HETATM    5  C   UNL     1      -9.678  11.426  65.799  1.00  0.00    -0.233 C  
ENDROOT
BRANCH   3   6
HETATM    6  C   UNL     1     -11.316  10.887  68.306  1.00  0.00    -0.374 C  
BRANCH   6   7
HETATM    7  C   UNL     1     -11.700  11.824  69.428  1.00  0.00    -0.405 C  
HETATM    8  C   UNL     1     -11.893  13.162  69.304  1.00  0.00    -0.377 C  
HETATM    9  C   UNL     1     -11.685  13.797  67.978  1.00  0.00    -0.390 A  
HETATM   10  C   UNL     1     -12.529  13.509  66.896  1.00  0.00    -0.162 A  
HETATM   11  C   UNL     1     -12.298  14.076  65.643  1.00  0.00    -0.502 A  
HETATM   12  C   UNL     1     -11.235  14.957  65.465  1.00  0.00    -0.348 A  
HETATM   13  C   UNL     1     -10.408  15.277  66.541  1.00  0.00    -0.289 A  
HETATM   14  C   UNL     1     -10.627  14.704  67.802  1.00  0.00    -0.251 A  
HETATM   15  C   UNL     1      -9.760  15.080  68.975  1.00  0.00    -0.229 C  
HETATM   16  C   UNL     1     -10.544  15.890  70.008  1.00  0.00    -0.320 C  
HETATM   17  C   UNL     1     -11.623  15.199  70.827  1.00  0.00    -0.361 A  
HETATM   18  C   UNL     1     -12.073  15.914  71.959  1.00  0.00    -0.591 A  
HETATM   19  C   UNL     1     -13.081  15.419  72.784  1.00  0.00    -0.568 A  
HETATM   20  C   UNL     1     -13.671  14.201  72.488  1.00  0.00    -0.626 A  
HETATM   21  C   UNL     1     -13.259  13.488  71.365  1.00  0.00    -0.348 A  
HETATM   22  C   UNL     1     -12.228  13.958  70.522  1.00  0.00    -0.443 A  
ENDBRANCH   6   7
ENDBRANCH   3   6
TORSDOF 2
ENDMDL
MODEL        5
REMARK 921   NORMALIZED FREE ENERGY PREDICTED BY IDOCK:   -6.85 KCAL/MOL
REMARK 922        TOTAL FREE ENERGY PREDICTED BY IDOCK:   -7.96 KCAL/MOL
REMARK 923 INTER-LIGAND FREE ENERGY PREDICTED BY IDOCK:   -7.63 KCAL/MOL
REMARK 924 INTRA-LIGAND FREE ENERGY PREDICTED BY IDOCK:   -0.33 KCAL/MOL
REMARK 927      BINDING AFFINITY PREDICTED BY RF-SCORE:    0.00 PKD
ROOT
HETATM    1  C   UNL     1      -8.084  20.540  67.131  1.00  0.00    -0.302 C  
HETATM    2  N   UNL     1      -9.000  19.396  66.792  1.00  0.00    -0.314 N  
HETATM    3  C   UNL     1      -9.398  18.665  68.072  1.00  0.00    -0.312 C  
HETATM    4  O   UNL     1      -8.328  18.546  65.951  1.00  0.00    -0.494 OA 
HETATM    5  C   UNL     1     -10.213  19.945  66.088  1.00  0.00    -0.503 C  
ENDROOT
BRANCH   3   6
HETATM    6  C   UNL     1     -10.282  17.440  67.814  1.00  0.00    -0.345 C  
BRANCH   6   7
HETATM    7  C   UNL     1     -11.017  16.926  69.030  1.00  0.00    -0.179 C  
HETATM    8  C   UNL     1     -10.809  15.723  69.624  1.00  0.00    -0.300 C  
HETATM    9  C   UNL     1      -9.811  14.795  69.035  1.00  0.00    -0.206 A  
HETATM   10  C   UNL     1      -8.444  15.106  69.039  1.00  0.00    -0.214 A  
HETATM   11  C   UNL     1      -7.518  14.249  68.444  1.00  0.00    -0.122 A  
HETATM   12  C   UNL     1      -7.947  13.060  67.861  1.00  0.00    -0.157 A  
HETATM   13  C   UNL     1      -9.300  12.724  67.879  1.00  0.00    -0.208 A  
HETATM   14  C   UNL     1     -10.239  13.584  68.467  1.00  0.00    -0.229 A  
HETATM   15  C   UNL     1     -11.695  13.204  68.524  1.00  0.00    -0.387 C  
HETATM   16  C   UNL     1     -12.138  12.916  69.959  1.00  0.00    -0.357 C  
HETATM   17  C   UNL     1     -12.237  14.066  70.949  1.00  0.00    -0.436 A  
HETATM   18  C   UNL     1     -12.944  13.780  72.139  1.00  0.00    -0.437 A  
HETATM   19  C   UNL     1     -13.089  14.728  73.150  1.00  0.00    -0.598 A  
HETATM   20  C   UNL     1     -12.517  15.981  72.999  1.00  0.00    -0.614 A  
HETATM   21  C   UNL     1     -11.798  16.279  71.844  1.00  0.00    -0.538 A  
HETATM   22  C   UNL     1     -11.651  15.343  70.798  1.00  0.00    -0.381 A  
ENDBRANCH   6   7
ENDBRANCH   3   6
TORSDOF 2
ENDMDL
MODEL        6
REMARK 921   NORMALIZED FREE ENERGY PREDICTED BY IDOCK:   -6.80 KCAL/MOL
REMARK 922        TOTAL FREE ENERGY PREDICTED BY IDOCK:   -7.91 KCAL/MOL
REMARK 923 INTER-LIGAND FREE ENERGY PREDICTED BY IDOCK:   -7.55 KCAL/MOL
REMARK 924 INTRA-LIGAND FREE ENERGY PREDICTED BY IDOCK:   -0.35 KCAL/MOL
REMARK 927      BINDING AFFINITY PREDICTED BY RF-SCORE:    0.00 PKD
ROOT
HETATM    1  C   UNL     1      -8.590   8.258  68.616  1.00  0.00    -0.133 C  
HETATM    2  N   UNL     1     -10.002   8.749  68.444  1.00  0.00    -0.173 N  
HETATM    3  C   UNL     1     -10.028  10.272  68.552  1.00  0.00    -0.164 C  
HETATM    4  O   UNL     1     -10.772   8.191  69.432  1.00  0.00    -0.224 OA 
HETATM    5  C   UNL     1     -10.507   8.297  67.099  1.00  0.00    -0.316 C  
ENDROOT
BRANCH   3   6
HETATM    6  C   UNL     1     -11.441  10.856  68.452  1.00  0.00    -0.374 C  
BRANCH   6   7
HETATM    7  C   UNL     1     -11.786  11.860  69.529  1.00  0.00    -0.410 C  
HETATM    8  C   UNL     1     -11.908  13.199  69.346  1.00  0.00    -0.383 C  
HETATM    9  C   UNL     1     -11.654  13.765  67.997  1.00  0.00    -0.368 A  
HETATM   10  C   UNL     1     -12.502  13.474  66.919  1.00  0.00    -0.162 A  
HETATM   11  C   UNL     1     -12.230  13.974  65.645  1.00  0.00    -0.462 A  
HETATM   12  C   UNL     1     -11.121  14.790  65.441  1.00  0.00    -0.359 A  
HETATM   13  C   UNL     1     -10.288  15.113  66.512  1.00  0.00    -0.286 A  
HETATM   14  C   UNL     1     -10.548  14.607  67.794  1.00  0.00    -0.251 A  
HETATM   15  C   UNL     1      -9.673  14.987  68.960  1.00  0.00    -0.229 C  
HETATM   16  C   UNL     1     -10.423  15.881  69.949  1.00  0.00    -0.311 C  
HETATM   17  C   UNL     1     -11.545  15.283  70.783  1.00  0.00    -0.371 A  
HETATM   18  C   UNL     1     -11.967  16.069  71.879  1.00  0.00    -0.606 A  
HETATM   19  C   UNL     1     -13.007  15.663  72.713  1.00  0.00    -0.579 A  
HETATM   20  C   UNL     1     -13.658  14.465  72.462  1.00  0.00    -0.598 A  
HETATM   21  C   UNL     1     -13.273  13.684  71.375  1.00  0.00    -0.358 A  
HETATM   22  C   UNL     1     -12.212  14.063  70.525  1.00  0.00    -0.435 A  
ENDBRANCH   6   7
ENDBRANCH   3   6
TORSDOF 2
ENDMDL
MODEL        7
REMARK 921   NORMALIZED FREE ENERGY PREDICTED BY IDOCK:   -6.70 KCAL/MOL
REMARK 922        TOTAL FREE ENERGY PREDICTED BY IDOCK:   -7.80 KCAL/MOL
REMARK 923 INTER-LIGAND FREE ENERGY PREDICTED BY IDOCK:   -7.64 KCAL/MOL
REMARK 924 INTRA-LIGAND FREE ENERGY PREDICTED BY IDOCK:   -0.16 KCAL/MOL
REMARK 927      BINDING AFFINITY PREDICTED BY RF-SCORE:    0.00 PKD
ROOT
HETATM    1  C   UNL     1     -12.400  15.502  73.966  1.00  0.00    -0.660 C  
HETATM    2  N   UNL     1     -12.944  15.141  72.611  1.00  0.00    -0.364 N  
HETATM    3  C   UNL     1     -11.859  15.341  71.555  1.00  0.00    -0.380 C  
HETATM    4  O   UNL     1     -14.015  15.957  72.349  1.00  0.00    -0.465 OA 
HETATM    5  C   UNL     1     -13.403  13.706  72.645  1.00  0.00    -0.480 C  
ENDROOT
BRANCH   3   6
HETATM    6  C   UNL     1     -12.348  15.057  70.131  1.00  0.00    -0.380 C  
BRANCH   6   7
HETATM    7  C   UNL     1     -12.020  13.674  69.616  1.00  0.00    -0.402 C  
HETATM    8  C   UNL     1     -11.270  13.401  68.519  1.00  0.00    -0.316 C  
HETATM    9  C   UNL     1     -10.740  14.529  67.713  1.00  0.00    -0.256 A  
HETATM   10  C   UNL     1      -9.775  15.402  68.235  1.00  0.00    -0.209 A  
HETATM   11  C   UNL     1      -9.316  16.485  67.487  1.00  0.00    -0.218 A  
HETATM   12  C   UNL     1      -9.799  16.693  66.198  1.00  0.00    -0.340 A  
HETATM   13  C   UNL     1     -10.735  15.814  65.654  1.00  0.00    -0.360 A  
HETATM   14  C   UNL     1     -11.209  14.727  66.404  1.00  0.00    -0.342 A  
HETATM   15  C   UNL     1     -12.188  13.752  65.805  1.00  0.00    -0.495 C  
HETATM   16  C   UNL     1     -11.543  12.384  65.578  1.00  0.00    -0.432 C  
HETATM   17  C   UNL     1     -11.185  11.526  66.781  1.00  0.00    -0.350 A  
HETATM   18  C   UNL     1     -10.895  10.173  66.493  1.00  0.00    -0.043 A  
HETATM   19  C   UNL     1     -10.521   9.277  67.492  1.00  0.00    -0.338 A  
HETATM   20  C   UNL     1     -10.415   9.717  68.802  1.00  0.00    -0.240 A  
HETATM   21  C   UNL     1     -10.676  11.051  69.107  1.00  0.00    -0.274 A  
HETATM   22  C   UNL     1     -11.073  11.976  68.117  1.00  0.00    -0.294 A  
ENDBRANCH   6   7
ENDBRANCH   3   6
TORSDOF 2
ENDMDL
MODEL        8
REMARK 921   NORMALIZED FREE ENERGY PREDICTED BY IDOCK:   -6.47 KCAL/MOL
REMARK 922        TOTAL FREE ENERGY PREDICTED BY IDOCK:   -7.54 KCAL/MOL
REMARK 923 INTER-LIGAND FREE ENERGY PREDICTED BY IDOCK:   -7.19 KCAL/MOL
REMARK 924 INTRA-LIGAND FREE ENERGY PREDICTED BY IDOCK:   -0.35 KCAL/MOL
REMARK 927      BINDING AFFINITY PREDICTED BY RF-SCORE:    0.00 PKD
ROOT
HETATM    1  C   UNL     1      -8.089   9.178  64.813  1.00  0.00    -0.140 C  
HETATM    2  N   UNL     1      -8.805   8.922  66.111  1.00  0.00    -0.151 N  
HETATM    3  C   UNL     1     -10.091   9.744  66.154  1.00  0.00    -0.245 C  
HETATM    4  O   UNL     1      -7.973   9.291  67.137  1.00  0.00    -0.105 OA 
HETATM    5  C   UNL     1      -9.104   7.449  66.212  1.00  0.00    -0.156 C  
ENDROOT
BRANCH   3   6
HETATM    6  C   UNL     1     -10.855   9.593  67.474  1.00  0.00    -0.265 C  
BRANCH   6   7
HETATM    7  C   UNL     1     -11.314  10.896  68.089  1.00  0.00    -0.383 C  
HETATM    8  C   UNL     1     -11.252  11.207  69.408  1.00  0.00    -0.334 C  
HETATM    9  C   UNL     1     -10.730  10.195  70.361  1.00  0.00    -0.329 A  
HETATM   10  C   UNL     1      -9.387   9.794  70.327  1.00  0.00    -0.236 A  
HETATM   11  C   UNL     1      -8.916   8.810  71.196  1.00  0.00    -0.280 A  
HETATM   12  C   UNL     1      -9.777   8.235  72.126  1.00  0.00    -0.344 A  
HETATM   13  C   UNL     1     -11.108   8.648  72.192  1.00  0.00    -0.434 A  
HETATM   14  C   UNL     1     -11.592   9.630  71.315  1.00  0.00    -0.466 A  
HETATM   15  C   UNL     1     -13.017  10.108  71.412  1.00  0.00    -0.528 C  
HETATM   16  C   UNL     1     -13.087  11.551  71.914  1.00  0.00    -0.492 C  
HETATM   17  C   UNL     1     -12.607  12.673  71.007  1.00  0.00    -0.354 A  
HETATM   18  C   UNL     1     -12.991  13.975  71.402  1.00  0.00    -0.427 A  
HETATM   19  C   UNL     1     -12.597  15.103  70.686  1.00  0.00    -0.450 A  
HETATM   20  C   UNL     1     -11.798  14.956  69.563  1.00  0.00    -0.360 A  
HETATM   21  C   UNL     1     -11.390  13.685  69.166  1.00  0.00    -0.335 A  
HETATM   22  C   UNL     1     -11.789  12.524  69.864  1.00  0.00    -0.373 A  
ENDBRANCH   6   7
ENDBRANCH   3   6
TORSDOF 2
ENDMDL
MODEL        9
REMARK 921   NORMALIZED FREE ENERGY PREDICTED BY IDOCK:   -6.45 KCAL/MOL
REMARK 922        TOTAL FREE ENERGY PREDICTED BY IDOCK:   -7.52 KCAL/MOL
REMARK 923 INTER-LIGAND FREE ENERGY PREDICTED BY IDOCK:   -7.17 KCAL/MOL
REMARK 924 INTRA-LIGAND FREE ENERGY PREDICTED BY IDOCK:   -0.35 KCAL/MOL
REMARK 927      BINDING AFFINITY PREDICTED BY RF-SCORE:    0.00 PKD
ROOT
HETATM    1  C   UNL     1     -14.229  15.380  72.580  1.00  0.00    -0.409 C  
HETATM    2  N   UNL     1     -12.799  15.212  72.147  1.00  0.00    -0.321 N  
HETATM    3  C   UNL     1     -12.680  15.503  70.653  1.00  0.00    -0.436 C  
HETATM    4  O   UNL     1     -12.422  13.919  72.409  1.00  0.00    -0.132 OA 
HETATM    5  C   UNL     1     -11.941  16.157  72.948  1.00  0.00    -0.520 C  
ENDROOT
BRANCH   3   6
HETATM    6  C   UNL     1     -11.262  15.293  70.111  1.00  0.00    -0.313 C  
BRANCH   6   7
HETATM    7  C   UNL     1     -10.662  16.502  69.430  1.00  0.00    -0.330 C  
HETATM    8  C   UNL     1     -10.290  16.565  68.126  1.00  0.00    -0.296 C  
HETATM    9  C   UNL     1     -10.436  15.356  67.278  1.00  0.00    -0.282 A  
HETATM   10  C   UNL     1     -11.701  14.843  66.959  1.00  0.00    -0.274 A  
HETATM   11  C   UNL     1     -11.827  13.681  66.199  1.00  0.00    -0.424 A  
HETATM   12  C   UNL     1     -10.689  13.031  65.729  1.00  0.00    -0.291 A  
HETATM   13  C   UNL     1      -9.425  13.548  66.013  1.00  0.00    -0.109 A  
HETATM   14  C   UNL     1      -9.289  14.712  66.784  1.00  0.00    -0.275 A  
HETATM   15  C   UNL     1      -7.927  15.295  67.057  1.00  0.00    -0.243 C  
HETATM   16  C   UNL     1      -7.736  16.625  66.327  1.00  0.00    -0.273 C  
HETATM   17  C   UNL     1      -8.523  17.842  66.788  1.00  0.00    -0.268 A  
HETATM   18  C   UNL     1      -8.067  19.082  66.286  1.00  0.00    -0.298 A  
HETATM   19  C   UNL     1      -8.709  20.278  66.598  1.00  0.00    -0.318 A  
HETATM   20  C   UNL     1      -9.832  20.261  67.411  1.00  0.00    -0.586 A  
HETATM   21  C   UNL     1     -10.312  19.048  67.900  1.00  0.00    -0.485 A  
HETATM   22  C   UNL     1      -9.671  17.824  67.614  1.00  0.00    -0.282 A  
ENDBRANCH   6   7
ENDBRANCH   3   6
TORSDOF 2
ENDMDL
MODEL       10
REMARK 921   NORMALIZED FREE ENERGY PREDICTED BY IDOCK:   -6.43 KCAL/MOL
REMARK 922        TOTAL FREE ENERGY PREDICTED BY IDOCK:   -7.49 KCAL/MOL
REMARK 923 INTER-LIGAND FREE ENERGY PREDICTED BY IDOCK:   -7.17 KCAL/MOL
REMARK 924 INTRA-LIGAND FREE ENERGY PREDICTED BY IDOCK:   -0.33 KCAL/MOL
REMARK 927      BINDING AFFINITY PREDICTED BY RF-SCORE:    0.00 PKD
ROOT
HETATM    1  C   UNL     1      -8.802   7.049  67.316  1.00  0.00    -0.119 C  
HETATM    2  N   UNL     1      -9.358   8.405  66.979  1.00  0.00    -0.151 N  
HETATM    3  C   UNL     1      -8.845   9.431  67.987  1.00  0.00    -0.124 C  
HETATM    4  O   UNL     1     -10.726   8.332  67.033  1.00  0.00    -0.307 OA 
HETATM    5  C   UNL     1      -8.930   8.765  65.580  1.00  0.00    -0.200 C  
ENDROOT
BRANCH   3   6
HETATM    6  C   UNL     1      -9.414  10.835  67.757  1.00  0.00    -0.165 C  
BRANCH   6   7
HETATM    7  C   UNL     1     -10.270  11.361  68.886  1.00  0.00    -0.184 C  
HETATM    8  C   UNL     1     -11.255  12.286  68.761  1.00  0.00    -0.312 C  
HETATM    9  C   UNL     1     -11.517  12.879  67.425  1.00  0.00    -0.388 A  
HETATM   10  C   UNL     1     -12.025  12.102  66.375  1.00  0.00    -0.201 A  
HETATM   11  C   UNL     1     -12.225  12.657  65.111  1.00  0.00    -0.539 A  
HETATM   12  C   UNL     1     -11.943  14.003  64.891  1.00  0.00    -0.416 A  
HETATM   13  C   UNL     1     -11.469  14.795  65.936  1.00  0.00    -0.319 A  
HETATM   14  C   UNL     1     -11.255  14.242  67.208  1.00  0.00    -0.330 A  
HETATM   15  C   UNL     1     -10.781  15.104  68.348  1.00  0.00    -0.248 C  
HETATM   16  C   UNL     1     -11.875  15.280  69.403  1.00  0.00    -0.367 C  
HETATM   17  C   UNL     1     -12.273  14.090  70.262  1.00  0.00    -0.430 A  
HETATM   18  C   UNL     1     -13.043  14.400  71.405  1.00  0.00    -0.416 A  
HETATM   19  C   UNL     1     -13.506  13.408  72.267  1.00  0.00    -0.683 A  
HETATM   20  C   UNL     1     -13.219  12.079  71.998  1.00  0.00    -0.481 A  
HETATM   21  C   UNL     1     -12.479  11.747  70.865  1.00  0.00    -0.416 A  
HETATM   22  C   UNL     1     -11.984  12.734  69.985  1.00  0.00    -0.371 A  
ENDBRANCH   6   7
ENDBRANCH   3   6
TORSDOF 2
ENDMDL
MODEL       11
REMARK 921   NORMALIZED FREE ENERGY PREDICTED BY IDOCK:   -6.36 KCAL/MOL
REMARK 922        TOTAL FREE ENERGY PREDICTED BY IDOCK:   -7.42 KCAL/MOL
REMARK 923 INTER-LIGAND FREE ENERGY PREDICTED BY IDOCK:   -7.25 KCAL/MOL
REMARK 924 INTRA-LIGAND FREE ENERGY PREDICTED BY IDOCK:   -0.16 KCAL/MOL
REMARK 927      BINDING AFFINITY PREDICTED BY RF-SCORE:    0.00 PKD
ROOT
HETATM    1  C   UNL     1      -8.221  19.974  67.480  1.00  0.00    -0.329 C  
HETATM    2  N   UNL     1      -9.243  18.962  67.922  1.00  0.00    -0.296 N  
HETATM    3  C   UNL     1      -8.556  17.621  68.173  1.00  0.00    -0.261 C  
HETATM    4  O   UNL     1     -10.177  18.836  66.926  1.00  0.00    -0.341 OA 
HETATM    5  C   UNL     1      -9.909  19.468  69.174  1.00  0.00    -0.361 C  
ENDROOT
BRANCH   3   6
HETATM    6  C   UNL     1      -9.535  16.510  68.566  1.00  0.00    -0.235 C  
BRANCH   6   7
HETATM    7  C   UNL     1     -10.075  15.706  67.405  1.00  0.00    -0.251 C  
HETATM    8  C   UNL     1     -11.081  14.797  67.479  1.00  0.00    -0.323 C  
HETATM    9  C   UNL     1     -11.700  14.517  68.798  1.00  0.00    -0.362 A  
HETATM   10  C   UNL     1     -12.448  15.495  69.469  1.00  0.00    -0.081 A  
HETATM   11  C   UNL     1     -12.989  15.238  70.729  1.00  0.00    -0.492 A  
HETATM   12  C   UNL     1     -12.808  13.991  71.320  1.00  0.00    -0.430 A  
HETATM   13  C   UNL     1     -12.093  12.999  70.650  1.00  0.00    -0.333 A  
HETATM   14  C   UNL     1     -11.538  13.252  69.387  1.00  0.00    -0.364 A  
HETATM   15  C   UNL     1     -10.801  12.170  68.643  1.00  0.00    -0.268 C  
HETATM   16  C   UNL     1     -11.581  11.715  67.408  1.00  0.00    -0.330 C  
HETATM   17  C   UNL     1     -11.709  12.659  66.224  1.00  0.00    -0.460 A  
HETATM   18  C   UNL     1     -12.158  12.065  65.023  1.00  0.00    -0.204 A  
HETATM   19  C   UNL     1     -12.352  12.813  63.864  1.00  0.00    -0.510 A  
HETATM   20  C   UNL     1     -12.115  14.179  63.883  1.00  0.00    -0.301 A  
HETATM   21  C   UNL     1     -11.692  14.790  65.061  1.00  0.00    -0.364 A  
HETATM   22  C   UNL     1     -11.471  14.053  66.244  1.00  0.00    -0.358 A  
ENDBRANCH   6   7
ENDBRANCH   3   6
TORSDOF 2
ENDMDL
MODEL       12
REMARK 921   NORMALIZED FREE ENERGY PREDICTED BY IDOCK:   -6.29 KCAL/MOL
REMARK 922        TOTAL FREE ENERGY PREDICTED BY IDOCK:   -7.34 KCAL/MOL
REMARK 923 INTER-LIGAND FREE ENERGY PREDICTED BY IDOCK:   -6.98 KCAL/MOL
REMARK 924 INTRA-LIGAND FREE ENERGY PREDICTED BY IDOCK:   -0.36 KCAL/MOL
REMARK 927      BINDING AFFINITY PREDICTED BY RF-SCORE:    0.00 PKD
ROOT
HETATM    1  C   UNL     1     -10.198   8.717  72.218  1.00  0.00    -0.301 C  
HETATM    2  N   UNL     1     -11.157   9.009  71.097  1.00  0.00    -0.275 N  
HETATM    3  C   UNL     1     -10.508   9.975  70.109  1.00  0.00    -0.284 C  
HETATM    4  O   UNL     1     -12.286   9.572  71.637  1.00  0.00    -0.351 OA 
HETATM    5  C   UNL     1     -11.517   7.711  70.423  1.00  0.00    -0.174 C  
ENDROOT
BRANCH   3   6
HETATM    6  C   UNL     1     -11.442  10.380  68.964  1.00  0.00    -0.258 C  
BRANCH   6   7
HETATM    7  C   UNL     1     -10.890  10.125  67.580  1.00  0.00    -0.349 C  
HETATM    8  C   UNL     1     -10.545  11.082  66.683  1.00  0.00    -0.315 C  
HETATM    9  C   UNL     1     -10.745  12.509  67.042  1.00  0.00    -0.268 A  
HETATM   10  C   UNL     1     -10.000  13.109  68.067  1.00  0.00    -0.233 A  
HETATM   11  C   UNL     1     -10.227  14.437  68.428  1.00  0.00    -0.243 A  
HETATM   12  C   UNL     1     -11.185  15.187  67.750  1.00  0.00    -0.327 A  
HETATM   13  C   UNL     1     -11.910  14.611  66.707  1.00  0.00    -0.334 A  
HETATM   14  C   UNL     1     -11.695  13.274  66.344  1.00  0.00    -0.418 A  
HETATM   15  C   UNL     1     -12.447  12.662  65.192  1.00  0.00    -0.531 C  
HETATM   16  C   UNL     1     -11.519  12.376  64.011  1.00  0.00    -0.479 C  
HETATM   17  C   UNL     1     -10.488  11.265  64.132  1.00  0.00    -0.431 A  
HETATM   18  C   UNL     1      -9.896  10.855  62.916  1.00  0.00    -0.313 A  
HETATM   19  C   UNL     1      -8.913   9.868  62.877  1.00  0.00    -0.271 A  
HETATM   20  C   UNL     1      -8.489   9.277  64.057  1.00  0.00    -0.202 A  
HETATM   21  C   UNL     1      -9.043   9.680  65.270  1.00  0.00    -0.269 A  
HETATM   22  C   UNL     1     -10.053  10.665  65.336  1.00  0.00    -0.356 A  
ENDBRANCH   6   7
ENDBRANCH   3   6
TORSDOF 2
ENDMDL
MODEL       13
REMARK 921   NORMALIZED FREE ENERGY PREDICTED BY IDOCK:   -6.15 KCAL/MOL
REMARK 922        TOTAL FREE ENERGY PREDICTED BY IDOCK:   -7.18 KCAL/MOL
REMARK 923 INTER-LIGAND FREE ENERGY PREDICTED BY IDOCK:   -6.89 KCAL/MOL
REMARK 924 INTRA-LIGAND FREE ENERGY PREDICTED BY IDOCK:   -0.29 KCAL/MOL
REMARK 927      BINDING AFFINITY PREDICTED BY RF-SCORE:    0.00 PKD
ROOT
HETATM    1  C   UNL     1      -8.967  19.423  66.920  1.00  0.00    -0.310 C  
HETATM    2  N   UNL     1      -9.099  17.944  67.155  1.00  0.00    -0.247 N  
HETATM    3  C   UNL     1     -10.384  17.437  66.505  1.00  0.00    -0.312 C  
HETATM    4  O   UNL     1      -9.136  17.728  68.509  1.00  0.00    -0.278 OA 
HETATM    5  C   UNL     1      -7.893  17.255  66.570  1.00  0.00    -0.287 C  
ENDROOT
BRANCH   3   6
HETATM    6  C   UNL     1     -10.633  15.945  66.751  1.00  0.00    -0.309 C  
BRANCH   6   7
HETATM    7  C   UNL     1     -11.396  15.634  68.018  1.00  0.00    -0.324 C  
HETATM    8  C   UNL     1     -11.078  14.659  68.907  1.00  0.00    -0.268 C  
HETATM    9  C   UNL     1      -9.913  13.783  68.626  1.00  0.00    -0.175 A  
HETATM   10  C   UNL     1      -8.607  14.294  68.622  1.00  0.00    -0.149 A  
HETATM   11  C   UNL     1      -7.523  13.474  68.313  1.00  0.00    -0.122 A  
HETATM   12  C   UNL     1      -7.730  12.127  68.029  1.00  0.00    -0.134 A  
HETATM   13  C   UNL     1      -9.020  11.598  68.062  1.00  0.00    -0.176 A  
HETATM   14  C   UNL     1     -10.118  12.419  68.362  1.00  0.00    -0.217 A  
HETATM   15  C   UNL     1     -11.507  11.842  68.438  1.00  0.00    -0.357 C  
HETATM   16  C   UNL     1     -12.032  11.846  69.875  1.00  0.00    -0.398 C  
HETATM   17  C   UNL     1     -12.377  13.172  70.534  1.00  0.00    -0.380 A  
HETATM   18  C   UNL     1     -13.142  13.077  71.718  1.00  0.00    -0.469 A  
HETATM   19  C   UNL     1     -13.505  14.208  72.447  1.00  0.00    -0.616 A  
HETATM   20  C   UNL     1     -13.100  15.461  72.013  1.00  0.00    -0.501 A  
HETATM   21  C   UNL     1     -12.329  15.577  70.859  1.00  0.00    -0.474 A  
HETATM   22  C   UNL     1     -11.961  14.450  70.093  1.00  0.00    -0.386 A  
ENDBRANCH   6   7
ENDBRANCH   3   6
TORSDOF 2
ENDMDL
MODEL       14
REMARK 921   NORMALIZED FREE ENERGY PREDICTED BY IDOCK:   -6.12 KCAL/MOL
REMARK 922        TOTAL FREE ENERGY PREDICTED BY IDOCK:   -7.15 KCAL/MOL
REMARK 923 INTER-LIGAND FREE ENERGY PREDICTED BY IDOCK:   -6.91 KCAL/MOL
REMARK 924 INTRA-LIGAND FREE ENERGY PREDICTED BY IDOCK:   -0.24 KCAL/MOL
REMARK 927      BINDING AFFINITY PREDICTED BY RF-SCORE:    0.00 PKD
ROOT
HETATM    1  C   UNL     1     -12.076  12.811  63.457  1.00  0.00    -0.559 C  
HETATM    2  N   UNL     1     -11.983  13.418  64.829  1.00  0.00    -0.372 N  
HETATM    3  C   UNL     1     -11.753  12.316  65.861  1.00  0.00    -0.389 C  
HETATM    4  O   UNL     1     -13.161  14.071  65.088  1.00  0.00    -0.768 OA 
HETATM    5  C   UNL     1     -10.848  14.409  64.840  1.00  0.00    -0.416 C  
ENDROOT
BRANCH   3   6
HETATM    6  C   UNL     1     -11.710  12.840  67.300  1.00  0.00    -0.440 C  
BRANCH   6   7
HETATM    7  C   UNL     1     -11.882  11.778  68.362  1.00  0.00    -0.347 C  
HETATM    8  C   UNL     1     -10.919  10.916  68.775  1.00  0.00    -0.285 C  
HETATM    9  C   UNL     1      -9.585  10.966  68.126  1.00  0.00    -0.169 A  
HETATM   10  C   UNL     1      -8.746  12.079  68.281  1.00  0.00    -0.178 A  
HETATM   11  C   UNL     1      -7.513  12.137  67.632  1.00  0.00    -0.129 A  
HETATM   12  C   UNL     1      -7.095  11.071  66.839  1.00  0.00    -0.125 A  
HETATM   13  C   UNL     1      -7.906   9.945  66.703  1.00  0.00    -0.110 A  
HETATM   14  C   UNL     1      -9.151   9.882  67.345  1.00  0.00    -0.147 A  
HETATM   15  C   UNL     1     -10.011   8.650  67.232  1.00  0.00    -0.282 C  
HETATM   16  C   UNL     1     -10.097   7.909  68.567  1.00  0.00    -0.216 C  
HETATM   17  C   UNL     1     -10.873   8.537  69.714  1.00  0.00    -0.177 A  
HETATM   18  C   UNL     1     -11.173   7.669  70.787  1.00  0.00    -0.282 A  
HETATM   19  C   UNL     1     -11.852   8.113  71.920  1.00  0.00    -0.366 A  
HETATM   20  C   UNL     1     -12.236   9.442  72.011  1.00  0.00    -0.396 A  
HETATM   21  C   UNL     1     -11.933  10.321  70.974  1.00  0.00    -0.483 A  
HETATM   22  C   UNL     1     -11.261   9.893  69.808  1.00  0.00    -0.279 A  
ENDBRANCH   6   7
ENDBRANCH   3   6
TORSDOF 2
ENDMDL
MODEL       15
REMARK 921   NORMALIZED FREE ENERGY PREDICTED BY IDOCK:   -6.09 KCAL/MOL
REMARK 922        TOTAL FREE ENERGY PREDICTED BY IDOCK:   -7.12 KCAL/MOL
REMARK 923 INTER-LIGAND FREE ENERGY PREDICTED BY IDOCK:   -6.79 KCAL/MOL
REMARK 924 INTRA-LIGAND FREE ENERGY PREDICTED BY IDOCK:   -0.33 KCAL/MOL
REMARK 927      BINDING AFFINITY PREDICTED BY RF-SCORE:    0.00 PKD
ROOT
HETATM    1  C   UNL     1      -7.624  19.714  68.112  1.00  0.00    -0.307 C  
HETATM    2  N   UNL     1      -9.044  19.476  67.677  1.00  0.00    -0.308 N  
HETATM    3  C   UNL     1      -9.093  18.284  66.724  1.00  0.00    -0.284 C  
HETATM    4  O   UNL     1      -9.492  20.607  67.044  1.00  0.00    -0.389 OA 
HETATM    5  C   UNL     1      -9.884  19.220  68.901  1.00  0.00    -0.446 C  
ENDROOT
BRANCH   3   6
HETATM    6  C   UNL     1     -10.498  18.008  66.179  1.00  0.00    -0.336 C  
BRANCH   6   7
HETATM    7  C   UNL     1     -10.658  16.669  65.496  1.00  0.00    -0.273 C  
HETATM    8  C   UNL     1     -10.779  15.474  66.128  1.00  0.00    -0.315 C  
HETATM    9  C   UNL     1     -10.719  15.437  67.611  1.00  0.00    -0.292 A  
HETATM   10  C   UNL     1     -11.724  16.026  68.391  1.00  0.00    -0.196 A  
HETATM   11  C   UNL     1     -11.637  16.025  69.783  1.00  0.00    -0.297 A  
HETATM   12  C   UNL     1     -10.554  15.414  70.410  1.00  0.00    -0.274 A  
HETATM   13  C   UNL     1      -9.564  14.797  69.647  1.00  0.00     0.143 A  
HETATM   14  C   UNL     1      -9.640  14.801  68.246  1.00  0.00    -0.215 A  
HETATM   15  C   UNL     1      -8.593  14.100  67.420  1.00  0.00    -0.219 C  
HETATM   16  C   UNL     1      -9.169  12.865  66.726  1.00  0.00    -0.230 C  
HETATM   17  C   UNL     1     -10.165  13.050  65.592  1.00  0.00    -0.296 A  
HETATM   18  C   UNL     1     -10.403  11.902  64.803  1.00  0.00    -0.323 A  
HETATM   19  C   UNL     1     -11.315  11.914  63.749  1.00  0.00    -0.532 A  
HETATM   20  C   UNL     1     -12.019  13.074  63.467  1.00  0.00    -0.615 A  
HETATM   21  C   UNL     1     -11.816  14.212  64.244  1.00  0.00    -0.420 A  
HETATM   22  C   UNL     1     -10.887  14.232  65.306  1.00  0.00    -0.363 A  
ENDBRANCH   6   7
ENDBRANCH   3   6
TORSDOF 2
ENDMDL
MODEL       16
REMARK 921   NORMALIZED FREE ENERGY PREDICTED BY IDOCK:   -6.04 KCAL/MOL
REMARK 922        TOTAL FREE ENERGY PREDICTED BY IDOCK:   -7.06 KCAL/MOL
REMARK 923 INTER-LIGAND FREE ENERGY PREDICTED BY IDOCK:   -6.75 KCAL/MOL
REMARK 924 INTRA-LIGAND FREE ENERGY PREDICTED BY IDOCK:   -0.31 KCAL/MOL
REMARK 927      BINDING AFFINITY PREDICTED BY RF-SCORE:    0.00 PKD
ROOT
HETATM    1  C   UNL     1      -5.685  10.582  67.957  1.00  0.00    -0.040 C  
HETATM    2  N   UNL     1      -6.957  11.189  67.431  1.00  0.00    -0.087 N  
HETATM    3  C   UNL     1      -8.125  10.779  68.324  1.00  0.00    -0.121 C  
HETATM    4  O   UNL     1      -7.154  10.729  66.154  1.00  0.00    -0.130 OA 
HETATM    5  C   UNL     1      -6.800  12.687  67.405  1.00  0.00    -0.140 C  
ENDROOT
BRANCH   3   6
HETATM    6  C   UNL     1      -9.476  11.302  67.824  1.00  0.00    -0.173 C  
BRANCH   6   7
HETATM    7  C   UNL     1     -10.317  11.984  68.878  1.00  0.00    -0.117 C  
HETATM    8  C   UNL     1     -11.296  12.893  68.636  1.00  0.00    -0.327 C  
HETATM    9  C   UNL     1     -11.565  13.301  67.234  1.00  0.00    -0.404 A  
HETATM   10  C   UNL     1     -12.089  12.393  66.303  1.00  0.00    -0.256 A  
HETATM   11  C   UNL     1     -12.297  12.773  64.978  1.00  0.00    -0.559 A  
HETATM   12  C   UNL     1     -12.006  14.074  64.575  1.00  0.00    -0.470 A  
HETATM   13  C   UNL     1     -11.515  14.996  65.498  1.00  0.00    -0.265 A  
HETATM   14  C   UNL     1     -11.294  14.619  66.831  1.00  0.00    -0.361 A  
HETATM   15  C   UNL     1     -10.803  15.624  67.840  1.00  0.00    -0.306 C  
HETATM   16  C   UNL     1     -11.885  15.952  68.870  1.00  0.00    -0.314 C  
HETATM   17  C   UNL     1     -12.285  14.893  69.886  1.00  0.00    -0.354 A  
HETATM   18  C   UNL     1     -13.042  15.364  70.982  1.00  0.00    -0.565 A  
HETATM   19  C   UNL     1     -13.505  14.503  71.975  1.00  0.00    -0.476 A  
HETATM   20  C   UNL     1     -13.232  13.147  71.887  1.00  0.00    -0.526 A  
HETATM   21  C   UNL     1     -12.505  12.657  70.804  1.00  0.00    -0.357 A  
HETATM   22  C   UNL     1     -12.009  13.510  69.794  1.00  0.00    -0.405 A  
ENDBRANCH   6   7
ENDBRANCH   3   6
TORSDOF 2
ENDMDL
MODEL       17
REMARK 921   NORMALIZED FREE ENERGY PREDICTED BY IDOCK:   -6.01 KCAL/MOL
REMARK 922        TOTAL FREE ENERGY PREDICTED BY IDOCK:   -7.03 KCAL/MOL
REMARK 923 INTER-LIGAND FREE ENERGY PREDICTED BY IDOCK:   -6.81 KCAL/MOL
REMARK 924 INTRA-LIGAND FREE ENERGY PREDICTED BY IDOCK:   -0.22 KCAL/MOL
REMARK 927      BINDING AFFINITY PREDICTED BY RF-SCORE:    0.00 PKD
ROOT
HETATM    1  C   UNL     1      -6.066  14.010  67.950  1.00  0.00    -0.148 C  
HETATM    2  N   UNL     1      -6.534  12.580  67.916  1.00  0.00    -0.091 N  
HETATM    3  C   UNL     1      -8.004  12.535  67.505  1.00  0.00    -0.175 C  
HETATM    4  O   UNL     1      -6.377  12.049  69.170  1.00  0.00    -0.078 OA 
HETATM    5  C   UNL     1      -5.679  11.819  66.937  1.00  0.00    -0.142 C  
ENDROOT
BRANCH   3   6
HETATM    6  C   UNL     1      -8.584  11.117  67.506  1.00  0.00    -0.129 C  
BRANCH   6   7
HETATM    7  C   UNL     1      -9.531  10.824  68.647  1.00  0.00    -0.188 C  
HETATM    8  C   UNL     1     -10.798  11.297  68.758  1.00  0.00    -0.252 C  
HETATM    9  C   UNL     1     -11.318  12.210  67.709  1.00  0.00    -0.371 A  
HETATM   10  C   UNL     1     -11.532  11.760  66.398  1.00  0.00    -0.309 A  
HETATM   11  C   UNL     1     -11.978  12.636  65.409  1.00  0.00    -0.496 A  
HETATM   12  C   UNL     1     -12.238  13.966  65.725  1.00  0.00    -0.488 A  
HETATM   13  C   UNL     1     -12.060  14.419  67.032  1.00  0.00    -0.374 A  
HETATM   14  C   UNL     1     -11.603  13.548  68.031  1.00  0.00    -0.372 A  
HETATM   15  C   UNL     1     -11.448  14.024  69.452  1.00  0.00    -0.343 C  
HETATM   16  C   UNL     1     -12.484  13.375  70.371  1.00  0.00    -0.322 C  
HETATM   17  C   UNL     1     -12.366  11.893  70.689  1.00  0.00    -0.405 A  
HETATM   18  C   UNL     1     -13.151  11.443  71.775  1.00  0.00    -0.523 A  
HETATM   19  C   UNL     1     -13.168  10.105  72.161  1.00  0.00    -0.463 A  
HETATM   20  C   UNL     1     -12.408   9.181  71.461  1.00  0.00    -0.421 A  
HETATM   21  C   UNL     1     -11.642   9.597  70.374  1.00  0.00    -0.299 A  
HETATM   22  C   UNL     1     -11.594  10.949  69.973  1.00  0.00    -0.424 A  
ENDBRANCH   6   7
ENDBRANCH   3   6
TORSDOF 2
ENDMDL
MODEL       18
REMARK 921   NORMALIZED FREE ENERGY PREDICTED BY IDOCK:   -6.00 KCAL/MOL
REMARK 922        TOTAL FREE ENERGY PREDICTED BY IDOCK:   -7.02 KCAL/MOL
REMARK 923 INTER-LIGAND FREE ENERGY PREDICTED BY IDOCK:   -6.69 KCAL/MOL
REMARK 924 INTRA-LIGAND FREE ENERGY PREDICTED BY IDOCK:   -0.33 KCAL/MOL
REMARK 927      BINDING AFFINITY PREDICTED BY RF-SCORE:    0.00 PKD
ROOT
HETATM    1  C   UNL     1     -14.363  15.153  71.624  1.00  0.00    -0.585 C  
HETATM    2  N   UNL     1     -13.171  14.238  71.556  1.00  0.00    -0.332 N  
HETATM    3  C   UNL     1     -12.784  14.011  70.096  1.00  0.00    -0.150 C  
HETATM    4  O   UNL     1     -13.513  13.047  72.146  1.00  0.00    -0.509 OA 
HETATM    5  C   UNL     1     -12.037  14.869  72.321  1.00  0.00    -0.323 C  
ENDROOT
BRANCH   3   6
HETATM    6  C   UNL     1     -11.614  13.036  69.930  1.00  0.00    -0.249 C  
BRANCH   6   7
HETATM    7  C   UNL     1     -11.414  12.526  68.521  1.00  0.00    -0.346 C  
HETATM    8  C   UNL     1     -10.585  13.076  67.597  1.00  0.00    -0.232 C  
HETATM    9  C   UNL     1      -9.824  14.300  67.953  1.00  0.00    -0.226 A  
HETATM   10  C   UNL     1      -8.819  14.269  68.931  1.00  0.00    -0.022 A  
HETATM   11  C   UNL     1      -8.140  15.433  69.291  1.00  0.00    -0.246 A  
HETATM   12  C   UNL     1      -8.442  16.636  68.659  1.00  0.00    -0.253 A  
HETATM   13  C   UNL     1      -9.416  16.674  67.662  1.00  0.00    -0.226 A  
HETATM   14  C   UNL     1     -10.111  15.510  67.301  1.00  0.00    -0.250 A  
HETATM   15  C   UNL     1     -11.134  15.540  66.196  1.00  0.00    -0.177 C  
HETATM   16  C   UNL     1     -10.651  14.765  64.970  1.00  0.00    -0.452 C  
HETATM   17  C   UNL     1     -10.548  13.250  65.046  1.00  0.00    -0.360 A  
HETATM   18  C   UNL     1     -10.406  12.591  63.804  1.00  0.00    -0.418 A  
HETATM   19  C   UNL     1     -10.269  11.207  63.721  1.00  0.00    -0.434 A  
HETATM   20  C   UNL     1     -10.257  10.450  64.882  1.00  0.00    -0.330 A  
HETATM   21  C   UNL     1     -10.374  11.079  66.119  1.00  0.00    -0.306 A  
HETATM   22  C   UNL     1     -10.532  12.477  66.230  1.00  0.00    -0.268 A  
ENDBRANCH   6   7
ENDBRANCH   3   6
TORSDOF 2
ENDMDL
MODEL       19
REMARK 921   NORMALIZED FREE ENERGY PREDICTED BY IDOCK:   -5.97 KCAL/MOL
REMARK 922        TOTAL FREE ENERGY PREDICTED BY IDOCK:   -6.98 KCAL/MOL
REMARK 923 INTER-LIGAND FREE ENERGY PREDICTED BY IDOCK:   -6.66 KCAL/MOL
REMARK 924 INTRA-LIGAND FREE ENERGY PREDICTED BY IDOCK:   -0.31 KCAL/MOL
REMARK 927      BINDING AFFINITY PREDICTED BY RF-SCORE:    0.00 PKD
ROOT
HETATM    1  C   UNL     1     -12.171   8.885  72.272  1.00  0.00    -0.343 C  
HETATM    2  N   UNL     1     -11.038   8.857  71.283  1.00  0.00    -0.272 N  
HETATM    3  C   UNL     1     -11.046  10.145  70.462  1.00  0.00    -0.327 C  
HETATM    4  O   UNL     1     -11.212   7.772  70.463  1.00  0.00    -0.265 OA 
HETATM    5  C   UNL     1      -9.744   8.711  72.041  1.00  0.00    -0.321 C  
ENDROOT
BRANCH   3   6
HETATM    6  C   UNL     1      -9.960  10.175  69.382  1.00  0.00    -0.247 C  
BRANCH   6   7
HETATM    7  C   UNL     1     -10.336  10.935  68.131  1.00  0.00    -0.202 C  
HETATM    8  C   UNL     1     -10.379  10.414  66.878  1.00  0.00    -0.297 C  
HETATM    9  C   UNL     1      -9.997   8.994  66.678  1.00  0.00    -0.349 A  
HETATM   10  C   UNL     1     -10.773   7.953  67.207  1.00  0.00    -0.299 A  
HETATM   11  C   UNL     1     -10.382   6.623  67.051  1.00  0.00    -0.330 A  
HETATM   12  C   UNL     1      -9.222   6.319  66.344  1.00  0.00    -0.173 A  
HETATM   13  C   UNL     1      -8.458   7.343  65.785  1.00  0.00    -0.149 A  
HETATM   14  C   UNL     1      -8.839   8.683  65.944  1.00  0.00    -0.221 A  
HETATM   15  C   UNL     1      -8.039   9.789  65.307  1.00  0.00    -0.126 C  
HETATM   16  C   UNL     1      -8.818  10.456  64.173  1.00  0.00    -0.228 C  
HETATM   17  C   UNL     1     -10.027  11.313  64.510  1.00  0.00    -0.334 A  
HETATM   18  C   UNL     1     -10.494  12.139  63.462  1.00  0.00    -0.490 A  
HETATM   19  C   UNL     1     -11.612  12.955  63.616  1.00  0.00    -0.547 A  
HETATM   20  C   UNL     1     -12.299  12.955  64.820  1.00  0.00    -0.516 A  
HETATM   21  C   UNL     1     -11.870  12.134  65.860  1.00  0.00    -0.342 A  
HETATM   22  C   UNL     1     -10.730  11.310  65.736  1.00  0.00    -0.284 A  
ENDBRANCH   6   7
ENDBRANCH   3   6
TORSDOF 2
ENDMDL
MODEL       20
REMARK 921   NORMALIZED FREE ENERGY PREDICTED BY IDOCK:   -5.95 KCAL/MOL
REMARK 922        TOTAL FREE ENERGY PREDICTED BY IDOCK:   -6.96 KCAL/MOL
REMARK 923 INTER-LIGAND FREE ENERGY PREDICTED BY IDOCK:   -6.68 KCAL/MOL
REMARK 924 INTRA-LIGAND FREE ENERGY PREDICTED BY IDOCK:   -0.28 KCAL/MOL
REMARK 927      BINDING AFFINITY PREDICTED BY RF-SCORE:    0.00 PKD
ROOT
HETATM    1  C   UNL     1     -12.363  14.738  64.209  1.00  0.00    -0.320 C  
HETATM    2  N   UNL     1     -11.660  13.470  64.608  1.00  0.00    -0.353 N  
HETATM    3  C   UNL     1     -11.972  13.151  66.069  1.00  0.00    -0.433 C  
HETATM    4  O   UNL     1     -10.311  13.659  64.443  1.00  0.00    -0.428 OA 
HETATM    5  C   UNL     1     -12.125  12.359  63.704  1.00  0.00    -0.556 C  
ENDROOT
BRANCH   3   6
HETATM    6  C   UNL     1     -11.242  11.905  66.580  1.00  0.00    -0.384 C  
BRANCH   6   7
HETATM    7  C   UNL     1     -11.769  11.357  67.887  1.00  0.00    -0.300 C  
HETATM    8  C   UNL     1     -11.042  10.665  68.799  1.00  0.00    -0.316 C  
HETATM    9  C   UNL     1      -9.617  10.371  68.508  1.00  0.00    -0.161 A  
HETATM   10  C   UNL     1      -8.666  11.398  68.434  1.00  0.00    -0.157 A  
HETATM   11  C   UNL     1      -7.337  11.117  68.115  1.00  0.00    -0.087 A  
HETATM   12  C   UNL     1      -6.941   9.802  67.891  1.00  0.00    -0.078 A  
HETATM   13  C   UNL     1      -7.870   8.767  67.993  1.00  0.00    -0.102 A  
HETATM   14  C   UNL     1      -9.210   9.042  68.303  1.00  0.00    -0.139 A  
HETATM   15  C   UNL     1     -10.206   7.922  68.454  1.00  0.00    -0.232 C  
HETATM   16  C   UNL     1     -10.654   7.770  69.908  1.00  0.00    -0.239 C  
HETATM   17  C   UNL     1     -11.532   8.845  70.529  1.00  0.00    -0.231 A  
HETATM   18  C   UNL     1     -12.157   8.488  71.745  1.00  0.00    -0.391 A  
HETATM   19  C   UNL     1     -12.965   9.383  72.444  1.00  0.00    -0.427 A  
HETATM   20  C   UNL     1     -13.156  10.663  71.948  1.00  0.00    -0.563 A  
HETATM   21  C   UNL     1     -12.533  11.045  70.762  1.00  0.00    -0.491 A  
HETATM   22  C   UNL     1     -11.724  10.153  70.026  1.00  0.00    -0.294 A  
ENDBRANCH   6   7
ENDBRANCH   3   6
TORSDOF 2
ENDMDL
MODEL       21
REMARK 921   NORMALIZED FREE ENERGY PREDICTED BY IDOCK:   -5.91 KCAL/MOL
REMARK 922        TOTAL FREE ENERGY PREDICTED BY IDOCK:   -6.92 KCAL/MOL
REMARK 923 INTER-LIGAND FREE ENERGY PREDICTED BY IDOCK:   -6.40 KCAL/MOL
REMARK 924 INTRA-LIGAND FREE ENERGY PREDICTED BY IDOCK:   -0.52 KCAL/MOL
REMARK 927      BINDING AFFINITY PREDICTED BY RF-SCORE:    0.00 PKD
ROOT
HETATM    1  C   UNL     1      -5.907  14.197  68.584  1.00  0.00    -0.086 C  
HETATM    2  N   UNL     1      -6.769  13.122  67.979  1.00  0.00    -0.102 N  
HETATM    3  C   UNL     1      -7.130  12.095  69.050  1.00  0.00    -0.062 C  
HETATM    4  O   UNL     1      -6.060  12.524  66.969  1.00  0.00    -0.259 OA 
HETATM    5  C   UNL     1      -8.008  13.764  67.411  1.00  0.00    -0.162 C  
ENDROOT
BRANCH   3   6
HETATM    6  C   UNL     1      -7.956  10.925  68.504  1.00  0.00    -0.134 C  
BRANCH   6   7
HETATM    7  C   UNL     1      -9.011  10.402  69.453  1.00  0.00    -0.168 C  
HETATM    8  C   UNL     1     -10.345  10.623  69.344  1.00  0.00    -0.234 C  
HETATM    9  C   UNL     1     -10.844  11.474  68.234  1.00  0.00    -0.257 A  
HETATM   10  C   UNL     1     -10.738  11.058  66.899  1.00  0.00    -0.325 A  
HETATM   11  C   UNL     1     -11.168  11.883  65.860  1.00  0.00    -0.373 A  
HETATM   12  C   UNL     1     -11.732  13.123  66.147  1.00  0.00    -0.428 A  
HETATM   13  C   UNL     1     -11.872  13.535  67.471  1.00  0.00    -0.406 A  
HETATM   14  C   UNL     1     -11.434  12.716  68.522  1.00  0.00    -0.349 A  
HETATM   15  C   UNL     1     -11.622  13.140  69.955  1.00  0.00    -0.255 C  
HETATM   16  C   UNL     1     -12.654  12.263  70.663  1.00  0.00    -0.241 C  
HETATM   17  C   UNL     1     -12.308  10.815  70.973  1.00  0.00    -0.509 A  
HETATM   18  C   UNL     1     -13.166  10.172  71.894  1.00  0.00    -0.557 A  
HETATM   19  C   UNL     1     -12.989   8.836  72.249  1.00  0.00    -0.462 A  
HETATM   20  C   UNL     1     -11.955   8.108  71.681  1.00  0.00    -0.340 A  
HETATM   21  C   UNL     1     -11.109   8.715  70.756  1.00  0.00    -0.295 A  
HETATM   22  C   UNL     1     -11.255  10.071  70.391  1.00  0.00    -0.393 A  
ENDBRANCH   6   7
ENDBRANCH   3   6
TORSDOF 2
ENDMDL
MODEL       22
REMARK 921   NORMALIZED FREE ENERGY PREDICTED BY IDOCK:   -5.90 KCAL/MOL
REMARK 922        TOTAL FREE ENERGY PREDICTED BY IDOCK:   -6.90 KCAL/MOL
REMARK 923 INTER-LIGAND FREE ENERGY PREDICTED BY IDOCK:   -6.58 KCAL/MOL
REMARK 924 INTRA-LIGAND FREE ENERGY PREDICTED BY IDOCK:   -0.32 KCAL/MOL
REMARK 927      BINDING AFFINITY PREDICTED BY RF-SCORE:    0.00 PKD
ROOT
HETATM    1  C   UNL     1      -8.496  20.271  67.130  1.00  0.00    -0.339 C  
HETATM    2  N   UNL     1      -9.322  19.029  66.940  1.00  0.00    -0.303 N  
HETATM    3  C   UNL     1      -9.792  18.515  68.299  1.00  0.00    -0.363 C  
HETATM    4  O   UNL     1      -8.540  18.086  66.322  1.00  0.00    -0.391 OA 
HETATM    5  C   UNL     1     -10.496  19.364  66.057  1.00  0.00    -0.505 C  
ENDROOT
BRANCH   3   6
HETATM    6  C   UNL     1     -10.590  17.210  68.204  1.00  0.00    -0.380 C  
BRANCH   6   7
HETATM    7  C   UNL     1      -9.792  15.961  68.499  1.00  0.00    -0.210 C  
HETATM    8  C   UNL     1      -9.799  14.829  67.751  1.00  0.00    -0.214 C  
HETATM    9  C   UNL     1     -10.678  14.764  66.556  1.00  0.00    -0.319 A  
HETATM   10  C   UNL     1     -10.443  15.579  65.439  1.00  0.00    -0.429 A  
HETATM   11  C   UNL     1     -11.301  15.542  64.340  1.00  0.00    -0.260 A  
HETATM   12  C   UNL     1     -12.388  14.673  64.335  1.00  0.00    -0.420 A  
HETATM   13  C   UNL     1     -12.614  13.834  65.426  1.00  0.00    -0.534 A  
HETATM   14  C   UNL     1     -11.762  13.871  66.540  1.00  0.00    -0.414 A  
HETATM   15  C   UNL     1     -11.980  12.937  67.701  1.00  0.00    -0.344 C  
HETATM   16  C   UNL     1     -10.866  11.893  67.791  1.00  0.00    -0.254 C  
HETATM   17  C   UNL     1      -9.470  12.333  68.204  1.00  0.00    -0.213 A  
HETATM   18  C   UNL     1      -8.590  11.289  68.568  1.00  0.00    -0.156 A  
HETATM   19  C   UNL     1      -7.271  11.540  68.938  1.00  0.00    -0.117 A  
HETATM   20  C   UNL     1      -6.796  12.842  68.940  1.00  0.00    -0.095 A  
HETATM   21  C   UNL     1      -7.639  13.886  68.564  1.00  0.00    -0.134 A  
HETATM   22  C   UNL     1      -8.984  13.661  68.202  1.00  0.00    -0.191 A  
ENDBRANCH   6   7
ENDBRANCH   3   6
TORSDOF 2
ENDMDL
MODEL       23
REMARK 921   NORMALIZED FREE ENERGY PREDICTED BY IDOCK:   -5.88 KCAL/MOL
REMARK 922        TOTAL FREE ENERGY PREDICTED BY IDOCK:   -6.88 KCAL/MOL
REMARK 923 INTER-LIGAND FREE ENERGY PREDICTED BY IDOCK:   -6.57 KCAL/MOL
REMARK 924 INTRA-LIGAND FREE ENERGY PREDICTED BY IDOCK:   -0.31 KCAL/MOL
REMARK 927      BINDING AFFINITY PREDICTED BY RF-SCORE:    0.00 PKD
ROOT
HETATM    1  C   UNL     1     -10.668   6.542  71.383  1.00  0.00    -0.238 C  
HETATM    2  N   UNL     1     -10.147   7.906  71.021  1.00  0.00    -0.192 N  
HETATM    3  C   UNL     1     -11.254   8.713  70.347  1.00  0.00    -0.218 C  
HETATM    4  O   UNL     1      -9.089   7.745  70.163  1.00  0.00    -0.152 OA 
HETATM    5  C   UNL     1      -9.675   8.589  72.278  1.00  0.00    -0.310 C  
ENDROOT
BRANCH   3   6
HETATM    6  C   UNL     1     -10.791  10.098  69.884  1.00  0.00    -0.347 C  
BRANCH   6   7
HETATM    7  C   UNL     1     -11.507  11.255  70.543  1.00  0.00    -0.082 C  
HETATM    8  C   UNL     1     -11.792  12.443  69.952  1.00  0.00    -0.376 C  
HETATM    9  C   UNL     1     -11.347  12.674  68.555  1.00  0.00    -0.333 A  
HETATM   10  C   UNL     1     -11.891  11.940  67.491  1.00  0.00    -0.249 A  
HETATM   11  C   UNL     1     -11.434  12.133  66.187  1.00  0.00    -0.429 A  
HETATM   12  C   UNL     1     -10.446  13.079  65.930  1.00  0.00    -0.293 A  
HETATM   13  C   UNL     1      -9.920  13.838  66.974  1.00  0.00    -0.251 A  
HETATM   14  C   UNL     1     -10.367  13.645  68.290  1.00  0.00    -0.251 A  
HETATM   15  C   UNL     1      -9.830  14.492  69.414  1.00  0.00     0.061 C  
HETATM   16  C   UNL     1     -10.902  15.437  69.958  1.00  0.00    -0.320 C  
HETATM   17  C   UNL     1     -12.070  14.860  70.741  1.00  0.00    -0.377 A  
HETATM   18  C   UNL     1     -12.832  15.800  71.471  1.00  0.00    -0.512 A  
HETATM   19  C   UNL     1     -13.950  15.420  72.210  1.00  0.00    -0.661 A  
HETATM   20  C   UNL     1     -14.340  14.090  72.226  1.00  0.00    -0.520 A  
HETATM   21  C   UNL     1     -13.616  13.148  71.498  1.00  0.00    -0.096 A  
HETATM   22  C   UNL     1     -12.470  13.504  70.755  1.00  0.00    -0.428 A  
ENDBRANCH   6   7
ENDBRANCH   3   6
TORSDOF 2
ENDMDL
MODEL       24
REMARK 921   NORMALIZED FREE ENERGY PREDICTED BY IDOCK:   -5.85 KCAL/MOL
REMARK 922        TOTAL FREE ENERGY PREDICTED BY IDOCK:   -6.84 KCAL/MOL
REMARK 923 INTER-LIGAND FREE ENERGY PREDICTED BY IDOCK:   -6.57 KCAL/MOL
REMARK 924 INTRA-LIGAND FREE ENERGY PREDICTED BY IDOCK:   -0.27 KCAL/MOL
REMARK 927      BINDING AFFINITY PREDICTED BY RF-SCORE:    0.00 PKD
ROOT
HETATM    1  C   UNL     1     -12.216  14.326  64.482  1.00  0.00    -0.455 C  
HETATM    2  N   UNL     1     -11.600  12.958  64.588  1.00  0.00    -0.330 N  
HETATM    3  C   UNL     1     -11.545  12.537  66.055  1.00  0.00    -0.406 C  
HETATM    4  O   UNL     1     -10.333  13.017  64.065  1.00  0.00    -0.419 OA 
HETATM    5  C   UNL     1     -12.431  11.994  63.783  1.00  0.00    -0.485 C  
ENDROOT
BRANCH   3   6
HETATM    6  C   UNL     1     -10.871  11.176  66.264  1.00  0.00    -0.266 C  
BRANCH   6   7
HETATM    7  C   UNL     1     -11.110  10.556  67.621  1.00  0.00    -0.375 C  
HETATM    8  C   UNL     1     -10.457   9.474  68.117  1.00  0.00    -0.268 C  
HETATM    9  C   UNL     1      -9.443   8.797  67.270  1.00  0.00    -0.200 A  
HETATM   10  C   UNL     1      -8.247   9.440  66.920  1.00  0.00    -0.116 A  
HETATM   11  C   UNL     1      -7.320   8.813  66.088  1.00  0.00    -0.086 A  
HETATM   12  C   UNL     1      -7.568   7.527  65.616  1.00  0.00    -0.091 A  
HETATM   13  C   UNL     1      -8.739   6.865  65.983  1.00  0.00    -0.151 A  
HETATM   14  C   UNL     1      -9.681   7.491  66.812  1.00  0.00    -0.283 A  
HETATM   15  C   UNL     1     -10.927   6.762  67.243  1.00  0.00    -0.433 C  
HETATM   16  C   UNL     1     -10.895   6.444  68.739  1.00  0.00    -0.378 C  
HETATM   17  C   UNL     1     -11.024   7.581  69.740  1.00  0.00    -0.195 A  
HETATM   18  C   UNL     1     -11.303   7.187  71.069  1.00  0.00    -0.310 A  
HETATM   19  C   UNL     1     -11.417   8.117  72.099  1.00  0.00    -0.412 A  
HETATM   20  C   UNL     1     -11.242   9.465  71.827  1.00  0.00    -0.359 A  
HETATM   21  C   UNL     1     -10.946   9.875  70.529  1.00  0.00    -0.391 A  
HETATM   22  C   UNL     1     -10.842   8.955  69.464  1.00  0.00    -0.163 A  
ENDBRANCH   6   7
ENDBRANCH   3   6
TORSDOF 2
ENDMDL
MODEL       25
REMARK 921   NORMALIZED FREE ENERGY PREDICTED BY IDOCK:   -5.81 KCAL/MOL
REMARK 922        TOTAL FREE ENERGY PREDICTED BY IDOCK:   -6.80 KCAL/MOL
REMARK 923 INTER-LIGAND FREE ENERGY PREDICTED BY IDOCK:   -6.52 KCAL/MOL
REMARK 924 INTRA-LIGAND FREE ENERGY PREDICTED BY IDOCK:   -0.28 KCAL/MOL
REMARK 927      BINDING AFFINITY PREDICTED BY RF-SCORE:    0.00 PKD
ROOT
HETATM    1  C   UNL     1     -10.582   5.063  65.808  1.00  0.00    -0.109 C  
HETATM    2  N   UNL     1      -9.842   5.804  66.888  1.00  0.00    -0.145 N  
HETATM    3  C   UNL     1     -10.562   7.116  67.191  1.00  0.00    -0.347 C  
HETATM    4  O   UNL     1      -8.570   6.055  66.439  1.00  0.00    -0.121 OA 
HETATM    5  C   UNL     1      -9.778   4.929  68.112  1.00  0.00    -0.148 C  
ENDROOT
BRANCH   3   6
HETATM    6  C   UNL     1      -9.839   7.969  68.239  1.00  0.00    -0.190 C  
BRANCH   6   7
HETATM    7  C   UNL     1     -10.495   9.299  68.531  1.00  0.00    -0.240 C  
HETATM    8  C   UNL     1     -10.639   9.851  69.762  1.00  0.00    -0.296 C  
HETATM    9  C   UNL     1     -10.157   9.098  70.947  1.00  0.00    -0.356 A  
HETATM   10  C   UNL     1      -8.790   8.857  71.145  1.00  0.00    -0.297 A  
HETATM   11  C   UNL     1      -8.349   8.110  72.237  1.00  0.00    -0.214 A  
HETATM   12  C   UNL     1      -9.270   7.618  73.158  1.00  0.00    -0.272 A  
HETATM   13  C   UNL     1     -10.630   7.878  72.991  1.00  0.00    -0.406 A  
HETATM   14  C   UNL     1     -11.082   8.620  71.890  1.00  0.00    -0.416 A  
HETATM   15  C   UNL     1     -12.546   8.938  71.729  1.00  0.00    -0.420 C  
HETATM   16  C   UNL     1     -12.815  10.430  71.928  1.00  0.00    -0.519 C  
HETATM   17  C   UNL     1     -12.325  11.417  70.880  1.00  0.00    -0.483 A  
HETATM   18  C   UNL     1     -12.878  12.714  70.966  1.00  0.00    -0.254 A  
HETATM   19  C   UNL     1     -12.498  13.731  70.092  1.00  0.00    -0.332 A  
HETATM   20  C   UNL     1     -11.547  13.476  69.117  1.00  0.00    -0.359 A  
HETATM   21  C   UNL     1     -10.973  12.210  69.026  1.00  0.00    -0.255 A  
HETATM   22  C   UNL     1     -11.351  11.158  69.888  1.00  0.00    -0.348 A  
ENDBRANCH   6   7
ENDBRANCH   3   6
TORSDOF 2
ENDMDL
MODEL       26
REMARK 921   NORMALIZED FREE ENERGY PREDICTED BY IDOCK:   -5.80 KCAL/MOL
REMARK 922        TOTAL FREE ENERGY PREDICTED BY IDOCK:   -6.79 KCAL/MOL
REMARK 923 INTER-LIGAND FREE ENERGY PREDICTED BY IDOCK:   -6.47 KCAL/MOL
REMARK 924 INTRA-LIGAND FREE ENERGY PREDICTED BY IDOCK:   -0.32 KCAL/MOL
REMARK 927      BINDING AFFINITY PREDICTED BY RF-SCORE:    0.00 PKD
ROOT
HETATM    1  C   UNL     1      -7.971   7.602  68.195  1.00  0.00    -0.123 C  
HETATM    2  N   UNL     1      -9.283   8.258  67.863  1.00  0.00    -0.132 N  
HETATM    3  C   UNL     1      -9.064   9.753  67.642  1.00  0.00    -0.131 C  
HETATM    4  O   UNL     1     -10.141   8.055  68.913  1.00  0.00    -0.190 OA 
HETATM    5  C   UNL     1      -9.844   7.609  66.624  1.00  0.00    -0.213 C  
ENDROOT
BRANCH   3   6
HETATM    6  C   UNL     1     -10.364  10.515  67.360  1.00  0.00    -0.269 C  
BRANCH   6   7
HETATM    7  C   UNL     1     -10.741  11.530  68.414  1.00  0.00    -0.241 C  
HETATM    8  C   UNL     1     -11.162  12.797  68.170  1.00  0.00    -0.310 C  
HETATM    9  C   UNL     1     -11.237  13.270  66.765  1.00  0.00    -0.331 A  
HETATM   10  C   UNL     1     -12.160  12.720  65.864  1.00  0.00    -0.485 A  
HETATM   11  C   UNL     1     -12.194  13.140  64.535  1.00  0.00    -0.466 A  
HETATM   12  C   UNL     1     -11.320  14.132  64.098  1.00  0.00    -0.122 A  
HETATM   13  C   UNL     1     -10.419  14.710  64.991  1.00  0.00    -0.447 A  
HETATM   14  C   UNL     1     -10.372  14.287  66.328  1.00  0.00    -0.297 A  
HETATM   15  C   UNL     1      -9.429  14.938  67.305  1.00  0.00    -0.216 C  
HETATM   16  C   UNL     1     -10.188  15.760  68.347  1.00  0.00    -0.223 C  
HETATM   17  C   UNL     1     -11.023  15.039  69.393  1.00  0.00    -0.275 A  
HETATM   18  C   UNL     1     -11.428  15.829  70.493  1.00  0.00    -0.401 A  
HETATM   19  C   UNL     1     -12.223  15.311  71.513  1.00  0.00    -0.416 A  
HETATM   20  C   UNL     1     -12.644  13.992  71.450  1.00  0.00    -0.451 A  
HETATM   21  C   UNL     1     -12.275  13.200  70.365  1.00  0.00    -0.389 A  
HETATM   22  C   UNL     1     -11.456  13.695  69.327  1.00  0.00    -0.344 A  
ENDBRANCH   6   7
ENDBRANCH   3   6
TORSDOF 2
ENDMDL
MODEL       27
REMARK 921   NORMALIZED FREE ENERGY PREDICTED BY IDOCK:   -5.79 KCAL/MOL
REMARK 922        TOTAL FREE ENERGY PREDICTED BY IDOCK:   -6.78 KCAL/MOL
REMARK 923 INTER-LIGAND FREE ENERGY PREDICTED BY IDOCK:   -6.43 KCAL/MOL
REMARK 924 INTRA-LIGAND FREE ENERGY PREDICTED BY IDOCK:   -0.35 KCAL/MOL
REMARK 927      BINDING AFFINITY PREDICTED BY RF-SCORE:    0.00 PKD
ROOT
HETATM    1  C   UNL     1     -11.886   8.969  72.052  1.00  0.00    -0.356 C  
HETATM    2  N   UNL     1     -10.852   9.008  70.959  1.00  0.00    -0.252 N  
HETATM    3  C   UNL     1     -10.948  10.337  70.214  1.00  0.00    -0.309 C  
HETATM    4  O   UNL     1     -11.097   7.965  70.102  1.00  0.00    -0.255 OA 
HETATM    5  C   UNL     1      -9.491   8.837  71.580  1.00  0.00    -0.288 C  
ENDROOT
BRANCH   3   6
HETATM    6  C   UNL     1      -9.971  10.437  69.038  1.00  0.00    -0.224 C  
BRANCH   6   7
HETATM    7  C   UNL     1     -10.585  10.935  67.749  1.00  0.00    -0.255 C  
HETATM    8  C   UNL     1     -10.353  12.148  67.185  1.00  0.00    -0.233 C  
HETATM    9  C   UNL     1      -9.456  13.104  67.882  1.00  0.00    -0.218 A  
HETATM   10  C   UNL     1      -8.087  12.837  68.028  1.00  0.00    -0.162 A  
HETATM   11  C   UNL     1      -7.260  13.720  68.723  1.00  0.00    -0.106 A  
HETATM   12  C   UNL     1      -7.790  14.891  69.259  1.00  0.00    -0.158 A  
HETATM   13  C   UNL     1      -9.143  15.183  69.093  1.00  0.00    -0.215 A  
HETATM   14  C   UNL     1      -9.983  14.297  68.404  1.00  0.00    -0.240 A  
HETATM   15  C   UNL     1     -11.436  14.630  68.188  1.00  0.00    -0.346 C  
HETATM   16  C   UNL     1     -11.728  14.913  66.713  1.00  0.00    -0.243 C  
HETATM   17  C   UNL     1     -11.680  13.767  65.716  1.00  0.00    -0.365 A  
HETATM   18  C   UNL     1     -12.262  14.037  64.457  1.00  0.00    -0.463 A  
HETATM   19  C   UNL     1     -12.263  13.091  63.433  1.00  0.00    -0.552 A  
HETATM   20  C   UNL     1     -11.671  11.856  63.642  1.00  0.00    -0.572 A  
HETATM   21  C   UNL     1     -11.073  11.574  64.868  1.00  0.00    -0.282 A  
HETATM   22  C   UNL     1     -11.073  12.508  65.927  1.00  0.00    -0.334 A  
ENDBRANCH   6   7
ENDBRANCH   3   6
TORSDOF 2
ENDMDL
MODEL       28
REMARK 921   NORMALIZED FREE ENERGY PREDICTED BY IDOCK:   -5.79 KCAL/MOL
REMARK 922        TOTAL FREE ENERGY PREDICTED BY IDOCK:   -6.78 KCAL/MOL
REMARK 923 INTER-LIGAND FREE ENERGY PREDICTED BY IDOCK:   -6.41 KCAL/MOL
REMARK 924 INTRA-LIGAND FREE ENERGY PREDICTED BY IDOCK:   -0.37 KCAL/MOL
REMARK 927      BINDING AFFINITY PREDICTED BY RF-SCORE:    0.00 PKD
ROOT
HETATM    1  C   UNL     1     -12.067  13.088  63.093  1.00  0.00    -0.246 C  
HETATM    2  N   UNL     1     -11.887  13.699  64.455  1.00  0.00    -0.394 N  
HETATM    3  C   UNL     1     -12.238  12.670  65.526  1.00  0.00    -0.440 C  
HETATM    4  O   UNL     1     -12.722  14.784  64.550  1.00  0.00    -0.569 OA 
HETATM    5  C   UNL     1     -10.457  14.153  64.593  1.00  0.00    -0.339 C  
ENDROOT
BRANCH   3   6
HETATM    6  C   UNL     1     -12.145  13.229  66.950  1.00  0.00    -0.389 C  
BRANCH   6   7
HETATM    7  C   UNL     1     -12.023  12.181  68.032  1.00  0.00    -0.233 C  
HETATM    8  C   UNL     1     -10.901  11.918  68.749  1.00  0.00    -0.270 C  
HETATM    9  C   UNL     1      -9.662  12.679  68.447  1.00  0.00    -0.187 A  
HETATM   10  C   UNL     1      -9.578  14.055  68.699  1.00  0.00    -0.159 A  
HETATM   11  C   UNL     1      -8.426  14.770  68.370  1.00  0.00    -0.157 A  
HETATM   12  C   UNL     1      -7.336  14.110  67.809  1.00  0.00    -0.177 A  
HETATM   13  C   UNL     1      -7.395  12.735  67.584  1.00  0.00    -0.144 A  
HETATM   14  C   UNL     1      -8.552  12.011  67.902  1.00  0.00    -0.165 A  
HETATM   15  C   UNL     1      -8.604  10.519  67.698  1.00  0.00    -0.118 C  
HETATM   16  C   UNL     1      -8.644   9.777  69.034  1.00  0.00    -0.146 C  
HETATM   17  C   UNL     1      -9.898   9.860  69.890  1.00  0.00    -0.285 A  
HETATM   18  C   UNL     1      -9.982   8.911  70.933  1.00  0.00    -0.304 A  
HETATM   19  C   UNL     1     -11.059   8.888  71.817  1.00  0.00    -0.433 A  
HETATM   20  C   UNL     1     -12.073   9.824  71.684  1.00  0.00    -0.475 A  
HETATM   21  C   UNL     1     -12.002  10.782  70.676  1.00  0.00    -0.466 A  
HETATM   22  C   UNL     1     -10.931  10.817  69.757  1.00  0.00    -0.314 A  
ENDBRANCH   6   7
ENDBRANCH   3   6
TORSDOF 2
ENDMDL
MODEL       29
REMARK 921   NORMALIZED FREE ENERGY PREDICTED BY IDOCK:   -5.67 KCAL/MOL
REMARK 922        TOTAL FREE ENERGY PREDICTED BY IDOCK:   -6.64 KCAL/MOL
REMARK 923 INTER-LIGAND FREE ENERGY PREDICTED BY IDOCK:   -6.14 KCAL/MOL
REMARK 924 INTRA-LIGAND FREE ENERGY PREDICTED BY IDOCK:   -0.50 KCAL/MOL
REMARK 927      BINDING AFFINITY PREDICTED BY RF-SCORE:    0.00 PKD
ROOT
HETATM    1  C   UNL     1      -5.667  11.781  67.677  1.00  0.00    -0.067 C  
HETATM    2  N   UNL     1      -6.669  12.444  68.581  1.00  0.00    -0.077 N  
HETATM    3  C   UNL     1      -6.571  13.960  68.425  1.00  0.00    -0.103 C  
HETATM    4  O   UNL     1      -6.384  12.082  69.873  1.00  0.00    -0.141 OA 
HETATM    5  C   UNL     1      -8.045  11.954  68.214  1.00  0.00    -0.154 C  
ENDROOT
BRANCH   3   6
HETATM    6  C   UNL     1      -7.516  14.722  69.361  1.00  0.00    -0.147 C  
BRANCH   6   7
HETATM    7  C   UNL     1      -8.059  16.013  68.793  1.00  0.00    -0.212 C  
HETATM    8  C   UNL     1      -9.265  16.160  68.189  1.00  0.00    -0.193 C  
HETATM    9  C   UNL     1     -10.135  14.968  68.022  1.00  0.00    -0.223 A  
HETATM   10  C   UNL     1     -10.697  14.321  69.132  1.00  0.00    -0.239 A  
HETATM   11  C   UNL     1     -11.475  13.175  68.969  1.00  0.00    -0.345 A  
HETATM   12  C   UNL     1     -11.721  12.679  67.692  1.00  0.00    -0.420 A  
HETATM   13  C   UNL     1     -11.195  13.332  66.577  1.00  0.00    -0.329 A  
HETATM   14  C   UNL     1     -10.403  14.479  66.733  1.00  0.00    -0.269 A  
HETATM   15  C   UNL     1      -9.867  15.209  65.529  1.00  0.00    -0.356 C  
HETATM   16  C   UNL     1     -10.536  16.575  65.365  1.00  0.00    -0.293 C  
HETATM   17  C   UNL     1     -10.227  17.676  66.367  1.00  0.00    -0.364 A  
HETATM   18  C   UNL     1     -10.622  18.975  65.977  1.00  0.00    -0.499 A  
HETATM   19  C   UNL     1     -10.431  20.078  66.807  1.00  0.00    -0.520 A  
HETATM   20  C   UNL     1      -9.851  19.904  68.054  1.00  0.00    -0.534 A  
HETATM   21  C   UNL     1      -9.473  18.629  68.468  1.00  0.00    -0.386 A  
HETATM   22  C   UNL     1      -9.639  17.498  67.640  1.00  0.00    -0.266 A  
ENDBRANCH   6   7
ENDBRANCH   3   6
TORSDOF 2
ENDMDL
MODEL       30
REMARK 921   NORMALIZED FREE ENERGY PREDICTED BY IDOCK:   -5.62 KCAL/MOL
REMARK 922        TOTAL FREE ENERGY PREDICTED BY IDOCK:   -6.59 KCAL/MOL
REMARK 923 INTER-LIGAND FREE ENERGY PREDICTED BY IDOCK:   -6.16 KCAL/MOL
REMARK 924 INTRA-LIGAND FREE ENERGY PREDICTED BY IDOCK:   -0.43 KCAL/MOL
REMARK 927      BINDING AFFINITY PREDICTED BY RF-SCORE:    0.00 PKD
ROOT
HETATM    1  C   UNL     1      -9.094  18.497  67.477  1.00  0.00    -0.279 C  
HETATM    2  N   UNL     1      -8.870  17.185  66.776  1.00  0.00    -0.235 N  
HETATM    3  C   UNL     1      -8.220  16.195  67.741  1.00  0.00    -0.152 C  
HETATM    4  O   UNL     1      -8.046  17.409  65.703  1.00  0.00    -0.485 OA 
HETATM    5  C   UNL     1     -10.198  16.668  66.290  1.00  0.00    -0.334 C  
ENDROOT
BRANCH   3   6
HETATM    6  C   UNL     1      -7.896  14.847  67.090  1.00  0.00    -0.203 C  
BRANCH   6   7
HETATM    7  C   UNL     1      -8.213  13.641  67.945  1.00  0.00    -0.171 C  
HETATM    8  C   UNL     1      -9.280  12.819  67.779  1.00  0.00    -0.199 C  
HETATM    9  C   UNL     1     -10.256  13.118  66.702  1.00  0.00    -0.259 A  
HETATM   10  C   UNL     1      -9.894  13.026  65.350  1.00  0.00    -0.127 A  
HETATM   11  C   UNL     1     -10.805  13.352  64.346  1.00  0.00    -0.422 A  
HETATM   12  C   UNL     1     -12.096  13.750  64.682  1.00  0.00    -0.452 A  
HETATM   13  C   UNL     1     -12.479  13.813  66.021  1.00  0.00    -0.491 A  
HETATM   14  C   UNL     1     -11.566  13.496  67.038  1.00  0.00    -0.394 A  
HETATM   15  C   UNL     1     -11.989  13.525  68.483  1.00  0.00    -0.379 C  
HETATM   16  C   UNL     1     -12.033  12.116  69.077  1.00  0.00    -0.302 C  
HETATM   17  C   UNL     1     -10.729  11.370  69.310  1.00  0.00    -0.195 A  
HETATM   18  C   UNL     1     -10.825  10.230  70.140  1.00  0.00    -0.362 A  
HETATM   19  C   UNL     1      -9.717   9.432  70.416  1.00  0.00    -0.315 A  
HETATM   20  C   UNL     1      -8.488   9.748  69.858  1.00  0.00    -0.217 A  
HETATM   21  C   UNL     1      -8.374  10.855  69.021  1.00  0.00    -0.118 A  
HETATM   22  C   UNL     1      -9.476  11.691  68.738  1.00  0.00    -0.068 A  
ENDBRANCH   6   7
ENDBRANCH   3   6
TORSDOF 2
ENDMDL
MODEL       31
REMARK 921   NORMALIZED FREE ENERGY PREDICTED BY IDOCK:   -5.50 KCAL/MOL
REMARK 922        TOTAL FREE ENERGY PREDICTED BY IDOCK:   -6.45 KCAL/MOL
REMARK 923 INTER-LIGAND FREE ENERGY PREDICTED BY IDOCK:   -5.97 KCAL/MOL
REMARK 924 INTRA-LIGAND FREE ENERGY PREDICTED BY IDOCK:   -0.48 KCAL/MOL
REMARK 927      BINDING AFFINITY PREDICTED BY RF-SCORE:    0.00 PKD
ROOT
HETATM    1  C   UNL     1      -5.822   9.359  70.186  1.00  0.00    -0.033 C  
HETATM    2  N   UNL     1      -7.319   9.247  70.097  1.00  0.00    -0.082 N  
HETATM    3  C   UNL     1      -7.871  10.422  69.293  1.00  0.00    -0.147 C  
HETATM    4  O   UNL     1      -7.826   9.265  71.371  1.00  0.00    -0.335 OA 
HETATM    5  C   UNL     1      -7.663   7.937  69.438  1.00  0.00    -0.105 C  
ENDROOT
BRANCH   3   6
HETATM    6  C   UNL     1      -9.401  10.423  69.206  1.00  0.00    -0.202 C  
BRANCH   6   7
HETATM    7  C   UNL     1      -9.963  11.154  68.008  1.00  0.00    -0.190 C  
HETATM    8  C   UNL     1     -10.237  10.594  66.802  1.00  0.00    -0.284 C  
HETATM    9  C   UNL     1      -9.938   9.154  66.596  1.00  0.00    -0.343 A  
HETATM   10  C   UNL     1     -10.644   8.161  67.290  1.00  0.00    -0.344 A  
HETATM   11  C   UNL     1     -10.326   6.814  67.123  1.00  0.00    -0.327 A  
HETATM   12  C   UNL     1      -9.315   6.443  66.240  1.00  0.00    -0.149 A  
HETATM   13  C   UNL     1      -8.627   7.418  65.520  1.00  0.00    -0.093 A  
HETATM   14  C   UNL     1      -8.934   8.777  65.689  1.00  0.00    -0.248 A  
HETATM   15  C   UNL     1      -8.221   9.830  64.881  1.00  0.00    -0.142 C  
HETATM   16  C   UNL     1      -9.162  10.487  63.871  1.00  0.00    -0.287 C  
HETATM   17  C   UNL     1     -10.269  11.400  64.375  1.00  0.00    -0.361 A  
HETATM   18  C   UNL     1     -10.882  12.206  63.390  1.00  0.00    -0.474 A  
HETATM   19  C   UNL     1     -11.932  13.068  63.701  1.00  0.00    -0.608 A  
HETATM   20  C   UNL     1     -12.402  13.134  65.003  1.00  0.00    -0.511 A  
HETATM   21  C   UNL     1     -11.826  12.333  65.987  1.00  0.00    -0.409 A  
HETATM   22  C   UNL     1     -10.751  11.464  65.703  1.00  0.00    -0.301 A  
ENDBRANCH   6   7
ENDBRANCH   3   6
TORSDOF 2
ENDMDL
MODEL       32
REMARK 921   NORMALIZED FREE ENERGY PREDICTED BY IDOCK:   -5.48 KCAL/MOL
REMARK 922        TOTAL FREE ENERGY PREDICTED BY IDOCK:   -6.44 KCAL/MOL
REMARK 923 INTER-LIGAND FREE ENERGY PREDICTED BY IDOCK:   -6.13 KCAL/MOL
REMARK 924 INTRA-LIGAND FREE ENERGY PREDICTED BY IDOCK:   -0.31 KCAL/MOL
REMARK 927      BINDING AFFINITY PREDICTED BY RF-SCORE:    0.00 PKD
ROOT
HETATM    1  C   UNL     1     -10.199  18.007  69.042  1.00  0.00    -0.253 C  
HETATM    2  N   UNL     1     -10.323  16.516  69.200  1.00  0.00    -0.296 N  
HETATM    3  C   UNL     1     -11.094  15.940  68.014  1.00  0.00    -0.334 C  
HETATM    4  O   UNL     1     -10.995  16.265  70.369  1.00  0.00    -0.337 OA 
HETATM    5  C   UNL     1      -8.940  15.925  69.280  1.00  0.00    -0.251 C  
ENDROOT
BRANCH   3   6
HETATM    6  C   UNL     1     -11.325  14.429  68.125  1.00  0.00    -0.317 C  
BRANCH   6   7
HETATM    7  C   UNL     1     -10.906  13.637  66.908  1.00  0.00    -0.286 C  
HETATM    8  C   UNL     1     -10.661  12.302  66.885  1.00  0.00    -0.264 C  
HETATM    9  C   UNL     1     -10.768  11.531  68.149  1.00  0.00    -0.242 A  
HETATM   10  C   UNL     1     -12.003  11.359  68.789  1.00  0.00    -0.353 A  
HETATM   11  C   UNL     1     -12.087  10.670  70.000  1.00  0.00    -0.393 A  
HETATM   12  C   UNL     1     -10.940  10.126  70.570  1.00  0.00    -0.380 A  
HETATM   13  C   UNL     1      -9.710  10.262  69.926  1.00  0.00    -0.119 A  
HETATM   14  C   UNL     1      -9.615  10.961  68.714  1.00  0.00    -0.195 A  
HETATM   15  C   UNL     1      -8.296  11.075  67.996  1.00  0.00    -0.125 C  
HETATM   16  C   UNL     1      -8.298  10.267  66.698  1.00  0.00    -0.125 C  
HETATM   17  C   UNL     1      -9.151  10.742  65.532  1.00  0.00    -0.220 A  
HETATM   18  C   UNL     1      -8.862  10.141  64.287  1.00  0.00    -0.244 A  
HETATM   19  C   UNL     1      -9.584  10.455  63.137  1.00  0.00    -0.346 A  
HETATM   20  C   UNL     1     -10.622  11.371  63.209  1.00  0.00    -0.374 A  
HETATM   21  C   UNL     1     -10.939  11.961  64.430  1.00  0.00    -0.392 A  
HETATM   22  C   UNL     1     -10.213  11.674  65.606  1.00  0.00    -0.284 A  
ENDBRANCH   6   7
ENDBRANCH   3   6
TORSDOF 2
ENDMDL
MODEL       33
REMARK 921   NORMALIZED FREE ENERGY PREDICTED BY IDOCK:   -5.30 KCAL/MOL
REMARK 922        TOTAL FREE ENERGY PREDICTED BY IDOCK:   -6.24 KCAL/MOL
REMARK 923 INTER-LIGAND FREE ENERGY PREDICTED BY IDOCK:   -5.94 KCAL/MOL
REMARK 924 INTRA-LIGAND FREE ENERGY PREDICTED BY IDOCK:   -0.29 KCAL/MOL
REMARK 927      BINDING AFFINITY PREDICTED BY RF-SCORE:    0.00 PKD
ROOT
HETATM    1  C   UNL     1     -10.940   3.343  73.664  1.00  0.00    -0.237 C  
HETATM    2  N   UNL     1     -10.089   4.554  73.396  1.00  0.00    -0.152 N  
HETATM    3  C   UNL     1     -10.538   5.215  72.095  1.00  0.00    -0.211 C  
HETATM    4  O   UNL     1      -8.784   4.145  73.294  1.00  0.00    -0.095 OA 
HETATM    5  C   UNL     1     -10.227   5.504  74.557  1.00  0.00    -0.269 C  
ENDROOT
BRANCH   3   6
HETATM    6  C   UNL     1      -9.680   6.425  71.710  1.00  0.00    -0.172 C  
BRANCH   6   7
HETATM    7  C   UNL     1     -10.414   7.746  71.721  1.00  0.00    -0.259 C  
HETATM    8  C   UNL     1     -10.845   8.415  70.622  1.00  0.00    -0.256 C  
HETATM    9  C   UNL     1     -10.559   7.850  69.279  1.00  0.00    -0.195 A  
HETATM   10  C   UNL     1     -11.148   6.648  68.859  1.00  0.00    -0.312 A  
HETATM   11  C   UNL     1     -10.839   6.101  67.614  1.00  0.00    -0.421 A  
HETATM   12  C   UNL     1      -9.956   6.763  66.765  1.00  0.00    -0.242 A  
HETATM   13  C   UNL     1      -9.389   7.975  67.157  1.00  0.00    -0.186 A  
HETATM   14  C   UNL     1      -9.687   8.527  68.411  1.00  0.00    -0.169 A  
HETATM   15  C   UNL     1      -9.107   9.856  68.821  1.00  0.00    -0.147 C  
HETATM   16  C   UNL     1     -10.189  10.935  68.895  1.00  0.00    -0.213 C  
HETATM   17  C   UNL     1     -11.226  10.868  70.004  1.00  0.00    -0.340 A  
HETATM   18  C   UNL     1     -11.982  12.046  70.197  1.00  0.00    -0.401 A  
HETATM   19  C   UNL     1     -12.989  12.121  71.156  1.00  0.00    -0.240 A  
HETATM   20  C   UNL     1     -13.274  11.013  71.938  1.00  0.00    -0.503 A  
HETATM   21  C   UNL     1     -12.556   9.833  71.752  1.00  0.00    -0.506 A  
HETATM   22  C   UNL     1     -11.519   9.736  70.799  1.00  0.00    -0.417 A  
ENDBRANCH   6   7
ENDBRANCH   3   6
TORSDOF 2
ENDMDL
MODEL       34
REMARK 921   NORMALIZED FREE ENERGY PREDICTED BY IDOCK:   -5.22 KCAL/MOL
REMARK 922        TOTAL FREE ENERGY PREDICTED BY IDOCK:   -6.14 KCAL/MOL
REMARK 923 INTER-LIGAND FREE ENERGY PREDICTED BY IDOCK:   -5.87 KCAL/MOL
REMARK 924 INTRA-LIGAND FREE ENERGY PREDICTED BY IDOCK:   -0.27 KCAL/MOL
REMARK 927      BINDING AFFINITY PREDICTED BY RF-SCORE:    0.00 PKD
ROOT
HETATM    1  C   UNL     1     -12.229   8.751  72.201  1.00  0.00    -0.378 C  
HETATM    2  N   UNL     1     -11.209   8.964  71.116  1.00  0.00    -0.264 N  
HETATM    3  C   UNL     1     -11.426  10.332  70.473  1.00  0.00    -0.343 C  
HETATM    4  O   UNL     1     -11.365   7.972  70.182  1.00  0.00    -0.204 OA 
HETATM    5  C   UNL     1      -9.834   8.868  71.724  1.00  0.00    -0.315 C  
ENDROOT
BRANCH   3   6
HETATM    6  C   UNL     1     -10.467  10.607  69.309  1.00  0.00    -0.252 C  
BRANCH   6   7
HETATM    7  C   UNL     1     -10.996  11.572  68.272  1.00  0.00    -0.272 C  
HETATM    8  C   UNL     1     -10.251  12.187  67.319  1.00  0.00    -0.216 C  
HETATM    9  C   UNL     1      -8.787  11.944  67.284  1.00  0.00    -0.179 A  
HETATM   10  C   UNL     1      -8.270  10.680  66.965  1.00  0.00    -0.124 A  
HETATM   11  C   UNL     1      -6.894  10.450  66.979  1.00  0.00    -0.085 A  
HETATM   12  C   UNL     1      -6.020  11.487  67.288  1.00  0.00    -0.100 A  
HETATM   13  C   UNL     1      -6.519  12.757  67.576  1.00  0.00    -0.161 A  
HETATM   14  C   UNL     1      -7.901  12.995  67.574  1.00  0.00    -0.178 A  
HETATM   15  C   UNL     1      -8.442  14.375  67.845  1.00  0.00    -0.165 C  
HETATM   16  C   UNL     1      -9.066  14.983  66.588  1.00  0.00    -0.309 C  
HETATM   17  C   UNL     1     -10.368  14.407  66.055  1.00  0.00    -0.319 A  
HETATM   18  C   UNL     1     -11.037  15.207  65.101  1.00  0.00    -0.410 A  
HETATM   19  C   UNL     1     -12.225  14.793  64.503  1.00  0.00    -0.443 A  
HETATM   20  C   UNL     1     -12.766  13.561  64.837  1.00  0.00    -0.342 A  
HETATM   21  C   UNL     1     -12.114  12.746  65.759  1.00  0.00    -0.505 A  
HETATM   22  C   UNL     1     -10.918  13.149  66.392  1.00  0.00    -0.305 A  
ENDBRANCH   6   7
ENDBRANCH   3   6
TORSDOF 2
ENDMDL
MODEL       35
REMARK 921   NORMALIZED FREE ENERGY PREDICTED BY IDOCK:   -5.21 KCAL/MOL
REMARK 922        TOTAL FREE ENERGY PREDICTED BY IDOCK:   -6.13 KCAL/MOL
REMARK 923 INTER-LIGAND FREE ENERGY PREDICTED BY IDOCK:   -6.45 KCAL/MOL
REMARK 924 INTRA-LIGAND FREE ENERGY PREDICTED BY IDOCK:    0.32 KCAL/MOL
REMARK 927      BINDING AFFINITY PREDICTED BY RF-SCORE:    0.00 PKD
ROOT
HETATM    1  C   UNL     1     -11.275  16.029  64.664  1.00  0.00    -0.330 C  
HETATM    2  N   UNL     1     -10.966  14.964  65.680  1.00  0.00    -0.331 N  
HETATM    3  C   UNL     1     -11.343  13.596  65.116  1.00  0.00    -0.309 C  
HETATM    4  O   UNL     1     -11.697  15.227  66.810  1.00  0.00    -0.159 OA 
HETATM    5  C   UNL     1      -9.497  15.024  66.007  1.00  0.00    -0.302 C  
ENDROOT
BRANCH   3   6
HETATM    6  C   UNL     1     -11.121  12.453  66.113  1.00  0.00    -0.340 C  
BRANCH   6   7
HETATM    7  C   UNL     1     -11.770  12.660  67.462  1.00  0.00    -0.429 C  
HETATM    8  C   UNL     1     -11.262  12.245  68.650  1.00  0.00    -0.305 C  
HETATM    9  C   UNL     1      -9.983  11.490  68.660  1.00  0.00    -0.207 A  
HETATM   10  C   UNL     1      -8.779  12.102  68.286  1.00  0.00    -0.178 A  
HETATM   11  C   UNL     1      -7.590  11.374  68.255  1.00  0.00    -0.113 A  
HETATM   12  C   UNL     1      -7.589  10.031  68.622  1.00  0.00    -0.088 A  
HETATM   13  C   UNL     1      -8.774   9.419  69.028  1.00  0.00    -0.136 A  
HETATM   14  C   UNL     1      -9.976  10.141  69.053  1.00  0.00    -0.216 A  
HETATM   15  C   UNL     1     -11.250   9.494  69.529  1.00  0.00    -0.105 C  
HETATM   16  C   UNL     1     -11.708  10.085  70.863  1.00  0.00    -0.462 C  
HETATM   17  C   UNL     1     -12.234  11.511  70.900  1.00  0.00    -0.425 A  
HETATM   18  C   UNL     1     -12.923  11.871  72.080  1.00  0.00    -0.370 A  
HETATM   19  C   UNL     1     -13.433  13.154  72.267  1.00  0.00    -0.665 A  
HETATM   20  C   UNL     1     -13.255  14.112  71.281  1.00  0.00    -0.399 A  
HETATM   21  C   UNL     1     -12.561  13.786  70.118  1.00  0.00    -0.253 A  
HETATM   22  C   UNL     1     -12.049  12.490  69.896  1.00  0.00    -0.322 A  
ENDBRANCH   6   7
ENDBRANCH   3   6
TORSDOF 2
ENDMDL
MODEL       36
REMARK 921   NORMALIZED FREE ENERGY PREDICTED BY IDOCK:   -5.18 KCAL/MOL
REMARK 922        TOTAL FREE ENERGY PREDICTED BY IDOCK:   -6.10 KCAL/MOL
REMARK 923 INTER-LIGAND FREE ENERGY PREDICTED BY IDOCK:   -5.76 KCAL/MOL
REMARK 924 INTRA-LIGAND FREE ENERGY PREDICTED BY IDOCK:   -0.33 KCAL/MOL
REMARK 927      BINDING AFFINITY PREDICTED BY RF-SCORE:    0.00 PKD
ROOT
HETATM    1  C   UNL     1     -10.648   7.790  72.978  1.00  0.00    -0.379 C  
HETATM    2  N   UNL     1     -11.432   8.270  71.787  1.00  0.00    -0.275 N  
HETATM    3  C   UNL     1     -10.604   9.293  71.012  1.00  0.00    -0.316 C  
HETATM    4  O   UNL     1     -12.590   8.846  72.242  1.00  0.00    -0.377 OA 
HETATM    5  C   UNL     1     -11.767   7.083  70.923  1.00  0.00    -0.343 C  
ENDROOT
BRANCH   3   6
HETATM    6  C   UNL     1     -11.353   9.886  69.813  1.00  0.00    -0.241 C  
BRANCH   6   7
HETATM    7  C   UNL     1     -11.300  11.394  69.721  1.00  0.00    -0.332 C  
HETATM    8  C   UNL     1     -10.724  12.100  68.715  1.00  0.00    -0.252 C  
HETATM    9  C   UNL     1     -10.050  11.364  67.616  1.00  0.00    -0.200 A  
HETATM   10  C   UNL     1     -10.780  10.565  66.724  1.00  0.00    -0.252 A  
HETATM   11  C   UNL     1     -10.133   9.843  65.722  1.00  0.00    -0.317 A  
HETATM   12  C   UNL     1      -8.751   9.930  65.586  1.00  0.00    -0.168 A  
HETATM   13  C   UNL     1      -8.016  10.746  66.446  1.00  0.00    -0.151 A  
HETATM   14  C   UNL     1      -8.658  11.469  67.462  1.00  0.00    -0.143 A  
HETATM   15  C   UNL     1      -7.872  12.383  68.365  1.00  0.00    -0.142 C  
HETATM   16  C   UNL     1      -8.211  13.851  68.102  1.00  0.00    -0.158 C  
HETATM   17  C   UNL     1      -9.580  14.378  68.499  1.00  0.00    -0.217 A  
HETATM   18  C   UNL     1      -9.704  15.785  68.519  1.00  0.00    -0.206 A  
HETATM   19  C   UNL     1     -10.909  16.409  68.834  1.00  0.00    -0.334 A  
HETATM   20  C   UNL     1     -12.024  15.638  69.125  1.00  0.00    -0.329 A  
HETATM   21  C   UNL     1     -11.931  14.249  69.092  1.00  0.00    -0.372 A  
HETATM   22  C   UNL     1     -10.719  13.591  68.792  1.00  0.00    -0.261 A  
ENDBRANCH   6   7
ENDBRANCH   3   6
TORSDOF 2
ENDMDL
MODEL       37
REMARK 921   NORMALIZED FREE ENERGY PREDICTED BY IDOCK:   -5.17 KCAL/MOL
REMARK 922        TOTAL FREE ENERGY PREDICTED BY IDOCK:   -6.09 KCAL/MOL
REMARK 923 INTER-LIGAND FREE ENERGY PREDICTED BY IDOCK:   -5.71 KCAL/MOL
REMARK 924 INTRA-LIGAND FREE ENERGY PREDICTED BY IDOCK:   -0.37 KCAL/MOL
REMARK 927      BINDING AFFINITY PREDICTED BY RF-SCORE:    0.00 PKD
ROOT
HETATM    1  C   UNL     1      -8.886   9.382  67.094  1.00  0.00    -0.127 C  
HETATM    2  N   UNL     1      -9.916   8.822  68.038  1.00  0.00    -0.173 N  
HETATM    3  C   UNL     1      -9.993   7.307  67.868  1.00  0.00    -0.158 C  
HETATM    4  O   UNL     1     -11.126   9.394  67.739  1.00  0.00    -0.148 OA 
HETATM    5  C   UNL     1      -9.523   9.186  69.446  1.00  0.00    -0.161 C  
ENDROOT
BRANCH   3   6
HETATM    6  C   UNL     1     -11.066   6.658  68.749  1.00  0.00    -0.297 C  
BRANCH   6   7
HETATM    7  C   UNL     1     -10.527   5.840  69.900  1.00  0.00    -0.360 C  
HETATM    8  C   UNL     1     -10.925   5.945  71.193  1.00  0.00    -0.327 C  
HETATM    9  C   UNL     1     -11.946   6.961  71.550  1.00  0.00    -0.386 A  
HETATM   10  C   UNL     1     -13.265   6.857  71.085  1.00  0.00    -0.157 A  
HETATM   11  C   UNL     1     -14.207   7.840  71.388  1.00  0.00    -0.489 A  
HETATM   12  C   UNL     1     -13.846   8.926  72.180  1.00  0.00    -0.531 A  
HETATM   13  C   UNL     1     -12.546   9.026  72.676  1.00  0.00    -0.244 A  
HETATM   14  C   UNL     1     -11.590   8.046  72.368  1.00  0.00    -0.450 A  
HETATM   15  C   UNL     1     -10.198   8.130  72.935  1.00  0.00    -0.341 C  
HETATM   16  C   UNL     1      -9.947   7.021  73.958  1.00  0.00    -0.353 C  
HETATM   17  C   UNL     1      -9.834   5.583  73.479  1.00  0.00    -0.173 A  
HETATM   18  C   UNL     1      -9.295   4.673  74.416  1.00  0.00    -0.129 A  
HETATM   19  C   UNL     1      -9.162   3.317  74.127  1.00  0.00    -0.102 A  
HETATM   20  C   UNL     1      -9.577   2.836  72.895  1.00  0.00    -0.154 A  
HETATM   21  C   UNL     1     -10.130   3.710  71.962  1.00  0.00    -0.199 A  
HETATM   22  C   UNL     1     -10.261   5.091  72.223  1.00  0.00    -0.257 A  
ENDBRANCH   6   7
ENDBRANCH   3   6
TORSDOF 2
ENDMDL
MODEL       38
REMARK 921   NORMALIZED FREE ENERGY PREDICTED BY IDOCK:   -5.16 KCAL/MOL
REMARK 922        TOTAL FREE ENERGY PREDICTED BY IDOCK:   -6.07 KCAL/MOL
REMARK 923 INTER-LIGAND FREE ENERGY PREDICTED BY IDOCK:   -6.07 KCAL/MOL
REMARK 924 INTRA-LIGAND FREE ENERGY PREDICTED BY IDOCK:   -0.00 KCAL/MOL
REMARK 927      BINDING AFFINITY PREDICTED BY RF-SCORE:    0.00 PKD
ROOT
HETATM    1  C   UNL     1      -7.267   6.369  67.288  1.00  0.00    -0.078 C  
HETATM    2  N   UNL     1      -8.747   6.638  67.307  1.00  0.00    -0.118 N  
HETATM    3  C   UNL     1      -8.991   8.142  67.403  1.00  0.00    -0.137 C  
HETATM    4  O   UNL     1      -9.283   6.001  68.397  1.00  0.00    -0.116 OA 
HETATM    5  C   UNL     1      -9.353   6.074  66.048  1.00  0.00    -0.076 C  
ENDROOT
BRANCH   3   6
HETATM    6  C   UNL     1     -10.477   8.504  67.493  1.00  0.00    -0.328 C  
BRANCH   6   7
HETATM    7  C   UNL     1     -10.756   9.978  67.679  1.00  0.00    -0.340 C  
HETATM    8  C   UNL     1     -10.767  10.633  68.868  1.00  0.00    -0.254 C  
HETATM    9  C   UNL     1     -10.524   9.862  70.114  1.00  0.00    -0.339 A  
HETATM   10  C   UNL     1      -9.276   9.278  70.372  1.00  0.00    -0.291 A  
HETATM   11  C   UNL     1      -9.070   8.518  71.524  1.00  0.00    -0.281 A  
HETATM   12  C   UNL     1     -10.104   8.355  72.441  1.00  0.00    -0.386 A  
HETATM   13  C   UNL     1     -11.341   8.957  72.212  1.00  0.00    -0.288 A  
HETATM   14  C   UNL     1     -11.559   9.715  71.052  1.00  0.00    -0.436 A  
HETATM   15  C   UNL     1     -12.881  10.400  70.822  1.00  0.00    -0.450 C  
HETATM   16  C   UNL     1     -12.742  11.920  70.918  1.00  0.00    -0.301 C  
HETATM   17  C   UNL     1     -11.988  12.665  69.828  1.00  0.00    -0.365 A  
HETATM   18  C   UNL     1     -12.173  14.066  69.815  1.00  0.00    -0.396 A  
HETATM   19  C   UNL     1     -11.520  14.881  68.893  1.00  0.00    -0.320 A  
HETATM   20  C   UNL     1     -10.656  14.315  67.969  1.00  0.00    -0.238 A  
HETATM   21  C   UNL     1     -10.442  12.938  67.976  1.00  0.00    -0.237 A  
HETATM   22  C   UNL     1     -11.104  12.087  68.888  1.00  0.00    -0.298 A  
ENDBRANCH   6   7
ENDBRANCH   3   6
TORSDOF 2
ENDMDL
MODEL       39
REMARK 921   NORMALIZED FREE ENERGY PREDICTED BY IDOCK:   -5.14 KCAL/MOL
REMARK 922        TOTAL FREE ENERGY PREDICTED BY IDOCK:   -6.05 KCAL/MOL
REMARK 923 INTER-LIGAND FREE ENERGY PREDICTED BY IDOCK:   -5.75 KCAL/MOL
REMARK 924 INTRA-LIGAND FREE ENERGY PREDICTED BY IDOCK:   -0.31 KCAL/MOL
REMARK 927      BINDING AFFINITY PREDICTED BY RF-SCORE:    0.00 PKD
ROOT
HETATM    1  C   UNL     1      -9.537   8.033  72.922  1.00  0.00    -0.279 C  
HETATM    2  N   UNL     1     -10.668   8.132  71.935  1.00  0.00    -0.247 N  
HETATM    3  C   UNL     1     -10.546   9.436  71.150  1.00  0.00    -0.333 C  
HETATM    4  O   UNL     1     -11.848   8.108  72.633  1.00  0.00    -0.395 OA 
HETATM    5  C   UNL     1     -10.605   6.942  71.013  1.00  0.00    -0.220 C  
ENDROOT
BRANCH   3   6
HETATM    6  C   UNL     1     -11.698   9.651  70.162  1.00  0.00    -0.143 C  
BRANCH   6   7
HETATM    7  C   UNL     1     -11.581  10.901  69.320  1.00  0.00    -0.388 C  
HETATM    8  C   UNL     1     -10.841  11.019  68.188  1.00  0.00    -0.274 C  
HETATM    9  C   UNL     1     -10.040   9.857  67.730  1.00  0.00    -0.221 A  
HETATM   10  C   UNL     1     -10.659   8.682  67.279  1.00  0.00    -0.308 A  
HETATM   11  C   UNL     1      -9.898   7.579  66.893  1.00  0.00    -0.295 A  
HETATM   12  C   UNL     1      -8.508   7.647  66.929  1.00  0.00    -0.126 A  
HETATM   13  C   UNL     1      -7.879   8.820  67.345  1.00  0.00    -0.098 A  
HETATM   14  C   UNL     1      -8.637   9.931  67.744  1.00  0.00    -0.121 A  
HETATM   15  C   UNL     1      -7.960  11.213  68.154  1.00  0.00    -0.125 C  
HETATM   16  C   UNL     1      -8.206  12.323  67.131  1.00  0.00    -0.179 C  
HETATM   17  C   UNL     1      -9.600  12.916  67.003  1.00  0.00    -0.231 A  
HETATM   18  C   UNL     1      -9.677  14.129  66.282  1.00  0.00    -0.315 A  
HETATM   19  C   UNL     1     -10.893  14.771  66.058  1.00  0.00    -0.318 A  
HETATM   20  C   UNL     1     -12.063  14.208  66.540  1.00  0.00    -0.481 A  
HETATM   21  C   UNL     1     -12.015  13.002  67.236  1.00  0.00    -0.379 A  
HETATM   22  C   UNL     1     -10.795  12.339  67.492  1.00  0.00    -0.271 A  
ENDBRANCH   6   7
ENDBRANCH   3   6
TORSDOF 2
ENDMDL
MODEL       40
REMARK 921   NORMALIZED FREE ENERGY PREDICTED BY IDOCK:   -5.13 KCAL/MOL
REMARK 922        TOTAL FREE ENERGY PREDICTED BY IDOCK:   -6.05 KCAL/MOL
REMARK 923 INTER-LIGAND FREE ENERGY PREDICTED BY IDOCK:   -6.13 KCAL/MOL
REMARK 924 INTRA-LIGAND FREE ENERGY PREDICTED BY IDOCK:    0.08 KCAL/MOL
REMARK 927      BINDING AFFINITY PREDICTED BY RF-SCORE:    0.00 PKD
ROOT
HETATM    1  C   UNL     1     -12.657   8.250  71.795  1.00  0.00    -0.333 C  
HETATM    2  N   UNL     1     -11.495   9.059  71.286  1.00  0.00    -0.294 N  
HETATM    3  C   UNL     1     -11.044   8.509  69.935  1.00  0.00    -0.112 C  
HETATM    4  O   UNL     1     -10.476   8.964  72.200  1.00  0.00    -0.336 OA 
HETATM    5  C   UNL     1     -11.928  10.496  71.164  1.00  0.00    -0.336 C  
ENDROOT
BRANCH   3   6
HETATM    6  C   UNL     1      -9.819   9.236  69.370  1.00  0.00    -0.177 C  
BRANCH   6   7
HETATM    7  C   UNL     1     -10.104  10.118  68.176  1.00  0.00    -0.178 C  
HETATM    8  C   UNL     1     -10.157   9.702  66.886  1.00  0.00    -0.290 C  
HETATM    9  C   UNL     1      -9.882   8.275  66.580  1.00  0.00    -0.337 A  
HETATM   10  C   UNL     1     -10.750   7.262  67.011  1.00  0.00    -0.406 A  
HETATM   11  C   UNL     1     -10.460   5.921  66.758  1.00  0.00    -0.344 A  
HETATM   12  C   UNL     1      -9.311   5.581  66.049  1.00  0.00    -0.161 A  
HETATM   13  C   UNL     1      -8.456   6.581  65.588  1.00  0.00    -0.146 A  
HETATM   14  C   UNL     1      -8.735   7.931  65.846  1.00  0.00    -0.180 A  
HETATM   15  C   UNL     1      -7.835   9.015  65.313  1.00  0.00    -0.102 C  
HETATM   16  C   UNL     1      -8.531   9.829  64.221  1.00  0.00    -0.184 C  
HETATM   17  C   UNL     1      -9.678  10.751  64.603  1.00  0.00    -0.344 A  
HETATM   18  C   UNL     1     -10.053  11.690  63.616  1.00  0.00    -0.435 A  
HETATM   19  C   UNL     1     -11.108  12.579  63.814  1.00  0.00    -0.503 A  
HETATM   20  C   UNL     1     -11.822  12.540  65.001  1.00  0.00    -0.445 A  
HETATM   21  C   UNL     1     -11.484  11.609  65.981  1.00  0.00    -0.195 A  
HETATM   22  C   UNL     1     -10.409  10.709  65.813  1.00  0.00    -0.287 A  
ENDBRANCH   6   7
ENDBRANCH   3   6
TORSDOF 2
ENDMDL
MODEL       41
REMARK 921   NORMALIZED FREE ENERGY PREDICTED BY IDOCK:   -5.13 KCAL/MOL
REMARK 922        TOTAL FREE ENERGY PREDICTED BY IDOCK:   -6.04 KCAL/MOL
REMARK 923 INTER-LIGAND FREE ENERGY PREDICTED BY IDOCK:   -6.08 KCAL/MOL
REMARK 924 INTRA-LIGAND FREE ENERGY PREDICTED BY IDOCK:    0.03 KCAL/MOL
REMARK 927      BINDING AFFINITY PREDICTED BY RF-SCORE:    0.00 PKD
ROOT
HETATM    1  C   UNL     1     -10.027  19.200  68.116  1.00  0.00    -0.388 C  
HETATM    2  N   UNL     1      -9.395  17.837  68.034  1.00  0.00    -0.269 N  
HETATM    3  C   UNL     1     -10.317  16.808  68.683  1.00  0.00    -0.318 C  
HETATM    4  O   UNL     1      -8.194  17.882  68.695  1.00  0.00    -0.299 OA 
HETATM    5  C   UNL     1      -9.157  17.506  66.584  1.00  0.00    -0.269 C  
ENDROOT
BRANCH   3   6
HETATM    6  C   UNL     1      -9.721  15.396  68.702  1.00  0.00    -0.210 C  
BRANCH   6   7
HETATM    7  C   UNL     1      -9.914  14.613  67.423  1.00  0.00    -0.231 C  
HETATM    8  C   UNL     1     -10.605  13.451  67.310  1.00  0.00    -0.256 C  
HETATM    9  C   UNL     1     -11.205  12.851  68.528  1.00  0.00    -0.310 A  
HETATM   10  C   UNL     1     -12.255  13.485  69.206  1.00  0.00    -0.257 A  
HETATM   11  C   UNL     1     -12.782  12.935  70.375  1.00  0.00    -0.021 A  
HETATM   12  C   UNL     1     -12.280  11.733  70.864  1.00  0.00    -0.378 A  
HETATM   13  C   UNL     1     -11.257  11.075  70.182  1.00  0.00    -0.264 A  
HETATM   14  C   UNL     1     -10.715  11.626  69.011  1.00  0.00    -0.217 A  
HETATM   15  C   UNL     1      -9.639  10.898  68.249  1.00  0.00    -0.169 C  
HETATM   16  C   UNL     1     -10.159  10.386  66.905  1.00  0.00    -0.269 C  
HETATM   17  C   UNL     1     -10.479  11.386  65.805  1.00  0.00    -0.314 A  
HETATM   18  C   UNL     1     -10.644  10.834  64.515  1.00  0.00    -0.258 A  
HETATM   19  C   UNL     1     -10.971  11.626  63.417  1.00  0.00    -0.442 A  
HETATM   20  C   UNL     1     -11.152  12.990  63.586  1.00  0.00    -0.282 A  
HETATM   21  C   UNL     1     -11.015  13.553  64.852  1.00  0.00    -0.359 A  
HETATM   22  C   UNL     1     -10.668  12.777  65.979  1.00  0.00    -0.295 A  
ENDBRANCH   6   7
ENDBRANCH   3   6
TORSDOF 2
ENDMDL
MODEL       42
REMARK 921   NORMALIZED FREE ENERGY PREDICTED BY IDOCK:   -5.13 KCAL/MOL
REMARK 922        TOTAL FREE ENERGY PREDICTED BY IDOCK:   -6.04 KCAL/MOL
REMARK 923 INTER-LIGAND FREE ENERGY PREDICTED BY IDOCK:   -5.60 KCAL/MOL
REMARK 924 INTRA-LIGAND FREE ENERGY PREDICTED BY IDOCK:   -0.44 KCAL/MOL
REMARK 927      BINDING AFFINITY PREDICTED BY RF-SCORE:    0.00 PKD
ROOT
HETATM    1  C   UNL     1      -7.603  16.999  68.427  1.00  0.00    -0.220 C  
HETATM    2  N   UNL     1      -7.575  15.725  67.628  1.00  0.00    -0.143 N  
HETATM    3  C   UNL     1      -7.731  14.531  68.567  1.00  0.00    -0.129 C  
HETATM    4  O   UNL     1      -6.372  15.658  66.973  1.00  0.00    -0.298 OA 
HETATM    5  C   UNL     1      -8.694  15.766  66.620  1.00  0.00    -0.288 C  
ENDROOT
BRANCH   3   6
HETATM    6  C   UNL     1      -7.649  13.183  67.842  1.00  0.00    -0.147 C  
BRANCH   6   7
HETATM    7  C   UNL     1      -8.217  12.016  68.616  1.00  0.00    -0.052 C  
HETATM    8  C   UNL     1      -9.477  11.526  68.488  1.00  0.00    -0.175 C  
HETATM    9  C   UNL     1     -10.412  12.189  67.546  1.00  0.00    -0.229 A  
HETATM   10  C   UNL     1     -10.190  12.157  66.162  1.00  0.00    -0.254 A  
HETATM   11  C   UNL     1     -11.050  12.821  65.287  1.00  0.00    -0.320 A  
HETATM   12  C   UNL     1     -12.156  13.504  65.786  1.00  0.00    -0.473 A  
HETATM   13  C   UNL     1     -12.407  13.516  67.157  1.00  0.00    -0.220 A  
HETATM   14  C   UNL     1     -11.542  12.859  68.045  1.00  0.00    -0.385 A  
HETATM   15  C   UNL     1     -11.833  12.837  69.523  1.00  0.00    -0.379 C  
HETATM   16  C   UNL     1     -12.213  11.432  69.992  1.00  0.00    -0.377 C  
HETATM   17  C   UNL     1     -11.147  10.349  70.026  1.00  0.00    -0.379 A  
HETATM   18  C   UNL     1     -11.487   9.189  70.759  1.00  0.00    -0.337 A  
HETATM   19  C   UNL     1     -10.621   8.101  70.850  1.00  0.00    -0.236 A  
HETATM   20  C   UNL     1      -9.398   8.144  70.201  1.00  0.00    -0.159 A  
HETATM   21  C   UNL     1      -9.049   9.268  69.456  1.00  0.00    -0.163 A  
HETATM   22  C   UNL     1      -9.900  10.390  69.360  1.00  0.00    -0.235 A  
ENDBRANCH   6   7
ENDBRANCH   3   6
TORSDOF 2
ENDMDL
MODEL       43
REMARK 921   NORMALIZED FREE ENERGY PREDICTED BY IDOCK:   -5.12 KCAL/MOL
REMARK 922        TOTAL FREE ENERGY PREDICTED BY IDOCK:   -6.03 KCAL/MOL
REMARK 923 INTER-LIGAND FREE ENERGY PREDICTED BY IDOCK:   -5.78 KCAL/MOL
REMARK 924 INTRA-LIGAND FREE ENERGY PREDICTED BY IDOCK:   -0.25 KCAL/MOL
REMARK 927      BINDING AFFINITY PREDICTED BY RF-SCORE:    0.00 PKD
ROOT
HETATM    1  C   UNL     1     -12.424  14.385  64.615  1.00  0.00    -0.345 C  
HETATM    2  N   UNL     1     -11.791  13.021  64.659  1.00  0.00    -0.352 N  
HETATM    3  C   UNL     1     -11.647  12.573  66.112  1.00  0.00    -0.395 C  
HETATM    4  O   UNL     1     -10.558  13.103  64.065  1.00  0.00    -0.402 OA 
HETATM    5  C   UNL     1     -12.658  12.063  63.885  1.00  0.00    -0.406 C  
ENDROOT
BRANCH   3   6
HETATM    6  C   UNL     1     -10.949  11.216  66.255  1.00  0.00    -0.227 C  
BRANCH   6   7
HETATM    7  C   UNL     1     -11.094  10.574  67.616  1.00  0.00    -0.375 C  
HETATM    8  C   UNL     1     -10.158  10.595  68.598  1.00  0.00    -0.194 C  
HETATM    9  C   UNL     1      -8.859  11.265  68.338  1.00  0.00    -0.159 A  
HETATM   10  C   UNL     1      -8.785  12.652  68.148  1.00  0.00    -0.190 A  
HETATM   11  C   UNL     1      -7.566  13.267  67.859  1.00  0.00    -0.152 A  
HETATM   12  C   UNL     1      -6.405  12.503  67.782  1.00  0.00    -0.121 A  
HETATM   13  C   UNL     1      -6.460  11.127  68.001  1.00  0.00    -0.057 A  
HETATM   14  C   UNL     1      -7.682  10.500  68.282  1.00  0.00    -0.101 A  
HETATM   15  C   UNL     1      -7.738   9.020  68.560  1.00  0.00    -0.097 C  
HETATM   16  C   UNL     1      -8.085   8.742  70.023  1.00  0.00    -0.111 C  
HETATM   17  C   UNL     1      -9.488   9.048  70.522  1.00  0.00    -0.265 A  
HETATM   18  C   UNL     1      -9.823   8.479  71.771  1.00  0.00    -0.339 A  
HETATM   19  C   UNL     1     -11.063   8.699  72.367  1.00  0.00    -0.328 A  
HETATM   20  C   UNL     1     -11.994   9.506  71.732  1.00  0.00    -0.443 A  
HETATM   21  C   UNL     1     -11.679  10.094  70.509  1.00  0.00    -0.407 A  
HETATM   22  C   UNL     1     -10.437   9.874  69.876  1.00  0.00    -0.309 A  
ENDBRANCH   6   7
ENDBRANCH   3   6
TORSDOF 2
ENDMDL
MODEL       44
REMARK 921   NORMALIZED FREE ENERGY PREDICTED BY IDOCK:   -5.10 KCAL/MOL
REMARK 922        TOTAL FREE ENERGY PREDICTED BY IDOCK:   -6.01 KCAL/MOL
REMARK 923 INTER-LIGAND FREE ENERGY PREDICTED BY IDOCK:   -5.65 KCAL/MOL
REMARK 924 INTRA-LIGAND FREE ENERGY PREDICTED BY IDOCK:   -0.36 KCAL/MOL
REMARK 927      BINDING AFFINITY PREDICTED BY RF-SCORE:    0.00 PKD
ROOT
HETATM    1  C   UNL     1     -10.130   2.466  72.233  1.00  0.00    -0.155 C  
HETATM    2  N   UNL     1      -9.318   3.627  71.726  1.00  0.00    -0.120 N  
HETATM    3  C   UNL     1     -10.038   4.933  72.050  1.00  0.00    -0.196 C  
HETATM    4  O   UNL     1      -9.176   3.488  70.369  1.00  0.00    -0.117 OA 
HETATM    5  C   UNL     1      -7.961   3.585  72.379  1.00  0.00    -0.068 C  
ENDROOT
BRANCH   3   6
HETATM    6  C   UNL     1      -9.310   6.169  71.510  1.00  0.00    -0.158 C  
BRANCH   6   7
HETATM    7  C   UNL     1     -10.106   7.452  71.588  1.00  0.00    -0.200 C  
HETATM    8  C   UNL     1     -10.626   8.119  70.526  1.00  0.00    -0.228 C  
HETATM    9  C   UNL     1     -10.384   7.594  69.159  1.00  0.00    -0.217 A  
HETATM   10  C   UNL     1     -10.935   6.373  68.745  1.00  0.00    -0.404 A  
HETATM   11  C   UNL     1     -10.666   5.866  67.474  1.00  0.00    -0.359 A  
HETATM   12  C   UNL     1      -9.862   6.586  66.595  1.00  0.00    -0.203 A  
HETATM   13  C   UNL     1      -9.334   7.817  66.983  1.00  0.00    -0.196 A  
HETATM   14  C   UNL     1      -9.592   8.331  68.263  1.00  0.00    -0.158 A  
HETATM   15  C   UNL     1      -9.058   9.678  68.670  1.00  0.00    -0.132 C  
HETATM   16  C   UNL     1     -10.185  10.700  68.822  1.00  0.00    -0.204 C  
HETATM   17  C   UNL     1     -11.159  10.561  69.982  1.00  0.00    -0.376 A  
HETATM   18  C   UNL     1     -11.959  11.697  70.238  1.00  0.00    -0.445 A  
HETATM   19  C   UNL     1     -12.918  11.704  71.250  1.00  0.00    -0.368 A  
HETATM   20  C   UNL     1     -13.106  10.568  72.022  1.00  0.00    -0.511 A  
HETATM   21  C   UNL     1     -12.342   9.429  71.774  1.00  0.00    -0.471 A  
HETATM   22  C   UNL     1     -11.353   9.402  70.767  1.00  0.00    -0.363 A  
ENDBRANCH   6   7
ENDBRANCH   3   6
TORSDOF 2
ENDMDL
MODEL       45
REMARK 921   NORMALIZED FREE ENERGY PREDICTED BY IDOCK:   -5.10 KCAL/MOL
REMARK 922        TOTAL FREE ENERGY PREDICTED BY IDOCK:   -6.00 KCAL/MOL
REMARK 923 INTER-LIGAND FREE ENERGY PREDICTED BY IDOCK:   -5.64 KCAL/MOL
REMARK 924 INTRA-LIGAND FREE ENERGY PREDICTED BY IDOCK:   -0.36 KCAL/MOL
REMARK 927      BINDING AFFINITY PREDICTED BY RF-SCORE:    0.00 PKD
ROOT
HETATM    1  C   UNL     1     -11.003   6.205  69.364  1.00  0.00    -0.385 C  
HETATM    2  N   UNL     1     -10.148   7.311  68.810  1.00  0.00    -0.171 N  
HETATM    3  C   UNL     1     -10.332   7.388  67.296  1.00  0.00    -0.286 C  
HETATM    4  O   UNL     1      -8.840   7.034  69.114  1.00  0.00    -0.135 OA 
HETATM    5  C   UNL     1     -10.553   8.605  69.467  1.00  0.00    -0.213 C  
ENDROOT
BRANCH   3   6
HETATM    6  C   UNL     1      -9.446   8.451  66.637  1.00  0.00    -0.267 C  
BRANCH   6   7
HETATM    7  C   UNL     1     -10.202   9.593  65.998  1.00  0.00    -0.255 C  
HETATM    8  C   UNL     1      -9.833  10.898  66.036  1.00  0.00    -0.280 C  
HETATM    9  C   UNL     1      -8.611  11.277  66.789  1.00  0.00    -0.159 A  
HETATM   10  C   UNL     1      -7.341  10.863  66.364  1.00  0.00    -0.141 A  
HETATM   11  C   UNL     1      -6.203  11.186  67.103  1.00  0.00    -0.083 A  
HETATM   12  C   UNL     1      -6.321  11.948  68.262  1.00  0.00    -0.051 A  
HETATM   13  C   UNL     1      -7.575  12.393  68.679  1.00  0.00    -0.082 A  
HETATM   14  C   UNL     1      -8.725  12.065  67.947  1.00  0.00    -0.170 A  
HETATM   15  C   UNL     1     -10.076  12.578  68.372  1.00  0.00    -0.216 C  
HETATM   16  C   UNL     1     -10.616  13.608  67.379  1.00  0.00    -0.260 C  
HETATM   17  C   UNL     1     -11.052  13.147  65.997  1.00  0.00    -0.299 A  
HETATM   18  C   UNL     1     -11.823  14.077  65.265  1.00  0.00    -0.363 A  
HETATM   19  C   UNL     1     -12.265  13.804  63.972  1.00  0.00    -0.429 A  
HETATM   20  C   UNL     1     -11.937  12.596  63.377  1.00  0.00    -0.613 A  
HETATM   21  C   UNL     1     -11.161  11.672  64.072  1.00  0.00    -0.458 A  
HETATM   22  C   UNL     1     -10.714  11.916  65.389  1.00  0.00    -0.330 A  
ENDBRANCH   6   7
ENDBRANCH   3   6
TORSDOF 2
ENDMDL
MODEL       46
REMARK 921   NORMALIZED FREE ENERGY PREDICTED BY IDOCK:   -5.06 KCAL/MOL
REMARK 922        TOTAL FREE ENERGY PREDICTED BY IDOCK:   -5.97 KCAL/MOL
REMARK 923 INTER-LIGAND FREE ENERGY PREDICTED BY IDOCK:   -5.79 KCAL/MOL
REMARK 924 INTRA-LIGAND FREE ENERGY PREDICTED BY IDOCK:   -0.18 KCAL/MOL
REMARK 927      BINDING AFFINITY PREDICTED BY RF-SCORE:    0.00 PKD
ROOT
HETATM    1  C   UNL     1     -14.404  15.416  72.184  1.00  0.00    -0.544 C  
HETATM    2  N   UNL     1     -13.242  14.525  71.841  1.00  0.00    -0.336 N  
HETATM    3  C   UNL     1     -12.999  14.561  70.334  1.00  0.00    -0.179 C  
HETATM    4  O   UNL     1     -13.549  13.249  72.240  1.00  0.00    -0.536 OA 
HETATM    5  C   UNL     1     -12.029  15.007  72.592  1.00  0.00    -0.318 C  
ENDROOT
BRANCH   3   6
HETATM    6  C   UNL     1     -11.870  13.628  69.885  1.00  0.00    -0.389 C  
BRANCH   6   7
HETATM    7  C   UNL     1     -10.539  14.310  69.665  1.00  0.00     0.035 C  
HETATM    8  C   UNL     1      -9.810  14.261  68.521  1.00  0.00    -0.231 C  
HETATM    9  C   UNL     1     -10.314  13.451  67.383  1.00  0.00    -0.240 A  
HETATM   10  C   UNL     1     -11.484  13.811  66.700  1.00  0.00    -0.362 A  
HETATM   11  C   UNL     1     -11.973  13.019  65.661  1.00  0.00    -0.479 A  
HETATM   12  C   UNL     1     -11.285  11.871  65.279  1.00  0.00    -0.351 A  
HETATM   13  C   UNL     1     -10.102  11.519  65.930  1.00  0.00    -0.271 A  
HETATM   14  C   UNL     1      -9.608  12.305  66.981  1.00  0.00    -0.208 A  
HETATM   15  C   UNL     1      -8.310  11.949  67.658  1.00  0.00    -0.152 C  
HETATM   16  C   UNL     1      -7.220  12.974  67.341  1.00  0.00    -0.123 C  
HETATM   17  C   UNL     1      -7.325  14.372  67.928  1.00  0.00    -0.163 A  
HETATM   18  C   UNL     1      -6.145  15.148  67.857  1.00  0.00    -0.170 A  
HETATM   19  C   UNL     1      -6.102  16.459  68.327  1.00  0.00    -0.119 A  
HETATM   20  C   UNL     1      -7.243  17.030  68.868  1.00  0.00    -0.239 A  
HETATM   21  C   UNL     1      -8.423  16.292  68.930  1.00  0.00    -0.253 A  
HETATM   22  C   UNL     1      -8.490  14.957  68.477  1.00  0.00    -0.163 A  
ENDBRANCH   6   7
ENDBRANCH   3   6
TORSDOF 2
ENDMDL
MODEL       47
REMARK 921   NORMALIZED FREE ENERGY PREDICTED BY IDOCK:   -5.05 KCAL/MOL
REMARK 922        TOTAL FREE ENERGY PREDICTED BY IDOCK:   -5.95 KCAL/MOL
REMARK 923 INTER-LIGAND FREE ENERGY PREDICTED BY IDOCK:   -6.91 KCAL/MOL
REMARK 924 INTRA-LIGAND FREE ENERGY PREDICTED BY IDOCK:    0.95 KCAL/MOL
REMARK 927      BINDING AFFINITY PREDICTED BY RF-SCORE:    0.00 PKD
ROOT
HETATM    1  C   UNL     1     -11.376  11.262  64.267  1.00  0.00    -0.045 C  
HETATM    2  N   UNL     1     -10.448  11.273  65.452  1.00  0.00    -0.266 N  
HETATM    3  C   UNL     1     -11.257  11.485  66.730  1.00  0.00    -0.285 C  
HETATM    4  O   UNL     1      -9.552  12.298  65.283  1.00  0.00    -0.160 OA 
HETATM    5  C   UNL     1      -9.709   9.961  65.494  1.00  0.00    -0.302 C  
ENDROOT
BRANCH   3   6
HETATM    6  C   UNL     1     -10.382  11.574  67.985  1.00  0.00    -0.208 C  
BRANCH   6   7
HETATM    7  C   UNL     1     -11.039  12.254  69.164  1.00  0.00    -0.261 C  
HETATM    8  C   UNL     1     -11.479  13.538  69.186  1.00  0.00    -0.345 C  
HETATM    9  C   UNL     1     -11.282  14.385  67.983  1.00  0.00    -0.298 A  
HETATM   10  C   UNL     1     -11.954  14.107  66.784  1.00  0.00    -0.475 A  
HETATM   11  C   UNL     1     -11.729  14.882  65.646  1.00  0.00    -0.194 A  
HETATM   12  C   UNL     1     -10.847  15.957  65.701  1.00  0.00    -0.292 A  
HETATM   13  C   UNL     1     -10.197  16.264  66.896  1.00  0.00    -0.288 A  
HETATM   14  C   UNL     1     -10.410  15.485  68.043  1.00  0.00    -0.247 A  
HETATM   15  C   UNL     1      -9.741  15.839  69.345  1.00  0.00    -0.286 C  
HETATM   16  C   UNL     1     -10.756  16.336  70.375  1.00  0.00    -0.108 C  
HETATM   17  C   UNL     1     -11.748  15.350  70.972  1.00  0.00    -0.408 A  
HETATM   18  C   UNL     1     -12.428  15.800  72.126  1.00  0.00    -0.533 A  
HETATM   19  C   UNL     1     -13.388  15.017  72.762  1.00  0.00    -0.580 A  
HETATM   20  C   UNL     1     -13.700  13.767  72.250  1.00  0.00    -0.673 A  
HETATM   21  C   UNL     1     -13.058  13.310  71.102  1.00  0.00    -0.224 A  
HETATM   22  C   UNL     1     -12.070  14.076  70.448  1.00  0.00    -0.426 A  
ENDBRANCH   6   7
ENDBRANCH   3   6
TORSDOF 2
ENDMDL
MODEL       48
REMARK 921   NORMALIZED FREE ENERGY PREDICTED BY IDOCK:   -4.99 KCAL/MOL
REMARK 922        TOTAL FREE ENERGY PREDICTED BY IDOCK:   -5.88 KCAL/MOL
REMARK 923 INTER-LIGAND FREE ENERGY PREDICTED BY IDOCK:   -5.57 KCAL/MOL
REMARK 924 INTRA-LIGAND FREE ENERGY PREDICTED BY IDOCK:   -0.31 KCAL/MOL
REMARK 927      BINDING AFFINITY PREDICTED BY RF-SCORE:    0.00 PKD
ROOT
HETATM    1  C   UNL     1      -9.707   7.139  73.845  1.00  0.00    -0.293 C  
HETATM    2  N   UNL     1     -10.559   7.027  72.610  1.00  0.00    -0.229 N  
HETATM    3  C   UNL     1      -9.684   7.193  71.370  1.00  0.00    -0.168 C  
HETATM    4  O   UNL     1     -11.509   8.015  72.656  1.00  0.00    -0.381 OA 
HETATM    5  C   UNL     1     -11.235   5.680  72.614  1.00  0.00    -0.300 C  
ENDROOT
BRANCH   3   6
HETATM    6  C   UNL     1     -10.483   7.157  70.063  1.00  0.00    -0.235 C  
BRANCH   6   7
HETATM    7  C   UNL     1     -10.550   8.477  69.329  1.00  0.00    -0.193 C  
HETATM    8  C   UNL     1     -10.369   8.645  67.995  1.00  0.00    -0.277 C  
HETATM    9  C   UNL     1     -10.041   7.462  67.161  1.00  0.00    -0.314 A  
HETATM   10  C   UNL     1     -10.970   6.429  66.971  1.00  0.00    -0.463 A  
HETATM   11  C   UNL     1     -10.637   5.300  66.222  1.00  0.00    -0.308 A  
HETATM   12  C   UNL     1      -9.378   5.204  65.635  1.00  0.00    -0.149 A  
HETATM   13  C   UNL     1      -8.456   6.238  65.790  1.00  0.00    -0.148 A  
HETATM   14  C   UNL     1      -8.780   7.372  66.548  1.00  0.00    -0.149 A  
HETATM   15  C   UNL     1      -7.801   8.509  66.683  1.00  0.00    -0.090 C  
HETATM   16  C   UNL     1      -8.291   9.755  65.943  1.00  0.00    -0.128 C  
HETATM   17  C   UNL     1      -9.490  10.515  66.488  1.00  0.00    -0.200 A  
HETATM   18  C   UNL     1      -9.683  11.807  65.948  1.00  0.00    -0.259 A  
HETATM   19  C   UNL     1     -10.758  12.607  66.330  1.00  0.00    -0.280 A  
HETATM   20  C   UNL     1     -11.673  12.128  67.253  1.00  0.00    -0.369 A  
HETATM   21  C   UNL     1     -11.515  10.849  67.784  1.00  0.00    -0.323 A  
HETATM   22  C   UNL     1     -10.426  10.025  67.427  1.00  0.00    -0.316 A  
ENDBRANCH   6   7
ENDBRANCH   3   6
TORSDOF 2
ENDMDL
MODEL       49
REMARK 921   NORMALIZED FREE ENERGY PREDICTED BY IDOCK:   -4.93 KCAL/MOL
REMARK 922        TOTAL FREE ENERGY PREDICTED BY IDOCK:   -5.81 KCAL/MOL
REMARK 923 INTER-LIGAND FREE ENERGY PREDICTED BY IDOCK:   -5.51 KCAL/MOL
REMARK 924 INTRA-LIGAND FREE ENERGY PREDICTED BY IDOCK:   -0.30 KCAL/MOL
REMARK 927      BINDING AFFINITY PREDICTED BY RF-SCORE:    0.00 PKD
ROOT
HETATM    1  C   UNL     1     -10.481  13.735  66.088  1.00  0.00    -0.297 C  
HETATM    2  N   UNL     1     -11.237  12.698  66.872  1.00  0.00    -0.285 N  
HETATM    3  C   UNL     1     -10.291  11.566  67.266  1.00  0.00    -0.206 C  
HETATM    4  O   UNL     1     -12.248  12.217  66.079  1.00  0.00    -0.609 OA 
HETATM    5  C   UNL     1     -11.827  13.355  68.093  1.00  0.00    -0.361 C  
ENDROOT
BRANCH   3   6
HETATM    6  C   UNL     1     -10.995  10.430  68.016  1.00  0.00    -0.347 C  
BRANCH   6   7
HETATM    7  C   UNL     1     -10.653   9.043  67.523  1.00  0.00    -0.306 C  
HETATM    8  C   UNL     1     -10.327   7.987  68.311  1.00  0.00    -0.240 C  
HETATM    9  C   UNL     1     -10.256   8.182  69.780  1.00  0.00    -0.203 A  
HETATM   10  C   UNL     1     -11.407   8.469  70.529  1.00  0.00    -0.235 A  
HETATM   11  C   UNL     1     -11.324   8.695  71.903  1.00  0.00    -0.417 A  
HETATM   12  C   UNL     1     -10.093   8.614  72.547  1.00  0.00    -0.242 A  
HETATM   13  C   UNL     1      -8.946   8.298  71.819  1.00  0.00    -0.241 A  
HETATM   14  C   UNL     1      -9.018   8.078  70.436  1.00  0.00    -0.146 A  
HETATM   15  C   UNL     1      -7.788   7.696  69.655  1.00  0.00    -0.108 C  
HETATM   16  C   UNL     1      -7.871   6.252  69.159  1.00  0.00    -0.105 C  
HETATM   17  C   UNL     1      -8.866   5.901  68.064  1.00  0.00    -0.109 A  
HETATM   18  C   UNL     1      -8.667   4.647  67.445  1.00  0.00    -0.105 A  
HETATM   19  C   UNL     1      -9.520   4.179  66.448  1.00  0.00    -0.199 A  
HETATM   20  C   UNL     1     -10.601   4.952  66.054  1.00  0.00    -0.312 A  
HETATM   21  C   UNL     1     -10.829   6.183  66.664  1.00  0.00    -0.279 A  
HETATM   22  C   UNL     1      -9.972   6.688  67.665  1.00  0.00    -0.161 A  
ENDBRANCH   6   7
ENDBRANCH   3   6
TORSDOF 2
ENDMDL
MODEL       50
REMARK 921   NORMALIZED FREE ENERGY PREDICTED BY IDOCK:   -4.92 KCAL/MOL
REMARK 922        TOTAL FREE ENERGY PREDICTED BY IDOCK:   -5.81 KCAL/MOL
REMARK 923 INTER-LIGAND FREE ENERGY PREDICTED BY IDOCK:   -5.60 KCAL/MOL
REMARK 924 INTRA-LIGAND FREE ENERGY PREDICTED BY IDOCK:   -0.20 KCAL/MOL
REMARK 927      BINDING AFFINITY PREDICTED BY RF-SCORE:    0.00 PKD
ROOT
HETATM    1  C   UNL     1     -13.783  15.036  71.096  1.00  0.00    -0.414 C  
HETATM    2  N   UNL     1     -12.297  15.164  70.907  1.00  0.00    -0.323 N  
HETATM    3  C   UNL     1     -11.990  15.423  69.434  1.00  0.00    -0.327 C  
HETATM    4  O   UNL     1     -11.712  13.992  71.314  1.00  0.00    -0.132 OA 
HETATM    5  C   UNL     1     -11.800  16.297  71.767  1.00  0.00    -0.439 C  
ENDROOT
BRANCH   3   6
HETATM    6  C   UNL     1     -10.489  15.504  69.138  1.00  0.00    -0.232 C  
BRANCH   6   7
HETATM    7  C   UNL     1      -9.844  14.182  68.786  1.00  0.00    -0.168 C  
HETATM    8  C   UNL     1      -9.777  13.649  67.540  1.00  0.00    -0.227 C  
HETATM    9  C   UNL     1     -10.408  14.378  66.411  1.00  0.00    -0.289 A  
HETATM   10  C   UNL     1      -9.910  15.615  65.979  1.00  0.00    -0.362 A  
HETATM   11  C   UNL     1     -10.537  16.313  64.947  1.00  0.00    -0.160 A  
HETATM   12  C   UNL     1     -11.656  15.770  64.321  1.00  0.00    -0.192 A  
HETATM   13  C   UNL     1     -12.142  14.526  64.720  1.00  0.00    -0.454 A  
HETATM   14  C   UNL     1     -11.523  13.821  65.762  1.00  0.00    -0.324 A  
HETATM   15  C   UNL     1     -12.022  12.459  66.168  1.00  0.00    -0.397 C  
HETATM   16  C   UNL     1     -11.015  11.367  65.801  1.00  0.00    -0.256 C  
HETATM   17  C   UNL     1      -9.701  11.286  66.563  1.00  0.00    -0.230 A  
HETATM   18  C   UNL     1      -8.977  10.085  66.392  1.00  0.00    -0.164 A  
HETATM   19  C   UNL     1      -7.742   9.882  67.004  1.00  0.00    -0.095 A  
HETATM   20  C   UNL     1      -7.195  10.883  67.791  1.00  0.00    -0.091 A  
HETATM   21  C   UNL     1      -7.881  12.084  67.957  1.00  0.00    -0.145 A  
HETATM   22  C   UNL     1      -9.142  12.309  67.363  1.00  0.00    -0.184 A  
ENDBRANCH   6   7
ENDBRANCH   3   6
TORSDOF 2
ENDMDL
MODEL       51
REMARK 921   NORMALIZED FREE ENERGY PREDICTED BY IDOCK:   -4.88 KCAL/MOL
REMARK 922        TOTAL FREE ENERGY PREDICTED BY IDOCK:   -5.77 KCAL/MOL
REMARK 923 INTER-LIGAND FREE ENERGY PREDICTED BY IDOCK:   -5.46 KCAL/MOL
REMARK 924 INTRA-LIGAND FREE ENERGY PREDICTED BY IDOCK:   -0.30 KCAL/MOL
REMARK 927      BINDING AFFINITY PREDICTED BY RF-SCORE:    0.00 PKD
ROOT
HETATM    1  C   UNL     1     -12.317  12.822  63.221  1.00  0.00    -0.341 C  
HETATM    2  N   UNL     1     -11.199  12.862  64.227  1.00  0.00    -0.346 N  
HETATM    3  C   UNL     1     -10.983  14.300  64.692  1.00  0.00    -0.367 C  
HETATM    4  O   UNL     1     -10.064  12.384  63.624  1.00  0.00    -0.401 OA 
HETATM    5  C   UNL     1     -11.565  11.972  65.386  1.00  0.00    -0.286 C  
ENDROOT
BRANCH   3   6
HETATM    6  C   UNL     1      -9.815  14.444  65.675  1.00  0.00    -0.322 C  
BRANCH   6   7
HETATM    7  C   UNL     1      -9.122  15.787  65.638  1.00  0.00    -0.008 C  
HETATM    8  C   UNL     1      -8.964  16.619  66.699  1.00  0.00    -0.285 C  
HETATM    9  C   UNL     1      -9.536  16.226  68.011  1.00  0.00    -0.224 A  
HETATM   10  C   UNL     1      -9.036  15.123  68.718  1.00  0.00    -0.200 A  
HETATM   11  C   UNL     1      -9.610  14.735  69.929  1.00  0.00     0.334 A  
HETATM   12  C   UNL     1     -10.674  15.460  70.457  1.00  0.00    -0.290 A  
HETATM   13  C   UNL     1     -11.160  16.578  69.780  1.00  0.00    -0.248 A  
HETATM   14  C   UNL     1     -10.595  16.970  68.557  1.00  0.00    -0.370 A  
HETATM   15  C   UNL     1     -11.090  18.201  67.844  1.00  0.00     0.103 C  
HETATM   16  C   UNL     1     -10.040  19.312  67.859  1.00  0.00    -0.492 C  
HETATM   17  C   UNL     1      -8.777  19.148  67.029  1.00  0.00    -0.313 A  
HETATM   18  C   UNL     1      -8.019  20.326  66.842  1.00  0.00    -0.349 A  
HETATM   19  C   UNL     1      -6.822  20.321  66.130  1.00  0.00    -0.282 A  
HETATM   20  C   UNL     1      -6.348  19.133  65.597  1.00  0.00    -0.273 A  
HETATM   21  C   UNL     1      -7.067  17.955  65.785  1.00  0.00    -0.215 A  
HETATM   22  C   UNL     1      -8.291  17.935  66.488  1.00  0.00    -0.290 A  
ENDBRANCH   6   7
ENDBRANCH   3   6
TORSDOF 2
ENDMDL
MODEL       52
REMARK 921   NORMALIZED FREE ENERGY PREDICTED BY IDOCK:   -4.86 KCAL/MOL
REMARK 922        TOTAL FREE ENERGY PREDICTED BY IDOCK:   -5.74 KCAL/MOL
REMARK 923 INTER-LIGAND FREE ENERGY PREDICTED BY IDOCK:   -5.45 KCAL/MOL
REMARK 924 INTRA-LIGAND FREE ENERGY PREDICTED BY IDOCK:   -0.29 KCAL/MOL
REMARK 927      BINDING AFFINITY PREDICTED BY RF-SCORE:    0.00 PKD
ROOT
HETATM    1  C   UNL     1     -11.700  12.616  63.109  1.00  0.00    -0.217 C  
HETATM    2  N   UNL     1     -11.676  13.032  64.555  1.00  0.00    -0.349 N  
HETATM    3  C   UNL     1     -10.510  12.345  65.263  1.00  0.00    -0.286 C  
HETATM    4  O   UNL     1     -12.865  12.656  65.127  1.00  0.00    -0.721 OA 
HETATM    5  C   UNL     1     -11.538  14.530  64.621  1.00  0.00    -0.408 C  
ENDROOT
BRANCH   3   6
HETATM    6  C   UNL     1     -10.448  12.662  66.762  1.00  0.00    -0.254 C  
BRANCH   6   7
HETATM    7  C   UNL     1      -9.273  13.518  67.177  1.00  0.00    -0.236 C  
HETATM    8  C   UNL     1      -9.261  14.383  68.222  1.00  0.00    -0.201 C  
HETATM    9  C   UNL     1     -10.498  14.556  69.025  1.00  0.00    -0.241 A  
HETATM   10  C   UNL     1     -11.003  13.511  69.811  1.00  0.00     0.150 A  
HETATM   11  C   UNL     1     -12.190  13.669  70.527  1.00  0.00    -0.438 A  
HETATM   12  C   UNL     1     -12.872  14.882  70.482  1.00  0.00    -0.376 A  
HETATM   13  C   UNL     1     -12.363  15.940  69.729  1.00  0.00    -0.065 A  
HETATM   14  C   UNL     1     -11.175  15.787  68.999  1.00  0.00    -0.319 A  
HETATM   15  C   UNL     1     -10.602  16.940  68.218  1.00  0.00    -0.363 C  
HETATM   16  C   UNL     1      -9.302  17.444  68.845  1.00  0.00    -0.183 C  
HETATM   17  C   UNL     1      -8.058  16.572  68.772  1.00  0.00    -0.244 A  
HETATM   18  C   UNL     1      -6.844  17.225  69.081  1.00  0.00    -0.234 A  
HETATM   19  C   UNL     1      -5.628  16.544  69.086  1.00  0.00    -0.133 A  
HETATM   20  C   UNL     1      -5.600  15.190  68.792  1.00  0.00    -0.090 A  
HETATM   21  C   UNL     1      -6.788  14.521  68.504  1.00  0.00    -0.096 A  
HETATM   22  C   UNL     1      -8.030  15.190  68.476  1.00  0.00    -0.142 A  
ENDBRANCH   6   7
ENDBRANCH   3   6
TORSDOF 2
ENDMDL
MODEL       53
REMARK 921   NORMALIZED FREE ENERGY PREDICTED BY IDOCK:   -4.86 KCAL/MOL
REMARK 922        TOTAL FREE ENERGY PREDICTED BY IDOCK:   -5.74 KCAL/MOL
REMARK 923 INTER-LIGAND FREE ENERGY PREDICTED BY IDOCK:   -5.34 KCAL/MOL
REMARK 924 INTRA-LIGAND FREE ENERGY PREDICTED BY IDOCK:   -0.40 KCAL/MOL
REMARK 927      BINDING AFFINITY PREDICTED BY RF-SCORE:    0.00 PKD
ROOT
HETATM    1  C   UNL     1     -11.460  15.354  64.507  1.00  0.00    -0.311 C  
HETATM    2  N   UNL     1     -11.839  13.900  64.441  1.00  0.00    -0.417 N  
HETATM    3  C   UNL     1     -10.599  13.064  64.132  1.00  0.00    -0.397 C  
HETATM    4  O   UNL     1     -12.773  13.746  63.448  1.00  0.00    -0.795 OA 
HETATM    5  C   UNL     1     -12.441  13.501  65.763  1.00  0.00    -0.462 C  
ENDROOT
BRANCH   3   6
HETATM    6  C   UNL     1     -10.905  11.569  63.983  1.00  0.00    -0.453 C  
BRANCH   6   7
HETATM    7  C   UNL     1      -9.693  10.668  64.053  1.00  0.00    -0.373 C  
HETATM    8  C   UNL     1      -9.108  10.225  65.194  1.00  0.00    -0.234 C  
HETATM    9  C   UNL     1      -9.655  10.670  66.501  1.00  0.00    -0.218 A  
HETATM   10  C   UNL     1     -10.932  10.275  66.925  1.00  0.00    -0.140 A  
HETATM   11  C   UNL     1     -11.454  10.735  68.133  1.00  0.00    -0.346 A  
HETATM   12  C   UNL     1     -10.696  11.576  68.943  1.00  0.00    -0.245 A  
HETATM   13  C   UNL     1      -9.412  11.951  68.548  1.00  0.00    -0.151 A  
HETATM   14  C   UNL     1      -8.882  11.501  67.330  1.00  0.00    -0.160 A  
HETATM   15  C   UNL     1      -7.481  11.871  66.920  1.00  0.00    -0.079 C  
HETATM   16  C   UNL     1      -6.555  10.653  66.943  1.00  0.00    -0.086 C  
HETATM   17  C   UNL     1      -6.740   9.563  65.899  1.00  0.00    -0.082 A  
HETATM   18  C   UNL     1      -5.670   8.647  65.786  1.00  0.00    -0.046 A  
HETATM   19  C   UNL     1      -5.714   7.578  64.894  1.00  0.00    -0.037 A  
HETATM   20  C   UNL     1      -6.836   7.393  64.102  1.00  0.00    -0.052 A  
HETATM   21  C   UNL     1      -7.912   8.271  64.211  1.00  0.00    -0.148 A  
HETATM   22  C   UNL     1      -7.887   9.372  65.094  1.00  0.00    -0.110 A  
ENDBRANCH   6   7
ENDBRANCH   3   6
TORSDOF 2
ENDMDL
MODEL       54
REMARK 921   NORMALIZED FREE ENERGY PREDICTED BY IDOCK:   -4.82 KCAL/MOL
REMARK 922        TOTAL FREE ENERGY PREDICTED BY IDOCK:   -5.69 KCAL/MOL
REMARK 923 INTER-LIGAND FREE ENERGY PREDICTED BY IDOCK:   -5.34 KCAL/MOL
REMARK 924 INTRA-LIGAND FREE ENERGY PREDICTED BY IDOCK:   -0.36 KCAL/MOL
REMARK 927      BINDING AFFINITY PREDICTED BY RF-SCORE:    0.00 PKD
ROOT
HETATM    1  C   UNL     1      -9.608   7.671  73.679  1.00  0.00    -0.275 C  
HETATM    2  N   UNL     1      -9.505   7.513  72.186  1.00  0.00    -0.145 N  
HETATM    3  C   UNL     1      -8.517   8.536  71.632  1.00  0.00    -0.178 C  
HETATM    4  O   UNL     1     -10.750   7.718  71.648  1.00  0.00    -0.216 OA 
HETATM    5  C   UNL     1      -9.053   6.108  71.883  1.00  0.00    -0.140 C  
ENDROOT
BRANCH   3   6
HETATM    6  C   UNL     1      -8.397   8.489  70.105  1.00  0.00    -0.123 C  
BRANCH   6   7
HETATM    7  C   UNL     1      -9.126   9.598  69.382  1.00  0.00    -0.194 C  
HETATM    8  C   UNL     1      -9.901   9.441  68.279  1.00  0.00    -0.180 C  
HETATM    9  C   UNL     1     -10.038   8.088  67.685  1.00  0.00    -0.269 A  
HETATM   10  C   UNL     1     -10.697   7.059  68.374  1.00  0.00    -0.224 A  
HETATM   11  C   UNL     1     -10.782   5.778  67.827  1.00  0.00    -0.306 A  
HETATM   12  C   UNL     1     -10.231   5.519  66.575  1.00  0.00    -0.273 A  
HETATM   13  C   UNL     1      -9.602   6.542  65.866  1.00  0.00     0.155 A  
HETATM   14  C   UNL     1      -9.504   7.830  66.412  1.00  0.00    -0.245 A  
HETATM   15  C   UNL     1      -8.861   8.946  65.631  1.00  0.00    -0.230 C  
HETATM   16  C   UNL     1      -9.893   9.991  65.203  1.00  0.00    -0.388 C  
HETATM   17  C   UNL     1     -10.525  10.883  66.260  1.00  0.00    -0.304 A  
HETATM   18  C   UNL     1     -11.213  12.013  65.765  1.00  0.00    -0.383 A  
HETATM   19  C   UNL     1     -11.867  12.903  66.614  1.00  0.00    -0.461 A  
HETATM   20  C   UNL     1     -11.859  12.675  67.982  1.00  0.00    -0.376 A  
HETATM   21  C   UNL     1     -11.205  11.556  68.492  1.00  0.00    -0.315 A  
HETATM   22  C   UNL     1     -10.520  10.649  67.655  1.00  0.00    -0.267 A  
ENDBRANCH   6   7
ENDBRANCH   3   6
TORSDOF 2
ENDMDL
MODEL       55
REMARK 921   NORMALIZED FREE ENERGY PREDICTED BY IDOCK:   -4.81 KCAL/MOL
REMARK 922        TOTAL FREE ENERGY PREDICTED BY IDOCK:   -5.69 KCAL/MOL
REMARK 923 INTER-LIGAND FREE ENERGY PREDICTED BY IDOCK:   -5.42 KCAL/MOL
REMARK 924 INTRA-LIGAND FREE ENERGY PREDICTED BY IDOCK:   -0.27 KCAL/MOL
REMARK 927      BINDING AFFINITY PREDICTED BY RF-SCORE:    0.00 PKD
ROOT
HETATM    1  C   UNL     1      -9.442  13.633  66.994  1.00  0.00    -0.252 C  
HETATM    2  N   UNL     1     -10.458  12.536  67.163  1.00  0.00    -0.223 N  
HETATM    3  C   UNL     1     -10.348  11.952  68.569  1.00  0.00    -0.218 C  
HETATM    4  O   UNL     1     -10.201  11.568  66.226  1.00  0.00    -0.217 OA 
HETATM    5  C   UNL     1     -11.829  13.112  66.926  1.00  0.00    -0.386 C  
ENDROOT
BRANCH   3   6
HETATM    6  C   UNL     1     -11.306  10.781  68.809  1.00  0.00    -0.352 C  
BRANCH   6   7
HETATM    7  C   UNL     1     -10.958   9.914  69.998  1.00  0.00    -0.338 C  
HETATM    8  C   UNL     1     -10.273   8.744  69.943  1.00  0.00    -0.206 C  
HETATM    9  C   UNL     1      -9.846   8.223  68.621  1.00  0.00    -0.186 A  
HETATM   10  C   UNL     1      -8.885   8.895  67.853  1.00  0.00    -0.133 A  
HETATM   11  C   UNL     1      -8.523   8.422  66.592  1.00  0.00    -0.113 A  
HETATM   12  C   UNL     1      -9.101   7.257  66.095  1.00  0.00    -0.160 A  
HETATM   13  C   UNL     1     -10.034   6.561  66.862  1.00  0.00    -0.227 A  
HETATM   14  C   UNL     1     -10.411   7.034  68.128  1.00  0.00    -0.242 A  
HETATM   15  C   UNL     1     -11.388   6.263  68.975  1.00  0.00    -0.319 C  
HETATM   16  C   UNL     1     -10.704   5.661  70.203  1.00  0.00    -0.376 C  
HETATM   17  C   UNL     1     -10.229   6.584  71.314  1.00  0.00    -0.223 A  
HETATM   18  C   UNL     1      -9.904   5.947  72.532  1.00  0.00    -0.179 A  
HETATM   19  C   UNL     1      -9.426   6.663  73.628  1.00  0.00    -0.185 A  
HETATM   20  C   UNL     1      -9.250   8.034  73.525  1.00  0.00    -0.312 A  
HETATM   21  C   UNL     1      -9.544   8.681  72.327  1.00  0.00    -0.348 A  
HETATM   22  C   UNL     1     -10.046   7.983  71.208  1.00  0.00    -0.222 A  
ENDBRANCH   6   7
ENDBRANCH   3   6
TORSDOF 2
ENDMDL
MODEL       56
REMARK 921   NORMALIZED FREE ENERGY PREDICTED BY IDOCK:   -4.79 KCAL/MOL
REMARK 922        TOTAL FREE ENERGY PREDICTED BY IDOCK:   -5.66 KCAL/MOL
REMARK 923 INTER-LIGAND FREE ENERGY PREDICTED BY IDOCK:   -5.32 KCAL/MOL
REMARK 924 INTRA-LIGAND FREE ENERGY PREDICTED BY IDOCK:   -0.34 KCAL/MOL
REMARK 927      BINDING AFFINITY PREDICTED BY RF-SCORE:    0.00 PKD
ROOT
HETATM    1  C   UNL     1     -12.165  14.405  66.492  1.00  0.00    -0.332 C  
HETATM    2  N   UNL     1     -11.506  13.949  67.765  1.00  0.00    -0.304 N  
HETATM    3  C   UNL     1     -11.995  12.546  68.119  1.00  0.00    -0.219 C  
HETATM    4  O   UNL     1     -11.842  14.832  68.760  1.00  0.00    -0.308 OA 
HETATM    5  C   UNL     1     -10.013  13.963  67.565  1.00  0.00    -0.240 C  
ENDROOT
BRANCH   3   6
HETATM    6  C   UNL     1     -11.422  12.026  69.441  1.00  0.00    -0.361 C  
BRANCH   6   7
HETATM    7  C   UNL     1     -11.362  10.520  69.553  1.00  0.00    -0.341 C  
HETATM    8  C   UNL     1     -10.359   9.736  69.085  1.00  0.00    -0.225 C  
HETATM    9  C   UNL     1      -9.227  10.372  68.366  1.00  0.00    -0.147 A  
HETATM   10  C   UNL     1      -8.336  11.227  69.030  1.00  0.00    -0.014 A  
HETATM   11  C   UNL     1      -7.302  11.856  68.336  1.00  0.00    -0.095 A  
HETATM   12  C   UNL     1      -7.133  11.617  66.975  1.00  0.00    -0.145 A  
HETATM   13  C   UNL     1      -7.992  10.744  66.310  1.00  0.00    -0.160 A  
HETATM   14  C   UNL     1      -9.040  10.114  66.997  1.00  0.00    -0.155 A  
HETATM   15  C   UNL     1      -9.945   9.139  66.290  1.00  0.00    -0.352 C  
HETATM   16  C   UNL     1      -9.723   7.712  66.792  1.00  0.00    -0.290 C  
HETATM   17  C   UNL     1     -10.166   7.344  68.199  1.00  0.00    -0.223 A  
HETATM   18  C   UNL     1     -10.221   5.959  68.472  1.00  0.00    -0.240 A  
HETATM   19  C   UNL     1     -10.581   5.475  69.728  1.00  0.00    -0.388 A  
HETATM   20  C   UNL     1     -10.882   6.367  70.745  1.00  0.00    -0.321 A  
HETATM   21  C   UNL     1     -10.814   7.738  70.505  1.00  0.00    -0.245 A  
HETATM   22  C   UNL     1     -10.470   8.254  69.237  1.00  0.00    -0.218 A  
ENDBRANCH   6   7
ENDBRANCH   3   6
TORSDOF 2
ENDMDL
MODEL       57
REMARK 921   NORMALIZED FREE ENERGY PREDICTED BY IDOCK:   -4.78 KCAL/MOL
REMARK 922        TOTAL FREE ENERGY PREDICTED BY IDOCK:   -5.65 KCAL/MOL
REMARK 923 INTER-LIGAND FREE ENERGY PREDICTED BY IDOCK:   -5.15 KCAL/MOL
REMARK 924 INTRA-LIGAND FREE ENERGY PREDICTED BY IDOCK:   -0.50 KCAL/MOL
REMARK 927      BINDING AFFINITY PREDICTED BY RF-SCORE:    0.00 PKD
ROOT
HETATM    1  C   UNL     1     -14.215   8.530  71.602  1.00  0.00    -0.421 C  
HETATM    2  N   UNL     1     -12.743   8.263  71.765  1.00  0.00    -0.325 N  
HETATM    3  C   UNL     1     -12.447   6.808  71.411  1.00  0.00    -0.329 C  
HETATM    4  O   UNL     1     -12.407   8.511  73.072  1.00  0.00    -0.218 OA 
HETATM    5  C   UNL     1     -11.983   9.202  70.865  1.00  0.00    -0.242 C  
ENDROOT
BRANCH   3   6
HETATM    6  C   UNL     1     -10.975   6.430  71.611  1.00  0.00    -0.302 C  
BRANCH   6   7
HETATM    7  C   UNL     1     -10.469   5.351  70.681  1.00  0.00    -0.329 C  
HETATM    8  C   UNL     1      -9.832   5.565  69.502  1.00  0.00    -0.253 C  
HETATM    9  C   UNL     1      -9.630   6.961  69.039  1.00  0.00    -0.136 A  
HETATM   10  C   UNL     1      -8.782   7.838  69.731  1.00  0.00    -0.139 A  
HETATM   11  C   UNL     1      -8.633   9.161  69.314  1.00  0.00    -0.137 A  
HETATM   12  C   UNL     1      -9.311   9.614  68.186  1.00  0.00    -0.140 A  
HETATM   13  C   UNL     1     -10.132   8.743  67.470  1.00  0.00    -0.281 A  
HETATM   14  C   UNL     1     -10.295   7.414  67.888  1.00  0.00    -0.258 A  
HETATM   15  C   UNL     1     -11.149   6.461  67.093  1.00  0.00    -0.422 C  
HETATM   16  C   UNL     1     -10.298   5.384  66.418  1.00  0.00    -0.298 C  
HETATM   17  C   UNL     1      -9.633   4.320  67.277  1.00  0.00    -0.224 A  
HETATM   18  C   UNL     1      -9.139   3.198  66.574  1.00  0.00    -0.170 A  
HETATM   19  C   UNL     1      -8.478   2.159  67.226  1.00  0.00    -0.099 A  
HETATM   20  C   UNL     1      -8.284   2.224  68.597  1.00  0.00    -0.074 A  
HETATM   21  C   UNL     1      -8.743   3.331  69.308  1.00  0.00    -0.135 A  
HETATM   22  C   UNL     1      -9.431   4.388  68.675  1.00  0.00    -0.219 A  
ENDBRANCH   6   7
ENDBRANCH   3   6
TORSDOF 2
ENDMDL
MODEL       58
REMARK 921   NORMALIZED FREE ENERGY PREDICTED BY IDOCK:   -4.77 KCAL/MOL
REMARK 922        TOTAL FREE ENERGY PREDICTED BY IDOCK:   -5.64 KCAL/MOL
REMARK 923 INTER-LIGAND FREE ENERGY PREDICTED BY IDOCK:   -5.28 KCAL/MOL
REMARK 924 INTRA-LIGAND FREE ENERGY PREDICTED BY IDOCK:   -0.36 KCAL/MOL
REMARK 927      BINDING AFFINITY PREDICTED BY RF-SCORE:    0.00 PKD
ROOT
HETATM    1  C   UNL     1     -13.023   7.252  71.441  1.00  0.00    -0.373 C  
HETATM    2  N   UNL     1     -12.277   8.555  71.533  1.00  0.00    -0.301 N  
HETATM    3  C   UNL     1     -11.517   8.800  70.231  1.00  0.00    -0.089 C  
HETATM    4  O   UNL     1     -11.400   8.473  72.584  1.00  0.00    -0.343 OA 
HETATM    5  C   UNL     1     -13.269   9.659  71.791  1.00  0.00    -0.430 C  
ENDROOT
BRANCH   3   6
HETATM    6  C   UNL     1     -10.674  10.079  70.260  1.00  0.00    -0.367 C  
BRANCH   6   7
HETATM    7  C   UNL     1     -10.907  11.014  69.095  1.00  0.00    -0.283 C  
HETATM    8  C   UNL     1      -9.982  11.354  68.162  1.00  0.00    -0.196 C  
HETATM    9  C   UNL     1      -8.607  10.809  68.283  1.00  0.00    -0.135 A  
HETATM   10  C   UNL     1      -8.354   9.438  68.129  1.00  0.00    -0.119 A  
HETATM   11  C   UNL     1      -7.065   8.930  68.289  1.00  0.00    -0.078 A  
HETATM   12  C   UNL     1      -6.011   9.790  68.582  1.00  0.00    -0.042 A  
HETATM   13  C   UNL     1      -6.243  11.159  68.706  1.00  0.00    -0.045 A  
HETATM   14  C   UNL     1      -7.537  11.678  68.556  1.00  0.00    -0.127 A  
HETATM   15  C   UNL     1      -7.784  13.161  68.649  1.00  0.00    -0.073 C  
HETATM   16  C   UNL     1      -8.172  13.746  67.290  1.00  0.00    -0.173 C  
HETATM   17  C   UNL     1      -9.528  13.399  66.695  1.00  0.00    -0.264 A  
HETATM   18  C   UNL     1      -9.940  14.213  65.616  1.00  0.00    -0.331 A  
HETATM   19  C   UNL     1     -11.145  13.992  64.952  1.00  0.00    -0.378 A  
HETATM   20  C   UNL     1     -11.961  12.943  65.345  1.00  0.00    -0.470 A  
HETATM   21  C   UNL     1     -11.566  12.116  66.394  1.00  0.00    -0.429 A  
HETATM   22  C   UNL     1     -10.359  12.327  67.094  1.00  0.00    -0.234 A  
ENDBRANCH   6   7
ENDBRANCH   3   6
TORSDOF 2
ENDMDL
MODEL       59
REMARK 921   NORMALIZED FREE ENERGY PREDICTED BY IDOCK:   -4.76 KCAL/MOL
REMARK 922        TOTAL FREE ENERGY PREDICTED BY IDOCK:   -5.63 KCAL/MOL
REMARK 923 INTER-LIGAND FREE ENERGY PREDICTED BY IDOCK:   -5.37 KCAL/MOL
REMARK 924 INTRA-LIGAND FREE ENERGY PREDICTED BY IDOCK:   -0.26 KCAL/MOL
REMARK 927      BINDING AFFINITY PREDICTED BY RF-SCORE:    0.00 PKD
ROOT
HETATM    1  C   UNL     1      -6.602  10.061  64.879  1.00  0.00    -0.126 C  
HETATM    2  N   UNL     1      -7.817   9.218  65.155  1.00  0.00    -0.106 N  
HETATM    3  C   UNL     1      -8.622   9.842  66.292  1.00  0.00    -0.127 C  
HETATM    4  O   UNL     1      -7.394   7.962  65.508  1.00  0.00    -0.072 OA 
HETATM    5  C   UNL     1      -8.640   9.135  63.896  1.00  0.00    -0.170 C  
ENDROOT
BRANCH   3   6
HETATM    6  C   UNL     1      -9.849   9.011  66.685  1.00  0.00    -0.316 C  
BRANCH   6   7
HETATM    7  C   UNL     1     -10.696   9.617  67.780  1.00  0.00    -0.316 C  
HETATM    8  C   UNL     1     -10.663   9.261  69.089  1.00  0.00    -0.202 C  
HETATM    9  C   UNL     1      -9.757   8.163  69.511  1.00  0.00    -0.170 A  
HETATM   10  C   UNL     1      -8.364   8.310  69.449  1.00  0.00    -0.122 A  
HETATM   11  C   UNL     1      -7.521   7.258  69.805  1.00  0.00    -0.093 A  
HETATM   12  C   UNL     1      -8.062   6.055  70.251  1.00  0.00    -0.111 A  
HETATM   13  C   UNL     1      -9.445   5.907  70.349  1.00  0.00    -0.192 A  
HETATM   14  C   UNL     1     -10.300   6.957  69.983  1.00  0.00    -0.219 A  
HETATM   15  C   UNL     1     -11.793   6.814  70.127  1.00  0.00    -0.321 C  
HETATM   16  C   UNL     1     -12.334   7.721  71.233  1.00  0.00    -0.314 C  
HETATM   17  C   UNL     1     -12.341   9.226  71.020  1.00  0.00    -0.300 A  
HETATM   18  C   UNL     1     -13.132   9.962  71.930  1.00  0.00    -0.559 A  
HETATM   19  C   UNL     1     -13.209  11.352  71.875  1.00  0.00    -0.485 A  
HETATM   20  C   UNL     1     -12.484  12.041  70.915  1.00  0.00    -0.384 A  
HETATM   21  C   UNL     1     -11.681  11.338  70.020  1.00  0.00    -0.428 A  
HETATM   22  C   UNL     1     -11.598   9.929  70.042  1.00  0.00    -0.235 A  
ENDBRANCH   6   7
ENDBRANCH   3   6
TORSDOF 2
ENDMDL
MODEL       60
REMARK 921   NORMALIZED FREE ENERGY PREDICTED BY IDOCK:   -4.72 KCAL/MOL
REMARK 922        TOTAL FREE ENERGY PREDICTED BY IDOCK:   -5.59 KCAL/MOL
REMARK 923 INTER-LIGAND FREE ENERGY PREDICTED BY IDOCK:   -5.25 KCAL/MOL
REMARK 924 INTRA-LIGAND FREE ENERGY PREDICTED BY IDOCK:   -0.34 KCAL/MOL
REMARK 927      BINDING AFFINITY PREDICTED BY RF-SCORE:    0.00 PKD
ROOT
HETATM    1  C   UNL     1      -8.439   1.948  69.141  1.00  0.00    -0.055 C  
HETATM    2  N   UNL     1      -8.430   3.434  68.908  1.00  0.00    -0.071 N  
HETATM    3  C   UNL     1      -8.872   4.152  70.181  1.00  0.00    -0.082 C  
HETATM    4  O   UNL     1      -9.297   3.712  67.882  1.00  0.00    -0.167 OA 
HETATM    5  C   UNL     1      -7.037   3.849  68.513  1.00  0.00    -0.051 C  
ENDROOT
BRANCH   3   6
HETATM    6  C   UNL     1      -8.954   5.674  70.014  1.00  0.00    -0.150 C  
BRANCH   6   7
HETATM    7  C   UNL     1     -10.179   6.310  70.630  1.00  0.00    -0.240 C  
HETATM    8  C   UNL     1     -10.891   7.331  70.089  1.00  0.00    -0.274 C  
HETATM    9  C   UNL     1     -10.437   7.920  68.804  1.00  0.00    -0.198 A  
HETATM   10  C   UNL     1     -10.474   7.178  67.614  1.00  0.00    -0.306 A  
HETATM   11  C   UNL     1     -10.004   7.725  66.420  1.00  0.00    -0.164 A  
HETATM   12  C   UNL     1      -9.515   9.028  66.398  1.00  0.00    -0.288 A  
HETATM   13  C   UNL     1      -9.503   9.788  67.568  1.00  0.00    -0.170 A  
HETATM   14  C   UNL     1      -9.965   9.243  68.775  1.00  0.00    -0.193 A  
HETATM   15  C   UNL     1      -9.992  10.075  70.030  1.00  0.00    -0.273 C  
HETATM   16  C   UNL     1     -11.427  10.386  70.459  1.00  0.00    -0.431 C  
HETATM   17  C   UNL     1     -12.299   9.263  70.997  1.00  0.00    -0.300 A  
HETATM   18  C   UNL     1     -13.477   9.677  71.659  1.00  0.00    -0.455 A  
HETATM   19  C   UNL     1     -14.388   8.758  72.176  1.00  0.00    -0.481 A  
HETATM   20  C   UNL     1     -14.147   7.401  72.031  1.00  0.00    -0.327 A  
HETATM   21  C   UNL     1     -13.003   6.969  71.364  1.00  0.00    -0.395 A  
HETATM   22  C   UNL     1     -12.056   7.879  70.846  1.00  0.00    -0.181 A  
ENDBRANCH   6   7
ENDBRANCH   3   6
TORSDOF 2
ENDMDL
MODEL       61
REMARK 921   NORMALIZED FREE ENERGY PREDICTED BY IDOCK:   -4.72 KCAL/MOL
REMARK 922        TOTAL FREE ENERGY PREDICTED BY IDOCK:   -5.58 KCAL/MOL
REMARK 923 INTER-LIGAND FREE ENERGY PREDICTED BY IDOCK:   -5.29 KCAL/MOL
REMARK 924 INTRA-LIGAND FREE ENERGY PREDICTED BY IDOCK:   -0.29 KCAL/MOL
REMARK 927      BINDING AFFINITY PREDICTED BY RF-SCORE:    0.00 PKD
ROOT
HETATM    1  C   UNL     1     -10.474   5.147  69.788  1.00  0.00    -0.204 C  
HETATM    2  N   UNL     1     -10.569   6.615  69.476  1.00  0.00    -0.223 N  
HETATM    3  C   UNL     1     -10.842   6.802  67.985  1.00  0.00    -0.235 C  
HETATM    4  O   UNL     1      -9.378   7.203  69.817  1.00  0.00    -0.148 OA 
HETATM    5  C   UNL     1     -11.678   7.211  70.304  1.00  0.00    -0.182 C  
ENDROOT
BRANCH   3   6
HETATM    6  C   UNL     1     -10.891   8.275  67.564  1.00  0.00    -0.094 C  
BRANCH   6   7
HETATM    7  C   UNL     1     -10.032   8.618  66.368  1.00  0.00    -0.331 C  
HETATM    8  C   UNL     1      -9.776   9.872  65.919  1.00  0.00    -0.326 C  
HETATM    9  C   UNL     1     -10.402  11.026  66.612  1.00  0.00    -0.288 A  
HETATM   10  C   UNL     1     -10.051  11.356  67.929  1.00  0.00    -0.198 A  
HETATM   11  C   UNL     1     -10.677  12.414  68.588  1.00  0.00    -0.260 A  
HETATM   12  C   UNL     1     -11.644  13.168  67.928  1.00  0.00    -0.375 A  
HETATM   13  C   UNL     1     -11.979  12.870  66.608  1.00  0.00    -0.436 A  
HETATM   14  C   UNL     1     -11.361  11.802  65.941  1.00  0.00    -0.324 A  
HETATM   15  C   UNL     1     -11.691  11.504  64.502  1.00  0.00    -0.089 C  
HETATM   16  C   UNL     1     -10.507  11.815  63.584  1.00  0.00    -0.490 C  
HETATM   17  C   UNL     1      -9.270  10.934  63.647  1.00  0.00    -0.242 A  
HETATM   18  C   UNL     1      -8.367  11.083  62.571  1.00  0.00    -0.229 A  
HETATM   19  C   UNL     1      -7.175  10.363  62.510  1.00  0.00    -0.152 A  
HETATM   20  C   UNL     1      -6.853   9.485  63.534  1.00  0.00    -0.103 A  
HETATM   21  C   UNL     1      -7.718   9.338  64.615  1.00  0.00    -0.116 A  
HETATM   22  C   UNL     1      -8.939  10.042  64.693  1.00  0.00    -0.249 A  
ENDBRANCH   6   7
ENDBRANCH   3   6
TORSDOF 2
ENDMDL
MODEL       62
REMARK 921   NORMALIZED FREE ENERGY PREDICTED BY IDOCK:   -4.69 KCAL/MOL
REMARK 922        TOTAL FREE ENERGY PREDICTED BY IDOCK:   -5.55 KCAL/MOL
REMARK 923 INTER-LIGAND FREE ENERGY PREDICTED BY IDOCK:   -5.49 KCAL/MOL
REMARK 924 INTRA-LIGAND FREE ENERGY PREDICTED BY IDOCK:   -0.06 KCAL/MOL
REMARK 927      BINDING AFFINITY PREDICTED BY RF-SCORE:    0.00 PKD
ROOT
HETATM    1  C   UNL     1     -12.211  11.849  63.279  1.00  0.00    -0.374 C  
HETATM    2  N   UNL     1     -10.814  11.726  63.823  1.00  0.00    -0.385 N  
HETATM    3  C   UNL     1     -10.863  11.110  65.219  1.00  0.00    -0.152 C  
HETATM    4  O   UNL     1     -10.266  12.983  63.879  1.00  0.00    -0.378 OA 
HETATM    5  C   UNL     1     -10.007  10.868  62.885  1.00  0.00    -0.210 C  
ENDROOT
BRANCH   3   6
HETATM    6  C   UNL     1      -9.483  11.008  65.879  1.00  0.00    -0.244 C  
BRANCH   6   7
HETATM    7  C   UNL     1      -8.979  12.296  66.488  1.00  0.00    -0.161 C  
HETATM    8  C   UNL     1      -9.269  12.741  67.736  1.00  0.00    -0.199 C  
HETATM    9  C   UNL     1     -10.184  11.942  68.589  1.00  0.00    -0.202 A  
HETATM   10  C   UNL     1      -9.813  10.673  69.058  1.00  0.00    -0.218 A  
HETATM   11  C   UNL     1     -10.697   9.910  69.821  1.00  0.00    -0.298 A  
HETATM   12  C   UNL     1     -11.952  10.418  70.145  1.00  0.00    -0.357 A  
HETATM   13  C   UNL     1     -12.321  11.691  69.712  1.00  0.00    -0.197 A  
HETATM   14  C   UNL     1     -11.442  12.461  68.936  1.00  0.00    -0.355 A  
HETATM   15  C   UNL     1     -11.822  13.853  68.501  1.00  0.00    -0.401 C  
HETATM   16  C   UNL     1     -10.971  14.908  69.210  1.00  0.00    -0.279 C  
HETATM   17  C   UNL     1      -9.498  15.030  68.855  1.00  0.00    -0.211 A  
HETATM   18  C   UNL     1      -8.864  16.211  69.305  1.00  0.00    -0.195 A  
HETATM   19  C   UNL     1      -7.509  16.445  69.080  1.00  0.00    -0.228 A  
HETATM   20  C   UNL     1      -6.752  15.496  68.411  1.00  0.00    -0.116 A  
HETATM   21  C   UNL     1      -7.350  14.315  67.977  1.00  0.00    -0.145 A  
HETATM   22  C   UNL     1      -8.725  14.061  68.176  1.00  0.00    -0.180 A  
ENDBRANCH   6   7
ENDBRANCH   3   6
TORSDOF 2
ENDMDL
MODEL       63
REMARK 921   NORMALIZED FREE ENERGY PREDICTED BY IDOCK:   -4.69 KCAL/MOL
REMARK 922        TOTAL FREE ENERGY PREDICTED BY IDOCK:   -5.55 KCAL/MOL
REMARK 923 INTER-LIGAND FREE ENERGY PREDICTED BY IDOCK:   -5.55 KCAL/MOL
REMARK 924 INTRA-LIGAND FREE ENERGY PREDICTED BY IDOCK:    0.01 KCAL/MOL
REMARK 927      BINDING AFFINITY PREDICTED BY RF-SCORE:    0.00 PKD
ROOT
HETATM    1  C   UNL     1     -12.386  15.044  63.967  1.00  0.00    -0.023 C  
HETATM    2  N   UNL     1     -11.804  13.743  64.448  1.00  0.00    -0.410 N  
HETATM    3  C   UNL     1     -12.284  13.465  65.871  1.00  0.00    -0.450 C  
HETATM    4  O   UNL     1     -10.437  13.852  64.423  1.00  0.00    -0.397 OA 
HETATM    5  C   UNL     1     -12.238  12.647  63.511  1.00  0.00    -0.547 C  
ENDROOT
BRANCH   3   6
HETATM    6  C   UNL     1     -11.686  12.187  66.467  1.00  0.00    -0.392 C  
BRANCH   6   7
HETATM    7  C   UNL     1     -10.237  12.303  66.881  1.00  0.00    -0.229 C  
HETATM    8  C   UNL     1      -9.796  12.764  68.079  1.00  0.00    -0.226 C  
HETATM    9  C   UNL     1     -10.789  13.235  69.076  1.00  0.00    -0.212 A  
HETATM   10  C   UNL     1     -11.690  12.345  69.678  1.00  0.00    -0.377 A  
HETATM   11  C   UNL     1     -12.649  12.804  70.580  1.00  0.00    -0.248 A  
HETATM   12  C   UNL     1     -12.701  14.156  70.910  1.00  0.00    -0.432 A  
HETATM   13  C   UNL     1     -11.790  15.047  70.344  1.00  0.00    -0.345 A  
HETATM   14  C   UNL     1     -10.828  14.595  69.428  1.00  0.00    -0.261 A  
HETATM   15  C   UNL     1      -9.817  15.547  68.846  1.00  0.00    -0.219 C  
HETATM   16  C   UNL     1      -8.410  15.250  69.367  1.00  0.00    -0.232 C  
HETATM   17  C   UNL     1      -7.706  13.980  68.915  1.00  0.00    -0.069 A  
HETATM   18  C   UNL     1      -6.319  13.932  69.176  1.00  0.00    -0.107 A  
HETATM   19  C   UNL     1      -5.550  12.818  68.845  1.00  0.00    -0.071 A  
HETATM   20  C   UNL     1      -6.155  11.719  68.257  1.00  0.00    -0.049 A  
HETATM   21  C   UNL     1      -7.526  11.735  68.009  1.00  0.00    -0.101 A  
HETATM   22  C   UNL     1      -8.324  12.857  68.318  1.00  0.00    -0.157 A  
ENDBRANCH   6   7
ENDBRANCH   3   6
TORSDOF 2
ENDMDL
MODEL       64
REMARK 921   NORMALIZED FREE ENERGY PREDICTED BY IDOCK:   -4.67 KCAL/MOL
REMARK 922        TOTAL FREE ENERGY PREDICTED BY IDOCK:   -5.53 KCAL/MOL
REMARK 923 INTER-LIGAND FREE ENERGY PREDICTED BY IDOCK:   -5.19 KCAL/MOL
REMARK 924 INTRA-LIGAND FREE ENERGY PREDICTED BY IDOCK:   -0.34 KCAL/MOL
REMARK 927      BINDING AFFINITY PREDICTED BY RF-SCORE:    0.00 PKD
ROOT
HETATM    1  C   UNL     1     -10.853  13.449  64.484  1.00  0.00    -0.406 C  
HETATM    2  N   UNL     1     -11.297  12.934  65.826  1.00  0.00    -0.304 N  
HETATM    3  C   UNL     1     -10.265  11.944  66.360  1.00  0.00    -0.209 C  
HETATM    4  O   UNL     1     -12.510  12.314  65.666  1.00  0.00    -0.591 OA 
HETATM    5  C   UNL     1     -11.452  14.105  66.762  1.00  0.00    -0.369 C  
ENDROOT
BRANCH   3   6
HETATM    6  C   UNL     1     -10.669  11.318  67.699  1.00  0.00    -0.270 C  
BRANCH   6   7
HETATM    7  C   UNL     1      -9.520  11.058  68.645  1.00  0.00    -0.197 C  
HETATM    8  C   UNL     1      -9.059   9.832  69.003  1.00  0.00    -0.157 C  
HETATM    9  C   UNL     1      -9.738   8.625  68.469  1.00  0.00    -0.174 A  
HETATM   10  C   UNL     1      -9.694   8.315  67.102  1.00  0.00    -0.255 A  
HETATM   11  C   UNL     1     -10.373   7.203  66.603  1.00  0.00    -0.222 A  
HETATM   12  C   UNL     1     -11.084   6.377  67.469  1.00  0.00    -0.401 A  
HETATM   13  C   UNL     1     -11.110   6.657  68.834  1.00  0.00    -0.312 A  
HETATM   14  C   UNL     1     -10.438   7.777  69.344  1.00  0.00    -0.221 A  
HETATM   15  C   UNL     1     -10.430   8.059  70.824  1.00  0.00    -0.221 C  
HETATM   16  C   UNL     1      -9.037   7.854  71.421  1.00  0.00    -0.163 C  
HETATM   17  C   UNL     1      -7.929   8.834  71.070  1.00  0.00    -0.170 A  
HETATM   18  C   UNL     1      -6.782   8.769  71.892  1.00  0.00    -0.061 A  
HETATM   19  C   UNL     1      -5.675   9.586  71.669  1.00  0.00    -0.052 A  
HETATM   20  C   UNL     1      -5.685  10.479  70.609  1.00  0.00    -0.101 A  
HETATM   21  C   UNL     1      -6.797  10.546  69.772  1.00  0.00    -0.138 A  
HETATM   22  C   UNL     1      -7.938   9.743  69.986  1.00  0.00    -0.196 A  
ENDBRANCH   6   7
ENDBRANCH   3   6
TORSDOF 2
ENDMDL
MODEL       65
REMARK 921   NORMALIZED FREE ENERGY PREDICTED BY IDOCK:   -4.66 KCAL/MOL
REMARK 922        TOTAL FREE ENERGY PREDICTED BY IDOCK:   -5.52 KCAL/MOL
REMARK 923 INTER-LIGAND FREE ENERGY PREDICTED BY IDOCK:   -5.06 KCAL/MOL
REMARK 924 INTRA-LIGAND FREE ENERGY PREDICTED BY IDOCK:   -0.45 KCAL/MOL
REMARK 927      BINDING AFFINITY PREDICTED BY RF-SCORE:    0.00 PKD
ROOT
HETATM    1  C   UNL     1     -12.349  12.801  63.927  1.00  0.00    -0.426 C  
HETATM    2  N   UNL     1     -11.219  12.428  64.847  1.00  0.00    -0.302 N  
HETATM    3  C   UNL     1     -11.738  12.329  66.279  1.00  0.00    -0.366 C  
HETATM    4  O   UNL     1     -10.256  13.401  64.758  1.00  0.00    -0.360 OA 
HETATM    5  C   UNL     1     -10.644  11.112  64.391  1.00  0.00    -0.343 C  
ENDROOT
BRANCH   3   6
HETATM    6  C   UNL     1     -10.636  12.014  67.297  1.00  0.00    -0.252 C  
BRANCH   6   7
HETATM    7  C   UNL     1     -10.882  10.777  68.129  1.00  0.00    -0.284 C  
HETATM    8  C   UNL     1     -10.046   9.711  68.218  1.00  0.00    -0.203 C  
HETATM    9  C   UNL     1      -8.796   9.710  67.417  1.00  0.00    -0.134 A  
HETATM   10  C   UNL     1      -7.765  10.623  67.683  1.00  0.00    -0.097 A  
HETATM   11  C   UNL     1      -6.613  10.644  66.897  1.00  0.00    -0.086 A  
HETATM   12  C   UNL     1      -6.469   9.736  65.852  1.00  0.00    -0.082 A  
HETATM   13  C   UNL     1      -7.473   8.803  65.597  1.00  0.00    -0.085 A  
HETATM   14  C   UNL     1      -8.639   8.780  66.376  1.00  0.00    -0.138 A  
HETATM   15  C   UNL     1      -9.706   7.746  66.129  1.00  0.00    -0.057 C  
HETATM   16  C   UNL     1      -9.784   6.742  67.280  1.00  0.00    -0.175 C  
HETATM   17  C   UNL     1     -10.319   7.201  68.627  1.00  0.00    -0.200 A  
HETATM   18  C   UNL     1     -10.656   6.165  69.528  1.00  0.00    -0.350 A  
HETATM   19  C   UNL     1     -11.129   6.436  70.810  1.00  0.00    -0.365 A  
HETATM   20  C   UNL     1     -11.265   7.751  71.226  1.00  0.00    -0.280 A  
HETATM   21  C   UNL     1     -10.920   8.788  70.363  1.00  0.00    -0.262 A  
HETATM   22  C   UNL     1     -10.454   8.542  69.053  1.00  0.00    -0.216 A  
ENDBRANCH   6   7
ENDBRANCH   3   6
TORSDOF 2
ENDMDL
MODEL       66
REMARK 921   NORMALIZED FREE ENERGY PREDICTED BY IDOCK:   -4.65 KCAL/MOL
REMARK 922        TOTAL FREE ENERGY PREDICTED BY IDOCK:   -5.51 KCAL/MOL
REMARK 923 INTER-LIGAND FREE ENERGY PREDICTED BY IDOCK:   -5.07 KCAL/MOL
REMARK 924 INTRA-LIGAND FREE ENERGY PREDICTED BY IDOCK:   -0.44 KCAL/MOL
REMARK 927      BINDING AFFINITY PREDICTED BY RF-SCORE:    0.00 PKD
ROOT
HETATM    1  C   UNL     1      -9.867   2.491  71.655  1.00  0.00    -0.146 C  
HETATM    2  N   UNL     1      -9.003   3.491  70.937  1.00  0.00    -0.087 N  
HETATM    3  C   UNL     1      -9.887   4.535  70.259  1.00  0.00    -0.229 C  
HETATM    4  O   UNL     1      -8.260   2.819  70.000  1.00  0.00    -0.041 OA 
HETATM    5  C   UNL     1      -8.082   4.136  71.939  1.00  0.00    -0.088 C  
ENDROOT
BRANCH   3   6
HETATM    6  C   UNL     1      -9.090   5.561  69.447  1.00  0.00    -0.134 C  
BRANCH   6   7
HETATM    7  C   UNL     1      -9.824   6.852  69.168  1.00  0.00    -0.156 C  
HETATM    8  C   UNL     1      -9.862   7.929  69.993  1.00  0.00    -0.181 C  
HETATM    9  C   UNL     1      -9.165   7.855  71.302  1.00  0.00    -0.170 A  
HETATM   10  C   UNL     1      -7.768   7.766  71.375  1.00  0.00    -0.082 A  
HETATM   11  C   UNL     1      -7.125   7.652  72.607  1.00  0.00    -0.081 A  
HETATM   12  C   UNL     1      -7.872   7.649  73.782  1.00  0.00    -0.183 A  
HETATM   13  C   UNL     1      -9.260   7.769  73.725  1.00  0.00    -0.316 A  
HETATM   14  C   UNL     1      -9.915   7.875  72.490  1.00  0.00    -0.312 A  
HETATM   15  C   UNL     1     -11.411   8.045  72.427  1.00  0.00    -0.443 C  
HETATM   16  C   UNL     1     -11.790   9.441  71.931  1.00  0.00    -0.402 C  
HETATM   17  C   UNL     1     -11.531   9.806  70.477  1.00  0.00    -0.370 A  
HETATM   18  C   UNL     1     -12.186  10.971  70.021  1.00  0.00    -0.418 A  
HETATM   19  C   UNL     1     -12.016  11.444  68.721  1.00  0.00    -0.353 A  
HETATM   20  C   UNL     1     -11.176  10.768  67.850  1.00  0.00    -0.386 A  
HETATM   21  C   UNL     1     -10.504   9.628  68.285  1.00  0.00    -0.259 A  
HETATM   22  C   UNL     1     -10.671   9.118  69.590  1.00  0.00    -0.236 A  
ENDBRANCH   6   7
ENDBRANCH   3   6
TORSDOF 2
ENDMDL
MODEL       67
REMARK 921   NORMALIZED FREE ENERGY PREDICTED BY IDOCK:   -4.65 KCAL/MOL
REMARK 922        TOTAL FREE ENERGY PREDICTED BY IDOCK:   -5.51 KCAL/MOL
REMARK 923 INTER-LIGAND FREE ENERGY PREDICTED BY IDOCK:   -5.72 KCAL/MOL
REMARK 924 INTRA-LIGAND FREE ENERGY PREDICTED BY IDOCK:    0.21 KCAL/MOL
REMARK 927      BINDING AFFINITY PREDICTED BY RF-SCORE:    0.00 PKD
ROOT
HETATM    1  C   UNL     1     -12.456  11.982  63.378  1.00  0.00    -0.509 C  
HETATM    2  N   UNL     1     -11.636  12.785  64.351  1.00  0.00    -0.339 N  
HETATM    3  C   UNL     1     -12.112  14.236  64.342  1.00  0.00    -0.468 C  
HETATM    4  O   UNL     1     -10.322  12.715  63.963  1.00  0.00    -0.395 OA 
HETATM    5  C   UNL     1     -11.788  12.178  65.721  1.00  0.00    -0.274 C  
ENDROOT
BRANCH   3   6
HETATM    6  C   UNL     1     -11.286  15.143  65.261  1.00  0.00    -0.318 C  
BRANCH   6   7
HETATM    7  C   UNL     1     -11.578  14.979  66.735  1.00  0.00    -0.209 C  
HETATM    8  C   UNL     1     -11.071  15.754  67.727  1.00  0.00    -0.313 C  
HETATM    9  C   UNL     1     -10.120  16.839  67.377  1.00  0.00    -0.276 A  
HETATM   10  C   UNL     1     -10.534  17.952  66.631  1.00  0.00    -0.318 A  
HETATM   11  C   UNL     1      -9.623  18.944  66.268  1.00  0.00    -0.344 A  
HETATM   12  C   UNL     1      -8.293  18.845  66.668  1.00  0.00    -0.304 A  
HETATM   13  C   UNL     1      -7.875  17.759  67.437  1.00  0.00    -0.217 A  
HETATM   14  C   UNL     1      -8.782  16.753  67.798  1.00  0.00    -0.210 A  
HETATM   15  C   UNL     1      -8.343  15.600  68.663  1.00  0.00    -0.177 C  
HETATM   16  C   UNL     1      -8.984  15.672  70.050  1.00  0.00     0.380 C  
HETATM   17  C   UNL     1     -10.475  15.414  70.192  1.00  0.00    -0.291 A  
HETATM   18  C   UNL     1     -10.927  15.185  71.511  1.00  0.00    -0.084 A  
HETATM   19  C   UNL     1     -12.273  14.965  71.796  1.00  0.00    -0.416 A  
HETATM   20  C   UNL     1     -13.202  14.982  70.767  1.00  0.00    -0.397 A  
HETATM   21  C   UNL     1     -12.783  15.227  69.462  1.00  0.00     0.107 A  
HETATM   22  C   UNL     1     -11.424  15.435  69.143  1.00  0.00    -0.344 A  
ENDBRANCH   6   7
ENDBRANCH   3   6
TORSDOF 2
ENDMDL
MODEL       68
REMARK 921   NORMALIZED FREE ENERGY PREDICTED BY IDOCK:   -4.65 KCAL/MOL
REMARK 922        TOTAL FREE ENERGY PREDICTED BY IDOCK:   -5.50 KCAL/MOL
REMARK 923 INTER-LIGAND FREE ENERGY PREDICTED BY IDOCK:   -4.98 KCAL/MOL
REMARK 924 INTRA-LIGAND FREE ENERGY PREDICTED BY IDOCK:   -0.53 KCAL/MOL
REMARK 927      BINDING AFFINITY PREDICTED BY RF-SCORE:    0.00 PKD
ROOT
HETATM    1  C   UNL     1      -8.710   5.065  67.510  1.00  0.00    -0.103 C  
HETATM    2  N   UNL     1      -8.060   6.293  66.935  1.00  0.00    -0.108 N  
HETATM    3  C   UNL     1      -9.022   6.971  65.962  1.00  0.00    -0.107 C  
HETATM    4  O   UNL     1      -6.919   5.906  66.280  1.00  0.00    -0.060 OA 
HETATM    5  C   UNL     1      -7.699   7.219  68.067  1.00  0.00    -0.117 C  
ENDROOT
BRANCH   3   6
HETATM    6  C   UNL     1      -8.415   8.201  65.278  1.00  0.00    -0.157 C  
BRANCH   6   7
HETATM    7  C   UNL     1      -9.392   9.325  65.021  1.00  0.00    -0.196 C  
HETATM    8  C   UNL     1      -9.481  10.470  65.744  1.00  0.00    -0.249 C  
HETATM    9  C   UNL     1      -8.584  10.652  66.913  1.00  0.00    -0.126 A  
HETATM   10  C   UNL     1      -7.198  10.787  66.749  1.00  0.00    -0.128 A  
HETATM   11  C   UNL     1      -6.359  10.912  67.856  1.00  0.00    -0.057 A  
HETATM   12  C   UNL     1      -6.900  10.929  69.138  1.00  0.00    -0.086 A  
HETATM   13  C   UNL     1      -8.279  10.829  69.314  1.00  0.00    -0.087 A  
HETATM   14  C   UNL     1      -9.130  10.693  68.207  1.00  0.00    -0.153 A  
HETATM   15  C   UNL     1     -10.623  10.625  68.392  1.00  0.00    -0.231 C  
HETATM   16  C   UNL     1     -11.307  11.881  67.850  1.00  0.00    -0.358 C  
HETATM   17  C   UNL     1     -11.346  12.114  66.348  1.00  0.00    -0.411 A  
HETATM   18  C   UNL     1     -12.253  13.106  65.913  1.00  0.00    -0.497 A  
HETATM   19  C   UNL     1     -12.373  13.449  64.568  1.00  0.00    -0.415 A  
HETATM   20  C   UNL     1     -11.579  12.814  63.626  1.00  0.00    -0.572 A  
HETATM   21  C   UNL     1     -10.663  11.847  64.034  1.00  0.00    -0.428 A  
HETATM   22  C   UNL     1     -10.533  11.469  65.387  1.00  0.00    -0.333 A  
ENDBRANCH   6   7
ENDBRANCH   3   6
TORSDOF 2
ENDMDL
MODEL       69
REMARK 921   NORMALIZED FREE ENERGY PREDICTED BY IDOCK:   -4.64 KCAL/MOL
REMARK 922        TOTAL FREE ENERGY PREDICTED BY IDOCK:   -5.50 KCAL/MOL
REMARK 923 INTER-LIGAND FREE ENERGY PREDICTED BY IDOCK:   -6.17 KCAL/MOL
REMARK 924 INTRA-LIGAND FREE ENERGY PREDICTED BY IDOCK:    0.67 KCAL/MOL
REMARK 927      BINDING AFFINITY PREDICTED BY RF-SCORE:    0.00 PKD
ROOT
HETATM    1  C   UNL     1      -5.715  14.745  70.269  1.00  0.00    -0.139 C  
HETATM    2  N   UNL     1      -6.163  14.836  68.836  1.00  0.00    -0.084 N  
HETATM    3  C   UNL     1      -6.160  16.298  68.393  1.00  0.00    -0.112 C  
HETATM    4  O   UNL     1      -7.431  14.319  68.751  1.00  0.00    -0.121 OA 
HETATM    5  C   UNL     1      -5.228  14.015  67.988  1.00  0.00    -0.098 C  
ENDROOT
BRANCH   3   6
HETATM    6  C   UNL     1      -6.667  16.491  66.960  1.00  0.00    -0.240 C  
BRANCH   6   7
HETATM    7  C   UNL     1      -7.860  15.639  66.593  1.00  0.00    -0.134 C  
HETATM    8  C   UNL     1      -9.159  16.025  66.680  1.00  0.00    -0.282 C  
HETATM    9  C   UNL     1      -9.471  17.376  67.209  1.00  0.00    -0.251 A  
HETATM   10  C   UNL     1      -9.108  18.532  66.504  1.00  0.00    -0.299 A  
HETATM   11  C   UNL     1      -9.366  19.798  67.030  1.00  0.00    -0.460 A  
HETATM   12  C   UNL     1     -10.013  19.921  68.257  1.00  0.00    -0.552 A  
HETATM   13  C   UNL     1     -10.409  18.780  68.953  1.00  0.00    -0.119 A  
HETATM   14  C   UNL     1     -10.145  17.503  68.436  1.00  0.00    -0.358 A  
HETATM   15  C   UNL     1     -10.608  16.269  69.166  1.00  0.00    -0.292 C  
HETATM   16  C   UNL     1     -11.724  15.557  68.401  1.00  0.00    -0.323 C  
HETATM   17  C   UNL     1     -11.393  14.851  67.096  1.00  0.00    -0.348 A  
HETATM   18  C   UNL     1     -12.384  13.963  66.621  1.00  0.00    -0.411 A  
HETATM   19  C   UNL     1     -12.232  13.271  65.421  1.00  0.00    -0.501 A  
HETATM   20  C   UNL     1     -11.088  13.460  64.662  1.00  0.00    -0.380 A  
HETATM   21  C   UNL     1     -10.106  14.345  65.100  1.00  0.00    -0.359 A  
HETATM   22  C   UNL     1     -10.228  15.047  66.319  1.00  0.00    -0.306 A  
ENDBRANCH   6   7
ENDBRANCH   3   6
TORSDOF 2
ENDMDL
MODEL       70
REMARK 921   NORMALIZED FREE ENERGY PREDICTED BY IDOCK:   -4.64 KCAL/MOL
REMARK 922        TOTAL FREE ENERGY PREDICTED BY IDOCK:   -5.50 KCAL/MOL
REMARK 923 INTER-LIGAND FREE ENERGY PREDICTED BY IDOCK:   -4.99 KCAL/MOL
REMARK 924 INTRA-LIGAND FREE ENERGY PREDICTED BY IDOCK:   -0.51 KCAL/MOL
REMARK 927      BINDING AFFINITY PREDICTED BY RF-SCORE:    0.00 PKD
ROOT
HETATM    1  C   UNL     1     -12.295  13.521  63.101  1.00  0.00     0.097 C  
HETATM    2  N   UNL     1     -12.431  13.013  64.511  1.00  0.00    -0.382 N  
HETATM    3  C   UNL     1     -11.162  12.261  64.906  1.00  0.00    -0.319 C  
HETATM    4  O   UNL     1     -13.513  12.172  64.558  1.00  0.00    -0.614 OA 
HETATM    5  C   UNL     1     -12.667  14.187  65.424  1.00  0.00    -0.431 C  
ENDROOT
BRANCH   3   6
HETATM    6  C   UNL     1     -11.239  11.651  66.309  1.00  0.00    -0.332 C  
BRANCH   6   7
HETATM    7  C   UNL     1      -9.900  11.443  66.980  1.00  0.00    -0.214 C  
HETATM    8  C   UNL     1      -9.312  12.307  67.846  1.00  0.00    -0.190 C  
HETATM    9  C   UNL     1      -9.995  13.588  68.156  1.00  0.00    -0.240 A  
HETATM   10  C   UNL     1     -11.209  13.611  68.856  1.00  0.00    -0.309 A  
HETATM   11  C   UNL     1     -11.866  14.816  69.104  1.00  0.00    -0.340 A  
HETATM   12  C   UNL     1     -11.302  16.015  68.675  1.00  0.00    -0.383 A  
HETATM   13  C   UNL     1     -10.079  16.009  68.005  1.00  0.00    -0.240 A  
HETATM   14  C   UNL     1      -9.416  14.800  67.744  1.00  0.00    -0.204 A  
HETATM   15  C   UNL     1      -8.075  14.794  67.058  1.00  0.00    -0.177 C  
HETATM   16  C   UNL     1      -6.964  14.360  68.015  1.00  0.00    -0.149 C  
HETATM   17  C   UNL     1      -6.909  12.913  68.478  1.00  0.00    -0.095 A  
HETATM   18  C   UNL     1      -5.698  12.520  69.090  1.00  0.00    -0.075 A  
HETATM   19  C   UNL     1      -5.515  11.233  69.592  1.00  0.00    -0.057 A  
HETATM   20  C   UNL     1      -6.547  10.311  69.504  1.00  0.00    -0.066 A  
HETATM   21  C   UNL     1      -7.757  10.682  68.923  1.00  0.00    -0.121 A  
HETATM   22  C   UNL     1      -7.963  11.974  68.392  1.00  0.00    -0.152 A  
ENDBRANCH   6   7
ENDBRANCH   3   6
TORSDOF 2
ENDMDL
MODEL       71
REMARK 921   NORMALIZED FREE ENERGY PREDICTED BY IDOCK:   -4.64 KCAL/MOL
REMARK 922        TOTAL FREE ENERGY PREDICTED BY IDOCK:   -5.50 KCAL/MOL
REMARK 923 INTER-LIGAND FREE ENERGY PREDICTED BY IDOCK:   -5.01 KCAL/MOL
REMARK 924 INTRA-LIGAND FREE ENERGY PREDICTED BY IDOCK:   -0.49 KCAL/MOL
REMARK 927      BINDING AFFINITY PREDICTED BY RF-SCORE:    0.00 PKD
ROOT
HETATM    1  C   UNL     1      -5.629   7.875  67.787  1.00  0.00    -0.037 C  
HETATM    2  N   UNL     1      -6.112   8.288  69.150  1.00  0.00    -0.038 N  
HETATM    3  C   UNL     1      -7.431   9.045  69.016  1.00  0.00    -0.074 C  
HETATM    4  O   UNL     1      -5.158   9.096  69.714  1.00  0.00    -0.033 OA 
HETATM    5  C   UNL     1      -6.285   7.052  69.993  1.00  0.00    -0.031 C  
ENDROOT
BRANCH   3   6
HETATM    6  C   UNL     1      -7.965   9.562  70.357  1.00  0.00    -0.200 C  
BRANCH   6   7
HETATM    7  C   UNL     1      -9.454   9.387  70.551  1.00  0.00    -0.327 C  
HETATM    8  C   UNL     1     -10.037   8.560  71.456  1.00  0.00    -0.315 C  
HETATM    9  C   UNL     1      -9.172   7.715  72.318  1.00  0.00    -0.189 A  
HETATM   10  C   UNL     1      -8.333   8.288  73.284  1.00  0.00    -0.251 A  
HETATM   11  C   UNL     1      -7.491   7.490  74.059  1.00  0.00    -0.141 A  
HETATM   12  C   UNL     1      -7.497   6.108  73.891  1.00  0.00    -0.091 A  
HETATM   13  C   UNL     1      -8.350   5.523  72.956  1.00  0.00    -0.119 A  
HETATM   14  C   UNL     1      -9.193   6.319  72.166  1.00  0.00    -0.144 A  
HETATM   15  C   UNL     1     -10.144   5.687  71.184  1.00  0.00    -0.262 C  
HETATM   16  C   UNL     1     -11.597   5.859  71.629  1.00  0.00    -0.186 C  
HETATM   17  C   UNL     1     -12.226   7.243  71.587  1.00  0.00    -0.377 A  
HETATM   18  C   UNL     1     -13.634   7.271  71.704  1.00  0.00    -0.435 A  
HETATM   19  C   UNL     1     -14.343   8.470  71.714  1.00  0.00    -0.522 A  
HETATM   20  C   UNL     1     -13.658   9.671  71.619  1.00  0.00    -0.402 A  
HETATM   21  C   UNL     1     -12.269   9.669  71.523  1.00  0.00    -0.483 A  
HETATM   22  C   UNL     1     -11.527   8.469  71.494  1.00  0.00    -0.350 A  
ENDBRANCH   6   7
ENDBRANCH   3   6
TORSDOF 2
ENDMDL
MODEL       72
REMARK 921   NORMALIZED FREE ENERGY PREDICTED BY IDOCK:   -4.62 KCAL/MOL
REMARK 922        TOTAL FREE ENERGY PREDICTED BY IDOCK:   -5.47 KCAL/MOL
REMARK 923 INTER-LIGAND FREE ENERGY PREDICTED BY IDOCK:   -5.24 KCAL/MOL
REMARK 924 INTRA-LIGAND FREE ENERGY PREDICTED BY IDOCK:   -0.23 KCAL/MOL
REMARK 927      BINDING AFFINITY PREDICTED BY RF-SCORE:    0.00 PKD
ROOT
HETATM    1  C   UNL     1      -8.080  10.773  65.725  1.00  0.00    -0.135 C  
HETATM    2  N   UNL     1      -8.150  10.027  67.029  1.00  0.00    -0.116 N  
HETATM    3  C   UNL     1      -8.558  10.988  68.144  1.00  0.00    -0.140 C  
HETATM    4  O   UNL     1      -6.910   9.501  67.288  1.00  0.00    -0.081 OA 
HETATM    5  C   UNL     1      -9.151   8.910  66.889  1.00  0.00    -0.133 C  
ENDROOT
BRANCH   3   6
HETATM    6  C   UNL     1      -8.592  10.324  69.525  1.00  0.00    -0.153 C  
BRANCH   6   7
HETATM    7  C   UNL     1      -9.977   9.987  70.028  1.00  0.00    -0.273 C  
HETATM    8  C   UNL     1     -10.285   8.953  70.850  1.00  0.00    -0.304 C  
HETATM    9  C   UNL     1      -9.203   8.033  71.283  1.00  0.00    -0.180 A  
HETATM   10  C   UNL     1      -8.168   8.475  72.120  1.00  0.00    -0.175 A  
HETATM   11  C   UNL     1      -7.132   7.616  72.484  1.00  0.00    -0.078 A  
HETATM   12  C   UNL     1      -7.132   6.298  72.036  1.00  0.00    -0.082 A  
HETATM   13  C   UNL     1      -8.171   5.837  71.229  1.00  0.00    -0.122 A  
HETATM   14  C   UNL     1      -9.213   6.697  70.850  1.00  0.00    -0.157 A  
HETATM   15  C   UNL     1     -10.358   6.190  70.013  1.00  0.00    -0.267 C  
HETATM   16  C   UNL     1     -11.658   6.146  70.818  1.00  0.00    -0.257 C  
HETATM   17  C   UNL     1     -12.324   7.453  71.220  1.00  0.00    -0.380 A  
HETATM   18  C   UNL     1     -13.657   7.337  71.673  1.00  0.00    -0.435 A  
HETATM   19  C   UNL     1     -14.383   8.446  72.104  1.00  0.00    -0.520 A  
HETATM   20  C   UNL     1     -13.786   9.696  72.103  1.00  0.00    -0.399 A  
HETATM   21  C   UNL     1     -12.465   9.832  71.681  1.00  0.00    -0.500 A  
HETATM   22  C   UNL     1     -11.714   8.728  71.223  1.00  0.00    -0.356 A  
ENDBRANCH   6   7
ENDBRANCH   3   6
TORSDOF 2
ENDMDL
MODEL       73
REMARK 921   NORMALIZED FREE ENERGY PREDICTED BY IDOCK:   -4.61 KCAL/MOL
REMARK 922        TOTAL FREE ENERGY PREDICTED BY IDOCK:   -5.47 KCAL/MOL
REMARK 923 INTER-LIGAND FREE ENERGY PREDICTED BY IDOCK:   -5.11 KCAL/MOL
REMARK 924 INTRA-LIGAND FREE ENERGY PREDICTED BY IDOCK:   -0.35 KCAL/MOL
REMARK 927      BINDING AFFINITY PREDICTED BY RF-SCORE:    0.00 PKD
ROOT
HETATM    1  C   UNL     1     -11.085  14.481  65.777  1.00  0.00    -0.324 C  
HETATM    2  N   UNL     1     -11.091  13.522  66.936  1.00  0.00    -0.292 N  
HETATM    3  C   UNL     1      -9.659  13.293  67.415  1.00  0.00    -0.223 C  
HETATM    4  O   UNL     1     -11.642  12.340  66.509  1.00  0.00    -0.363 OA 
HETATM    5  C   UNL     1     -11.940  14.103  68.035  1.00  0.00    -0.337 C  
ENDROOT
BRANCH   3   6
HETATM    6  C   UNL     1      -9.564  12.275  68.557  1.00  0.00    -0.128 C  
BRANCH   6   7
HETATM    7  C   UNL     1      -9.252  10.863  68.118  1.00  0.00    -0.158 C  
HETATM    8  C   UNL     1      -9.868   9.744  68.575  1.00  0.00    -0.169 C  
HETATM    9  C   UNL     1     -10.914   9.876  69.620  1.00  0.00    -0.285 A  
HETATM   10  C   UNL     1     -12.133  10.513  69.348  1.00  0.00    -0.175 A  
HETATM   11  C   UNL     1     -13.092  10.672  70.348  1.00  0.00    -0.099 A  
HETATM   12  C   UNL     1     -12.852  10.173  71.626  1.00  0.00    -0.559 A  
HETATM   13  C   UNL     1     -11.657   9.509  71.901  1.00  0.00    -0.268 A  
HETATM   14  C   UNL     1     -10.683   9.353  70.904  1.00  0.00    -0.393 A  
HETATM   15  C   UNL     1      -9.409   8.601  71.187  1.00  0.00    -0.274 C  
HETATM   16  C   UNL     1      -9.365   7.276  70.424  1.00  0.00    -0.158 C  
HETATM   17  C   UNL     1      -9.201   7.297  68.913  1.00  0.00    -0.141 A  
HETATM   18  C   UNL     1      -8.854   6.060  68.325  1.00  0.00    -0.111 A  
HETATM   19  C   UNL     1      -8.701   5.921  66.947  1.00  0.00    -0.111 A  
HETATM   20  C   UNL     1      -8.904   7.017  66.123  1.00  0.00    -0.165 A  
HETATM   21  C   UNL     1      -9.268   8.242  66.677  1.00  0.00    -0.224 A  
HETATM   22  C   UNL     1      -9.413   8.413  68.071  1.00  0.00    -0.157 A  
ENDBRANCH   6   7
ENDBRANCH   3   6
TORSDOF 2
ENDMDL
MODEL       74
REMARK 921   NORMALIZED FREE ENERGY PREDICTED BY IDOCK:   -4.61 KCAL/MOL
REMARK 922        TOTAL FREE ENERGY PREDICTED BY IDOCK:   -5.46 KCAL/MOL
REMARK 923 INTER-LIGAND FREE ENERGY PREDICTED BY IDOCK:   -5.11 KCAL/MOL
REMARK 924 INTRA-LIGAND FREE ENERGY PREDICTED BY IDOCK:   -0.36 KCAL/MOL
REMARK 927      BINDING AFFINITY PREDICTED BY RF-SCORE:    0.00 PKD
ROOT
HETATM    1  C   UNL     1      -8.110   5.128  73.630  1.00  0.00    -0.110 C  
HETATM    2  N   UNL     1      -8.363   6.611  73.601  1.00  0.00    -0.113 N  
HETATM    3  C   UNL     1      -8.051   7.154  72.208  1.00  0.00    -0.097 C  
HETATM    4  O   UNL     1      -7.547   7.201  74.533  1.00  0.00    -0.115 OA 
HETATM    5  C   UNL     1      -9.803   6.859  73.966  1.00  0.00    -0.320 C  
ENDROOT
BRANCH   3   6
HETATM    6  C   UNL     1      -8.220   8.674  72.106  1.00  0.00    -0.129 C  
BRANCH   6   7
HETATM    7  C   UNL     1      -8.363   9.198  70.695  1.00  0.00    -0.239 C  
HETATM    8  C   UNL     1      -9.508   9.193  69.967  1.00  0.00    -0.218 C  
HETATM    9  C   UNL     1     -10.732   8.598  70.559  1.00  0.00    -0.252 A  
HETATM   10  C   UNL     1     -11.362   9.187  71.664  1.00  0.00    -0.446 A  
HETATM   11  C   UNL     1     -12.486   8.596  72.241  1.00  0.00    -0.460 A  
HETATM   12  C   UNL     1     -13.007   7.423  71.704  1.00  0.00    -0.409 A  
HETATM   13  C   UNL     1     -12.410   6.844  70.584  1.00  0.00    -0.248 A  
HETATM   14  C   UNL     1     -11.273   7.426  70.004  1.00  0.00    -0.200 A  
HETATM   15  C   UNL     1     -10.650   6.826  68.770  1.00  0.00    -0.258 C  
HETATM   16  C   UNL     1     -10.847   7.730  67.553  1.00  0.00    -0.182 C  
HETATM   17  C   UNL     1     -10.095   9.050  67.481  1.00  0.00    -0.285 A  
HETATM   18  C   UNL     1     -10.078   9.667  66.211  1.00  0.00    -0.322 A  
HETATM   19  C   UNL     1      -9.454  10.896  66.002  1.00  0.00    -0.235 A  
HETATM   20  C   UNL     1      -8.842  11.541  67.065  1.00  0.00    -0.173 A  
HETATM   21  C   UNL     1      -8.864  10.961  68.332  1.00  0.00    -0.147 A  
HETATM   22  C   UNL     1      -9.474   9.710  68.566  1.00  0.00    -0.145 A  
ENDBRANCH   6   7
ENDBRANCH   3   6
TORSDOF 2
ENDMDL
MODEL       75
REMARK 921   NORMALIZED FREE ENERGY PREDICTED BY IDOCK:   -4.61 KCAL/MOL
REMARK 922        TOTAL FREE ENERGY PREDICTED BY IDOCK:   -5.46 KCAL/MOL
REMARK 923 INTER-LIGAND FREE ENERGY PREDICTED BY IDOCK:   -5.13 KCAL/MOL
REMARK 924 INTRA-LIGAND FREE ENERGY PREDICTED BY IDOCK:   -0.34 KCAL/MOL
REMARK 927      BINDING AFFINITY PREDICTED BY RF-SCORE:    0.00 PKD
ROOT
HETATM    1  C   UNL     1     -10.425  16.995  67.261  1.00  0.00    -0.301 C  
HETATM    2  N   UNL     1      -9.776  15.932  68.103  1.00  0.00    -0.211 N  
HETATM    3  C   UNL     1     -10.275  14.557  67.664  1.00  0.00    -0.225 C  
HETATM    4  O   UNL     1     -10.111  16.161  69.413  1.00  0.00    -0.238 OA 
HETATM    5  C   UNL     1      -8.282  16.037  67.941  1.00  0.00    -0.148 C  
ENDROOT
BRANCH   3   6
HETATM    6  C   UNL     1      -9.712  13.414  68.515  1.00  0.00    -0.156 C  
BRANCH   6   7
HETATM    7  C   UNL     1      -9.334  12.176  67.735  1.00  0.00    -0.193 C  
HETATM    8  C   UNL     1      -9.796  10.923  67.977  1.00  0.00    -0.185 C  
HETATM    9  C   UNL     1     -10.723  10.707  69.116  1.00  0.00    -0.264 A  
HETATM   10  C   UNL     1     -12.015  11.253  69.111  1.00  0.00    -0.405 A  
HETATM   11  C   UNL     1     -12.863  11.082  70.205  1.00  0.00    -0.178 A  
HETATM   12  C   UNL     1     -12.437  10.344  71.306  1.00  0.00    -0.521 A  
HETATM   13  C   UNL     1     -11.167   9.769  71.309  1.00  0.00    -0.417 A  
HETATM   14  C   UNL     1     -10.304   9.943  70.217  1.00  0.00    -0.339 A  
HETATM   15  C   UNL     1      -8.947   9.289  70.201  1.00  0.00    -0.239 C  
HETATM   16  C   UNL     1      -8.879   8.178  69.153  1.00  0.00    -0.144 C  
HETATM   17  C   UNL     1      -8.891   8.549  67.678  1.00  0.00    -0.138 A  
HETATM   18  C   UNL     1      -8.509   7.517  66.792  1.00  0.00    -0.124 A  
HETATM   19  C   UNL     1      -8.504   7.703  65.411  1.00  0.00    -0.110 A  
HETATM   20  C   UNL     1      -8.892   8.924  64.883  1.00  0.00    -0.161 A  
HETATM   21  C   UNL     1      -9.292   9.950  65.737  1.00  0.00    -0.259 A  
HETATM   22  C   UNL     1      -9.291   9.794  67.140  1.00  0.00    -0.169 A  
ENDBRANCH   6   7
ENDBRANCH   3   6
TORSDOF 2
ENDMDL
MODEL       76
REMARK 921   NORMALIZED FREE ENERGY PREDICTED BY IDOCK:   -4.60 KCAL/MOL
REMARK 922        TOTAL FREE ENERGY PREDICTED BY IDOCK:   -5.45 KCAL/MOL
REMARK 923 INTER-LIGAND FREE ENERGY PREDICTED BY IDOCK:   -5.23 KCAL/MOL
REMARK 924 INTRA-LIGAND FREE ENERGY PREDICTED BY IDOCK:   -0.22 KCAL/MOL
REMARK 927      BINDING AFFINITY PREDICTED BY RF-SCORE:    0.00 PKD
ROOT
HETATM    1  C   UNL     1      -6.897   7.973  66.199  1.00  0.00    -0.058 C  
HETATM    2  N   UNL     1      -7.882   7.531  67.246  1.00  0.00    -0.115 N  
HETATM    3  C   UNL     1      -9.300   7.645  66.691  1.00  0.00    -0.190 C  
HETATM    4  O   UNL     1      -7.736   8.343  68.341  1.00  0.00    -0.101 OA 
HETATM    5  C   UNL     1      -7.568   6.109  67.630  1.00  0.00    -0.097 C  
ENDROOT
BRANCH   3   6
HETATM    6  C   UNL     1     -10.377   7.273  67.717  1.00  0.00    -0.267 C  
BRANCH   6   7
HETATM    7  C   UNL     1     -10.978   8.449  68.453  1.00  0.00     0.164 C  
HETATM    8  C   UNL     1     -11.096   8.555  69.800  1.00  0.00    -0.067 C  
HETATM    9  C   UNL     1     -10.641   7.428  70.652  1.00  0.00    -0.234 A  
HETATM   10  C   UNL     1      -9.284   7.084  70.733  1.00  0.00    -0.157 A  
HETATM   11  C   UNL     1      -8.871   5.995  71.501  1.00  0.00    -0.139 A  
HETATM   12  C   UNL     1      -9.808   5.254  72.215  1.00  0.00    -0.209 A  
HETATM   13  C   UNL     1     -11.156   5.605  72.169  1.00  0.00    -0.300 A  
HETATM   14  C   UNL     1     -11.582   6.693  71.392  1.00  0.00    -0.362 A  
HETATM   15  C   UNL     1     -13.032   7.100  71.373  1.00  0.00    -0.419 C  
HETATM   16  C   UNL     1     -13.241   8.445  72.069  1.00  0.00    -0.372 C  
HETATM   17  C   UNL     1     -12.715   9.710  71.410  1.00  0.00    -0.466 A  
HETATM   18  C   UNL     1     -13.215  10.920  71.940  1.00  0.00    -0.508 A  
HETATM   19  C   UNL     1     -12.798  12.159  71.456  1.00  0.00    -0.394 A  
HETATM   20  C   UNL     1     -11.860  12.215  70.437  1.00  0.00    -0.277 A  
HETATM   21  C   UNL     1     -11.337  11.035  69.913  1.00  0.00    -0.364 A  
HETATM   22  C   UNL     1     -11.755   9.767  70.373  1.00  0.00    -0.301 A  
ENDBRANCH   6   7
ENDBRANCH   3   6
TORSDOF 2
ENDMDL
MODEL       77
REMARK 921   NORMALIZED FREE ENERGY PREDICTED BY IDOCK:   -4.59 KCAL/MOL
REMARK 922        TOTAL FREE ENERGY PREDICTED BY IDOCK:   -5.44 KCAL/MOL
REMARK 923 INTER-LIGAND FREE ENERGY PREDICTED BY IDOCK:   -5.80 KCAL/MOL
REMARK 924 INTRA-LIGAND FREE ENERGY PREDICTED BY IDOCK:    0.36 KCAL/MOL
REMARK 927      BINDING AFFINITY PREDICTED BY RF-SCORE:    0.00 PKD
ROOT
HETATM    1  C   UNL     1     -10.967  11.297  62.766  1.00  0.00     0.617 C  
HETATM    2  N   UNL     1     -11.006  11.870  64.156  1.00  0.00    -0.340 N  
HETATM    3  C   UNL     1     -12.418  12.365  64.464  1.00  0.00    -0.435 C  
HETATM    4  O   UNL     1     -10.116  12.912  64.214  1.00  0.00    -0.339 OA 
HETATM    5  C   UNL     1     -10.588  10.798  65.129  1.00  0.00    -0.169 C  
ENDROOT
BRANCH   3   6
HETATM    6  C   UNL     1     -12.535  13.025  65.842  1.00  0.00    -0.323 C  
BRANCH   6   7
HETATM    7  C   UNL     1     -11.494  14.084  66.123  1.00  0.00    -0.350 C  
HETATM    8  C   UNL     1     -10.952  14.351  67.339  1.00  0.00    -0.303 C  
HETATM    9  C   UNL     1     -11.424  13.583  68.519  1.00  0.00    -0.345 A  
HETATM   10  C   UNL     1     -11.173  12.208  68.636  1.00  0.00    -0.318 A  
HETATM   11  C   UNL     1     -11.659  11.486  69.726  1.00  0.00    -0.401 A  
HETATM   12  C   UNL     1     -12.381  12.137  70.723  1.00  0.00    -0.391 A  
HETATM   13  C   UNL     1     -12.610  13.509  70.635  1.00  0.00    -0.345 A  
HETATM   14  C   UNL     1     -12.133  14.241  69.537  1.00  0.00    -0.376 A  
HETATM   15  C   UNL     1     -12.344  15.731  69.460  1.00  0.00    -0.084 C  
HETATM   16  C   UNL     1     -11.024  16.487  69.617  1.00  0.00    -0.287 C  
HETATM   17  C   UNL     1      -9.993  16.417  68.502  1.00  0.00    -0.239 A  
HETATM   18  C   UNL     1      -8.959  17.377  68.574  1.00  0.00    -0.276 A  
HETATM   19  C   UNL     1      -7.927  17.413  67.638  1.00  0.00    -0.199 A  
HETATM   20  C   UNL     1      -7.899  16.479  66.614  1.00  0.00    -0.321 A  
HETATM   21  C   UNL     1      -8.896  15.510  66.535  1.00  0.00    -0.348 A  
HETATM   22  C   UNL     1      -9.962  15.462  67.459  1.00  0.00    -0.226 A  
ENDBRANCH   6   7
ENDBRANCH   3   6
TORSDOF 2
ENDMDL
MODEL       78
REMARK 921   NORMALIZED FREE ENERGY PREDICTED BY IDOCK:   -4.56 KCAL/MOL
REMARK 922        TOTAL FREE ENERGY PREDICTED BY IDOCK:   -5.41 KCAL/MOL
REMARK 923 INTER-LIGAND FREE ENERGY PREDICTED BY IDOCK:   -6.53 KCAL/MOL
REMARK 924 INTRA-LIGAND FREE ENERGY PREDICTED BY IDOCK:    1.12 KCAL/MOL
REMARK 927      BINDING AFFINITY PREDICTED BY RF-SCORE:    0.00 PKD
ROOT
HETATM    1  C   UNL     1     -12.418  10.486  70.678  1.00  0.00    -0.366 C  
HETATM    2  N   UNL     1     -11.656  11.032  69.502  1.00  0.00    -0.282 N  
HETATM    3  C   UNL     1     -11.430  12.530  69.693  1.00  0.00    -0.185 C  
HETATM    4  O   UNL     1     -12.397  10.806  68.371  1.00  0.00    -0.396 OA 
HETATM    5  C   UNL     1     -10.344  10.300  69.397  1.00  0.00    -0.235 C  
ENDROOT
BRANCH   3   6
HETATM    6  C   UNL     1     -10.714  13.185  68.507  1.00  0.00    -0.277 C  
BRANCH   6   7
HETATM    7  C   UNL     1     -10.117  12.212  67.516  1.00  0.00    -0.204 C  
HETATM    8  C   UNL     1      -9.991  12.427  66.182  1.00  0.00    -0.267 C  
HETATM    9  C   UNL     1     -10.505  13.695  65.607  1.00  0.00    -0.304 A  
HETATM   10  C   UNL     1      -9.915  14.926  65.926  1.00  0.00    -0.357 A  
HETATM   11  C   UNL     1     -10.433  16.117  65.417  1.00  0.00    -0.396 A  
HETATM   12  C   UNL     1     -11.532  16.087  64.563  1.00  0.00    -0.274 A  
HETATM   13  C   UNL     1     -12.109  14.867  64.213  1.00  0.00    -0.373 A  
HETATM   14  C   UNL     1     -11.601  13.666  64.728  1.00  0.00    -0.374 A  
HETATM   15  C   UNL     1     -12.196  12.344  64.318  1.00  0.00    -0.538 C  
HETATM   16  C   UNL     1     -11.224  11.542  63.451  1.00  0.00    -0.342 C  
HETATM   17  C   UNL     1      -9.972  10.959  64.087  1.00  0.00    -0.403 A  
HETATM   18  C   UNL     1      -9.302   9.983  63.316  1.00  0.00    -0.296 A  
HETATM   19  C   UNL     1      -8.123   9.385  63.758  1.00  0.00    -0.155 A  
HETATM   20  C   UNL     1      -7.580   9.759  64.977  1.00  0.00    -0.127 A  
HETATM   21  C   UNL     1      -8.213  10.735  65.744  1.00  0.00    -0.146 A  
HETATM   22  C   UNL     1      -9.416  11.344  65.329  1.00  0.00    -0.233 A  
ENDBRANCH   6   7
ENDBRANCH   3   6
TORSDOF 2
ENDMDL
MODEL       79
REMARK 921   NORMALIZED FREE ENERGY PREDICTED BY IDOCK:   -4.54 KCAL/MOL
REMARK 922        TOTAL FREE ENERGY PREDICTED BY IDOCK:   -5.38 KCAL/MOL
REMARK 923 INTER-LIGAND FREE ENERGY PREDICTED BY IDOCK:   -4.88 KCAL/MOL
REMARK 924 INTRA-LIGAND FREE ENERGY PREDICTED BY IDOCK:   -0.51 KCAL/MOL
REMARK 927      BINDING AFFINITY PREDICTED BY RF-SCORE:    0.00 PKD
ROOT
HETATM    1  C   UNL     1     -10.953  12.101  64.941  1.00  0.00    -0.309 C  
HETATM    2  N   UNL     1     -10.125  12.085  66.196  1.00  0.00    -0.220 N  
HETATM    3  C   UNL     1     -10.918  11.424  67.321  1.00  0.00    -0.282 C  
HETATM    4  O   UNL     1      -9.824  13.381  66.527  1.00  0.00    -0.271 OA 
HETATM    5  C   UNL     1      -8.851  11.329  65.920  1.00  0.00    -0.169 C  
ENDROOT
BRANCH   3   6
HETATM    6  C   UNL     1     -10.172  11.422  68.660  1.00  0.00    -0.217 C  
BRANCH   6   7
HETATM    7  C   UNL     1     -10.573  10.311  69.603  1.00  0.00    -0.288 C  
HETATM    8  C   UNL     1      -9.938   9.118  69.728  1.00  0.00    -0.204 C  
HETATM    9  C   UNL     1      -8.770   8.832  68.858  1.00  0.00    -0.134 A  
HETATM   10  C   UNL     1      -7.576   9.555  68.987  1.00  0.00    -0.075 A  
HETATM   11  C   UNL     1      -6.499   9.310  68.135  1.00  0.00    -0.058 A  
HETATM   12  C   UNL     1      -6.597   8.321  67.160  1.00  0.00    -0.058 A  
HETATM   13  C   UNL     1      -7.768   7.573  67.041  1.00  0.00    -0.111 A  
HETATM   14  C   UNL     1      -8.858   7.819  67.888  1.00  0.00    -0.123 A  
HETATM   15  C   UNL     1     -10.109   6.985  67.789  1.00  0.00    -0.205 C  
HETATM   16  C   UNL     1     -10.281   6.094  69.021  1.00  0.00    -0.237 C  
HETATM   17  C   UNL     1     -10.625   6.735  70.356  1.00  0.00    -0.262 A  
HETATM   18  C   UNL     1     -11.075   5.844  71.356  1.00  0.00    -0.313 A  
HETATM   19  C   UNL     1     -11.397   6.285  72.638  1.00  0.00    -0.283 A  
HETATM   20  C   UNL     1     -11.264   7.628  72.953  1.00  0.00    -0.426 A  
HETATM   21  C   UNL     1     -10.803   8.522  71.990  1.00  0.00    -0.405 A  
HETATM   22  C   UNL     1     -10.487   8.105  70.679  1.00  0.00    -0.224 A  
ENDBRANCH   6   7
ENDBRANCH   3   6
TORSDOF 2
ENDMDL
MODEL       80
REMARK 921   NORMALIZED FREE ENERGY PREDICTED BY IDOCK:   -4.53 KCAL/MOL
REMARK 922        TOTAL FREE ENERGY PREDICTED BY IDOCK:   -5.37 KCAL/MOL
REMARK 923 INTER-LIGAND FREE ENERGY PREDICTED BY IDOCK:   -5.10 KCAL/MOL
REMARK 924 INTRA-LIGAND FREE ENERGY PREDICTED BY IDOCK:   -0.27 KCAL/MOL
REMARK 927      BINDING AFFINITY PREDICTED BY RF-SCORE:    0.00 PKD
ROOT
HETATM    1  C   UNL     1     -10.678  19.428  66.584  1.00  0.00    -0.429 C  
HETATM    2  N   UNL     1      -9.679  18.310  66.705  1.00  0.00    -0.323 N  
HETATM    3  C   UNL     1     -10.156  17.110  65.889  1.00  0.00    -0.240 C  
HETATM    4  O   UNL     1      -9.575  17.970  68.030  1.00  0.00    -0.276 OA 
HETATM    5  C   UNL     1      -8.345  18.802  66.207  1.00  0.00    -0.246 C  
ENDROOT
BRANCH   3   6
HETATM    6  C   UNL     1      -9.227  15.897  66.007  1.00  0.00    -0.372 C  
BRANCH   6   7
HETATM    7  C   UNL     1      -9.833  14.706  66.713  1.00  0.00    -0.262 C  
HETATM    8  C   UNL     1      -9.246  14.005  67.716  1.00  0.00    -0.195 C  
HETATM    9  C   UNL     1      -7.882  14.389  68.158  1.00  0.00    -0.138 A  
HETATM   10  C   UNL     1      -7.645  15.618  68.791  1.00  0.00    -0.162 A  
HETATM   11  C   UNL     1      -6.353  15.990  69.162  1.00  0.00    -0.151 A  
HETATM   12  C   UNL     1      -5.287  15.126  68.926  1.00  0.00    -0.095 A  
HETATM   13  C   UNL     1      -5.513  13.887  68.327  1.00  0.00    -0.111 A  
HETATM   14  C   UNL     1      -6.808  13.509  67.942  1.00  0.00    -0.151 A  
HETATM   15  C   UNL     1      -7.062  12.156  67.333  1.00  0.00    -0.146 C  
HETATM   16  C   UNL     1      -7.863  11.261  68.280  1.00  0.00    -0.130 C  
HETATM   17  C   UNL     1      -9.323  11.587  68.548  1.00  0.00    -0.171 A  
HETATM   18  C   UNL     1     -10.069  10.558  69.165  1.00  0.00    -0.240 A  
HETATM   19  C   UNL     1     -11.411  10.726  69.500  1.00  0.00    -0.365 A  
HETATM   20  C   UNL     1     -12.036  11.935  69.236  1.00  0.00    -0.342 A  
HETATM   21  C   UNL     1     -11.315  12.972  68.647  1.00  0.00    -0.329 A  
HETATM   22  C   UNL     1      -9.960  12.822  68.283  1.00  0.00    -0.230 A  
ENDBRANCH   6   7
ENDBRANCH   3   6
TORSDOF 2
ENDMDL
MODEL       81
REMARK 921   NORMALIZED FREE ENERGY PREDICTED BY IDOCK:   -4.52 KCAL/MOL
REMARK 922        TOTAL FREE ENERGY PREDICTED BY IDOCK:   -5.37 KCAL/MOL
REMARK 923 INTER-LIGAND FREE ENERGY PREDICTED BY IDOCK:   -5.37 KCAL/MOL
REMARK 924 INTRA-LIGAND FREE ENERGY PREDICTED BY IDOCK:    0.01 KCAL/MOL
REMARK 927      BINDING AFFINITY PREDICTED BY RF-SCORE:    0.00 PKD
ROOT
HETATM    1  C   UNL     1      -9.006   7.354  65.397  1.00  0.00     0.198 C  
HETATM    2  N   UNL     1      -8.914   8.849  65.535  1.00  0.00    -0.200 N  
HETATM    3  C   UNL     1      -9.959   9.333  66.538  1.00  0.00    -0.274 C  
HETATM    4  O   UNL     1      -9.145   9.407  64.304  1.00  0.00    -0.214 OA 
HETATM    5  C   UNL     1      -7.524   9.204  65.994  1.00  0.00    -0.095 C  
ENDROOT
BRANCH   3   6
HETATM    6  C   UNL     1      -9.981  10.858  66.693  1.00  0.00    -0.250 C  
BRANCH   6   7
HETATM    7  C   UNL     1     -10.869  11.366  67.806  1.00  0.00    -0.281 C  
HETATM    8  C   UNL     1     -10.714  11.085  69.125  1.00  0.00    -0.274 C  
HETATM    9  C   UNL     1      -9.615  10.179  69.542  1.00  0.00    -0.243 A  
HETATM   10  C   UNL     1      -8.272  10.557  69.398  1.00  0.00    -0.128 A  
HETATM   11  C   UNL     1      -7.245   9.681  69.751  1.00  0.00    -0.094 A  
HETATM   12  C   UNL     1      -7.550   8.428  70.275  1.00  0.00    -0.068 A  
HETATM   13  C   UNL     1      -8.882   8.053  70.453  1.00  0.00    -0.141 A  
HETATM   14  C   UNL     1      -9.921   8.923  70.092  1.00  0.00    -0.207 A  
HETATM   15  C   UNL     1     -11.358   8.537  70.321  1.00  0.00    -0.135 C  
HETATM   16  C   UNL     1     -11.995   9.393  71.417  1.00  0.00    -0.446 C  
HETATM   17  C   UNL     1     -12.270  10.863  71.142  1.00  0.00    -0.441 A  
HETATM   18  C   UNL     1     -13.133  11.498  72.063  1.00  0.00    -0.430 A  
HETATM   19  C   UNL     1     -13.450  12.851  71.956  1.00  0.00    -0.568 A  
HETATM   20  C   UNL     1     -12.900  13.603  70.931  1.00  0.00    -0.321 A  
HETATM   21  C   UNL     1     -12.029  13.003  70.023  1.00  0.00    -0.383 A  
HETATM   22  C   UNL     1     -11.705  11.632  70.099  1.00  0.00    -0.381 A  
ENDBRANCH   6   7
ENDBRANCH   3   6
TORSDOF 2
ENDMDL
MODEL       82
REMARK 921   NORMALIZED FREE ENERGY PREDICTED BY IDOCK:   -4.52 KCAL/MOL
REMARK 922        TOTAL FREE ENERGY PREDICTED BY IDOCK:   -5.36 KCAL/MOL
REMARK 923 INTER-LIGAND FREE ENERGY PREDICTED BY IDOCK:   -5.66 KCAL/MOL
REMARK 924 INTRA-LIGAND FREE ENERGY PREDICTED BY IDOCK:    0.30 KCAL/MOL
REMARK 927      BINDING AFFINITY PREDICTED BY RF-SCORE:    0.00 PKD
ROOT
HETATM    1  C   UNL     1      -5.405  13.971  68.317  1.00  0.00    -0.112 C  
HETATM    2  N   UNL     1      -6.859  13.732  68.010  1.00  0.00    -0.121 N  
HETATM    3  C   UNL     1      -7.090  12.243  67.765  1.00  0.00    -0.114 C  
HETATM    4  O   UNL     1      -7.183  14.453  66.889  1.00  0.00     0.067 OA 
HETATM    5  C   UNL     1      -7.681  14.219  69.175  1.00  0.00    -0.011 C  
ENDROOT
BRANCH   3   6
HETATM    6  C   UNL     1      -8.537  11.916  67.381  1.00  0.00    -0.164 C  
BRANCH   6   7
HETATM    7  C   UNL     1      -9.548  12.147  68.480  1.00  0.00    -0.137 C  
HETATM    8  C   UNL     1     -10.746  12.766  68.328  1.00  0.00    -0.257 C  
HETATM    9  C   UNL     1     -11.112  13.305  66.994  1.00  0.00    -0.304 A  
HETATM   10  C   UNL     1     -11.342  12.450  65.906  1.00  0.00    -0.399 A  
HETATM   11  C   UNL     1     -11.641  12.968  64.645  1.00  0.00    -0.389 A  
HETATM   12  C   UNL     1     -11.737  14.345  64.465  1.00  0.00    -0.430 A  
HETATM   13  C   UNL     1     -11.542  15.204  65.546  1.00  0.00    -0.142 A  
HETATM   14  C   UNL     1     -11.232  14.693  66.815  1.00  0.00    -0.344 A  
HETATM   15  C   UNL     1     -11.061  15.617  67.992  1.00  0.00    -0.335 C  
HETATM   16  C   UNL     1     -12.200  15.449  68.999  1.00  0.00    -0.167 C  
HETATM   17  C   UNL     1     -12.284  14.169  69.815  1.00  0.00    -0.397 A  
HETATM   18  C   UNL     1     -13.153  14.217  70.928  1.00  0.00    -0.368 A  
HETATM   19  C   UNL     1     -13.354  13.109  71.749  1.00  0.00    -0.477 A  
HETATM   20  C   UNL     1     -12.698  11.921  71.467  1.00  0.00    -0.379 A  
HETATM   21  C   UNL     1     -11.852  11.843  70.363  1.00  0.00    -0.329 A  
HETATM   22  C   UNL     1     -11.618  12.955  69.526  1.00  0.00    -0.348 A  
ENDBRANCH   6   7
ENDBRANCH   3   6
TORSDOF 2
ENDMDL
MODEL       83
REMARK 921   NORMALIZED FREE ENERGY PREDICTED BY IDOCK:   -4.51 KCAL/MOL
REMARK 922        TOTAL FREE ENERGY PREDICTED BY IDOCK:   -5.35 KCAL/MOL
REMARK 923 INTER-LIGAND FREE ENERGY PREDICTED BY IDOCK:   -5.05 KCAL/MOL
REMARK 924 INTRA-LIGAND FREE ENERGY PREDICTED BY IDOCK:   -0.29 KCAL/MOL
REMARK 927      BINDING AFFINITY PREDICTED BY RF-SCORE:    0.00 PKD
ROOT
HETATM    1  C   UNL     1     -11.342   8.408  71.762  1.00  0.00    -0.300 C  
HETATM    2  N   UNL     1     -10.963   9.134  70.500  1.00  0.00    -0.245 N  
HETATM    3  C   UNL     1     -11.962  10.258  70.239  1.00  0.00    -0.264 C  
HETATM    4  O   UNL     1     -10.984   8.233  69.467  1.00  0.00    -0.171 OA 
HETATM    5  C   UNL     1      -9.569   9.681  70.662  1.00  0.00    -0.147 C  
ENDROOT
BRANCH   3   6
HETATM    6  C   UNL     1     -11.689  11.013  68.934  1.00  0.00    -0.400 C  
BRANCH   6   7
HETATM    7  C   UNL     1     -11.311  12.465  69.113  1.00  0.00    -0.327 C  
HETATM    8  C   UNL     1     -10.969  13.318  68.113  1.00  0.00    -0.278 C  
HETATM    9  C   UNL     1     -10.916  12.806  66.721  1.00  0.00    -0.301 A  
HETATM   10  C   UNL     1     -12.080  12.392  66.057  1.00  0.00    -0.327 A  
HETATM   11  C   UNL     1     -12.014  11.871  64.765  1.00  0.00    -0.222 A  
HETATM   12  C   UNL     1     -10.787  11.782  64.113  1.00  0.00    -0.418 A  
HETATM   13  C   UNL     1      -9.627  12.220  64.750  1.00  0.00     0.072 A  
HETATM   14  C   UNL     1      -9.682  12.737  66.053  1.00  0.00    -0.226 A  
HETATM   15  C   UNL     1      -8.437  13.249  66.727  1.00  0.00     0.011 C  
HETATM   16  C   UNL     1      -8.483  14.768  66.899  1.00  0.00    -0.230 C  
HETATM   17  C   UNL     1      -9.459  15.371  67.896  1.00  0.00    -0.197 A  
HETATM   18  C   UNL     1      -9.226  16.725  68.227  1.00  0.00    -0.227 A  
HETATM   19  C   UNL     1     -10.059  17.418  69.102  1.00  0.00    -0.242 A  
HETATM   20  C   UNL     1     -11.154  16.775  69.659  1.00  0.00    -0.036 A  
HETATM   21  C   UNL     1     -11.416  15.447  69.332  1.00  0.00    -0.335 A  
HETATM   22  C   UNL     1     -10.578  14.717  68.461  1.00  0.00    -0.245 A  
ENDBRANCH   6   7
ENDBRANCH   3   6
TORSDOF 2
ENDMDL
MODEL       84
REMARK 921   NORMALIZED FREE ENERGY PREDICTED BY IDOCK:   -4.50 KCAL/MOL
REMARK 922        TOTAL FREE ENERGY PREDICTED BY IDOCK:   -5.34 KCAL/MOL
REMARK 923 INTER-LIGAND FREE ENERGY PREDICTED BY IDOCK:   -4.98 KCAL/MOL
REMARK 924 INTRA-LIGAND FREE ENERGY PREDICTED BY IDOCK:   -0.36 KCAL/MOL
REMARK 927      BINDING AFFINITY PREDICTED BY RF-SCORE:    0.00 PKD
ROOT
HETATM    1  C   UNL     1     -12.136  13.377  63.356  1.00  0.00    -0.372 C  
HETATM    2  N   UNL     1     -11.114  12.834  64.316  1.00  0.00    -0.346 N  
HETATM    3  C   UNL     1     -11.822  12.207  65.515  1.00  0.00    -0.286 C  
HETATM    4  O   UNL     1     -10.318  13.873  64.727  1.00  0.00    -0.418 OA 
HETATM    5  C   UNL     1     -10.273  11.813  63.595  1.00  0.00    -0.428 C  
ENDROOT
BRANCH   3   6
HETATM    6  C   UNL     1     -10.852  11.683  66.579  1.00  0.00    -0.328 C  
BRANCH   6   7
HETATM    7  C   UNL     1     -10.768  10.177  66.668  1.00  0.00    -0.156 C  
HETATM    8  C   UNL     1      -9.622   9.459  66.789  1.00  0.00    -0.234 C  
HETATM    9  C   UNL     1      -8.323  10.178  66.801  1.00  0.00    -0.122 A  
HETATM   10  C   UNL     1      -7.977  11.030  67.860  1.00  0.00    -0.112 A  
HETATM   11  C   UNL     1      -6.774  11.736  67.841  1.00  0.00    -0.072 A  
HETATM   12  C   UNL     1      -5.893  11.578  66.775  1.00  0.00    -0.143 A  
HETATM   13  C   UNL     1      -6.210  10.709  65.732  1.00  0.00    -0.126 A  
HETATM   14  C   UNL     1      -7.422  10.002  65.738  1.00  0.00    -0.121 A  
HETATM   15  C   UNL     1      -7.749   9.032  64.633  1.00  0.00    -0.115 C  
HETATM   16  C   UNL     1      -7.739   7.589  65.140  1.00  0.00    -0.111 C  
HETATM   17  C   UNL     1      -8.840   7.129  66.083  1.00  0.00    -0.171 A  
HETATM   18  C   UNL     1      -8.946   5.730  66.250  1.00  0.00    -0.149 A  
HETATM   19  C   UNL     1      -9.887   5.164  67.108  1.00  0.00    -0.191 A  
HETATM   20  C   UNL     1     -10.738   5.988  67.829  1.00  0.00    -0.369 A  
HETATM   21  C   UNL     1     -10.638   7.371  67.696  1.00  0.00    -0.309 A  
HETATM   22  C   UNL     1      -9.705   7.969  66.821  1.00  0.00    -0.305 A  
ENDBRANCH   6   7
ENDBRANCH   3   6
TORSDOF 2
ENDMDL
MODEL       85
REMARK 921   NORMALIZED FREE ENERGY PREDICTED BY IDOCK:   -4.49 KCAL/MOL
REMARK 922        TOTAL FREE ENERGY PREDICTED BY IDOCK:   -5.33 KCAL/MOL
REMARK 923 INTER-LIGAND FREE ENERGY PREDICTED BY IDOCK:   -5.06 KCAL/MOL
REMARK 924 INTRA-LIGAND FREE ENERGY PREDICTED BY IDOCK:   -0.27 KCAL/MOL
REMARK 927      BINDING AFFINITY PREDICTED BY RF-SCORE:    0.00 PKD
ROOT
HETATM    1  C   UNL     1     -10.131   6.301  74.377  1.00  0.00    -0.340 C  
HETATM    2  N   UNL     1     -10.266   6.580  72.905  1.00  0.00    -0.184 N  
HETATM    3  C   UNL     1      -9.237   7.629  72.488  1.00  0.00    -0.157 C  
HETATM    4  O   UNL     1     -11.536   7.044  72.673  1.00  0.00    -0.267 OA 
HETATM    5  C   UNL     1     -10.057   5.293  72.152  1.00  0.00    -0.190 C  
ENDROOT
BRANCH   3   6
HETATM    6  C   UNL     1      -9.346   8.022  71.011  1.00  0.00    -0.170 C  
BRANCH   6   7
HETATM    7  C   UNL     1      -9.957   9.383  70.765  1.00  0.00    -0.358 C  
HETATM    8  C   UNL     1     -10.249   9.905  69.547  1.00  0.00    -0.243 C  
HETATM    9  C   UNL     1      -9.922   9.117  68.332  1.00  0.00    -0.202 A  
HETATM   10  C   UNL     1     -10.586   7.915  68.048  1.00  0.00    -0.194 A  
HETATM   11  C   UNL     1     -10.241   7.159  66.927  1.00  0.00    -0.330 A  
HETATM   12  C   UNL     1      -9.245   7.610  66.065  1.00  0.00    -0.118 A  
HETATM   13  C   UNL     1      -8.600   8.820  66.319  1.00  0.00    -0.144 A  
HETATM   14  C   UNL     1      -8.934   9.582  67.448  1.00  0.00    -0.141 A  
HETATM   15  C   UNL     1      -8.268  10.909  67.702  1.00  0.00    -0.116 C  
HETATM   16  C   UNL     1      -9.251  12.067  67.525  1.00  0.00    -0.180 C  
HETATM   17  C   UNL     1     -10.365  12.254  68.542  1.00  0.00    -0.234 A  
HETATM   18  C   UNL     1     -11.024  13.504  68.494  1.00  0.00    -0.291 A  
HETATM   19  C   UNL     1     -12.085  13.805  69.345  1.00  0.00    -0.377 A  
HETATM   20  C   UNL     1     -12.521  12.856  70.257  1.00  0.00    -0.198 A  
HETATM   21  C   UNL     1     -11.901  11.610  70.309  1.00  0.00    -0.414 A  
HETATM   22  C   UNL     1     -10.813  11.286  69.470  1.00  0.00    -0.207 A  
ENDBRANCH   6   7
ENDBRANCH   3   6
TORSDOF 2
ENDMDL
MODEL       86
REMARK 921   NORMALIZED FREE ENERGY PREDICTED BY IDOCK:   -4.49 KCAL/MOL
REMARK 922        TOTAL FREE ENERGY PREDICTED BY IDOCK:   -5.33 KCAL/MOL
REMARK 923 INTER-LIGAND FREE ENERGY PREDICTED BY IDOCK:   -4.85 KCAL/MOL
REMARK 924 INTRA-LIGAND FREE ENERGY PREDICTED BY IDOCK:   -0.48 KCAL/MOL
REMARK 927      BINDING AFFINITY PREDICTED BY RF-SCORE:    0.00 PKD
ROOT
HETATM    1  C   UNL     1      -5.628   7.587  71.645  1.00  0.00    -0.036 C  
HETATM    2  N   UNL     1      -7.113   7.818  71.686  1.00  0.00    -0.062 N  
HETATM    3  C   UNL     1      -7.472   8.990  70.775  1.00  0.00    -0.115 C  
HETATM    4  O   UNL     1      -7.467   8.100  72.981  1.00  0.00    -0.120 OA 
HETATM    5  C   UNL     1      -7.807   6.558  71.240  1.00  0.00    -0.103 C  
ENDROOT
BRANCH   3   6
HETATM    6  C   UNL     1      -8.965   9.338  70.805  1.00  0.00    -0.292 C  
BRANCH   6   7
HETATM    7  C   UNL     1      -9.461  10.088  69.591  1.00  0.00    -0.247 C  
HETATM    8  C   UNL     1      -9.978   9.519  68.472  1.00  0.00    -0.184 C  
HETATM    9  C   UNL     1     -10.044   8.038  68.385  1.00  0.00    -0.221 A  
HETATM   10  C   UNL     1     -10.886   7.300  69.229  1.00  0.00    -0.177 A  
HETATM   11  C   UNL     1     -10.908   5.907  69.171  1.00  0.00    -0.406 A  
HETATM   12  C   UNL     1     -10.106   5.238  68.250  1.00  0.00    -0.219 A  
HETATM   13  C   UNL     1      -9.288   5.961  67.384  1.00  0.00    -0.111 A  
HETATM   14  C   UNL     1      -9.253   7.362  67.442  1.00  0.00    -0.146 A  
HETATM   15  C   UNL     1      -8.401   8.148  66.479  1.00  0.00    -0.113 C  
HETATM   16  C   UNL     1      -9.263   8.932  65.489  1.00  0.00    -0.242 C  
HETATM   17  C   UNL     1     -10.070  10.120  65.988  1.00  0.00    -0.317 A  
HETATM   18  C   UNL     1     -10.577  10.972  64.981  1.00  0.00    -0.315 A  
HETATM   19  C   UNL     1     -11.362  12.082  65.289  1.00  0.00    -0.366 A  
HETATM   20  C   UNL     1     -11.668  12.358  66.612  1.00  0.00    -0.438 A  
HETATM   21  C   UNL     1     -11.197  11.520  67.620  1.00  0.00    -0.343 A  
HETATM   22  C   UNL     1     -10.386  10.400  67.338  1.00  0.00    -0.275 A  
ENDBRANCH   6   7
ENDBRANCH   3   6
TORSDOF 2
ENDMDL
MODEL       87
REMARK 921   NORMALIZED FREE ENERGY PREDICTED BY IDOCK:   -4.44 KCAL/MOL
REMARK 922        TOTAL FREE ENERGY PREDICTED BY IDOCK:   -5.28 KCAL/MOL
REMARK 923 INTER-LIGAND FREE ENERGY PREDICTED BY IDOCK:   -5.75 KCAL/MOL
REMARK 924 INTRA-LIGAND FREE ENERGY PREDICTED BY IDOCK:    0.47 KCAL/MOL
REMARK 927      BINDING AFFINITY PREDICTED BY RF-SCORE:    0.00 PKD
ROOT
HETATM    1  C   UNL     1     -10.913  15.028  65.996  1.00  0.00    -0.334 C  
HETATM    2  N   UNL     1     -10.455  13.962  66.953  1.00  0.00    -0.274 N  
HETATM    3  C   UNL     1      -9.986  12.739  66.167  1.00  0.00    -0.266 C  
HETATM    4  O   UNL     1     -11.513  13.629  67.759  1.00  0.00    -0.284 OA 
HETATM    5  C   UNL     1      -9.338  14.520  67.795  1.00  0.00    -0.198 C  
ENDROOT
BRANCH   3   6
HETATM    6  C   UNL     1      -9.560  11.574  67.067  1.00  0.00    -0.199 C  
BRANCH   6   7
HETATM    7  C   UNL     1     -10.547  11.229  68.159  1.00  0.00    -0.225 C  
HETATM    8  C   UNL     1     -10.291  10.430  69.225  1.00  0.00    -0.250 C  
HETATM    9  C   UNL     1      -8.953   9.797  69.343  1.00  0.00    -0.197 A  
HETATM   10  C   UNL     1      -7.803  10.569  69.563  1.00  0.00    -0.134 A  
HETATM   11  C   UNL     1      -6.545   9.970  69.628  1.00  0.00    -0.062 A  
HETATM   12  C   UNL     1      -6.426   8.589  69.498  1.00  0.00    -0.040 A  
HETATM   13  C   UNL     1      -7.565   7.807  69.311  1.00  0.00    -0.098 A  
HETATM   14  C   UNL     1      -8.833   8.401  69.235  1.00  0.00    -0.142 A  
HETATM   15  C   UNL     1     -10.068   7.555  69.074  1.00  0.00    -0.192 C  
HETATM   16  C   UNL     1     -10.928   7.581  70.339  1.00  0.00    -0.264 C  
HETATM   17  C   UNL     1     -11.663   8.860  70.708  1.00  0.00    -0.269 A  
HETATM   18  C   UNL     1     -12.670   8.717  71.689  1.00  0.00    -0.394 A  
HETATM   19  C   UNL     1     -13.404   9.809  72.148  1.00  0.00    -0.527 A  
HETATM   20  C   UNL     1     -13.138  11.073  71.645  1.00  0.00    -0.543 A  
HETATM   21  C   UNL     1     -12.136  11.241  70.693  1.00  0.00    -0.480 A  
HETATM   22  C   UNL     1     -11.390  10.151  70.197  1.00  0.00    -0.372 A  
ENDBRANCH   6   7
ENDBRANCH   3   6
TORSDOF 2
ENDMDL
MODEL       88
REMARK 921   NORMALIZED FREE ENERGY PREDICTED BY IDOCK:   -4.43 KCAL/MOL
REMARK 922        TOTAL FREE ENERGY PREDICTED BY IDOCK:   -5.26 KCAL/MOL
REMARK 923 INTER-LIGAND FREE ENERGY PREDICTED BY IDOCK:   -4.79 KCAL/MOL
REMARK 924 INTRA-LIGAND FREE ENERGY PREDICTED BY IDOCK:   -0.48 KCAL/MOL
REMARK 927      BINDING AFFINITY PREDICTED BY RF-SCORE:    0.00 PKD
ROOT
HETATM    1  C   UNL     1      -6.777   9.691  64.992  1.00  0.00    -0.096 C  
HETATM    2  N   UNL     1      -7.270  10.280  66.286  1.00  0.00    -0.111 N  
HETATM    3  C   UNL     1      -6.690  11.682  66.461  1.00  0.00     0.039 C  
HETATM    4  O   UNL     1      -6.858   9.466  67.310  1.00  0.00    -0.081 OA 
HETATM    5  C   UNL     1      -8.775  10.321  66.252  1.00  0.00    -0.146 C  
ENDROOT
BRANCH   3   6
HETATM    6  C   UNL     1      -7.089  12.334  67.789  1.00  0.00    -0.114 C  
BRANCH   6   7
HETATM    7  C   UNL     1      -7.341  13.823  67.709  1.00  0.00    -0.170 C  
HETATM    8  C   UNL     1      -8.560  14.410  67.614  1.00  0.00    -0.189 C  
HETATM    9  C   UNL     1      -9.768  13.549  67.545  1.00  0.00    -0.228 A  
HETATM   10  C   UNL     1     -10.160  12.762  68.637  1.00  0.00    -0.132 A  
HETATM   11  C   UNL     1     -11.270  11.923  68.546  1.00  0.00    -0.308 A  
HETATM   12  C   UNL     1     -12.015  11.880  67.371  1.00  0.00    -0.090 A  
HETATM   13  C   UNL     1     -11.655  12.682  66.289  1.00  0.00    -0.440 A  
HETATM   14  C   UNL     1     -10.534  13.522  66.367  1.00  0.00    -0.287 A  
HETATM   15  C   UNL     1     -10.167  14.420  65.215  1.00  0.00    -0.416 C  
HETATM   16  C   UNL     1     -10.393  15.892  65.563  1.00  0.00    -0.425 C  
HETATM   17  C   UNL     1      -9.480  16.561  66.579  1.00  0.00    -0.296 A  
HETATM   18  C   UNL     1      -9.544  17.972  66.611  1.00  0.00    -0.315 A  
HETATM   19  C   UNL     1      -8.787  18.718  67.513  1.00  0.00    -0.292 A  
HETATM   20  C   UNL     1      -7.958  18.068  68.413  1.00  0.00    -0.306 A  
HETATM   21  C   UNL     1      -7.895  16.676  68.415  1.00  0.00    -0.202 A  
HETATM   22  C   UNL     1      -8.638  15.897  67.501  1.00  0.00    -0.181 A  
ENDBRANCH   6   7
ENDBRANCH   3   6
TORSDOF 2
ENDMDL
MODEL       89
REMARK 921   NORMALIZED FREE ENERGY PREDICTED BY IDOCK:   -4.43 KCAL/MOL
REMARK 922        TOTAL FREE ENERGY PREDICTED BY IDOCK:   -5.26 KCAL/MOL
REMARK 923 INTER-LIGAND FREE ENERGY PREDICTED BY IDOCK:   -4.92 KCAL/MOL
REMARK 924 INTRA-LIGAND FREE ENERGY PREDICTED BY IDOCK:   -0.35 KCAL/MOL
REMARK 927      BINDING AFFINITY PREDICTED BY RF-SCORE:    0.00 PKD
ROOT
HETATM    1  C   UNL     1      -7.514   5.269  67.337  1.00  0.00    -0.084 C  
HETATM    2  N   UNL     1      -8.489   6.325  66.891  1.00  0.00    -0.109 N  
HETATM    3  C   UNL     1      -8.691   7.339  68.015  1.00  0.00    -0.127 C  
HETATM    4  O   UNL     1      -9.677   5.710  66.589  1.00  0.00    -0.142 OA 
HETATM    5  C   UNL     1      -7.941   6.992  65.657  1.00  0.00    -0.123 C  
ENDROOT
BRANCH   3   6
HETATM    6  C   UNL     1      -9.721   8.420  67.669  1.00  0.00    -0.201 C  
BRANCH   6   7
HETATM    7  C   UNL     1      -9.175   9.829  67.653  1.00  0.00    -0.143 C  
HETATM    8  C   UNL     1      -9.510  10.812  68.528  1.00  0.00    -0.181 C  
HETATM    9  C   UNL     1     -10.520  10.525  69.577  1.00  0.00    -0.265 A  
HETATM   10  C   UNL     1     -10.255   9.611  70.607  1.00  0.00    -0.346 A  
HETATM   11  C   UNL     1     -11.226   9.314  71.563  1.00  0.00    -0.457 A  
HETATM   12  C   UNL     1     -12.465   9.948  71.514  1.00  0.00    -0.506 A  
HETATM   13  C   UNL     1     -12.730  10.883  70.514  1.00  0.00    -0.363 A  
HETATM   14  C   UNL     1     -11.762  11.180  69.543  1.00  0.00    -0.405 A  
HETATM   15  C   UNL     1     -12.031  12.220  68.487  1.00  0.00    -0.272 C  
HETATM   16  C   UNL     1     -11.159  13.460  68.694  1.00  0.00    -0.295 C  
HETATM   17  C   UNL     1      -9.663  13.363  68.441  1.00  0.00    -0.201 A  
HETATM   18  C   UNL     1      -8.986  14.600  68.344  1.00  0.00    -0.180 A  
HETATM   19  C   UNL     1      -7.608  14.666  68.145  1.00  0.00    -0.123 A  
HETATM   20  C   UNL     1      -6.873  13.495  68.052  1.00  0.00    -0.136 A  
HETATM   21  C   UNL     1      -7.516  12.264  68.166  1.00  0.00    -0.112 A  
HETATM   22  C   UNL     1      -8.912  12.169  68.351  1.00  0.00    -0.146 A  
ENDBRANCH   6   7
ENDBRANCH   3   6
TORSDOF 2
ENDMDL
MODEL       90
REMARK 921   NORMALIZED FREE ENERGY PREDICTED BY IDOCK:   -4.43 KCAL/MOL
REMARK 922        TOTAL FREE ENERGY PREDICTED BY IDOCK:   -5.26 KCAL/MOL
REMARK 923 INTER-LIGAND FREE ENERGY PREDICTED BY IDOCK:   -4.96 KCAL/MOL
REMARK 924 INTRA-LIGAND FREE ENERGY PREDICTED BY IDOCK:   -0.30 KCAL/MOL
REMARK 927      BINDING AFFINITY PREDICTED BY RF-SCORE:    0.00 PKD
ROOT
HETATM    1  C   UNL     1      -5.791  14.050  67.926  1.00  0.00    -0.122 C  
HETATM    2  N   UNL     1      -6.646  13.298  68.908  1.00  0.00    -0.102 N  
HETATM    3  C   UNL     1      -6.853  11.868  68.414  1.00  0.00    -0.071 C  
HETATM    4  O   UNL     1      -7.852  13.944  69.007  1.00  0.00    -0.065 OA 
HETATM    5  C   UNL     1      -5.960  13.309  70.249  1.00  0.00    -0.134 C  
ENDROOT
BRANCH   3   6
HETATM    6  C   UNL     1      -7.770  11.045  69.325  1.00  0.00    -0.071 C  
BRANCH   6   7
HETATM    7  C   UNL     1      -8.236   9.735  68.732  1.00  0.00    -0.108 C  
HETATM    8  C   UNL     1      -9.506   9.258  68.780  1.00  0.00    -0.150 C  
HETATM    9  C   UNL     1     -10.541  10.044  69.498  1.00  0.00    -0.267 A  
HETATM   10  C   UNL     1     -10.960  11.295  69.022  1.00  0.00    -0.288 A  
HETATM   11  C   UNL     1     -11.900  12.046  69.727  1.00  0.00    -0.401 A  
HETATM   12  C   UNL     1     -12.450  11.543  70.903  1.00  0.00    -0.464 A  
HETATM   13  C   UNL     1     -12.066  10.286  71.370  1.00  0.00    -0.457 A  
HETATM   14  C   UNL     1     -11.114   9.528  70.672  1.00  0.00    -0.364 A  
HETATM   15  C   UNL     1     -10.728   8.154  71.152  1.00  0.00    -0.258 C  
HETATM   16  C   UNL     1     -11.229   7.071  70.196  1.00  0.00    -0.325 C  
HETATM   17  C   UNL     1     -10.590   6.942  68.822  1.00  0.00    -0.247 A  
HETATM   18  C   UNL     1     -10.877   5.742  68.133  1.00  0.00    -0.249 A  
HETATM   19  C   UNL     1     -10.386   5.500  66.851  1.00  0.00    -0.315 A  
HETATM   20  C   UNL     1      -9.605   6.458  66.225  1.00  0.00    -0.106 A  
HETATM   21  C   UNL     1      -9.327   7.657  66.877  1.00  0.00    -0.203 A  
HETATM   22  C   UNL     1      -9.797   7.921  68.181  1.00  0.00    -0.193 A  
ENDBRANCH   6   7
ENDBRANCH   3   6
TORSDOF 2
ENDMDL
MODEL       91
REMARK 921   NORMALIZED FREE ENERGY PREDICTED BY IDOCK:   -4.42 KCAL/MOL
REMARK 922        TOTAL FREE ENERGY PREDICTED BY IDOCK:   -5.25 KCAL/MOL
REMARK 923 INTER-LIGAND FREE ENERGY PREDICTED BY IDOCK:   -4.89 KCAL/MOL
REMARK 924 INTRA-LIGAND FREE ENERGY PREDICTED BY IDOCK:   -0.35 KCAL/MOL
REMARK 927      BINDING AFFINITY PREDICTED BY RF-SCORE:    0.00 PKD
ROOT
HETATM    1  C   UNL     1      -8.478   4.276  70.024  1.00  0.00    -0.065 C  
HETATM    2  N   UNL     1      -9.319   5.523  70.043  1.00  0.00    -0.144 N  
HETATM    3  C   UNL     1      -9.701   5.902  68.614  1.00  0.00    -0.127 C  
HETATM    4  O   UNL     1      -8.581   6.527  70.618  1.00  0.00    -0.136 OA 
HETATM    5  C   UNL     1     -10.546   5.262  70.877  1.00  0.00    -0.177 C  
ENDROOT
BRANCH   3   6
HETATM    6  C   UNL     1     -10.508   7.203  68.534  1.00  0.00    -0.229 C  
BRANCH   6   7
HETATM    7  C   UNL     1      -9.684   8.438  68.249  1.00  0.00    -0.170 C  
HETATM    8  C   UNL     1      -9.823   9.636  68.873  1.00  0.00    -0.179 C  
HETATM    9  C   UNL     1     -10.884   9.792  69.900  1.00  0.00    -0.306 A  
HETATM   10  C   UNL     1     -10.825   9.093  71.114  1.00  0.00    -0.381 A  
HETATM   11  C   UNL     1     -11.849   9.212  72.054  1.00  0.00    -0.407 A  
HETATM   12  C   UNL     1     -12.931  10.050  71.799  1.00  0.00    -0.560 A  
HETATM   13  C   UNL     1     -12.985  10.776  70.610  1.00  0.00    -0.313 A  
HETATM   14  C   UNL     1     -11.965  10.655  69.655  1.00  0.00    -0.340 A  
HETATM   15  C   UNL     1     -12.001  11.468  68.388  1.00  0.00    -0.268 C  
HETATM   16  C   UNL     1     -10.897  12.527  68.376  1.00  0.00    -0.266 C  
HETATM   17  C   UNL     1      -9.449  12.085  68.237  1.00  0.00    -0.199 A  
HETATM   18  C   UNL     1      -8.531  13.111  67.917  1.00  0.00    -0.181 A  
HETATM   19  C   UNL     1      -7.167  12.859  67.789  1.00  0.00    -0.134 A  
HETATM   20  C   UNL     1      -6.686  11.575  67.991  1.00  0.00    -0.059 A  
HETATM   21  C   UNL     1      -7.569  10.551  68.327  1.00  0.00    -0.096 A  
HETATM   22  C   UNL     1      -8.957  10.775  68.446  1.00  0.00    -0.153 A  
ENDBRANCH   6   7
ENDBRANCH   3   6
TORSDOF 2
ENDMDL
MODEL       92
REMARK 921   NORMALIZED FREE ENERGY PREDICTED BY IDOCK:   -4.37 KCAL/MOL
REMARK 922        TOTAL FREE ENERGY PREDICTED BY IDOCK:   -5.20 KCAL/MOL
REMARK 923 INTER-LIGAND FREE ENERGY PREDICTED BY IDOCK:   -4.95 KCAL/MOL
REMARK 924 INTRA-LIGAND FREE ENERGY PREDICTED BY IDOCK:   -0.25 KCAL/MOL
REMARK 927      BINDING AFFINITY PREDICTED BY RF-SCORE:    0.00 PKD
ROOT
HETATM    1  C   UNL     1     -11.976  11.882  63.138  1.00  0.00    -0.181 C  
HETATM    2  N   UNL     1     -11.332  12.368  64.408  1.00  0.00    -0.322 N  
HETATM    3  C   UNL     1     -12.407  12.898  65.354  1.00  0.00    -0.485 C  
HETATM    4  O   UNL     1     -10.451  13.367  64.085  1.00  0.00    -0.393 OA 
HETATM    5  C   UNL     1     -10.583  11.221  65.035  1.00  0.00    -0.289 C  
ENDROOT
BRANCH   3   6
HETATM    6  C   UNL     1     -11.832  13.475  66.652  1.00  0.00    -0.450 C  
BRANCH   6   7
HETATM    7  C   UNL     1     -11.563  14.962  66.616  1.00  0.00    -0.265 C  
HETATM    8  C   UNL     1     -10.405  15.560  66.994  1.00  0.00    -0.279 C  
HETATM    9  C   UNL     1      -9.303  14.720  67.527  1.00  0.00    -0.194 A  
HETATM   10  C   UNL     1      -8.635  13.798  66.709  1.00  0.00    -0.058 A  
HETATM   11  C   UNL     1      -7.631  12.981  67.229  1.00  0.00    -0.097 A  
HETATM   12  C   UNL     1      -7.269  13.094  68.569  1.00  0.00    -0.110 A  
HETATM   13  C   UNL     1      -7.903  14.030  69.385  1.00  0.00     0.306 A  
HETATM   14  C   UNL     1      -8.920  14.849  68.873  1.00  0.00    -0.184 A  
HETATM   15  C   UNL     1      -9.579  15.888  69.742  1.00  0.00    -0.084 C  
HETATM   16  C   UNL     1      -9.207  17.302  69.295  1.00  0.00     0.120 C  
HETATM   17  C   UNL     1      -9.755  17.830  67.978  1.00  0.00    -0.304 A  
HETATM   18  C   UNL     1      -9.635  19.225  67.790  1.00  0.00    -0.395 A  
HETATM   19  C   UNL     1     -10.064  19.845  66.618  1.00  0.00    -0.598 A  
HETATM   20  C   UNL     1     -10.613  19.081  65.601  1.00  0.00    -0.273 A  
HETATM   21  C   UNL     1     -10.723  17.701  65.755  1.00  0.00    -0.110 A  
HETATM   22  C   UNL     1     -10.311  17.050  66.939  1.00  0.00    -0.303 A  
ENDBRANCH   6   7
ENDBRANCH   3   6
TORSDOF 2
ENDMDL
MODEL       93
REMARK 921   NORMALIZED FREE ENERGY PREDICTED BY IDOCK:   -4.36 KCAL/MOL
REMARK 922        TOTAL FREE ENERGY PREDICTED BY IDOCK:   -5.18 KCAL/MOL
REMARK 923 INTER-LIGAND FREE ENERGY PREDICTED BY IDOCK:   -4.97 KCAL/MOL
REMARK 924 INTRA-LIGAND FREE ENERGY PREDICTED BY IDOCK:   -0.22 KCAL/MOL
REMARK 927      BINDING AFFINITY PREDICTED BY RF-SCORE:    0.00 PKD
ROOT
HETATM    1  C   UNL     1      -6.392   9.904  65.306  1.00  0.00    -0.099 C  
HETATM    2  N   UNL     1      -6.621  10.428  66.697  1.00  0.00    -0.077 N  
HETATM    3  C   UNL     1      -8.034  10.069  67.151  1.00  0.00    -0.109 C  
HETATM    4  O   UNL     1      -6.464  11.791  66.671  1.00  0.00    -0.114 OA 
HETATM    5  C   UNL     1      -5.591   9.822  67.614  1.00  0.00    -0.036 C  
ENDROOT
BRANCH   3   6
HETATM    6  C   UNL     1      -8.377  10.622  68.538  1.00  0.00    -0.130 C  
BRANCH   6   7
HETATM    7  C   UNL     1      -9.360   9.786  69.325  1.00  0.00    -0.198 C  
HETATM    8  C   UNL     1     -10.699   9.996  69.384  1.00  0.00    -0.258 C  
HETATM    9  C   UNL     1     -11.277  11.155  68.659  1.00  0.00    -0.314 A  
HETATM   10  C   UNL     1     -11.265  11.211  67.257  1.00  0.00    -0.347 A  
HETATM   11  C   UNL     1     -11.770  12.324  66.585  1.00  0.00    -0.417 A  
HETATM   12  C   UNL     1     -12.315  13.382  67.307  1.00  0.00    -0.157 A  
HETATM   13  C   UNL     1     -12.362  13.325  68.699  1.00  0.00     0.081 A  
HETATM   14  C   UNL     1     -11.848  12.214  69.384  1.00  0.00    -0.370 A  
HETATM   15  C   UNL     1     -11.935  12.131  70.885  1.00  0.00     0.005 C  
HETATM   16  C   UNL     1     -12.913  11.041  71.326  1.00  0.00    -0.472 C  
HETATM   17  C   UNL     1     -12.542   9.582  71.110  1.00  0.00    -0.383 A  
HETATM   18  C   UNL     1     -13.331   8.647  71.817  1.00  0.00    -0.410 A  
HETATM   19  C   UNL     1     -13.126   7.274  71.692  1.00  0.00    -0.417 A  
HETATM   20  C   UNL     1     -12.133   6.804  70.846  1.00  0.00    -0.421 A  
HETATM   21  C   UNL     1     -11.357   7.707  70.123  1.00  0.00    -0.147 A  
HETATM   22  C   UNL     1     -11.532   9.102  70.244  1.00  0.00    -0.174 A  
ENDBRANCH   6   7
ENDBRANCH   3   6
TORSDOF 2
ENDMDL
MODEL       94
REMARK 921   NORMALIZED FREE ENERGY PREDICTED BY IDOCK:   -4.35 KCAL/MOL
REMARK 922        TOTAL FREE ENERGY PREDICTED BY IDOCK:   -5.17 KCAL/MOL
REMARK 923 INTER-LIGAND FREE ENERGY PREDICTED BY IDOCK:   -4.83 KCAL/MOL
REMARK 924 INTRA-LIGAND FREE ENERGY PREDICTED BY IDOCK:   -0.34 KCAL/MOL
REMARK 927      BINDING AFFINITY PREDICTED BY RF-SCORE:    0.00 PKD
ROOT
HETATM    1  C   UNL     1     -12.024  15.545  64.375  1.00  0.00    -0.183 C  
HETATM    2  N   UNL     1     -11.594  14.272  65.050  1.00  0.00    -0.350 N  
HETATM    3  C   UNL     1     -11.874  13.086  64.129  1.00  0.00    -0.416 C  
HETATM    4  O   UNL     1     -12.306  14.144  66.216  1.00  0.00    -0.456 OA 
HETATM    5  C   UNL     1     -10.125  14.370  65.369  1.00  0.00    -0.359 C  
ENDROOT
BRANCH   3   6
HETATM    6  C   UNL     1     -11.524  11.737  64.766  1.00  0.00    -0.281 C  
BRANCH   6   7
HETATM    7  C   UNL     1     -10.294  11.070  64.193  1.00  0.00    -0.434 C  
HETATM    8  C   UNL     1      -9.334  10.438  64.915  1.00  0.00    -0.294 C  
HETATM    9  C   UNL     1      -9.450  10.412  66.395  1.00  0.00    -0.209 A  
HETATM   10  C   UNL     1     -10.482   9.705  67.028  1.00  0.00    -0.302 A  
HETATM   11  C   UNL     1     -10.609   9.723  68.417  1.00  0.00    -0.264 A  
HETATM   12  C   UNL     1      -9.690  10.428  69.189  1.00  0.00    -0.234 A  
HETATM   13  C   UNL     1      -8.640  11.108  68.574  1.00  0.00    -0.157 A  
HETATM   14  C   UNL     1      -8.510  11.104  67.177  1.00  0.00    -0.137 A  
HETATM   15  C   UNL     1      -7.354  11.804  66.513  1.00  0.00     0.103 C  
HETATM   16  C   UNL     1      -6.386  10.801  65.883  1.00  0.00    -0.109 C  
HETATM   17  C   UNL     1      -6.824  10.022  64.653  1.00  0.00    -0.130 A  
HETATM   18  C   UNL     1      -5.787   9.367  63.951  1.00  0.00    -0.081 A  
HETATM   19  C   UNL     1      -6.044   8.589  62.824  1.00  0.00    -0.087 A  
HETATM   20  C   UNL     1      -7.348   8.439  62.378  1.00  0.00    -0.100 A  
HETATM   21  C   UNL     1      -8.389   9.058  63.066  1.00  0.00    -0.197 A  
HETATM   22  C   UNL     1      -8.155   9.865  64.201  1.00  0.00    -0.152 A  
ENDBRANCH   6   7
ENDBRANCH   3   6
TORSDOF 2
ENDMDL
MODEL       95
REMARK 921   NORMALIZED FREE ENERGY PREDICTED BY IDOCK:   -4.30 KCAL/MOL
REMARK 922        TOTAL FREE ENERGY PREDICTED BY IDOCK:   -5.12 KCAL/MOL
REMARK 923 INTER-LIGAND FREE ENERGY PREDICTED BY IDOCK:   -5.10 KCAL/MOL
REMARK 924 INTRA-LIGAND FREE ENERGY PREDICTED BY IDOCK:   -0.02 KCAL/MOL
REMARK 927      BINDING AFFINITY PREDICTED BY RF-SCORE:    0.00 PKD
ROOT
HETATM    1  C   UNL     1      -9.382   3.187  67.343  1.00  0.00    -0.191 C  
HETATM    2  N   UNL     1      -8.973   4.593  66.998  1.00  0.00    -0.111 N  
HETATM    3  C   UNL     1      -9.174   5.496  68.213  1.00  0.00    -0.109 C  
HETATM    4  O   UNL     1      -9.756   5.022  65.956  1.00  0.00    -0.161 OA 
HETATM    5  C   UNL     1      -7.529   4.582  66.570  1.00  0.00    -0.082 C  
ENDROOT
BRANCH   3   6
HETATM    6  C   UNL     1      -8.843   6.965  67.931  1.00  0.00    -0.123 C  
BRANCH   6   7
HETATM    7  C   UNL     1      -9.797   7.957  68.556  1.00  0.00    -0.186 C  
HETATM    8  C   UNL     1      -9.969   8.150  69.888  1.00  0.00    -0.190 C  
HETATM    9  C   UNL     1      -9.200   7.309  70.840  1.00  0.00    -0.155 A  
HETATM   10  C   UNL     1      -7.806   7.417  70.939  1.00  0.00    -0.096 A  
HETATM   11  C   UNL     1      -7.087   6.592  71.804  1.00  0.00    -0.084 A  
HETATM   12  C   UNL     1      -7.759   5.666  72.598  1.00  0.00    -0.102 A  
HETATM   13  C   UNL     1      -9.149   5.571  72.533  1.00  0.00    -0.140 A  
HETATM   14  C   UNL     1      -9.878   6.390  71.659  1.00  0.00    -0.184 A  
HETATM   15  C   UNL     1     -11.382   6.318  71.616  1.00  0.00    -0.347 C  
HETATM   16  C   UNL     1     -12.015   7.590  72.181  1.00  0.00    -0.323 C  
HETATM   17  C   UNL     1     -11.899   8.887  71.396  1.00  0.00    -0.383 A  
HETATM   18  C   UNL     1     -12.763   9.924  71.812  1.00  0.00    -0.523 A  
HETATM   19  C   UNL     1     -12.745  11.179  71.206  1.00  0.00    -0.531 A  
HETATM   20  C   UNL     1     -11.852  11.428  70.175  1.00  0.00    -0.440 A  
HETATM   21  C   UNL     1     -10.976  10.427  69.762  1.00  0.00    -0.345 A  
HETATM   22  C   UNL     1     -10.985   9.143  70.348  1.00  0.00    -0.290 A  
ENDBRANCH   6   7
ENDBRANCH   3   6
TORSDOF 2
ENDMDL
MODEL       96
REMARK 921   NORMALIZED FREE ENERGY PREDICTED BY IDOCK:   -4.29 KCAL/MOL
REMARK 922        TOTAL FREE ENERGY PREDICTED BY IDOCK:   -5.11 KCAL/MOL
REMARK 923 INTER-LIGAND FREE ENERGY PREDICTED BY IDOCK:   -5.08 KCAL/MOL
REMARK 924 INTRA-LIGAND FREE ENERGY PREDICTED BY IDOCK:   -0.02 KCAL/MOL
REMARK 927      BINDING AFFINITY PREDICTED BY RF-SCORE:    0.00 PKD
ROOT
HETATM    1  C   UNL     1      -5.150   9.561  71.856  1.00  0.00    -0.073 C  
HETATM    2  N   UNL     1      -6.217   8.502  71.815  1.00  0.00    -0.058 N  
HETATM    3  C   UNL     1      -6.813   8.432  70.411  1.00  0.00    -0.037 C  
HETATM    4  O   UNL     1      -7.187   8.838  72.725  1.00  0.00    -0.329 OA 
HETATM    5  C   UNL     1      -5.600   7.184  72.204  1.00  0.00    -0.037 C  
ENDROOT
BRANCH   3   6
HETATM    6  C   UNL     1      -7.957   7.419  70.295  1.00  0.00    -0.107 C  
BRANCH   6   7
HETATM    7  C   UNL     1      -9.261   7.868  70.915  1.00  0.00    -0.160 C  
HETATM    8  C   UNL     1     -10.297   8.431  70.244  1.00  0.00    -0.212 C  
HETATM    9  C   UNL     1     -10.161   8.675  68.786  1.00  0.00    -0.224 A  
HETATM   10  C   UNL     1     -10.069   7.609  67.879  1.00  0.00    -0.231 A  
HETATM   11  C   UNL     1      -9.896   7.848  66.516  1.00  0.00    -0.272 A  
HETATM   12  C   UNL     1      -9.838   9.156  66.042  1.00  0.00    -0.342 A  
HETATM   13  C   UNL     1      -9.961  10.225  66.929  1.00  0.00    -0.259 A  
HETATM   14  C   UNL     1     -10.126   9.994  68.303  1.00  0.00    -0.182 A  
HETATM   15  C   UNL     1     -10.300  11.145  69.258  1.00  0.00    -0.148 C  
HETATM   16  C   UNL     1     -11.718  11.182  69.830  1.00  0.00    -0.433 C  
HETATM   17  C   UNL     1     -12.150  10.101  70.808  1.00  0.00    -0.438 A  
HETATM   18  C   UNL     1     -13.337  10.375  71.526  1.00  0.00    -0.405 A  
HETATM   19  C   UNL     1     -13.870   9.462  72.433  1.00  0.00    -0.422 A  
HETATM   20  C   UNL     1     -13.235   8.246  72.635  1.00  0.00    -0.011 A  
HETATM   21  C   UNL     1     -12.075   7.946  71.923  1.00  0.00    -0.352 A  
HETATM   22  C   UNL     1     -11.505   8.860  71.011  1.00  0.00    -0.351 A  
ENDBRANCH   6   7
ENDBRANCH   3   6
TORSDOF 2
ENDMDL
MODEL       97
REMARK 921   NORMALIZED FREE ENERGY PREDICTED BY IDOCK:   -4.29 KCAL/MOL
REMARK 922        TOTAL FREE ENERGY PREDICTED BY IDOCK:   -5.10 KCAL/MOL
REMARK 923 INTER-LIGAND FREE ENERGY PREDICTED BY IDOCK:   -4.82 KCAL/MOL
REMARK 924 INTRA-LIGAND FREE ENERGY PREDICTED BY IDOCK:   -0.29 KCAL/MOL
REMARK 927      BINDING AFFINITY PREDICTED BY RF-SCORE:    0.00 PKD
ROOT
HETATM    1  C   UNL     1      -9.282  10.988  63.280  1.00  0.00    -0.275 C  
HETATM    2  N   UNL     1      -9.748  10.879  64.705  1.00  0.00    -0.248 N  
HETATM    3  C   UNL     1     -11.227  11.249  64.787  1.00  0.00    -0.058 C  
HETATM    4  O   UNL     1      -9.001  11.741  65.467  1.00  0.00    -0.064 OA 
HETATM    5  C   UNL     1      -9.521   9.467  65.178  1.00  0.00    -0.185 C  
ENDROOT
BRANCH   3   6
HETATM    6  C   UNL     1     -11.773  11.228  66.219  1.00  0.00     0.475 C  
BRANCH   6   7
HETATM    7  C   UNL     1     -11.634  12.535  66.966  1.00  0.00    -0.437 C  
HETATM    8  C   UNL     1     -11.291  12.661  68.273  1.00  0.00    -0.337 C  
HETATM    9  C   UNL     1     -11.060  11.434  69.076  1.00  0.00    -0.300 A  
HETATM   10  C   UNL     1      -9.977  10.585  68.806  1.00  0.00    -0.200 A  
HETATM   11  C   UNL     1      -9.793   9.411  69.537  1.00  0.00    -0.192 A  
HETATM   12  C   UNL     1     -10.678   9.086  70.562  1.00  0.00    -0.285 A  
HETATM   13  C   UNL     1     -11.741   9.937  70.861  1.00  0.00    -0.449 A  
HETATM   14  C   UNL     1     -11.938  11.115  70.126  1.00  0.00    -0.449 A  
HETATM   15  C   UNL     1     -13.061  12.057  70.474  1.00  0.00     0.397 C  
HETATM   16  C   UNL     1     -12.526  13.367  71.054  1.00  0.00    -0.437 C  
HETATM   17  C   UNL     1     -11.788  14.334  70.142  1.00  0.00    -0.379 A  
HETATM   18  C   UNL     1     -11.610  15.637  70.661  1.00  0.00    -0.394 A  
HETATM   19  C   UNL     1     -10.924  16.619  69.950  1.00  0.00    -0.194 A  
HETATM   20  C   UNL     1     -10.389  16.318  68.707  1.00  0.00    -0.261 A  
HETATM   21  C   UNL     1     -10.534  15.035  68.185  1.00  0.00    -0.245 A  
HETATM   22  C   UNL     1     -11.239  14.026  68.877  1.00  0.00    -0.303 A  
ENDBRANCH   6   7
ENDBRANCH   3   6
TORSDOF 2
ENDMDL
MODEL       98
REMARK 921   NORMALIZED FREE ENERGY PREDICTED BY IDOCK:   -4.27 KCAL/MOL
REMARK 922        TOTAL FREE ENERGY PREDICTED BY IDOCK:   -5.08 KCAL/MOL
REMARK 923 INTER-LIGAND FREE ENERGY PREDICTED BY IDOCK:   -4.71 KCAL/MOL
REMARK 924 INTRA-LIGAND FREE ENERGY PREDICTED BY IDOCK:   -0.38 KCAL/MOL
REMARK 927      BINDING AFFINITY PREDICTED BY RF-SCORE:    0.00 PKD
ROOT
HETATM    1  C   UNL     1      -7.465  20.720  67.243  1.00  0.00    -0.328 C  
HETATM    2  N   UNL     1      -6.874  19.370  66.945  1.00  0.00    -0.197 N  
HETATM    3  C   UNL     1      -7.980  18.416  66.498  1.00  0.00    -0.271 C  
HETATM    4  O   UNL     1      -6.279  18.902  68.089  1.00  0.00    -0.215 OA 
HETATM    5  C   UNL     1      -5.833  19.528  65.867  1.00  0.00    -0.165 C  
ENDROOT
BRANCH   3   6
HETATM    6  C   UNL     1      -7.475  16.994  66.234  1.00  0.00    -0.318 C  
BRANCH   6   7
HETATM    7  C   UNL     1      -8.551  15.932  66.245  1.00  0.00    -0.348 C  
HETATM    8  C   UNL     1      -8.658  14.931  67.156  1.00  0.00    -0.248 C  
HETATM    9  C   UNL     1      -7.631  14.818  68.222  1.00  0.00    -0.115 A  
HETATM   10  C   UNL     1      -7.510  15.799  69.217  1.00  0.00    -0.220 A  
HETATM   11  C   UNL     1      -6.513  15.707  70.189  1.00  0.00    -0.016 A  
HETATM   12  C   UNL     1      -5.643  14.620  70.190  1.00  0.00    -0.119 A  
HETATM   13  C   UNL     1      -5.774  13.622  69.225  1.00  0.00    -0.084 A  
HETATM   14  C   UNL     1      -6.767  13.711  68.239  1.00  0.00    -0.108 A  
HETATM   15  C   UNL     1      -6.936  12.614  67.221  1.00  0.00    -0.104 C  
HETATM   16  C   UNL     1      -8.242  11.848  67.442  1.00  0.00    -0.164 C  
HETATM   17  C   UNL     1      -9.564  12.539  67.149  1.00  0.00    -0.208 A  
HETATM   18  C   UNL     1     -10.687  11.686  67.070  1.00  0.00    -0.292 A  
HETATM   19  C   UNL     1     -11.969  12.182  66.839  1.00  0.00    -0.164 A  
HETATM   20  C   UNL     1     -12.158  13.547  66.693  1.00  0.00    -0.447 A  
HETATM   21  C   UNL     1     -11.068  14.410  66.787  1.00  0.00    -0.323 A  
HETATM   22  C   UNL     1      -9.758  13.932  67.004  1.00  0.00    -0.250 A  
ENDBRANCH   6   7
ENDBRANCH   3   6
TORSDOF 2
ENDMDL
MODEL       99
REMARK 921   NORMALIZED FREE ENERGY PREDICTED BY IDOCK:   -4.24 KCAL/MOL
REMARK 922        TOTAL FREE ENERGY PREDICTED BY IDOCK:   -5.05 KCAL/MOL
REMARK 923 INTER-LIGAND FREE ENERGY PREDICTED BY IDOCK:   -4.70 KCAL/MOL
REMARK 924 INTRA-LIGAND FREE ENERGY PREDICTED BY IDOCK:   -0.35 KCAL/MOL
REMARK 927      BINDING AFFINITY PREDICTED BY RF-SCORE:    0.00 PKD
ROOT
HETATM    1  C   UNL     1     -11.053   7.491  72.867  1.00  0.00    -0.375 C  
HETATM    2  N   UNL     1     -11.340   8.151  71.546  1.00  0.00    -0.254 N  
HETATM    3  C   UNL     1     -10.401   7.590  70.481  1.00  0.00    -0.215 C  
HETATM    4  O   UNL     1     -11.139   9.501  71.690  1.00  0.00    -0.371 OA 
HETATM    5  C   UNL     1     -12.779   7.894  71.183  1.00  0.00    -0.151 C  
ENDROOT
BRANCH   3   6
HETATM    6  C   UNL     1     -10.580   8.255  69.112  1.00  0.00    -0.179 C  
BRANCH   6   7
HETATM    7  C   UNL     1      -9.295   8.487  68.351  1.00  0.00    -0.137 C  
HETATM    8  C   UNL     1      -8.970   9.625  67.685  1.00  0.00    -0.131 C  
HETATM    9  C   UNL     1      -9.949  10.740  67.650  1.00  0.00    -0.199 A  
HETATM   10  C   UNL     1     -10.289  11.442  68.815  1.00  0.00    -0.222 A  
HETATM   11  C   UNL     1     -11.243  12.459  68.781  1.00  0.00    -0.318 A  
HETATM   12  C   UNL     1     -11.849  12.802  67.575  1.00  0.00    -0.402 A  
HETATM   13  C   UNL     1     -11.496  12.133  66.403  1.00  0.00    -0.430 A  
HETATM   14  C   UNL     1     -10.545  11.103  66.431  1.00  0.00    -0.315 A  
HETATM   15  C   UNL     1     -10.132  10.407  65.160  1.00  0.00    -0.379 C  
HETATM   16  C   UNL     1      -8.690  10.748  64.784  1.00  0.00    -0.118 C  
HETATM   17  C   UNL     1      -7.554  10.204  65.636  1.00  0.00    -0.144 A  
HETATM   18  C   UNL     1      -6.268  10.291  65.056  1.00  0.00    -0.125 A  
HETATM   19  C   UNL     1      -5.129   9.861  65.734  1.00  0.00    -0.040 A  
HETATM   20  C   UNL     1      -5.249   9.345  67.014  1.00  0.00    -0.035 A  
HETATM   21  C   UNL     1      -6.503   9.269  67.615  1.00  0.00    -0.063 A  
HETATM   22  C   UNL     1      -7.675   9.681  66.944  1.00  0.00    -0.098 A  
ENDBRANCH   6   7
ENDBRANCH   3   6
TORSDOF 2
ENDMDL
MODEL      100
REMARK 921   NORMALIZED FREE ENERGY PREDICTED BY IDOCK:   -4.20 KCAL/MOL
REMARK 922        TOTAL FREE ENERGY PREDICTED BY IDOCK:   -5.01 KCAL/MOL
REMARK 923 INTER-LIGAND FREE ENERGY PREDICTED BY IDOCK:   -4.57 KCAL/MOL
REMARK 924 INTRA-LIGAND FREE ENERGY PREDICTED BY IDOCK:   -0.44 KCAL/MOL
REMARK 927      BINDING AFFINITY PREDICTED BY RF-SCORE:    0.00 PKD
ROOT
HETATM    1  C   UNL     1      -7.058  10.009  70.099  1.00  0.00    -0.154 C  
HETATM    2  N   UNL     1      -7.949   8.978  69.461  1.00  0.00    -0.096 N  
HETATM    3  C   UNL     1      -7.762   7.636  70.166  1.00  0.00    -0.091 C  
HETATM    4  O   UNL     1      -7.599   8.871  68.139  1.00  0.00    -0.091 OA 
HETATM    5  C   UNL     1      -9.377   9.446  69.566  1.00  0.00    -0.180 C  
ENDROOT
BRANCH   3   6
HETATM    6  C   UNL     1      -8.587   6.508  69.537  1.00  0.00    -0.134 C  
BRANCH   6   7
HETATM    7  C   UNL     1      -8.821   5.320  70.441  1.00  0.00    -0.146 C  
HETATM    8  C   UNL     1      -9.837   5.199  71.333  1.00  0.00    -0.239 C  
HETATM    9  C   UNL     1     -10.795   6.323  71.486  1.00  0.00    -0.303 A  
HETATM   10  C   UNL     1     -11.665   6.680  70.446  1.00  0.00    -0.446 A  
HETATM   11  C   UNL     1     -12.530   7.765  70.583  1.00  0.00     0.146 A  
HETATM   12  C   UNL     1     -12.552   8.490  71.771  1.00  0.00    -0.387 A  
HETATM   13  C   UNL     1     -11.715   8.126  72.825  1.00  0.00    -0.334 A  
HETATM   14  C   UNL     1     -10.835   7.042  72.693  1.00  0.00    -0.303 A  
HETATM   15  C   UNL     1      -9.959   6.620  73.844  1.00  0.00    -0.317 C  
HETATM   16  C   UNL     1     -10.395   5.267  74.406  1.00  0.00    -0.302 C  
HETATM   17  C   UNL     1     -10.173   4.013  73.574  1.00  0.00    -0.210 A  
HETATM   18  C   UNL     1     -10.302   2.793  74.275  1.00  0.00    -0.210 A  
HETATM   19  C   UNL     1     -10.157   1.563  73.635  1.00  0.00    -0.131 A  
HETATM   20  C   UNL     1      -9.891   1.527  72.275  1.00  0.00    -0.182 A  
HETATM   21  C   UNL     1      -9.780   2.717  71.560  1.00  0.00    -0.222 A  
HETATM   22  C   UNL     1      -9.906   3.975  72.186  1.00  0.00    -0.235 A  
ENDBRANCH   6   7
ENDBRANCH   3   6
TORSDOF 2
ENDMDL
MODEL      101
REMARK 921   NORMALIZED FREE ENERGY PREDICTED BY IDOCK:   -4.18 KCAL/MOL
REMARK 922        TOTAL FREE ENERGY PREDICTED BY IDOCK:   -4.98 KCAL/MOL
REMARK 923 INTER-LIGAND FREE ENERGY PREDICTED BY IDOCK:   -4.70 KCAL/MOL
REMARK 924 INTRA-LIGAND FREE ENERGY PREDICTED BY IDOCK:   -0.28 KCAL/MOL
REMARK 927      BINDING AFFINITY PREDICTED BY RF-SCORE:    0.00 PKD
ROOT
HETATM    1  C   UNL     1      -5.541  15.686  70.403  1.00  0.00    -0.145 C  
HETATM    2  N   UNL     1      -5.841  15.122  69.041  1.00  0.00    -0.096 N  
HETATM    3  C   UNL     1      -7.340  14.855  68.918  1.00  0.00    -0.136 C  
HETATM    4  O   UNL     1      -5.138  13.953  68.898  1.00  0.00    -0.071 OA 
HETATM    5  C   UNL     1      -5.385  16.112  68.001  1.00  0.00    -0.116 C  
ENDROOT
BRANCH   3   6
HETATM    6  C   UNL     1      -7.728  14.217  67.580  1.00  0.00    -0.208 C  
BRANCH   6   7
HETATM    7  C   UNL     1      -8.007  12.733  67.646  1.00  0.00    -0.165 C  
HETATM    8  C   UNL     1      -9.116  12.119  67.162  1.00  0.00    -0.189 C  
HETATM    9  C   UNL     1     -10.181  12.946  66.541  1.00  0.00    -0.264 A  
HETATM   10  C   UNL     1      -9.956  13.632  65.338  1.00  0.00    -0.236 A  
HETATM   11  C   UNL     1     -10.947  14.443  64.786  1.00  0.00    -0.409 A  
HETATM   12  C   UNL     1     -12.183  14.557  65.417  1.00  0.00    -0.294 A  
HETATM   13  C   UNL     1     -12.430  13.854  66.596  1.00  0.00    -0.313 A  
HETATM   14  C   UNL     1     -11.436  13.044  67.164  1.00  0.00    -0.379 A  
HETATM   15  C   UNL     1     -11.714  12.253  68.414  1.00  0.00    -0.390 C  
HETATM   16  C   UNL     1     -11.755  10.752  68.124  1.00  0.00    -0.173 C  
HETATM   17  C   UNL     1     -10.464  10.032  67.767  1.00  0.00    -0.282 A  
HETATM   18  C   UNL     1     -10.523   8.621  67.826  1.00  0.00    -0.287 A  
HETATM   19  C   UNL     1      -9.426   7.828  67.495  1.00  0.00    -0.170 A  
HETATM   20  C   UNL     1      -8.246   8.429  67.085  1.00  0.00    -0.108 A  
HETATM   21  C   UNL     1      -8.171   9.818  66.999  1.00  0.00    -0.117 A  
HETATM   22  C   UNL     1      -9.262  10.644  67.345  1.00  0.00    -0.153 A  
ENDBRANCH   6   7
ENDBRANCH   3   6
TORSDOF 2
ENDMDL
MODEL      102
REMARK 921   NORMALIZED FREE ENERGY PREDICTED BY IDOCK:   -4.17 KCAL/MOL
REMARK 922        TOTAL FREE ENERGY PREDICTED BY IDOCK:   -4.97 KCAL/MOL
REMARK 923 INTER-LIGAND FREE ENERGY PREDICTED BY IDOCK:   -4.63 KCAL/MOL
REMARK 924 INTRA-LIGAND FREE ENERGY PREDICTED BY IDOCK:   -0.34 KCAL/MOL
REMARK 927      BINDING AFFINITY PREDICTED BY RF-SCORE:    0.00 PKD
ROOT
HETATM    1  C   UNL     1      -9.986  11.968  66.170  1.00  0.00    -0.231 C  
HETATM    2  N   UNL     1     -10.387  10.933  67.185  1.00  0.00    -0.210 N  
HETATM    3  C   UNL     1     -10.055   9.541  66.652  1.00  0.00    -0.252 C  
HETATM    4  O   UNL     1     -11.737  11.047  67.401  1.00  0.00    -0.539 OA 
HETATM    5  C   UNL     1      -9.648  11.208  68.469  1.00  0.00    -0.193 C  
ENDROOT
BRANCH   3   6
HETATM    6  C   UNL     1     -10.490   8.417  67.598  1.00  0.00    -0.307 C  
BRANCH   6   7
HETATM    7  C   UNL     1      -9.380   7.480  68.017  1.00  0.00    -0.142 C  
HETATM    8  C   UNL     1      -9.258   6.903  69.239  1.00  0.00    -0.139 C  
HETATM    9  C   UNL     1     -10.259   7.223  70.287  1.00  0.00    -0.205 A  
HETATM   10  C   UNL     1     -11.597   6.820  70.159  1.00  0.00    -0.397 A  
HETATM   11  C   UNL     1     -12.539   7.164  71.128  1.00  0.00    -0.384 A  
HETATM   12  C   UNL     1     -12.150   7.894  72.247  1.00  0.00    -0.363 A  
HETATM   13  C   UNL     1     -10.817   8.273  72.403  1.00  0.00    -0.421 A  
HETATM   14  C   UNL     1      -9.864   7.939  71.429  1.00  0.00    -0.203 A  
HETATM   15  C   UNL     1      -8.416   8.311  71.614  1.00  0.00    -0.193 C  
HETATM   16  C   UNL     1      -7.550   7.073  71.849  1.00  0.00    -0.092 C  
HETATM   17  C   UNL     1      -7.316   6.105  70.700  1.00  0.00    -0.086 A  
HETATM   18  C   UNL     1      -6.269   5.177  70.895  1.00  0.00    -0.023 A  
HETATM   19  C   UNL     1      -5.961   4.209  69.941  1.00  0.00    -0.018 A  
HETATM   20  C   UNL     1      -6.704   4.139  68.773  1.00  0.00    -0.046 A  
HETATM   21  C   UNL     1      -7.754   5.031  68.567  1.00  0.00    -0.079 A  
HETATM   22  C   UNL     1      -8.076   6.031  69.510  1.00  0.00    -0.107 A  
ENDBRANCH   6   7
ENDBRANCH   3   6
TORSDOF 2
ENDMDL
MODEL      103
REMARK 921   NORMALIZED FREE ENERGY PREDICTED BY IDOCK:   -4.12 KCAL/MOL
REMARK 922        TOTAL FREE ENERGY PREDICTED BY IDOCK:   -4.91 KCAL/MOL
REMARK 923 INTER-LIGAND FREE ENERGY PREDICTED BY IDOCK:   -4.41 KCAL/MOL
REMARK 924 INTRA-LIGAND FREE ENERGY PREDICTED BY IDOCK:   -0.50 KCAL/MOL
REMARK 927      BINDING AFFINITY PREDICTED BY RF-SCORE:    0.00 PKD
ROOT
HETATM    1  C   UNL     1      -5.829  12.060  70.112  1.00  0.00    -0.162 C  
HETATM    2  N   UNL     1      -6.340  10.904  69.297  1.00  0.00    -0.057 N  
HETATM    3  C   UNL     1      -6.513   9.683  70.198  1.00  0.00    -0.075 C  
HETATM    4  O   UNL     1      -5.425  10.639  68.311  1.00  0.00    -0.037 OA 
HETATM    5  C   UNL     1      -7.652  11.300  68.671  1.00  0.00    -0.129 C  
ENDROOT
BRANCH   3   6
HETATM    6  C   UNL     1      -6.971   8.435  69.435  1.00  0.00    -0.050 C  
BRANCH   6   7
HETATM    7  C   UNL     1      -7.717   7.422  70.273  1.00  0.00    -0.093 C  
HETATM    8  C   UNL     1      -9.067   7.346  70.396  1.00  0.00    -0.157 C  
HETATM    9  C   UNL     1      -9.910   8.344  69.692  1.00  0.00    -0.184 A  
HETATM   10  C   UNL     1      -9.974   8.379  68.292  1.00  0.00    -0.214 A  
HETATM   11  C   UNL     1     -10.734   9.350  67.638  1.00  0.00    -0.295 A  
HETATM   12  C   UNL     1     -11.456  10.281  68.379  1.00  0.00    -0.163 A  
HETATM   13  C   UNL     1     -11.426  10.237  69.772  1.00  0.00    -0.320 A  
HETATM   14  C   UNL     1     -10.658   9.271  70.438  1.00  0.00    -0.298 A  
HETATM   15  C   UNL     1     -10.656   9.195  71.942  1.00  0.00    -0.303 C  
HETATM   16  C   UNL     1     -11.360   7.930  72.436  1.00  0.00    -0.427 C  
HETATM   17  C   UNL     1     -10.698   6.580  72.211  1.00  0.00    -0.252 A  
HETATM   18  C   UNL     1     -11.238   5.510  72.960  1.00  0.00    -0.346 A  
HETATM   19  C   UNL     1     -10.754   4.210  72.834  1.00  0.00    -0.230 A  
HETATM   20  C   UNL     1      -9.724   3.947  71.944  1.00  0.00    -0.239 A  
HETATM   21  C   UNL     1      -9.190   4.982  71.179  1.00  0.00    -0.187 A  
HETATM   22  C   UNL     1      -9.651   6.310  71.300  1.00  0.00    -0.189 A  
ENDBRANCH   6   7
ENDBRANCH   3   6
TORSDOF 2
ENDMDL
MODEL      104
REMARK 921   NORMALIZED FREE ENERGY PREDICTED BY IDOCK:   -4.09 KCAL/MOL
REMARK 922        TOTAL FREE ENERGY PREDICTED BY IDOCK:   -4.88 KCAL/MOL
REMARK 923 INTER-LIGAND FREE ENERGY PREDICTED BY IDOCK:   -4.58 KCAL/MOL
REMARK 924 INTRA-LIGAND FREE ENERGY PREDICTED BY IDOCK:   -0.30 KCAL/MOL
REMARK 927      BINDING AFFINITY PREDICTED BY RF-SCORE:    0.00 PKD
ROOT
HETATM    1  C   UNL     1      -7.135  17.987  69.115  1.00  0.00    -0.183 C  
HETATM    2  N   UNL     1      -6.922  16.591  68.595  1.00  0.00    -0.158 N  
HETATM    3  C   UNL     1      -8.212  15.789  68.744  1.00  0.00    -0.192 C  
HETATM    4  O   UNL     1      -5.917  16.011  69.328  1.00  0.00    -0.119 OA 
HETATM    5  C   UNL     1      -6.505  16.675  67.150  1.00  0.00    -0.188 C  
ENDROOT
BRANCH   3   6
HETATM    6  C   UNL     1      -8.067  14.330  68.297  1.00  0.00    -0.143 C  
BRANCH   6   7
HETATM    7  C   UNL     1      -8.950  13.936  67.135  1.00  0.00    -0.242 C  
HETATM    8  C   UNL     1      -9.274  12.664  66.790  1.00  0.00    -0.225 C  
HETATM    9  C   UNL     1      -8.703  11.540  67.574  1.00  0.00    -0.145 A  
HETATM   10  C   UNL     1      -9.062  11.337  68.915  1.00  0.00    -0.064 A  
HETATM   11  C   UNL     1      -8.487  10.305  69.656  1.00  0.00    -0.132 A  
HETATM   12  C   UNL     1      -7.565   9.451  69.058  1.00  0.00    -0.074 A  
HETATM   13  C   UNL     1      -7.224   9.622  67.717  1.00  0.00    -0.085 A  
HETATM   14  C   UNL     1      -7.790  10.663  66.966  1.00  0.00    -0.117 A  
HETATM   15  C   UNL     1      -7.455  10.825  65.507  1.00  0.00     0.007 C  
HETATM   16  C   UNL     1      -8.659  10.502  64.621  1.00  0.00    -0.167 C  
HETATM   17  C   UNL     1      -9.849  11.449  64.614  1.00  0.00    -0.302 A  
HETATM   18  C   UNL     1     -10.765  11.260  63.556  1.00  0.00    -0.408 A  
HETATM   19  C   UNL     1     -11.919  12.033  63.440  1.00  0.00    -0.571 A  
HETATM   20  C   UNL     1     -12.188  13.006  64.389  1.00  0.00    -0.471 A  
HETATM   21  C   UNL     1     -11.310  13.197  65.453  1.00  0.00    -0.323 A  
HETATM   22  C   UNL     1     -10.126  12.439  65.585  1.00  0.00    -0.277 A  
ENDBRANCH   6   7
ENDBRANCH   3   6
TORSDOF 2
ENDMDL
MODEL      105
REMARK 921   NORMALIZED FREE ENERGY PREDICTED BY IDOCK:   -4.07 KCAL/MOL
REMARK 922        TOTAL FREE ENERGY PREDICTED BY IDOCK:   -4.86 KCAL/MOL
REMARK 923 INTER-LIGAND FREE ENERGY PREDICTED BY IDOCK:   -4.64 KCAL/MOL
REMARK 924 INTRA-LIGAND FREE ENERGY PREDICTED BY IDOCK:   -0.22 KCAL/MOL
REMARK 927      BINDING AFFINITY PREDICTED BY RF-SCORE:    0.00 PKD
ROOT
HETATM    1  C   UNL     1      -5.480   7.651  73.821  1.00  0.00    -0.045 C  
HETATM    2  N   UNL     1      -6.678   8.027  72.992  1.00  0.00    -0.084 N  
HETATM    3  C   UNL     1      -6.218   8.764  71.737  1.00  0.00    -0.073 C  
HETATM    4  O   UNL     1      -7.484   8.838  73.750  1.00  0.00    -0.393 OA 
HETATM    5  C   UNL     1      -7.427   6.770  72.634  1.00  0.00    -0.091 C  
ENDROOT
BRANCH   3   6
HETATM    6  C   UNL     1      -7.382   9.243  70.862  1.00  0.00    -0.120 C  
BRANCH   6   7
HETATM    7  C   UNL     1      -7.735   8.318  69.720  1.00  0.00    -0.098 C  
HETATM    8  C   UNL     1      -8.994   7.996  69.330  1.00  0.00    -0.148 C  
HETATM    9  C   UNL     1     -10.144   8.552  70.086  1.00  0.00    -0.197 A  
HETATM   10  C   UNL     1     -10.422   9.927  70.074  1.00  0.00    -0.331 A  
HETATM   11  C   UNL     1     -11.478  10.446  70.824  1.00  0.00    -0.422 A  
HETATM   12  C   UNL     1     -12.282   9.592  71.573  1.00  0.00    -0.483 A  
HETATM   13  C   UNL     1     -12.037   8.220  71.568  1.00  0.00    -0.335 A  
HETATM   14  C   UNL     1     -10.972   7.690  70.825  1.00  0.00    -0.262 A  
HETATM   15  C   UNL     1     -10.729   6.204  70.785  1.00  0.00    -0.326 C  
HETATM   16  C   UNL     1     -11.032   5.629  69.401  1.00  0.00    -0.244 C  
HETATM   17  C   UNL     1     -10.111   5.969  68.240  1.00  0.00    -0.194 A  
HETATM   18  C   UNL     1     -10.265   5.163  67.090  1.00  0.00    -0.254 A  
HETATM   19  C   UNL     1      -9.510   5.379  65.938  1.00  0.00    -0.138 A  
HETATM   20  C   UNL     1      -8.591   6.416  65.907  1.00  0.00    -0.151 A  
HETATM   21  C   UNL     1      -8.437   7.237  67.021  1.00  0.00    -0.118 A  
HETATM   22  C   UNL     1      -9.176   7.030  68.206  1.00  0.00    -0.128 A  
ENDBRANCH   6   7
ENDBRANCH   3   6
TORSDOF 2
ENDMDL
MODEL      106
REMARK 921   NORMALIZED FREE ENERGY PREDICTED BY IDOCK:   -4.04 KCAL/MOL
REMARK 922        TOTAL FREE ENERGY PREDICTED BY IDOCK:   -4.82 KCAL/MOL
REMARK 923 INTER-LIGAND FREE ENERGY PREDICTED BY IDOCK:   -4.42 KCAL/MOL
REMARK 924 INTRA-LIGAND FREE ENERGY PREDICTED BY IDOCK:   -0.40 KCAL/MOL
REMARK 927      BINDING AFFINITY PREDICTED BY RF-SCORE:    0.00 PKD
ROOT
HETATM    1  C   UNL     1     -10.671   9.515  71.358  1.00  0.00    -0.278 C  
HETATM    2  N   UNL     1     -10.607   9.968  69.925  1.00  0.00    -0.263 N  
HETATM    3  C   UNL     1     -11.339  11.301  69.778  1.00  0.00    -0.271 C  
HETATM    4  O   UNL     1     -11.206   9.011  69.147  1.00  0.00     0.015 OA 
HETATM    5  C   UNL     1      -9.160  10.104  69.529  1.00  0.00    -0.195 C  
ENDROOT
BRANCH   3   6
HETATM    6  C   UNL     1     -11.379  11.807  68.332  1.00  0.00    -0.328 C  
BRANCH   6   7
HETATM    7  C   UNL     1     -10.749  13.165  68.123  1.00  0.00    -0.258 C  
HETATM    8  C   UNL     1      -9.696  13.425  67.306  1.00  0.00    -0.232 C  
HETATM    9  C   UNL     1      -9.063  12.302  66.570  1.00  0.00    -0.188 A  
HETATM   10  C   UNL     1      -9.756  11.614  65.564  1.00  0.00    -0.259 A  
HETATM   11  C   UNL     1      -9.170  10.531  64.909  1.00  0.00    -0.254 A  
HETATM   12  C   UNL     1      -7.874  10.140  65.237  1.00  0.00    -0.143 A  
HETATM   13  C   UNL     1      -7.162  10.837  66.213  1.00  0.00    -0.137 A  
HETATM   14  C   UNL     1      -7.748  11.921  66.883  1.00  0.00    -0.106 A  
HETATM   15  C   UNL     1      -6.967  12.701  67.908  1.00  0.00    -0.110 C  
HETATM   16  C   UNL     1      -6.650  14.112  67.410  1.00  0.00     0.058 C  
HETATM   17  C   UNL     1      -7.780  15.120  67.275  1.00  0.00    -0.241 A  
HETATM   18  C   UNL     1      -7.375  16.465  67.121  1.00  0.00    -0.230 A  
HETATM   19  C   UNL     1      -8.300  17.493  66.954  1.00  0.00    -0.255 A  
HETATM   20  C   UNL     1      -9.654  17.198  66.926  1.00  0.00    -0.268 A  
HETATM   21  C   UNL     1     -10.076  15.877  67.055  1.00  0.00    -0.268 A  
HETATM   22  C   UNL     1      -9.161  14.818  67.242  1.00  0.00    -0.211 A  
ENDBRANCH   6   7
ENDBRANCH   3   6
TORSDOF 2
ENDMDL
MODEL      107
REMARK 921   NORMALIZED FREE ENERGY PREDICTED BY IDOCK:   -4.02 KCAL/MOL
REMARK 922        TOTAL FREE ENERGY PREDICTED BY IDOCK:   -4.80 KCAL/MOL
REMARK 923 INTER-LIGAND FREE ENERGY PREDICTED BY IDOCK:   -4.55 KCAL/MOL
REMARK 924 INTRA-LIGAND FREE ENERGY PREDICTED BY IDOCK:   -0.26 KCAL/MOL
REMARK 927      BINDING AFFINITY PREDICTED BY RF-SCORE:    0.00 PKD
ROOT
HETATM    1  C   UNL     1     -10.365  10.932  66.269  1.00  0.00    -0.250 C  
HETATM    2  N   UNL     1      -9.350  10.116  67.022  1.00  0.00    -0.152 N  
HETATM    3  C   UNL     1     -10.063   9.024  67.817  1.00  0.00    -0.208 C  
HETATM    4  O   UNL     1      -8.672  10.954  67.870  1.00  0.00    -0.127 OA 
HETATM    5  C   UNL     1      -8.386   9.517  66.031  1.00  0.00    -0.119 C  
ENDROOT
BRANCH   3   6
HETATM    6  C   UNL     1      -9.107   8.181  68.668  1.00  0.00    -0.143 C  
BRANCH   6   7
HETATM    7  C   UNL     1      -8.950   6.750  68.209  1.00  0.00    -0.123 C  
HETATM    8  C   UNL     1      -9.558   5.674  68.769  1.00  0.00    -0.166 C  
HETATM    9  C   UNL     1     -10.428   5.877  69.955  1.00  0.00    -0.334 A  
HETATM   10  C   UNL     1     -11.632   6.587  69.857  1.00  0.00    -0.433 A  
HETATM   11  C   UNL     1     -12.421   6.812  70.985  1.00  0.00    -0.318 A  
HETATM   12  C   UNL     1     -12.024   6.307  72.220  1.00  0.00    -0.296 A  
HETATM   13  C   UNL     1     -10.845   5.571  72.326  1.00  0.00    -0.297 A  
HETATM   14  C   UNL     1     -10.041   5.348  71.198  1.00  0.00    -0.276 A  
HETATM   15  C   UNL     1      -8.788   4.519  71.301  1.00  0.00    -0.154 C  
HETATM   16  C   UNL     1      -8.939   3.190  70.560  1.00  0.00    -0.169 C  
HETATM   17  C   UNL     1      -9.000   3.192  69.041  1.00  0.00    -0.181 A  
HETATM   18  C   UNL     1      -8.819   1.932  68.427  1.00  0.00    -0.140 A  
HETATM   19  C   UNL     1      -8.882   1.777  67.044  1.00  0.00    -0.144 A  
HETATM   20  C   UNL     1      -9.138   2.878  66.242  1.00  0.00    -0.140 A  
HETATM   21  C   UNL     1      -9.340   4.126  66.826  1.00  0.00    -0.190 A  
HETATM   22  C   UNL     1      -9.265   4.315  68.223  1.00  0.00    -0.190 A  
ENDBRANCH   6   7
ENDBRANCH   3   6
TORSDOF 2
ENDMDL
MODEL      108
REMARK 921   NORMALIZED FREE ENERGY PREDICTED BY IDOCK:   -3.97 KCAL/MOL
REMARK 922        TOTAL FREE ENERGY PREDICTED BY IDOCK:   -4.75 KCAL/MOL
REMARK 923 INTER-LIGAND FREE ENERGY PREDICTED BY IDOCK:   -4.85 KCAL/MOL
REMARK 924 INTRA-LIGAND FREE ENERGY PREDICTED BY IDOCK:    0.10 KCAL/MOL
REMARK 927      BINDING AFFINITY PREDICTED BY RF-SCORE:    0.00 PKD
ROOT
HETATM    1  C   UNL     1     -12.461   9.205  71.171  1.00  0.00    -0.254 C  
HETATM    2  N   UNL     1     -11.820  10.468  70.662  1.00  0.00    -0.333 N  
HETATM    3  C   UNL     1     -12.273  10.726  69.227  1.00  0.00    -0.114 C  
HETATM    4  O   UNL     1     -10.459  10.304  70.708  1.00  0.00    -0.081 OA 
HETATM    5  C   UNL     1     -12.219  11.606  71.565  1.00  0.00     0.206 C  
ENDROOT
BRANCH   3   6
HETATM    6  C   UNL     1     -11.616  11.963  68.605  1.00  0.00    -0.366 C  
BRANCH   6   7
HETATM    7  C   UNL     1     -10.140  11.813  68.313  1.00  0.00    -0.199 C  
HETATM    8  C   UNL     1      -9.562  11.950  67.093  1.00  0.00    -0.192 C  
HETATM    9  C   UNL     1     -10.424  12.235  65.918  1.00  0.00    -0.288 A  
HETATM   10  C   UNL     1     -11.110  13.453  65.802  1.00  0.00    -0.295 A  
HETATM   11  C   UNL     1     -11.952  13.694  64.717  1.00  0.00    -0.426 A  
HETATM   12  C   UNL     1     -12.099  12.729  63.724  1.00  0.00    -0.596 A  
HETATM   13  C   UNL     1     -11.397  11.527  63.811  1.00  0.00    -0.420 A  
HETATM   14  C   UNL     1     -10.555  11.272  64.904  1.00  0.00    -0.364 A  
HETATM   15  C   UNL     1      -9.765   9.993  64.980  1.00  0.00    -0.386 C  
HETATM   16  C   UNL     1      -8.267  10.254  64.812  1.00  0.00    -0.163 C  
HETATM   17  C   UNL     1      -7.512  10.970  65.919  1.00  0.00     0.019 A  
HETATM   18  C   UNL     1      -6.103  10.892  65.838  1.00  0.00    -0.103 A  
HETATM   19  C   UNL     1      -5.280  11.527  66.766  1.00  0.00    -0.122 A  
HETATM   20  C   UNL     1      -5.848  12.267  67.791  1.00  0.00    -0.098 A  
HETATM   21  C   UNL     1      -7.234  12.375  67.880  1.00  0.00    -0.110 A  
HETATM   22  C   UNL     1      -8.091  11.728  66.963  1.00  0.00    -0.169 A  
ENDBRANCH   6   7
ENDBRANCH   3   6
TORSDOF 2
ENDMDL
MODEL      109
REMARK 921   NORMALIZED FREE ENERGY PREDICTED BY IDOCK:   -3.96 KCAL/MOL
REMARK 922        TOTAL FREE ENERGY PREDICTED BY IDOCK:   -4.73 KCAL/MOL
REMARK 923 INTER-LIGAND FREE ENERGY PREDICTED BY IDOCK:   -4.39 KCAL/MOL
REMARK 924 INTRA-LIGAND FREE ENERGY PREDICTED BY IDOCK:   -0.34 KCAL/MOL
REMARK 927      BINDING AFFINITY PREDICTED BY RF-SCORE:    0.00 PKD
ROOT
HETATM    1  C   UNL     1     -10.668  13.967  65.544  1.00  0.00    -0.313 C  
HETATM    2  N   UNL     1     -10.786  12.601  64.925  1.00  0.00    -0.287 N  
HETATM    3  C   UNL     1     -10.226  11.556  65.887  1.00  0.00    -0.244 C  
HETATM    4  O   UNL     1     -10.072  12.599  63.755  1.00  0.00    -0.367 OA 
HETATM    5  C   UNL     1     -12.238  12.333  64.628  1.00  0.00    -0.377 C  
ENDROOT
BRANCH   3   6
HETATM    6  C   UNL     1     -10.247  10.137  65.310  1.00  0.00    -0.261 C  
BRANCH   6   7
HETATM    7  C   UNL     1     -10.401   9.040  66.339  1.00  0.00    -0.219 C  
HETATM    8  C   UNL     1      -9.436   8.155  66.695  1.00  0.00    -0.274 C  
HETATM    9  C   UNL     1      -8.119   8.217  66.013  1.00  0.00    -0.112 A  
HETATM   10  C   UNL     1      -7.265   9.316  66.183  1.00  0.00    -0.091 A  
HETATM   11  C   UNL     1      -6.049   9.385  65.503  1.00  0.00    -0.063 A  
HETATM   12  C   UNL     1      -5.664   8.344  64.663  1.00  0.00    -0.048 A  
HETATM   13  C   UNL     1      -6.489   7.230  64.509  1.00  0.00    -0.040 A  
HETATM   14  C   UNL     1      -7.717   7.157  65.182  1.00  0.00    -0.116 A  
HETATM   15  C   UNL     1      -8.591   5.937  65.051  1.00  0.00    -0.065 C  
HETATM   16  C   UNL     1      -8.649   5.151  66.361  1.00  0.00    -0.112 C  
HETATM   17  C   UNL     1      -9.388   5.745  67.549  1.00  0.00    -0.111 A  
HETATM   18  C   UNL     1      -9.667   4.842  68.600  1.00  0.00    -0.223 A  
HETATM   19  C   UNL     1     -10.311   5.252  69.765  1.00  0.00    -0.369 A  
HETATM   20  C   UNL     1     -10.679   6.581  69.913  1.00  0.00    -0.310 A  
HETATM   21  C   UNL     1     -10.396   7.493  68.899  1.00  0.00    -0.220 A  
HETATM   22  C   UNL     1      -9.760   7.100  67.701  1.00  0.00    -0.172 A  
ENDBRANCH   6   7
ENDBRANCH   3   6
TORSDOF 2
ENDMDL
MODEL      110
REMARK 921   NORMALIZED FREE ENERGY PREDICTED BY IDOCK:   -3.92 KCAL/MOL
REMARK 922        TOTAL FREE ENERGY PREDICTED BY IDOCK:   -4.69 KCAL/MOL
REMARK 923 INTER-LIGAND FREE ENERGY PREDICTED BY IDOCK:   -4.59 KCAL/MOL
REMARK 924 INTRA-LIGAND FREE ENERGY PREDICTED BY IDOCK:   -0.10 KCAL/MOL
REMARK 927      BINDING AFFINITY PREDICTED BY RF-SCORE:    0.00 PKD
ROOT
HETATM    1  C   UNL     1      -5.819   4.015  70.977  1.00  0.00    -0.013 C  
HETATM    2  N   UNL     1      -7.271   3.693  71.203  1.00  0.00    -0.033 N  
HETATM    3  C   UNL     1      -8.085   4.123  69.984  1.00  0.00    -0.058 C  
HETATM    4  O   UNL     1      -7.691   4.373  72.317  1.00  0.00    -0.082 OA 
HETATM    5  C   UNL     1      -7.403   2.211  71.440  1.00  0.00    -0.032 C  
ENDROOT
BRANCH   3   6
HETATM    6  C   UNL     1      -9.590   3.890  70.155  1.00  0.00    -0.267 C  
BRANCH   6   7
HETATM    7  C   UNL     1     -10.355   5.079  70.691  1.00  0.00    -0.278 C  
HETATM    8  C   UNL     1     -10.635   6.211  69.996  1.00  0.00    -0.323 C  
HETATM    9  C   UNL     1     -10.135   6.342  68.605  1.00  0.00    -0.179 A  
HETATM   10  C   UNL     1     -10.619   5.516  67.580  1.00  0.00    -0.239 A  
HETATM   11  C   UNL     1     -10.110   5.616  66.286  1.00  0.00    -0.160 A  
HETATM   12  C   UNL     1      -9.129   6.561  65.996  1.00  0.00    -0.111 A  
HETATM   13  C   UNL     1      -8.662   7.410  66.999  1.00  0.00    -0.123 A  
HETATM   14  C   UNL     1      -9.161   7.310  68.306  1.00  0.00    -0.133 A  
HETATM   15  C   UNL     1      -8.689   8.253  69.381  1.00  0.00    -0.142 C  
HETATM   16  C   UNL     1      -9.800   9.215  69.803  1.00  0.00    -0.192 C  
HETATM   17  C   UNL     1     -10.990   8.676  70.581  1.00  0.00    -0.274 A  
HETATM   18  C   UNL     1     -11.800   9.654  71.202  1.00  0.00    -0.448 A  
HETATM   19  C   UNL     1     -12.942   9.308  71.921  1.00  0.00    -0.489 A  
HETATM   20  C   UNL     1     -13.308   7.976  72.026  1.00  0.00    -0.276 A  
HETATM   21  C   UNL     1     -12.537   6.996  71.405  1.00  0.00    -0.428 A  
HETATM   22  C   UNL     1     -11.366   7.317  70.685  1.00  0.00    -0.311 A  
ENDBRANCH   6   7
ENDBRANCH   3   6
TORSDOF 2
ENDMDL
MODEL      111
REMARK 921   NORMALIZED FREE ENERGY PREDICTED BY IDOCK:   -3.91 KCAL/MOL
REMARK 922        TOTAL FREE ENERGY PREDICTED BY IDOCK:   -4.68 KCAL/MOL
REMARK 923 INTER-LIGAND FREE ENERGY PREDICTED BY IDOCK:   -4.29 KCAL/MOL
REMARK 924 INTRA-LIGAND FREE ENERGY PREDICTED BY IDOCK:   -0.38 KCAL/MOL
REMARK 927      BINDING AFFINITY PREDICTED BY RF-SCORE:    0.00 PKD
ROOT
HETATM    1  C   UNL     1      -9.098  19.187  66.113  1.00  0.00    -0.224 C  
HETATM    2  N   UNL     1     -10.277  18.253  66.142  1.00  0.00    -0.397 N  
HETATM    3  C   UNL     1      -9.802  16.825  65.884  1.00  0.00    -0.249 C  
HETATM    4  O   UNL     1     -11.155  18.644  65.164  1.00  0.00    -0.449 OA 
HETATM    5  C   UNL     1     -10.943  18.363  67.488  1.00  0.00    -0.128 C  
ENDROOT
BRANCH   3   6
HETATM    6  C   UNL     1     -10.950  15.811  65.831  1.00  0.00    -0.191 C  
BRANCH   6   7
HETATM    7  C   UNL     1     -10.514  14.364  65.835  1.00  0.00    -0.317 C  
HETATM    8  C   UNL     1     -10.344  13.597  66.941  1.00  0.00    -0.262 C  
HETATM    9  C   UNL     1     -10.561  14.207  68.277  1.00  0.00    -0.254 A  
HETATM   10  C   UNL     1     -11.836  14.625  68.684  1.00  0.00    -0.346 A  
HETATM   11  C   UNL     1     -12.022  15.238  69.923  1.00  0.00    -0.373 A  
HETATM   12  C   UNL     1     -10.939  15.416  70.779  1.00  0.00    -0.349 A  
HETATM   13  C   UNL     1      -9.672  14.975  70.400  1.00  0.00     0.563 A  
HETATM   14  C   UNL     1      -9.473  14.367  69.152  1.00  0.00     0.041 A  
HETATM   15  C   UNL     1      -8.114  13.853  68.758  1.00  0.00    -0.043 C  
HETATM   16  C   UNL     1      -8.094  12.325  68.696  1.00  0.00    -0.029 C  
HETATM   17  C   UNL     1      -8.856  11.619  67.586  1.00  0.00    -0.159 A  
HETATM   18  C   UNL     1      -8.537  10.254  67.407  1.00  0.00    -0.125 A  
HETATM   19  C   UNL     1      -9.178   9.472  66.448  1.00  0.00    -0.210 A  
HETATM   20  C   UNL     1     -10.164  10.035  65.654  1.00  0.00    -0.258 A  
HETATM   21  C   UNL     1     -10.511  11.373  65.827  1.00  0.00    -0.314 A  
HETATM   22  C   UNL     1      -9.866  12.192  66.778  1.00  0.00    -0.218 A  
ENDBRANCH   6   7
ENDBRANCH   3   6
TORSDOF 2
ENDMDL
MODEL      112
REMARK 921   NORMALIZED FREE ENERGY PREDICTED BY IDOCK:   -3.91 KCAL/MOL
REMARK 922        TOTAL FREE ENERGY PREDICTED BY IDOCK:   -4.67 KCAL/MOL
REMARK 923 INTER-LIGAND FREE ENERGY PREDICTED BY IDOCK:   -4.33 KCAL/MOL
REMARK 924 INTRA-LIGAND FREE ENERGY PREDICTED BY IDOCK:   -0.34 KCAL/MOL
REMARK 927      BINDING AFFINITY PREDICTED BY RF-SCORE:    0.00 PKD
ROOT
HETATM    1  C   UNL     1      -9.466   9.492  64.897  1.00  0.00    -0.160 C  
HETATM    2  N   UNL     1      -8.849   9.187  66.235  1.00  0.00    -0.141 N  
HETATM    3  C   UNL     1      -9.734   8.198  66.990  1.00  0.00    -0.212 C  
HETATM    4  O   UNL     1      -8.747  10.361  66.936  1.00  0.00    -0.127 OA 
HETATM    5  C   UNL     1      -7.474   8.615  66.010  1.00  0.00    -0.085 C  
ENDROOT
BRANCH   3   6
HETATM    6  C   UNL     1      -9.213   7.878  68.396  1.00  0.00    -0.134 C  
BRANCH   6   7
HETATM    7  C   UNL     1      -9.091   6.403  68.703  1.00  0.00    -0.127 C  
HETATM    8  C   UNL     1      -9.668   5.770  69.756  1.00  0.00    -0.210 C  
HETATM    9  C   UNL     1     -10.460   6.566  70.726  1.00  0.00    -0.262 A  
HETATM   10  C   UNL     1     -11.666   7.175  70.350  1.00  0.00    -0.273 A  
HETATM   11  C   UNL     1     -12.380   7.958  71.257  1.00  0.00    -0.300 A  
HETATM   12  C   UNL     1     -11.909   8.120  72.557  1.00  0.00    -0.438 A  
HETATM   13  C   UNL     1     -10.729   7.493  72.953  1.00  0.00    -0.411 A  
HETATM   14  C   UNL     1      -9.998   6.711  72.045  1.00  0.00    -0.176 A  
HETATM   15  C   UNL     1      -8.745   6.000  72.482  1.00  0.00    -0.122 C  
HETATM   16  C   UNL     1      -8.947   4.484  72.510  1.00  0.00    -0.133 C  
HETATM   17  C   UNL     1      -9.104   3.734  71.197  1.00  0.00    -0.181 A  
HETATM   18  C   UNL     1      -8.968   2.330  71.284  1.00  0.00    -0.143 A  
HETATM   19  C   UNL     1      -9.117   1.510  70.168  1.00  0.00    -0.143 A  
HETATM   20  C   UNL     1      -9.419   2.075  68.939  1.00  0.00    -0.174 A  
HETATM   21  C   UNL     1      -9.578   3.455  68.833  1.00  0.00    -0.121 A  
HETATM   22  C   UNL     1      -9.415   4.310  69.944  1.00  0.00    -0.260 A  
ENDBRANCH   6   7
ENDBRANCH   3   6
TORSDOF 2
ENDMDL
MODEL      113
REMARK 921   NORMALIZED FREE ENERGY PREDICTED BY IDOCK:   -3.89 KCAL/MOL
REMARK 922        TOTAL FREE ENERGY PREDICTED BY IDOCK:   -4.66 KCAL/MOL
REMARK 923 INTER-LIGAND FREE ENERGY PREDICTED BY IDOCK:   -4.33 KCAL/MOL
REMARK 924 INTRA-LIGAND FREE ENERGY PREDICTED BY IDOCK:   -0.33 KCAL/MOL
REMARK 927      BINDING AFFINITY PREDICTED BY RF-SCORE:    0.00 PKD
ROOT
HETATM    1  C   UNL     1      -9.219   3.758  67.681  1.00  0.00    -0.174 C  
HETATM    2  N   UNL     1      -8.584   4.988  67.093  1.00  0.00    -0.106 N  
HETATM    3  C   UNL     1      -8.516   6.084  68.153  1.00  0.00    -0.115 C  
HETATM    4  O   UNL     1      -9.351   5.401  66.034  1.00  0.00    -0.156 OA 
HETATM    5  C   UNL     1      -7.205   4.628  66.604  1.00  0.00    -0.080 C  
ENDROOT
BRANCH   3   6
HETATM    6  C   UNL     1      -7.939   7.400  67.620  1.00  0.00    -0.114 C  
BRANCH   6   7
HETATM    7  C   UNL     1      -8.877   8.582  67.711  1.00  0.00    -0.137 C  
HETATM    8  C   UNL     1      -9.081   9.340  68.819  1.00  0.00    -0.136 C  
HETATM    9  C   UNL     1      -8.369   8.986  70.072  1.00  0.00    -0.144 A  
HETATM   10  C   UNL     1      -6.975   9.103  70.170  1.00  0.00    -0.056 A  
HETATM   11  C   UNL     1      -6.310   8.725  71.337  1.00  0.00    -0.068 A  
HETATM   12  C   UNL     1      -7.035   8.251  72.427  1.00  0.00    -0.104 A  
HETATM   13  C   UNL     1      -8.424   8.161  72.353  1.00  0.00    -0.238 A  
HETATM   14  C   UNL     1      -9.100   8.529  71.181  1.00  0.00    -0.238 A  
HETATM   15  C   UNL     1     -10.604   8.472  71.113  1.00  0.00    -0.277 C  
HETATM   16  C   UNL     1     -11.210   9.874  71.041  1.00  0.00    -0.435 C  
HETATM   17  C   UNL     1     -11.028  10.695  69.775  1.00  0.00    -0.340 A  
HETATM   18  C   UNL     1     -11.869  11.825  69.662  1.00  0.00    -0.407 A  
HETATM   19  C   UNL     1     -11.792  12.688  68.570  1.00  0.00    -0.342 A  
HETATM   20  C   UNL     1     -10.861  12.447  67.571  1.00  0.00    -0.271 A  
HETATM   21  C   UNL     1     -10.008  11.351  67.672  1.00  0.00    -0.196 A  
HETATM   22  C   UNL     1     -10.076  10.452  68.758  1.00  0.00    -0.198 A  
ENDBRANCH   6   7
ENDBRANCH   3   6
TORSDOF 2
ENDMDL
MODEL      114
REMARK 921   NORMALIZED FREE ENERGY PREDICTED BY IDOCK:   -3.85 KCAL/MOL
REMARK 922        TOTAL FREE ENERGY PREDICTED BY IDOCK:   -4.61 KCAL/MOL
REMARK 923 INTER-LIGAND FREE ENERGY PREDICTED BY IDOCK:   -4.12 KCAL/MOL
REMARK 924 INTRA-LIGAND FREE ENERGY PREDICTED BY IDOCK:   -0.49 KCAL/MOL
REMARK 927      BINDING AFFINITY PREDICTED BY RF-SCORE:    0.00 PKD
ROOT
HETATM    1  C   UNL     1      -8.514  10.076  64.345  1.00  0.00    -0.173 C  
HETATM    2  N   UNL     1      -7.762   9.259  65.360  1.00  0.00    -0.097 N  
HETATM    3  C   UNL     1      -8.166   9.696  66.766  1.00  0.00    -0.113 C  
HETATM    4  O   UNL     1      -6.420   9.467  65.167  1.00  0.00    -0.071 OA 
HETATM    5  C   UNL     1      -8.081   7.804  65.137  1.00  0.00    -0.137 C  
ENDROOT
BRANCH   3   6
HETATM    6  C   UNL     1      -7.398   8.958  67.868  1.00  0.00    -0.084 C  
BRANCH   6   7
HETATM    7  C   UNL     1      -8.183   8.729  69.139  1.00  0.00    -0.119 C  
HETATM    8  C   UNL     1      -8.683   7.537  69.550  1.00  0.00    -0.137 C  
HETATM    9  C   UNL     1      -8.494   6.343  68.688  1.00  0.00    -0.123 A  
HETATM   10  C   UNL     1      -7.218   5.805  68.467  1.00  0.00    -0.082 A  
HETATM   11  C   UNL     1      -7.044   4.711  67.620  1.00  0.00    -0.065 A  
HETATM   12  C   UNL     1      -8.148   4.127  67.004  1.00  0.00    -0.100 A  
HETATM   13  C   UNL     1      -9.426   4.633  67.241  1.00  0.00    -0.173 A  
HETATM   14  C   UNL     1      -9.609   5.739  68.084  1.00  0.00    -0.132 A  
HETATM   15  C   UNL     1     -10.991   6.261  68.374  1.00  0.00    -0.409 C  
HETATM   16  C   UNL     1     -11.390   6.001  69.828  1.00  0.00    -0.344 C  
HETATM   17  C   UNL     1     -10.694   6.776  70.936  1.00  0.00    -0.269 A  
HETATM   18  C   UNL     1     -11.323   6.719  72.200  1.00  0.00    -0.307 A  
HETATM   19  C   UNL     1     -10.783   7.354  73.316  1.00  0.00    -0.441 A  
HETATM   20  C   UNL     1      -9.592   8.053  73.195  1.00  0.00    -0.344 A  
HETATM   21  C   UNL     1      -8.943   8.106  71.964  1.00  0.00    -0.236 A  
HETATM   22  C   UNL     1      -9.477   7.485  70.814  1.00  0.00    -0.163 A  
ENDBRANCH   6   7
ENDBRANCH   3   6
TORSDOF 2
ENDMDL
MODEL      115
REMARK 921   NORMALIZED FREE ENERGY PREDICTED BY IDOCK:   -3.85 KCAL/MOL
REMARK 922        TOTAL FREE ENERGY PREDICTED BY IDOCK:   -4.61 KCAL/MOL
REMARK 923 INTER-LIGAND FREE ENERGY PREDICTED BY IDOCK:   -4.34 KCAL/MOL
REMARK 924 INTRA-LIGAND FREE ENERGY PREDICTED BY IDOCK:   -0.27 KCAL/MOL
REMARK 927      BINDING AFFINITY PREDICTED BY RF-SCORE:    0.00 PKD
ROOT
HETATM    1  C   UNL     1     -10.904   7.391  68.922  1.00  0.00    -0.060 C  
HETATM    2  N   UNL     1     -10.019   8.598  69.072  1.00  0.00    -0.187 N  
HETATM    3  C   UNL     1     -10.802   9.854  68.698  1.00  0.00    -0.209 C  
HETATM    4  O   UNL     1      -8.942   8.445  68.235  1.00  0.00    -0.139 OA 
HETATM    5  C   UNL     1      -9.540   8.667  70.498  1.00  0.00    -0.181 C  
ENDROOT
BRANCH   3   6
HETATM    6  C   UNL     1      -9.955  11.130  68.760  1.00  0.00    -0.207 C  
BRANCH   6   7
HETATM    7  C   UNL     1     -10.366  12.208  67.784  1.00  0.00    -0.217 C  
HETATM    8  C   UNL     1      -9.637  13.310  67.477  1.00  0.00    -0.218 C  
HETATM    9  C   UNL     1      -8.339  13.527  68.164  1.00  0.00    -0.167 A  
HETATM   10  C   UNL     1      -7.252  12.668  67.947  1.00  0.00    -0.116 A  
HETATM   11  C   UNL     1      -6.051  12.852  68.631  1.00  0.00    -0.068 A  
HETATM   12  C   UNL     1      -5.916  13.913  69.522  1.00  0.00    -0.105 A  
HETATM   13  C   UNL     1      -6.978  14.794  69.723  1.00  0.00    -0.158 A  
HETATM   14  C   UNL     1      -8.193  14.610  69.047  1.00  0.00    -0.110 A  
HETATM   15  C   UNL     1      -9.328  15.583  69.231  1.00  0.00    -0.266 C  
HETATM   16  C   UNL     1      -9.574  16.396  67.959  1.00  0.00    -0.226 C  
HETATM   17  C   UNL     1     -10.159  15.703  66.739  1.00  0.00    -0.277 A  
HETATM   18  C   UNL     1     -10.648  16.564  65.731  1.00  0.00    -0.307 A  
HETATM   19  C   UNL     1     -11.183  16.071  64.543  1.00  0.00    -0.309 A  
HETATM   20  C   UNL     1     -11.231  14.702  64.330  1.00  0.00    -0.190 A  
HETATM   21  C   UNL     1     -10.736  13.834  65.301  1.00  0.00    -0.345 A  
HETATM   22  C   UNL     1     -10.204  14.307  66.520  1.00  0.00    -0.277 A  
ENDBRANCH   6   7
ENDBRANCH   3   6
TORSDOF 2
ENDMDL
MODEL      116
REMARK 921   NORMALIZED FREE ENERGY PREDICTED BY IDOCK:   -3.84 KCAL/MOL
REMARK 922        TOTAL FREE ENERGY PREDICTED BY IDOCK:   -4.60 KCAL/MOL
REMARK 923 INTER-LIGAND FREE ENERGY PREDICTED BY IDOCK:   -4.59 KCAL/MOL
REMARK 924 INTRA-LIGAND FREE ENERGY PREDICTED BY IDOCK:   -0.01 KCAL/MOL
REMARK 927      BINDING AFFINITY PREDICTED BY RF-SCORE:    0.00 PKD
ROOT
HETATM    1  C   UNL     1      -5.323   5.401  71.862  1.00  0.00    -0.012 C  
HETATM    2  N   UNL     1      -6.588   5.662  72.634  1.00  0.00    -0.065 N  
HETATM    3  C   UNL     1      -7.281   6.902  72.073  1.00  0.00    -0.082 C  
HETATM    4  O   UNL     1      -6.253   5.861  73.949  1.00  0.00    -0.061 OA 
HETATM    5  C   UNL     1      -7.478   4.452  72.520  1.00  0.00    -0.078 C  
ENDROOT
BRANCH   3   6
HETATM    6  C   UNL     1      -8.550   7.281  72.844  1.00  0.00    -0.148 C  
BRANCH   6   7
HETATM    7  C   UNL     1      -9.389   8.354  72.188  1.00  0.00    -0.339 C  
HETATM    8  C   UNL     1      -9.991   8.250  70.976  1.00  0.00    -0.226 C  
HETATM    9  C   UNL     1      -9.802   7.008  70.185  1.00  0.00    -0.179 A  
HETATM   10  C   UNL     1     -10.326   5.784  70.623  1.00  0.00    -0.310 A  
HETATM   11  C   UNL     1     -10.105   4.614  69.896  1.00  0.00    -0.257 A  
HETATM   12  C   UNL     1      -9.378   4.661  68.710  1.00  0.00    -0.197 A  
HETATM   13  C   UNL     1      -8.878   5.878  68.246  1.00  0.00    -0.110 A  
HETATM   14  C   UNL     1      -9.088   7.057  68.976  1.00  0.00    -0.135 A  
HETATM   15  C   UNL     1      -8.584   8.379  68.458  1.00  0.00    -0.136 C  
HETATM   16  C   UNL     1      -9.741   9.289  68.041  1.00  0.00    -0.172 C  
HETATM   17  C   UNL     1     -10.645   9.875  69.113  1.00  0.00    -0.240 A  
HETATM   18  C   UNL     1     -11.474  10.938  68.689  1.00  0.00    -0.380 A  
HETATM   19  C   UNL     1     -12.377  11.552  69.555  1.00  0.00    -0.190 A  
HETATM   20  C   UNL     1     -12.480  11.108  70.864  1.00  0.00    -0.509 A  
HETATM   21  C   UNL     1     -11.687  10.049  71.299  1.00  0.00    -0.452 A  
HETATM   22  C   UNL     1     -10.753   9.420  70.447  1.00  0.00    -0.317 A  
ENDBRANCH   6   7
ENDBRANCH   3   6
TORSDOF 2
ENDMDL
MODEL      117
REMARK 921   NORMALIZED FREE ENERGY PREDICTED BY IDOCK:   -3.82 KCAL/MOL
REMARK 922        TOTAL FREE ENERGY PREDICTED BY IDOCK:   -4.58 KCAL/MOL
REMARK 923 INTER-LIGAND FREE ENERGY PREDICTED BY IDOCK:   -4.53 KCAL/MOL
REMARK 924 INTRA-LIGAND FREE ENERGY PREDICTED BY IDOCK:   -0.06 KCAL/MOL
REMARK 927      BINDING AFFINITY PREDICTED BY RF-SCORE:    0.00 PKD
ROOT
HETATM    1  C   UNL     1     -12.044  12.901  63.469  1.00  0.00    -0.555 C  
HETATM    2  N   UNL     1     -11.949  13.704  64.738  1.00  0.00    -0.377 N  
HETATM    3  C   UNL     1     -10.702  13.284  65.513  1.00  0.00    -0.289 C  
HETATM    4  O   UNL     1     -13.075  13.460  65.483  1.00  0.00    -0.519 OA 
HETATM    5  C   UNL     1     -11.891  15.165  64.378  1.00  0.00    -0.305 C  
ENDROOT
BRANCH   3   6
HETATM    6  C   UNL     1     -10.560  14.008  66.857  1.00  0.00    -0.280 C  
BRANCH   6   7
HETATM    7  C   UNL     1      -9.671  15.230  66.823  1.00  0.00    -0.249 C  
HETATM    8  C   UNL     1      -8.367  15.263  67.197  1.00  0.00    -0.244 C  
HETATM    9  C   UNL     1      -7.738  14.025  67.722  1.00  0.00    -0.178 A  
HETATM   10  C   UNL     1      -7.540  12.908  66.898  1.00  0.00     0.198 A  
HETATM   11  C   UNL     1      -6.989  11.734  67.412  1.00  0.00    -0.121 A  
HETATM   12  C   UNL     1      -6.609  11.673  68.749  1.00  0.00    -0.072 A  
HETATM   13  C   UNL     1      -6.771  12.787  69.572  1.00  0.00     0.032 A  
HETATM   14  C   UNL     1      -7.332  13.969  69.066  1.00  0.00    -0.081 A  
HETATM   15  C   UNL     1      -7.471  15.187  69.941  1.00  0.00    -0.032 C  
HETATM   16  C   UNL     1      -6.523  16.302  69.496  1.00  0.00    -0.203 C  
HETATM   17  C   UNL     1      -6.791  17.021  68.183  1.00  0.00    -0.161 A  
HETATM   18  C   UNL     1      -6.077  18.226  67.998  1.00  0.00    -0.173 A  
HETATM   19  C   UNL     1      -6.198  18.976  66.830  1.00  0.00    -0.192 A  
HETATM   20  C   UNL     1      -7.029  18.530  65.813  1.00  0.00    -0.287 A  
HETATM   21  C   UNL     1      -7.727  17.335  65.965  1.00  0.00    -0.223 A  
HETATM   22  C   UNL     1      -7.635  16.564  67.144  1.00  0.00    -0.214 A  
ENDBRANCH   6   7
ENDBRANCH   3   6
TORSDOF 2
ENDMDL
MODEL      118
REMARK 921   NORMALIZED FREE ENERGY PREDICTED BY IDOCK:   -3.82 KCAL/MOL
REMARK 922        TOTAL FREE ENERGY PREDICTED BY IDOCK:   -4.58 KCAL/MOL
REMARK 923 INTER-LIGAND FREE ENERGY PREDICTED BY IDOCK:   -4.55 KCAL/MOL
REMARK 924 INTRA-LIGAND FREE ENERGY PREDICTED BY IDOCK:   -0.03 KCAL/MOL
REMARK 927      BINDING AFFINITY PREDICTED BY RF-SCORE:    0.00 PKD
ROOT
HETATM    1  C   UNL     1     -11.880   6.852  70.837  1.00  0.00    -0.376 C  
HETATM    2  N   UNL     1     -10.814   7.911  70.758  1.00  0.00    -0.228 N  
HETATM    3  C   UNL     1     -10.520   8.229  69.293  1.00  0.00    -0.210 C  
HETATM    4  O   UNL     1      -9.687   7.429  71.373  1.00  0.00    -0.167 OA 
HETATM    5  C   UNL     1     -11.299   9.136  71.487  1.00  0.00    -0.368 C  
ENDROOT
BRANCH   3   6
HETATM    6  C   UNL     1      -9.396   9.256  69.116  1.00  0.00    -0.157 C  
BRANCH   6   7
HETATM    7  C   UNL     1      -9.856  10.696  69.093  1.00  0.00    -0.217 C  
HETATM    8  C   UNL     1      -9.354  11.668  68.290  1.00  0.00    -0.191 C  
HETATM    9  C   UNL     1      -8.238  11.334  67.371  1.00  0.00    -0.135 A  
HETATM   10  C   UNL     1      -8.423  10.452  66.296  1.00  0.00    -0.145 A  
HETATM   11  C   UNL     1      -7.357  10.110  65.465  1.00  0.00    -0.143 A  
HETATM   12  C   UNL     1      -6.099  10.666  65.684  1.00  0.00    -0.124 A  
HETATM   13  C   UNL     1      -5.909  11.569  66.728  1.00  0.00    -0.143 A  
HETATM   14  C   UNL     1      -6.973  11.912  67.576  1.00  0.00    -0.123 A  
HETATM   15  C   UNL     1      -6.781  12.918  68.679  1.00  0.00    -0.095 C  
HETATM   16  C   UNL     1      -7.544  14.212  68.391  1.00  0.00    -0.130 C  
HETATM   17  C   UNL     1      -9.063  14.204  68.450  1.00  0.00    -0.191 A  
HETATM   18  C   UNL     1      -9.673  15.478  68.487  1.00  0.00    -0.203 A  
HETATM   19  C   UNL     1     -11.058  15.626  68.511  1.00  0.00    -0.322 A  
HETATM   20  C   UNL     1     -11.867  14.501  68.485  1.00  0.00    -0.355 A  
HETATM   21  C   UNL     1     -11.289  13.235  68.427  1.00  0.00    -0.326 A  
HETATM   22  C   UNL     1      -9.889  13.056  68.419  1.00  0.00    -0.203 A  
ENDBRANCH   6   7
ENDBRANCH   3   6
TORSDOF 2
ENDMDL
MODEL      119
REMARK 921   NORMALIZED FREE ENERGY PREDICTED BY IDOCK:   -3.82 KCAL/MOL
REMARK 922        TOTAL FREE ENERGY PREDICTED BY IDOCK:   -4.57 KCAL/MOL
REMARK 923 INTER-LIGAND FREE ENERGY PREDICTED BY IDOCK:   -4.21 KCAL/MOL
REMARK 924 INTRA-LIGAND FREE ENERGY PREDICTED BY IDOCK:   -0.36 KCAL/MOL
REMARK 927      BINDING AFFINITY PREDICTED BY RF-SCORE:    0.00 PKD
ROOT
HETATM    1  C   UNL     1      -6.525  13.811  69.346  1.00  0.00    -0.111 C  
HETATM    2  N   UNL     1      -6.894  12.427  68.886  1.00  0.00    -0.096 N  
HETATM    3  C   UNL     1      -8.327  12.430  68.360  1.00  0.00    -0.137 C  
HETATM    4  O   UNL     1      -6.785  11.578  69.958  1.00  0.00    -0.075 OA 
HETATM    5  C   UNL     1      -5.927  12.006  67.811  1.00  0.00    -0.078 C  
ENDROOT
BRANCH   3   6
HETATM    6  C   UNL     1      -8.810  11.041  67.928  1.00  0.00    -0.134 C  
BRANCH   6   7
HETATM    7  C   UNL     1      -9.655  10.321  68.953  1.00  0.00    -0.193 C  
HETATM    8  C   UNL     1      -9.590   8.995  69.234  1.00  0.00    -0.162 C  
HETATM    9  C   UNL     1      -8.648   8.144  68.465  1.00  0.00    -0.130 A  
HETATM   10  C   UNL     1      -7.260   8.304  68.589  1.00  0.00    -0.087 A  
HETATM   11  C   UNL     1      -6.384   7.531  67.828  1.00  0.00    -0.053 A  
HETATM   12  C   UNL     1      -6.885   6.571  66.953  1.00  0.00    -0.066 A  
HETATM   13  C   UNL     1      -8.262   6.379  66.844  1.00  0.00    -0.110 A  
HETATM   14  C   UNL     1      -9.151   7.159  67.598  1.00  0.00    -0.127 A  
HETATM   15  C   UNL     1     -10.637   6.926  67.513  1.00  0.00    -0.351 C  
HETATM   16  C   UNL     1     -11.183   6.340  68.815  1.00  0.00    -0.357 C  
HETATM   17  C   UNL     1     -11.233   7.216  70.057  1.00  0.00    -0.271 A  
HETATM   18  C   UNL     1     -12.028   6.719  71.115  1.00  0.00    -0.421 A  
HETATM   19  C   UNL     1     -12.143   7.399  72.325  1.00  0.00    -0.246 A  
HETATM   20  C   UNL     1     -11.454   8.588  72.511  1.00  0.00    -0.368 A  
HETATM   21  C   UNL     1     -10.647   9.085  71.491  1.00  0.00    -0.415 A  
HETATM   22  C   UNL     1     -10.527   8.426  70.248  1.00  0.00    -0.225 A  
ENDBRANCH   6   7
ENDBRANCH   3   6
TORSDOF 2
ENDMDL
MODEL      120
REMARK 921   NORMALIZED FREE ENERGY PREDICTED BY IDOCK:   -3.81 KCAL/MOL
REMARK 922        TOTAL FREE ENERGY PREDICTED BY IDOCK:   -4.57 KCAL/MOL
REMARK 923 INTER-LIGAND FREE ENERGY PREDICTED BY IDOCK:   -4.26 KCAL/MOL
REMARK 924 INTRA-LIGAND FREE ENERGY PREDICTED BY IDOCK:   -0.31 KCAL/MOL
REMARK 927      BINDING AFFINITY PREDICTED BY RF-SCORE:    0.00 PKD
ROOT
HETATM    1  C   UNL     1      -9.958   8.355  72.558  1.00  0.00    -0.285 C  
HETATM    2  N   UNL     1     -10.756   8.004  71.332  1.00  0.00    -0.225 N  
HETATM    3  C   UNL     1     -10.176   8.731  70.121  1.00  0.00    -0.190 C  
HETATM    4  O   UNL     1     -12.054   8.394  71.542  1.00  0.00    -0.282 OA 
HETATM    5  C   UNL     1     -10.705   6.511  71.138  1.00  0.00    -0.240 C  
ENDROOT
BRANCH   3   6
HETATM    6  C   UNL     1     -10.970   8.481  68.835  1.00  0.00     0.106 C  
BRANCH   6   7
HETATM    7  C   UNL     1     -10.388   9.130  67.599  1.00  0.00    -0.314 C  
HETATM    8  C   UNL     1      -9.757   8.475  66.591  1.00  0.00    -0.318 C  
HETATM    9  C   UNL     1      -9.573   7.006  66.694  1.00  0.00    -0.220 A  
HETATM   10  C   UNL     1     -10.671   6.134  66.659  1.00  0.00    -0.301 A  
HETATM   11  C   UNL     1     -10.492   4.758  66.801  1.00  0.00    -0.180 A  
HETATM   12  C   UNL     1      -9.210   4.237  66.955  1.00  0.00    -0.160 A  
HETATM   13  C   UNL     1      -8.107   5.090  66.959  1.00  0.00    -0.107 A  
HETATM   14  C   UNL     1      -8.278   6.476  66.826  1.00  0.00    -0.110 A  
HETATM   15  C   UNL     1      -7.086   7.396  66.789  1.00  0.00    -0.079 C  
HETATM   16  C   UNL     1      -6.905   8.015  65.402  1.00  0.00    -0.062 C  
HETATM   17  C   UNL     1      -7.912   9.044  64.914  1.00  0.00    -0.126 A  
HETATM   18  C   UNL     1      -7.512   9.792  63.783  1.00  0.00    -0.128 A  
HETATM   19  C   UNL     1      -8.344  10.748  63.206  1.00  0.00    -0.026 A  
HETATM   20  C   UNL     1      -9.604  10.971  63.740  1.00  0.00    -0.321 A  
HETATM   21  C   UNL     1     -10.029  10.231  64.841  1.00  0.00    -0.393 A  
HETATM   22  C   UNL     1      -9.199   9.268  65.456  1.00  0.00    -0.292 A  
ENDBRANCH   6   7
ENDBRANCH   3   6
TORSDOF 2
ENDMDL
MODEL      121
REMARK 921   NORMALIZED FREE ENERGY PREDICTED BY IDOCK:   -3.79 KCAL/MOL
REMARK 922        TOTAL FREE ENERGY PREDICTED BY IDOCK:   -4.54 KCAL/MOL
REMARK 923 INTER-LIGAND FREE ENERGY PREDICTED BY IDOCK:   -4.26 KCAL/MOL
REMARK 924 INTRA-LIGAND FREE ENERGY PREDICTED BY IDOCK:   -0.29 KCAL/MOL
REMARK 927      BINDING AFFINITY PREDICTED BY RF-SCORE:    0.00 PKD
ROOT
HETATM    1  C   UNL     1      -8.039  17.541  68.062  1.00  0.00    -0.237 C  
HETATM    2  N   UNL     1      -7.812  16.262  67.303  1.00  0.00    -0.158 N  
HETATM    3  C   UNL     1      -7.991  15.072  68.244  1.00  0.00    -0.128 C  
HETATM    4  O   UNL     1      -6.534  16.283  66.804  1.00  0.00    -0.280 OA 
HETATM    5  C   UNL     1      -8.795  16.198  66.164  1.00  0.00    -0.332 C  
ENDROOT
BRANCH   3   6
HETATM    6  C   UNL     1      -7.713  13.725  67.568  1.00  0.00    -0.187 C  
BRANCH   6   7
HETATM    7  C   UNL     1      -8.481  12.559  68.147  1.00  0.00    -0.180 C  
HETATM    8  C   UNL     1      -8.356  11.265  67.758  1.00  0.00    -0.125 C  
HETATM    9  C   UNL     1      -7.425  10.935  66.650  1.00  0.00    -0.139 A  
HETATM   10  C   UNL     1      -6.039  11.092  66.798  1.00  0.00    -0.104 A  
HETATM   11  C   UNL     1      -5.175  10.821  65.737  1.00  0.00    -0.122 A  
HETATM   12  C   UNL     1      -5.686  10.369  64.524  1.00  0.00    -0.131 A  
HETATM   13  C   UNL     1      -7.059  10.178  64.374  1.00  0.00    -0.111 A  
HETATM   14  C   UNL     1      -7.936  10.456  65.433  1.00  0.00    -0.147 A  
HETATM   15  C   UNL     1      -9.415  10.212  65.287  1.00  0.00    -0.306 C  
HETATM   16  C   UNL     1      -9.876   9.048  66.165  1.00  0.00    -0.349 C  
HETATM   17  C   UNL     1      -9.895   9.223  67.676  1.00  0.00    -0.221 A  
HETATM   18  C   UNL     1     -10.619   8.242  68.389  1.00  0.00    -0.148 A  
HETATM   19  C   UNL     1     -10.697   8.256  69.780  1.00  0.00    -0.221 A  
HETATM   20  C   UNL     1     -10.040   9.248  70.492  1.00  0.00    -0.313 A  
HETATM   21  C   UNL     1      -9.303  10.214  69.812  1.00  0.00    -0.183 A  
HETATM   22  C   UNL     1      -9.221  10.232  68.402  1.00  0.00    -0.136 A  
ENDBRANCH   6   7
ENDBRANCH   3   6
TORSDOF 2
ENDMDL
MODEL      122
REMARK 921   NORMALIZED FREE ENERGY PREDICTED BY IDOCK:   -3.78 KCAL/MOL
REMARK 922        TOTAL FREE ENERGY PREDICTED BY IDOCK:   -4.53 KCAL/MOL
REMARK 923 INTER-LIGAND FREE ENERGY PREDICTED BY IDOCK:   -4.22 KCAL/MOL
REMARK 924 INTRA-LIGAND FREE ENERGY PREDICTED BY IDOCK:   -0.32 KCAL/MOL
REMARK 927      BINDING AFFINITY PREDICTED BY RF-SCORE:    0.00 PKD
ROOT
HETATM    1  C   UNL     1     -13.735   8.994  72.068  1.00  0.00    -0.461 C  
HETATM    2  N   UNL     1     -12.388   8.348  71.890  1.00  0.00    -0.326 N  
HETATM    3  C   UNL     1     -12.542   7.063  71.079  1.00  0.00    -0.288 C  
HETATM    4  O   UNL     1     -11.883   8.065  73.133  1.00  0.00    -0.233 OA 
HETATM    5  C   UNL     1     -11.478   9.321  71.187  1.00  0.00    -0.333 C  
ENDROOT
BRANCH   3   6
HETATM    6  C   UNL     1     -11.224   6.303  70.904  1.00  0.00    -0.386 C  
BRANCH   6   7
HETATM    7  C   UNL     1     -10.811   6.080  69.467  1.00  0.00    -0.439 C  
HETATM    8  C   UNL     1      -9.534   5.953  69.026  1.00  0.00    -0.149 C  
HETATM    9  C   UNL     1      -8.422   6.074  70.003  1.00  0.00    -0.131 A  
HETATM   10  C   UNL     1      -8.238   5.119  71.012  1.00  0.00    -0.111 A  
HETATM   11  C   UNL     1      -7.218   5.265  71.953  1.00  0.00    -0.085 A  
HETATM   12  C   UNL     1      -6.357   6.356  71.879  1.00  0.00    -0.043 A  
HETATM   13  C   UNL     1      -6.509   7.297  70.861  1.00  0.00    -0.043 A  
HETATM   14  C   UNL     1      -7.538   7.163  69.917  1.00  0.00    -0.098 A  
HETATM   15  C   UNL     1      -7.680   8.155  68.793  1.00  0.00    -0.107 C  
HETATM   16  C   UNL     1      -7.341   7.518  67.444  1.00  0.00    -0.099 C  
HETATM   17  C   UNL     1      -8.285   6.481  66.857  1.00  0.00    -0.113 A  
HETATM   18  C   UNL     1      -8.079   6.180  65.492  1.00  0.00    -0.131 A  
HETATM   19  C   UNL     1      -8.848   5.226  64.829  1.00  0.00    -0.066 A  
HETATM   20  C   UNL     1      -9.835   4.541  65.520  1.00  0.00    -0.219 A  
HETATM   21  C   UNL     1     -10.042   4.806  66.872  1.00  0.00    -0.246 A  
HETATM   22  C   UNL     1      -9.289   5.779  67.563  1.00  0.00    -0.111 A  
ENDBRANCH   6   7
ENDBRANCH   3   6
TORSDOF 2
ENDMDL
MODEL      123
REMARK 921   NORMALIZED FREE ENERGY PREDICTED BY IDOCK:   -3.77 KCAL/MOL
REMARK 922        TOTAL FREE ENERGY PREDICTED BY IDOCK:   -4.52 KCAL/MOL
REMARK 923 INTER-LIGAND FREE ENERGY PREDICTED BY IDOCK:   -4.33 KCAL/MOL
REMARK 924 INTRA-LIGAND FREE ENERGY PREDICTED BY IDOCK:   -0.19 KCAL/MOL
REMARK 927      BINDING AFFINITY PREDICTED BY RF-SCORE:    0.00 PKD
ROOT
HETATM    1  C   UNL     1     -13.834   7.503  71.689  1.00  0.00    -0.387 C  
HETATM    2  N   UNL     1     -12.504   8.200  71.601  1.00  0.00    -0.310 N  
HETATM    3  C   UNL     1     -11.771   7.741  70.342  1.00  0.00    -0.028 C  
HETATM    4  O   UNL     1     -11.776   7.876  72.717  1.00  0.00    -0.364 OA 
HETATM    5  C   UNL     1     -12.743   9.687  71.572  1.00  0.00    -0.387 C  
ENDROOT
BRANCH   3   6
HETATM    6  C   UNL     1     -10.373   8.355  70.205  1.00  0.00    -0.214 C  
BRANCH   6   7
HETATM    7  C   UNL     1     -10.081   8.959  68.850  1.00  0.00    -0.209 C  
HETATM    8  C   UNL     1      -9.472   8.320  67.819  1.00  0.00    -0.171 C  
HETATM    9  C   UNL     1      -9.009   6.923  68.014  1.00  0.00    -0.121 A  
HETATM   10  C   UNL     1      -9.923   5.878  68.207  1.00  0.00    -0.177 A  
HETATM   11  C   UNL     1      -9.477   4.576  68.434  1.00  0.00    -0.209 A  
HETATM   12  C   UNL     1      -8.112   4.301  68.445  1.00  0.00    -0.081 A  
HETATM   13  C   UNL     1      -7.194   5.326  68.222  1.00  0.00    -0.067 A  
HETATM   14  C   UNL     1      -7.633   6.640  68.003  1.00  0.00    -0.107 A  
HETATM   15  C   UNL     1      -6.645   7.742  67.721  1.00  0.00    -0.060 C  
HETATM   16  C   UNL     1      -6.757   8.233  66.277  1.00  0.00    -0.057 C  
HETATM   17  C   UNL     1      -7.989   9.017  65.855  1.00  0.00    -0.103 A  
HETATM   18  C   UNL     1      -7.879   9.698  64.622  1.00  0.00    -0.133 A  
HETATM   19  C   UNL     1      -8.940  10.431  64.094  1.00  0.00    -0.251 A  
HETATM   20  C   UNL     1     -10.142  10.489  64.782  1.00  0.00    -0.406 A  
HETATM   21  C   UNL     1     -10.280   9.808  65.989  1.00  0.00    -0.263 A  
HETATM   22  C   UNL     1      -9.217   9.073  66.555  1.00  0.00    -0.226 A  
ENDBRANCH   6   7
ENDBRANCH   3   6
TORSDOF 2
ENDMDL
MODEL      124
REMARK 921   NORMALIZED FREE ENERGY PREDICTED BY IDOCK:   -3.76 KCAL/MOL
REMARK 922        TOTAL FREE ENERGY PREDICTED BY IDOCK:   -4.52 KCAL/MOL
REMARK 923 INTER-LIGAND FREE ENERGY PREDICTED BY IDOCK:   -4.23 KCAL/MOL
REMARK 924 INTRA-LIGAND FREE ENERGY PREDICTED BY IDOCK:   -0.29 KCAL/MOL
REMARK 927      BINDING AFFINITY PREDICTED BY RF-SCORE:    0.00 PKD
ROOT
HETATM    1  C   UNL     1      -5.566  12.452  67.669  1.00  0.00    -0.121 C  
HETATM    2  N   UNL     1      -6.962  11.977  67.965  1.00  0.00    -0.077 N  
HETATM    3  C   UNL     1      -6.936  11.030  69.162  1.00  0.00    -0.104 C  
HETATM    4  O   UNL     1      -7.435  11.324  66.855  1.00  0.00    -0.131 OA 
HETATM    5  C   UNL     1      -7.827  13.178  68.247  1.00  0.00    -0.143 C  
ENDROOT
BRANCH   3   6
HETATM    6  C   UNL     1      -8.313  10.446  69.495  1.00  0.00    -0.126 C  
BRANCH   6   7
HETATM    7  C   UNL     1      -8.467   8.976  69.176  1.00  0.00    -0.128 C  
HETATM    8  C   UNL     1      -9.581   8.235  69.404  1.00  0.00    -0.171 C  
HETATM    9  C   UNL     1     -10.752   8.879  70.050  1.00  0.00    -0.241 A  
HETATM   10  C   UNL     1     -11.476   9.887  69.398  1.00  0.00    -0.079 A  
HETATM   11  C   UNL     1     -12.547  10.518  70.031  1.00  0.00    -0.192 A  
HETATM   12  C   UNL     1     -12.920  10.130  71.315  1.00  0.00    -0.510 A  
HETATM   13  C   UNL     1     -12.229   9.107  71.963  1.00  0.00    -0.443 A  
HETATM   14  C   UNL     1     -11.145   8.474  71.337  1.00  0.00    -0.328 A  
HETATM   15  C   UNL     1     -10.422   7.341  72.017  1.00  0.00    -0.228 C  
HETATM   16  C   UNL     1     -10.677   6.012  71.305  1.00  0.00    -0.320 C  
HETATM   17  C   UNL     1     -10.071   5.781  69.930  1.00  0.00    -0.273 A  
HETATM   18  C   UNL     1     -10.081   4.440  69.483  1.00  0.00    -0.059 A  
HETATM   19  C   UNL     1      -9.587   4.083  68.230  1.00  0.00    -0.188 A  
HETATM   20  C   UNL     1      -9.083   5.062  67.388  1.00  0.00    -0.120 A  
HETATM   21  C   UNL     1      -9.082   6.393  67.799  1.00  0.00    -0.111 A  
HETATM   22  C   UNL     1      -9.560   6.780  69.070  1.00  0.00    -0.135 A  
ENDBRANCH   6   7
ENDBRANCH   3   6
TORSDOF 2
ENDMDL
MODEL      125
REMARK 921   NORMALIZED FREE ENERGY PREDICTED BY IDOCK:   -3.76 KCAL/MOL
REMARK 922        TOTAL FREE ENERGY PREDICTED BY IDOCK:   -4.51 KCAL/MOL
REMARK 923 INTER-LIGAND FREE ENERGY PREDICTED BY IDOCK:   -4.23 KCAL/MOL
REMARK 924 INTRA-LIGAND FREE ENERGY PREDICTED BY IDOCK:   -0.28 KCAL/MOL
REMARK 927      BINDING AFFINITY PREDICTED BY RF-SCORE:    0.00 PKD
ROOT
HETATM    1  C   UNL     1     -10.517  12.343  64.505  1.00  0.00    -0.325 C  
HETATM    2  N   UNL     1      -9.891  11.742  65.734  1.00  0.00    -0.234 N  
HETATM    3  C   UNL     1     -10.495  10.364  65.992  1.00  0.00    -0.140 C  
HETATM    4  O   UNL     1     -10.145  12.576  66.793  1.00  0.00    -0.219 OA 
HETATM    5  C   UNL     1      -8.404  11.646  65.516  1.00  0.00     0.466 C  
ENDROOT
BRANCH   3   6
HETATM    6  C   UNL     1      -9.959   9.703  67.267  1.00  0.00    -0.250 C  
BRANCH   6   7
HETATM    7  C   UNL     1     -10.942   9.658  68.414  1.00  0.00    -0.161 C  
HETATM    8  C   UNL     1     -10.634   9.358  69.701  1.00  0.00    -0.239 C  
HETATM    9  C   UNL     1      -9.233   9.004  70.041  1.00  0.00    -0.193 A  
HETATM   10  C   UNL     1      -8.204   9.952  69.948  1.00  0.00    -0.199 A  
HETATM   11  C   UNL     1      -6.884   9.598  70.225  1.00  0.00    -0.107 A  
HETATM   12  C   UNL     1      -6.582   8.299  70.623  1.00  0.00    -0.037 A  
HETATM   13  C   UNL     1      -7.600   7.355  70.750  1.00  0.00    -0.083 A  
HETATM   14  C   UNL     1      -8.930   7.699  70.464  1.00  0.00    -0.151 A  
HETATM   15  C   UNL     1     -10.037   6.693  70.640  1.00  0.00    -0.205 C  
HETATM   16  C   UNL     1     -10.950   7.071  71.807  1.00  0.00    -0.263 C  
HETATM   17  C   UNL     1     -11.860   8.283  71.672  1.00  0.00    -0.345 A  
HETATM   18  C   UNL     1     -12.884   8.380  72.641  1.00  0.00    -0.171 A  
HETATM   19  C   UNL     1     -13.773   9.452  72.661  1.00  0.00    -0.337 A  
HETATM   20  C   UNL     1     -13.649  10.461  71.719  1.00  0.00    -0.246 A  
HETATM   21  C   UNL     1     -12.635  10.397  70.767  1.00  0.00    -0.462 A  
HETATM   22  C   UNL     1     -11.732   9.314  70.713  1.00  0.00    -0.328 A  
ENDBRANCH   6   7
ENDBRANCH   3   6
TORSDOF 2
ENDMDL
MODEL      126
REMARK 921   NORMALIZED FREE ENERGY PREDICTED BY IDOCK:   -3.73 KCAL/MOL
REMARK 922        TOTAL FREE ENERGY PREDICTED BY IDOCK:   -4.48 KCAL/MOL
REMARK 923 INTER-LIGAND FREE ENERGY PREDICTED BY IDOCK:   -3.98 KCAL/MOL
REMARK 924 INTRA-LIGAND FREE ENERGY PREDICTED BY IDOCK:   -0.49 KCAL/MOL
REMARK 927      BINDING AFFINITY PREDICTED BY RF-SCORE:    0.00 PKD
ROOT
HETATM    1  C   UNL     1     -10.366  11.908  62.996  1.00  0.00    -0.128 C  
HETATM    2  N   UNL     1     -10.915  12.100  64.383  1.00  0.00    -0.306 N  
HETATM    3  C   UNL     1     -10.622  10.860  65.224  1.00  0.00    -0.189 C  
HETATM    4  O   UNL     1     -12.270  12.295  64.283  1.00  0.00    -0.415 OA 
HETATM    5  C   UNL     1     -10.276  13.323  64.987  1.00  0.00    -0.297 C  
ENDROOT
BRANCH   3   6
HETATM    6  C   UNL     1     -11.205  10.942  66.639  1.00  0.00    -0.060 C  
BRANCH   6   7
HETATM    7  C   UNL     1     -10.388  10.240  67.699  1.00  0.00    -0.264 C  
HETATM    8  C   UNL     1      -9.631  10.855  68.643  1.00  0.00    -0.192 C  
HETATM    9  C   UNL     1      -9.547  12.337  68.643  1.00  0.00    -0.051 A  
HETATM   10  C   UNL     1     -10.669  13.127  68.935  1.00  0.00    -0.202 A  
HETATM   11  C   UNL     1     -10.591  14.518  68.888  1.00  0.00    -0.249 A  
HETATM   12  C   UNL     1      -9.385  15.137  68.572  1.00  0.00    -0.192 A  
HETATM   13  C   UNL     1      -8.254  14.364  68.311  1.00  0.00    -0.149 A  
HETATM   14  C   UNL     1      -8.325  12.963  68.347  1.00  0.00    -0.116 A  
HETATM   15  C   UNL     1      -7.095  12.127  68.105  1.00  0.00    -0.088 C  
HETATM   16  C   UNL     1      -6.648  11.416  69.383  1.00  0.00    -0.119 C  
HETATM   17  C   UNL     1      -7.500  10.285  69.937  1.00  0.00    -0.165 A  
HETATM   18  C   UNL     1      -6.873   9.480  70.915  1.00  0.00    -0.083 A  
HETATM   19  C   UNL     1      -7.543   8.426  71.534  1.00  0.00    -0.118 A  
HETATM   20  C   UNL     1      -8.861   8.161  71.198  1.00  0.00    -0.171 A  
HETATM   21  C   UNL     1      -9.506   8.954  70.251  1.00  0.00    -0.212 A  
HETATM   22  C   UNL     1      -8.846  10.016  69.597  1.00  0.00    -0.217 A  
ENDBRANCH   6   7
ENDBRANCH   3   6
TORSDOF 2
ENDMDL
MODEL      127
REMARK 921   NORMALIZED FREE ENERGY PREDICTED BY IDOCK:   -3.72 KCAL/MOL
REMARK 922        TOTAL FREE ENERGY PREDICTED BY IDOCK:   -4.47 KCAL/MOL
REMARK 923 INTER-LIGAND FREE ENERGY PREDICTED BY IDOCK:   -4.24 KCAL/MOL
REMARK 924 INTRA-LIGAND FREE ENERGY PREDICTED BY IDOCK:   -0.23 KCAL/MOL
REMARK 927      BINDING AFFINITY PREDICTED BY RF-SCORE:    0.00 PKD
ROOT
HETATM    1  C   UNL     1     -10.011  12.294  65.252  1.00  0.00    -0.230 C  
HETATM    2  N   UNL     1      -9.439  11.059  65.892  1.00  0.00    -0.205 N  
HETATM    3  C   UNL     1     -10.435   9.909  65.760  1.00  0.00     0.037 C  
HETATM    4  O   UNL     1      -9.206  11.333  67.216  1.00  0.00    -0.163 OA 
HETATM    5  C   UNL     1      -8.138  10.724  65.212  1.00  0.00    -0.021 C  
ENDROOT
BRANCH   3   6
HETATM    6  C   UNL     1      -9.960   8.622  66.445  1.00  0.00    -0.331 C  
BRANCH   6   7
HETATM    7  C   UNL     1     -10.464   8.438  67.858  1.00  0.00    -0.255 C  
HETATM    8  C   UNL     1      -9.854   7.698  68.819  1.00  0.00    -0.165 C  
HETATM    9  C   UNL     1      -8.607   6.968  68.480  1.00  0.00    -0.123 A  
HETATM   10  C   UNL     1      -7.426   7.656  68.170  1.00  0.00    -0.108 A  
HETATM   11  C   UNL     1      -6.271   6.962  67.809  1.00  0.00    -0.041 A  
HETATM   12  C   UNL     1      -6.279   5.570  67.778  1.00  0.00    -0.034 A  
HETATM   13  C   UNL     1      -7.438   4.873  68.116  1.00  0.00    -0.074 A  
HETATM   14  C   UNL     1      -8.606   5.563  68.471  1.00  0.00    -0.102 A  
HETATM   15  C   UNL     1      -9.848   4.811  68.876  1.00  0.00    -0.230 C  
HETATM   16  C   UNL     1     -10.150   4.999  70.363  1.00  0.00    -0.330 C  
HETATM   17  C   UNL     1     -10.622   6.357  70.857  1.00  0.00    -0.285 A  
HETATM   18  C   UNL     1     -11.177   6.368  72.157  1.00  0.00    -0.319 A  
HETATM   19  C   UNL     1     -11.622   7.546  72.752  1.00  0.00    -0.299 A  
HETATM   20  C   UNL     1     -11.511   8.745  72.066  1.00  0.00    -0.441 A  
HETATM   21  C   UNL     1     -10.947   8.762  70.792  1.00  0.00    -0.294 A  
HETATM   22  C   UNL     1     -10.504   7.581  70.159  1.00  0.00    -0.226 A  
ENDBRANCH   6   7
ENDBRANCH   3   6
TORSDOF 2
ENDMDL
MODEL      128
REMARK 921   NORMALIZED FREE ENERGY PREDICTED BY IDOCK:   -3.72 KCAL/MOL
REMARK 922        TOTAL FREE ENERGY PREDICTED BY IDOCK:   -4.47 KCAL/MOL
REMARK 923 INTER-LIGAND FREE ENERGY PREDICTED BY IDOCK:   -4.27 KCAL/MOL
REMARK 924 INTRA-LIGAND FREE ENERGY PREDICTED BY IDOCK:   -0.20 KCAL/MOL
REMARK 927      BINDING AFFINITY PREDICTED BY RF-SCORE:    0.00 PKD
ROOT
HETATM    1  C   UNL     1      -8.178  10.075  69.304  1.00  0.00    -0.147 C  
HETATM    2  N   UNL     1      -7.675  10.984  68.216  1.00  0.00    -0.107 N  
HETATM    3  C   UNL     1      -7.294  12.336  68.817  1.00  0.00    -0.083 C  
HETATM    4  O   UNL     1      -8.677  11.142  67.293  1.00  0.00    -0.136 OA 
HETATM    5  C   UNL     1      -6.485  10.334  67.559  1.00  0.00    -0.066 C  
ENDROOT
BRANCH   3   6
HETATM    6  C   UNL     1      -6.830  13.350  67.766  1.00  0.00    -0.163 C  
BRANCH   6   7
HETATM    7  C   UNL     1      -6.357  14.670  68.330  1.00  0.00    -0.100 C  
HETATM    8  C   UNL     1      -7.116  15.788  68.457  1.00  0.00    -0.118 C  
HETATM    9  C   UNL     1      -8.521  15.759  67.979  1.00  0.00    -0.161 A  
HETATM   10  C   UNL     1      -9.483  14.956  68.608  1.00  0.00    -0.208 A  
HETATM   11  C   UNL     1     -10.791  14.901  68.124  1.00  0.00    -0.256 A  
HETATM   12  C   UNL     1     -11.156  15.668  67.021  1.00  0.00    -0.200 A  
HETATM   13  C   UNL     1     -10.217  16.496  66.407  1.00  0.00    -0.324 A  
HETATM   14  C   UNL     1      -8.897  16.550  66.881  1.00  0.00    -0.233 A  
HETATM   15  C   UNL     1      -7.892  17.473  66.244  1.00  0.00    -0.322 C  
HETATM   16  C   UNL     1      -7.511  18.615  67.188  1.00  0.00    -0.230 C  
HETATM   17  C   UNL     1      -6.681  18.308  68.424  1.00  0.00    -0.229 A  
HETATM   18  C   UNL     1      -6.109  19.432  69.062  1.00  0.00    -0.278 A  
HETATM   19  C   UNL     1      -5.350  19.306  70.224  1.00  0.00    -0.229 A  
HETATM   20  C   UNL     1      -5.155  18.052  70.782  1.00  0.00    -0.271 A  
HETATM   21  C   UNL     1      -5.727  16.933  70.182  1.00  0.00    -0.208 A  
HETATM   22  C   UNL     1      -6.486  17.030  68.996  1.00  0.00    -0.202 A  
ENDBRANCH   6   7
ENDBRANCH   3   6
TORSDOF 2
ENDMDL
MODEL      129
REMARK 921   NORMALIZED FREE ENERGY PREDICTED BY IDOCK:   -3.71 KCAL/MOL
REMARK 922        TOTAL FREE ENERGY PREDICTED BY IDOCK:   -4.45 KCAL/MOL
REMARK 923 INTER-LIGAND FREE ENERGY PREDICTED BY IDOCK:   -4.72 KCAL/MOL
REMARK 924 INTRA-LIGAND FREE ENERGY PREDICTED BY IDOCK:    0.27 KCAL/MOL
REMARK 927      BINDING AFFINITY PREDICTED BY RF-SCORE:    0.00 PKD
ROOT
HETATM    1  C   UNL     1     -10.213   3.166  73.128  1.00  0.00    -0.148 C  
HETATM    2  N   UNL     1      -9.468   4.459  73.320  1.00  0.00    -0.119 N  
HETATM    3  C   UNL     1     -10.447   5.556  73.730  1.00  0.00    -0.272 C  
HETATM    4  O   UNL     1      -8.862   4.783  72.133  1.00  0.00    -0.122 OA 
HETATM    5  C   UNL     1      -8.417   4.253  74.380  1.00  0.00    -0.093 C  
ENDROOT
BRANCH   3   6
HETATM    6  C   UNL     1      -9.782   6.927  73.885  1.00  0.00    -0.305 C  
BRANCH   6   7
HETATM    7  C   UNL     1      -9.192   7.489  72.612  1.00  0.00    -0.201 C  
HETATM    8  C   UNL     1      -9.904   7.994  71.572  1.00  0.00    -0.217 C  
HETATM    9  C   UNL     1     -11.387   7.975  71.641  1.00  0.00    -0.306 A  
HETATM   10  C   UNL     1     -12.078   8.756  72.577  1.00  0.00    -0.320 A  
HETATM   11  C   UNL     1     -13.469   8.698  72.664  1.00  0.00    -0.280 A  
HETATM   12  C   UNL     1     -14.185   7.875  71.799  1.00  0.00    -0.555 A  
HETATM   13  C   UNL     1     -13.512   7.117  70.841  1.00  0.00     0.064 A  
HETATM   14  C   UNL     1     -12.113   7.163  70.753  1.00  0.00    -0.331 A  
HETATM   15  C   UNL     1     -11.386   6.377  69.694  1.00  0.00    -0.479 C  
HETATM   16  C   UNL     1     -10.759   7.301  68.648  1.00  0.00    -0.172 C  
HETATM   17  C   UNL     1      -9.573   8.167  69.042  1.00  0.00    -0.156 A  
HETATM   18  C   UNL     1      -8.861   8.742  67.965  1.00  0.00    -0.141 A  
HETATM   19  C   UNL     1      -7.771   9.584  68.175  1.00  0.00    -0.083 A  
HETATM   20  C   UNL     1      -7.375   9.881  69.470  1.00  0.00    -0.102 A  
HETATM   21  C   UNL     1      -8.074   9.342  70.547  1.00  0.00    -0.212 A  
HETATM   22  C   UNL     1      -9.171   8.473  70.363  1.00  0.00    -0.173 A  
ENDBRANCH   6   7
ENDBRANCH   3   6
TORSDOF 2
ENDMDL
MODEL      130
REMARK 921   NORMALIZED FREE ENERGY PREDICTED BY IDOCK:   -3.70 KCAL/MOL
REMARK 922        TOTAL FREE ENERGY PREDICTED BY IDOCK:   -4.45 KCAL/MOL
REMARK 923 INTER-LIGAND FREE ENERGY PREDICTED BY IDOCK:   -4.13 KCAL/MOL
REMARK 924 INTRA-LIGAND FREE ENERGY PREDICTED BY IDOCK:   -0.32 KCAL/MOL
REMARK 927      BINDING AFFINITY PREDICTED BY RF-SCORE:    0.00 PKD
ROOT
HETATM    1  C   UNL     1      -6.410  11.245  67.036  1.00  0.00    -0.111 C  
HETATM    2  N   UNL     1      -6.857  12.170  68.135  1.00  0.00    -0.069 N  
HETATM    3  C   UNL     1      -6.200  13.536  67.950  1.00  0.00    -0.153 C  
HETATM    4  O   UNL     1      -6.481  11.622  69.335  1.00  0.00    -0.091 OA 
HETATM    5  C   UNL     1      -8.358  12.285  68.084  1.00  0.00    -0.174 C  
ENDROOT
BRANCH   3   6
HETATM    6  C   UNL     1      -6.551  14.526  69.066  1.00  0.00    -0.100 C  
BRANCH   6   7
HETATM    7  C   UNL     1      -6.228  15.969  68.752  1.00  0.00    -0.115 C  
HETATM    8  C   UNL     1      -7.141  16.960  68.582  1.00  0.00    -0.203 C  
HETATM    9  C   UNL     1      -8.585  16.628  68.670  1.00  0.00    -0.253 A  
HETATM   10  C   UNL     1      -9.162  16.215  69.880  1.00  0.00     0.447 A  
HETATM   11  C   UNL     1     -10.510  15.862  69.942  1.00  0.00    -0.311 A  
HETATM   12  C   UNL     1     -11.302  15.941  68.800  1.00  0.00    -0.378 A  
HETATM   13  C   UNL     1     -10.748  16.381  67.597  1.00  0.00    -0.312 A  
HETATM   14  C   UNL     1      -9.391  16.729  67.524  1.00  0.00    -0.231 A  
HETATM   15  C   UNL     1      -8.801  17.242  66.237  1.00  0.00    -0.250 C  
HETATM   16  C   UNL     1      -8.429  18.722  66.348  1.00  0.00    -0.296 C  
HETATM   17  C   UNL     1      -7.259  19.127  67.229  1.00  0.00    -0.231 A  
HETATM   18  C   UNL     1      -6.783  20.443  67.035  1.00  0.00    -0.302 A  
HETATM   19  C   UNL     1      -5.737  20.963  67.794  1.00  0.00    -0.340 A  
HETATM   20  C   UNL     1      -5.148  20.180  68.775  1.00  0.00    -0.223 A  
HETATM   21  C   UNL     1      -5.614  18.886  68.999  1.00  0.00    -0.212 A  
HETATM   22  C   UNL     1      -6.661  18.330  68.233  1.00  0.00    -0.218 A  
ENDBRANCH   6   7
ENDBRANCH   3   6
TORSDOF 2
ENDMDL
MODEL      131
REMARK 921   NORMALIZED FREE ENERGY PREDICTED BY IDOCK:   -3.70 KCAL/MOL
REMARK 922        TOTAL FREE ENERGY PREDICTED BY IDOCK:   -4.45 KCAL/MOL
REMARK 923 INTER-LIGAND FREE ENERGY PREDICTED BY IDOCK:   -4.12 KCAL/MOL
REMARK 924 INTRA-LIGAND FREE ENERGY PREDICTED BY IDOCK:   -0.33 KCAL/MOL
REMARK 927      BINDING AFFINITY PREDICTED BY RF-SCORE:    0.00 PKD
ROOT
HETATM    1  C   UNL     1     -10.282   6.168  74.025  1.00  0.00    -0.300 C  
HETATM    2  N   UNL     1     -10.829   6.127  72.624  1.00  0.00    -0.232 N  
HETATM    3  C   UNL     1     -10.576   7.467  71.938  1.00  0.00    -0.211 C  
HETATM    4  O   UNL     1     -12.176   5.881  72.699  1.00  0.00    -0.147 OA 
HETATM    5  C   UNL     1     -10.155   5.005  71.878  1.00  0.00    -0.197 C  
ENDROOT
BRANCH   3   6
HETATM    6  C   UNL     1     -11.160   7.537  70.523  1.00  0.00    -0.275 C  
BRANCH   6   7
HETATM    7  C   UNL     1     -11.185   8.922  69.919  1.00  0.00    -0.076 C  
HETATM    8  C   UNL     1     -10.275   9.412  69.040  1.00  0.00    -0.216 C  
HETATM    9  C   UNL     1      -9.127   8.558  68.643  1.00  0.00    -0.139 A  
HETATM   10  C   UNL     1      -9.319   7.390  67.893  1.00  0.00    -0.138 A  
HETATM   11  C   UNL     1      -8.240   6.570  67.564  1.00  0.00    -0.121 A  
HETATM   12  C   UNL     1      -6.953   6.923  67.961  1.00  0.00    -0.083 A  
HETATM   13  C   UNL     1      -6.744   8.099  68.680  1.00  0.00    -0.058 A  
HETATM   14  C   UNL     1      -7.825   8.925  69.024  1.00  0.00    -0.091 A  
HETATM   15  C   UNL     1      -7.598  10.216  69.765  1.00  0.00    -0.175 C  
HETATM   16  C   UNL     1      -7.891  11.425  68.876  1.00  0.00    -0.096 C  
HETATM   17  C   UNL     1      -9.329  11.723  68.482  1.00  0.00    -0.158 A  
HETATM   18  C   UNL     1      -9.554  13.008  67.939  1.00  0.00    -0.215 A  
HETATM   19  C   UNL     1     -10.815  13.409  67.505  1.00  0.00    -0.276 A  
HETATM   20  C   UNL     1     -11.881  12.527  67.591  1.00  0.00    -0.381 A  
HETATM   21  C   UNL     1     -11.680  11.247  68.103  1.00  0.00    -0.323 A  
HETATM   22  C   UNL     1     -10.416  10.822  68.566  1.00  0.00    -0.208 A  
ENDBRANCH   6   7
ENDBRANCH   3   6
TORSDOF 2
ENDMDL
MODEL      132
REMARK 921   NORMALIZED FREE ENERGY PREDICTED BY IDOCK:   -3.69 KCAL/MOL
REMARK 922        TOTAL FREE ENERGY PREDICTED BY IDOCK:   -4.43 KCAL/MOL
REMARK 923 INTER-LIGAND FREE ENERGY PREDICTED BY IDOCK:   -4.38 KCAL/MOL
REMARK 924 INTRA-LIGAND FREE ENERGY PREDICTED BY IDOCK:   -0.05 KCAL/MOL
REMARK 927      BINDING AFFINITY PREDICTED BY RF-SCORE:    0.00 PKD
ROOT
HETATM    1  C   UNL     1      -8.685   7.836  74.040  1.00  0.00    -0.260 C  
HETATM    2  N   UNL     1      -9.820   7.196  73.288  1.00  0.00    -0.208 N  
HETATM    3  C   UNL     1      -9.286   6.554  72.009  1.00  0.00    -0.147 C  
HETATM    4  O   UNL     1     -10.734   8.171  72.982  1.00  0.00    -0.332 OA 
HETATM    5  C   UNL     1     -10.464   6.165  74.178  1.00  0.00    -0.231 C  
ENDROOT
BRANCH   3   6
HETATM    6  C   UNL     1     -10.389   5.931  71.146  1.00  0.00    -0.276 C  
BRANCH   6   7
HETATM    7  C   UNL     1      -9.913   4.853  70.199  1.00  0.00    -0.325 C  
HETATM    8  C   UNL     1      -9.458   5.061  68.937  1.00  0.00    -0.195 C  
HETATM    9  C   UNL     1      -9.445   6.443  68.397  1.00  0.00    -0.119 A  
HETATM   10  C   UNL     1      -8.597   7.422  68.933  1.00  0.00    -0.129 A  
HETATM   11  C   UNL     1      -8.624   8.730  68.449  1.00  0.00    -0.134 A  
HETATM   12  C   UNL     1      -9.482   9.067  67.406  1.00  0.00    -0.179 A  
HETATM   13  C   UNL     1     -10.307   8.095  66.842  1.00  0.00    -0.401 A  
HETATM   14  C   UNL     1     -10.294   6.779  67.329  1.00  0.00    -0.311 A  
HETATM   15  C   UNL     1     -11.154   5.718  66.694  1.00  0.00    -0.069 C  
HETATM   16  C   UNL     1     -10.305   4.684  65.954  1.00  0.00    -0.315 C  
HETATM   17  C   UNL     1      -9.439   3.725  66.755  1.00  0.00    -0.216 A  
HETATM   18  C   UNL     1      -8.943   2.615  66.037  1.00  0.00    -0.133 A  
HETATM   19  C   UNL     1      -8.111   1.670  66.633  1.00  0.00    -0.075 A  
HETATM   20  C   UNL     1      -7.746   1.821  67.962  1.00  0.00    -0.054 A  
HETATM   21  C   UNL     1      -8.206   2.919  68.685  1.00  0.00    -0.080 A  
HETATM   22  C   UNL     1      -9.064   3.881  68.110  1.00  0.00    -0.187 A  
ENDBRANCH   6   7
ENDBRANCH   3   6
TORSDOF 2
ENDMDL
MODEL      133
REMARK 921   NORMALIZED FREE ENERGY PREDICTED BY IDOCK:   -3.65 KCAL/MOL
REMARK 922        TOTAL FREE ENERGY PREDICTED BY IDOCK:   -4.38 KCAL/MOL
REMARK 923 INTER-LIGAND FREE ENERGY PREDICTED BY IDOCK:   -4.69 KCAL/MOL
REMARK 924 INTRA-LIGAND FREE ENERGY PREDICTED BY IDOCK:    0.30 KCAL/MOL
REMARK 927      BINDING AFFINITY PREDICTED BY RF-SCORE:    0.00 PKD
ROOT
HETATM    1  C   UNL     1     -11.778  12.304  64.853  1.00  0.00    -0.352 C  
HETATM    2  N   UNL     1     -11.207  13.553  65.467  1.00  0.00    -0.291 N  
HETATM    3  C   UNL     1     -10.423  14.327  64.410  1.00  0.00     0.078 C  
HETATM    4  O   UNL     1     -10.378  13.183  66.495  1.00  0.00    -0.273 OA 
HETATM    5  C   UNL     1     -12.341  14.382  66.010  1.00  0.00    -0.318 C  
ENDROOT
BRANCH   3   6
HETATM    6  C   UNL     1      -9.749  15.587  64.966  1.00  0.00     0.229 C  
BRANCH   6   7
HETATM    7  C   UNL     1      -8.847  15.346  66.155  1.00  0.00    -0.222 C  
HETATM    8  C   UNL     1      -8.553  16.259  67.116  1.00  0.00    -0.207 C  
HETATM    9  C   UNL     1      -9.116  17.628  67.002  1.00  0.00    -0.256 A  
HETATM   10  C   UNL     1     -10.495  17.855  67.117  1.00  0.00    -0.359 A  
HETATM   11  C   UNL     1     -11.020  19.139  66.965  1.00  0.00    -0.356 A  
HETATM   12  C   UNL     1     -10.168  20.212  66.719  1.00  0.00    -0.562 A  
HETATM   13  C   UNL     1      -8.792  20.005  66.633  1.00  0.00    -0.417 A  
HETATM   14  C   UNL     1      -8.257  18.716  66.777  1.00  0.00    -0.276 A  
HETATM   15  C   UNL     1      -6.768  18.495  66.726  1.00  0.00    -0.211 C  
HETATM   16  C   UNL     1      -6.219  18.091  68.095  1.00  0.00    -0.180 C  
HETATM   17  C   UNL     1      -6.562  16.719  68.654  1.00  0.00    -0.169 A  
HETATM   18  C   UNL     1      -5.776  16.300  69.751  1.00  0.00    -0.167 A  
HETATM   19  C   UNL     1      -5.997  15.080  70.386  1.00  0.00    -0.134 A  
HETATM   20  C   UNL     1      -7.019  14.254  69.945  1.00  0.00     0.041 A  
HETATM   21  C   UNL     1      -7.820  14.655  68.878  1.00  0.00    -0.148 A  
HETATM   22  C   UNL     1      -7.607  15.878  68.207  1.00  0.00    -0.135 A  
ENDBRANCH   6   7
ENDBRANCH   3   6
TORSDOF 2
ENDMDL
MODEL      134
REMARK 921   NORMALIZED FREE ENERGY PREDICTED BY IDOCK:   -3.64 KCAL/MOL
REMARK 922        TOTAL FREE ENERGY PREDICTED BY IDOCK:   -4.38 KCAL/MOL
REMARK 923 INTER-LIGAND FREE ENERGY PREDICTED BY IDOCK:   -4.33 KCAL/MOL
REMARK 924 INTRA-LIGAND FREE ENERGY PREDICTED BY IDOCK:   -0.05 KCAL/MOL
REMARK 927      BINDING AFFINITY PREDICTED BY RF-SCORE:    0.00 PKD
ROOT
HETATM    1  C   UNL     1     -13.568  14.863  72.389  1.00  0.00    -0.450 C  
HETATM    2  N   UNL     1     -12.273  15.519  71.996  1.00  0.00    -0.362 N  
HETATM    3  C   UNL     1     -12.285  15.815  70.498  1.00  0.00    -0.363 C  
HETATM    4  O   UNL     1     -11.249  14.659  72.300  1.00  0.00     0.222 OA 
HETATM    5  C   UNL     1     -12.116  16.788  72.793  1.00  0.00     0.008 C  
ENDROOT
BRANCH   3   6
HETATM    6  C   UNL     1     -10.973  16.428  69.996  1.00  0.00    -0.322 C  
BRANCH   6   7
HETATM    7  C   UNL     1      -9.854  15.434  69.785  1.00  0.00    -0.236 C  
HETATM    8  C   UNL     1      -9.303  15.114  68.586  1.00  0.00    -0.199 C  
HETATM    9  C   UNL     1      -9.843  15.745  67.356  1.00  0.00    -0.233 A  
HETATM   10  C   UNL     1      -9.701  17.121  67.127  1.00  0.00    -0.261 A  
HETATM   11  C   UNL     1     -10.251  17.714  65.990  1.00  0.00    -0.301 A  
HETATM   12  C   UNL     1     -10.927  16.931  65.058  1.00  0.00    -0.055 A  
HETATM   13  C   UNL     1     -11.047  15.557  65.258  1.00  0.00    -0.344 A  
HETATM   14  C   UNL     1     -10.506  14.954  66.403  1.00  0.00    -0.301 A  
HETATM   15  C   UNL     1     -10.598  13.464  66.602  1.00  0.00    -0.282 C  
HETATM   16  C   UNL     1      -9.224  12.802  66.486  1.00  0.00    -0.190 C  
HETATM   17  C   UNL     1      -8.193  13.042  67.578  1.00  0.00    -0.181 A  
HETATM   18  C   UNL     1      -7.087  12.162  67.568  1.00  0.00    -0.135 A  
HETATM   19  C   UNL     1      -6.048  12.282  68.489  1.00  0.00    -0.055 A  
HETATM   20  C   UNL     1      -6.086  13.294  69.435  1.00  0.00    -0.106 A  
HETATM   21  C   UNL     1      -7.156  14.186  69.451  1.00  0.00    -0.049 A  
HETATM   22  C   UNL     1      -8.229  14.077  68.541  1.00  0.00    -0.136 A  
ENDBRANCH   6   7
ENDBRANCH   3   6
TORSDOF 2
ENDMDL
MODEL      135
REMARK 921   NORMALIZED FREE ENERGY PREDICTED BY IDOCK:   -3.60 KCAL/MOL
REMARK 922        TOTAL FREE ENERGY PREDICTED BY IDOCK:   -4.33 KCAL/MOL
REMARK 923 INTER-LIGAND FREE ENERGY PREDICTED BY IDOCK:   -4.04 KCAL/MOL
REMARK 924 INTRA-LIGAND FREE ENERGY PREDICTED BY IDOCK:   -0.30 KCAL/MOL
REMARK 927      BINDING AFFINITY PREDICTED BY RF-SCORE:    0.00 PKD
ROOT
HETATM    1  C   UNL     1     -10.990   7.540  72.820  1.00  0.00    -0.359 C  
HETATM    2  N   UNL     1     -11.282   8.355  71.589  1.00  0.00    -0.261 N  
HETATM    3  C   UNL     1     -10.383   7.891  70.445  1.00  0.00    -0.212 C  
HETATM    4  O   UNL     1     -11.035   9.672  71.881  1.00  0.00    -0.151 OA 
HETATM    5  C   UNL     1     -12.736   8.183  71.235  1.00  0.00    -0.206 C  
ENDROOT
BRANCH   3   6
HETATM    6  C   UNL     1     -10.569   8.713  69.165  1.00  0.00    -0.193 C  
BRANCH   6   7
HETATM    7  C   UNL     1      -9.918   8.121  67.936  1.00  0.00    -0.225 C  
HETATM    8  C   UNL     1      -9.172   8.807  67.034  1.00  0.00    -0.177 C  
HETATM    9  C   UNL     1      -8.988  10.269  67.219  1.00  0.00    -0.140 A  
HETATM   10  C   UNL     1      -8.260  10.776  68.304  1.00  0.00    -0.124 A  
HETATM   11  C   UNL     1      -8.130  12.151  68.494  1.00  0.00    -0.112 A  
HETATM   12  C   UNL     1      -8.707  13.035  67.586  1.00  0.00    -0.189 A  
HETATM   13  C   UNL     1      -9.407  12.543  66.484  1.00  0.00    -0.233 A  
HETATM   14  C   UNL     1      -9.550  11.162  66.291  1.00  0.00    -0.234 A  
HETATM   15  C   UNL     1     -10.269  10.628  65.080  1.00  0.00    -0.368 C  
HETATM   16  C   UNL     1      -9.303   9.930  64.122  1.00  0.00    -0.295 C  
HETATM   17  C   UNL     1      -8.682   8.604  64.532  1.00  0.00    -0.034 A  
HETATM   18  C   UNL     1      -8.065   7.878  63.489  1.00  0.00    -0.079 A  
HETATM   19  C   UNL     1      -7.427   6.661  63.722  1.00  0.00    -0.090 A  
HETATM   20  C   UNL     1      -7.381   6.148  65.009  1.00  0.00    -0.073 A  
HETATM   21  C   UNL     1      -7.965   6.856  66.057  1.00  0.00    -0.109 A  
HETATM   22  C   UNL     1      -8.631   8.083  65.845  1.00  0.00    -0.171 A  
ENDBRANCH   6   7
ENDBRANCH   3   6
TORSDOF 2
ENDMDL
MODEL      136
REMARK 921   NORMALIZED FREE ENERGY PREDICTED BY IDOCK:   -3.58 KCAL/MOL
REMARK 922        TOTAL FREE ENERGY PREDICTED BY IDOCK:   -4.31 KCAL/MOL
REMARK 923 INTER-LIGAND FREE ENERGY PREDICTED BY IDOCK:   -4.50 KCAL/MOL
REMARK 924 INTRA-LIGAND FREE ENERGY PREDICTED BY IDOCK:    0.20 KCAL/MOL
REMARK 927      BINDING AFFINITY PREDICTED BY RF-SCORE:    0.00 PKD
ROOT
HETATM    1  C   UNL     1      -7.841  10.285  63.634  1.00  0.00    -0.125 C  
HETATM    2  N   UNL     1      -7.198   9.944  64.951  1.00  0.00    -0.130 N  
HETATM    3  C   UNL     1      -8.233  10.056  66.068  1.00  0.00    -0.126 C  
HETATM    4  O   UNL     1      -6.171  10.827  65.167  1.00  0.00    -0.071 OA 
HETATM    5  C   UNL     1      -6.647   8.545  64.867  1.00  0.00    -0.068 C  
ENDROOT
BRANCH   3   6
HETATM    6  C   UNL     1      -7.647   9.786  67.458  1.00  0.00    -0.091 C  
BRANCH   6   7
HETATM    7  C   UNL     1      -8.020   8.447  68.051  1.00  0.00    -0.119 C  
HETATM    8  C   UNL     1      -9.184   8.168  68.691  1.00  0.00    -0.143 C  
HETATM    9  C   UNL     1     -10.181   9.252  68.874  1.00  0.00    -0.217 A  
HETATM   10  C   UNL     1     -10.845   9.819  67.777  1.00  0.00    -0.306 A  
HETATM   11  C   UNL     1     -11.747  10.868  67.955  1.00  0.00    -0.205 A  
HETATM   12  C   UNL     1     -12.012  11.346  69.236  1.00  0.00    -0.400 A  
HETATM   13  C   UNL     1     -11.382  10.770  70.338  1.00  0.00    -0.342 A  
HETATM   14  C   UNL     1     -10.467   9.721  70.168  1.00  0.00    -0.338 A  
HETATM   15  C   UNL     1      -9.816   9.070  71.360  1.00  0.00    -0.381 C  
HETATM   16  C   UNL     1     -10.318   7.638  71.553  1.00  0.00    -0.223 C  
HETATM   17  C   UNL     1      -9.911   6.569  70.551  1.00  0.00    -0.206 A  
HETATM   18  C   UNL     1     -10.141   5.237  70.961  1.00  0.00    -0.289 A  
HETATM   19  C   UNL     1      -9.848   4.155  70.133  1.00  0.00    -0.242 A  
HETATM   20  C   UNL     1      -9.327   4.383  68.869  1.00  0.00    -0.216 A  
HETATM   21  C   UNL     1      -9.111   5.688  68.435  1.00  0.00    -0.121 A  
HETATM   22  C   UNL     1      -9.384   6.801  69.259  1.00  0.00    -0.144 A  
ENDBRANCH   6   7
ENDBRANCH   3   6
TORSDOF 2
ENDMDL
MODEL      137
REMARK 921   NORMALIZED FREE ENERGY PREDICTED BY IDOCK:   -3.54 KCAL/MOL
REMARK 922        TOTAL FREE ENERGY PREDICTED BY IDOCK:   -4.27 KCAL/MOL
REMARK 923 INTER-LIGAND FREE ENERGY PREDICTED BY IDOCK:   -4.09 KCAL/MOL
REMARK 924 INTRA-LIGAND FREE ENERGY PREDICTED BY IDOCK:   -0.18 KCAL/MOL
REMARK 927      BINDING AFFINITY PREDICTED BY RF-SCORE:    0.00 PKD
ROOT
HETATM    1  C   UNL     1      -9.696   1.964  72.499  1.00  0.00    -0.101 C  
HETATM    2  N   UNL     1      -8.565   2.955  72.521  1.00  0.00    -0.074 N  
HETATM    3  C   UNL     1      -9.057   4.302  71.996  1.00  0.00    -0.121 C  
HETATM    4  O   UNL     1      -7.559   2.474  71.723  1.00  0.00    -0.040 OA 
HETATM    5  C   UNL     1      -8.066   3.081  73.937  1.00  0.00    -0.069 C  
ENDROOT
BRANCH   3   6
HETATM    6  C   UNL     1      -7.950   5.359  71.923  1.00  0.00    -0.113 C  
BRANCH   6   7
HETATM    7  C   UNL     1      -7.797   6.019  70.572  1.00  0.00    -0.102 C  
HETATM    8  C   UNL     1      -8.679   6.890  70.018  1.00  0.00    -0.142 C  
HETATM    9  C   UNL     1      -9.925   7.216  70.756  1.00  0.00    -0.194 A  
HETATM   10  C   UNL     1      -9.886   7.924  71.966  1.00  0.00    -0.250 A  
HETATM   11  C   UNL     1     -11.059   8.186  72.675  1.00  0.00    -0.450 A  
HETATM   12  C   UNL     1     -12.285   7.765  72.168  1.00  0.00    -0.325 A  
HETATM   13  C   UNL     1     -12.341   7.088  70.951  1.00  0.00    -0.361 A  
HETATM   14  C   UNL     1     -11.166   6.811  70.236  1.00  0.00    -0.385 A  
HETATM   15  C   UNL     1     -11.226   6.117  68.901  1.00  0.00    -0.338 C  
HETATM   16  C   UNL     1     -10.835   7.062  67.764  1.00  0.00    -0.276 C  
HETATM   17  C   UNL     1      -9.388   7.512  67.641  1.00  0.00    -0.151 A  
HETATM   18  C   UNL     1      -9.045   8.113  66.409  1.00  0.00    -0.226 A  
HETATM   19  C   UNL     1      -7.763   8.602  66.165  1.00  0.00    -0.097 A  
HETATM   20  C   UNL     1      -6.796   8.512  67.154  1.00  0.00    -0.067 A  
HETATM   21  C   UNL     1      -7.117   7.942  68.384  1.00  0.00    -0.081 A  
HETATM   22  C   UNL     1      -8.403   7.424  68.652  1.00  0.00    -0.129 A  
ENDBRANCH   6   7
ENDBRANCH   3   6
TORSDOF 2
ENDMDL
MODEL      138
REMARK 921   NORMALIZED FREE ENERGY PREDICTED BY IDOCK:   -3.53 KCAL/MOL
REMARK 922        TOTAL FREE ENERGY PREDICTED BY IDOCK:   -4.25 KCAL/MOL
REMARK 923 INTER-LIGAND FREE ENERGY PREDICTED BY IDOCK:   -3.90 KCAL/MOL
REMARK 924 INTRA-LIGAND FREE ENERGY PREDICTED BY IDOCK:   -0.35 KCAL/MOL
REMARK 927      BINDING AFFINITY PREDICTED BY RF-SCORE:    0.00 PKD
ROOT
HETATM    1  C   UNL     1     -10.193   6.182  74.423  1.00  0.00    -0.316 C  
HETATM    2  N   UNL     1     -10.774   6.303  73.041  1.00  0.00    -0.241 N  
HETATM    3  C   UNL     1      -9.688   6.024  72.005  1.00  0.00    -0.156 C  
HETATM    4  O   UNL     1     -11.255   7.579  72.891  1.00  0.00    -0.344 OA 
HETATM    5  C   UNL     1     -11.908   5.321  72.910  1.00  0.00    -0.081 C  
ENDROOT
BRANCH   3   6
HETATM    6  C   UNL     1     -10.179   6.189  70.562  1.00  0.00    -0.251 C  
BRANCH   6   7
HETATM    7  C   UNL     1      -9.085   6.438  69.549  1.00  0.00    -0.138 C  
HETATM    8  C   UNL     1      -8.874   7.606  68.891  1.00  0.00    -0.135 C  
HETATM    9  C   UNL     1      -9.797   8.743  69.134  1.00  0.00    -0.181 A  
HETATM   10  C   UNL     1      -9.847   9.381  70.381  1.00  0.00    -0.313 A  
HETATM   11  C   UNL     1     -10.749  10.420  70.614  1.00  0.00     0.020 A  
HETATM   12  C   UNL     1     -11.593  10.848  69.593  1.00  0.00    -0.394 A  
HETATM   13  C   UNL     1     -11.530  10.244  68.338  1.00  0.00    -0.163 A  
HETATM   14  C   UNL     1     -10.633   9.193  68.098  1.00  0.00    -0.235 A  
HETATM   15  C   UNL     1     -10.535   8.566  66.732  1.00  0.00    -0.308 C  
HETATM   16  C   UNL     1      -9.199   8.896  66.064  1.00  0.00    -0.287 C  
HETATM   17  C   UNL     1      -7.924   8.276  66.613  1.00  0.00    -0.098 A  
HETATM   18  C   UNL     1      -6.795   8.370  65.768  1.00  0.00    -0.067 A  
HETATM   19  C   UNL     1      -5.551   7.874  66.152  1.00  0.00    -0.032 A  
HETATM   20  C   UNL     1      -5.404   7.284  67.398  1.00  0.00    -0.021 A  
HETATM   21  C   UNL     1      -6.498   7.199  68.256  1.00  0.00    -0.044 A  
HETATM   22  C   UNL     1      -7.773   7.678  67.885  1.00  0.00    -0.115 A  
ENDBRANCH   6   7
ENDBRANCH   3   6
TORSDOF 2
ENDMDL
MODEL      139
REMARK 921   NORMALIZED FREE ENERGY PREDICTED BY IDOCK:   -3.52 KCAL/MOL
REMARK 922        TOTAL FREE ENERGY PREDICTED BY IDOCK:   -4.24 KCAL/MOL
REMARK 923 INTER-LIGAND FREE ENERGY PREDICTED BY IDOCK:   -4.66 KCAL/MOL
REMARK 924 INTRA-LIGAND FREE ENERGY PREDICTED BY IDOCK:    0.42 KCAL/MOL
REMARK 927      BINDING AFFINITY PREDICTED BY RF-SCORE:    0.00 PKD
ROOT
HETATM    1  C   UNL     1     -11.081  12.455  63.229  1.00  0.00    -0.284 C  
HETATM    2  N   UNL     1     -10.829  11.841  64.579  1.00  0.00    -0.305 N  
HETATM    3  C   UNL     1      -9.542  12.414  65.167  1.00  0.00     0.046 C  
HETATM    4  O   UNL     1     -10.712  10.484  64.416  1.00  0.00    -0.119 OA 
HETATM    5  C   UNL     1     -12.007  12.140  65.469  1.00  0.00    -0.220 C  
ENDROOT
BRANCH   3   6
HETATM    6  C   UNL     1      -9.172  11.794  66.519  1.00  0.00    -0.206 C  
BRANCH   6   7
HETATM    7  C   UNL     1     -10.173  12.046  67.623  1.00  0.00    -0.210 C  
HETATM    8  C   UNL     1     -10.166  11.449  68.842  1.00  0.00    -0.184 C  
HETATM    9  C   UNL     1      -9.125  10.433  69.138  1.00  0.00    -0.197 A  
HETATM   10  C   UNL     1      -7.772  10.790  69.233  1.00  0.00    -0.129 A  
HETATM   11  C   UNL     1      -6.796   9.821  69.467  1.00  0.00    -0.060 A  
HETATM   12  C   UNL     1      -7.165   8.489  69.633  1.00  0.00    -0.052 A  
HETATM   13  C   UNL     1      -8.510   8.127  69.573  1.00  0.00    -0.127 A  
HETATM   14  C   UNL     1      -9.497   9.092  69.329  1.00  0.00    -0.158 A  
HETATM   15  C   UNL     1     -10.954   8.710  69.305  1.00  0.00     0.008 C  
HETATM   16  C   UNL     1     -11.702   9.295  70.504  1.00  0.00    -0.225 C  
HETATM   17  C   UNL     1     -11.935  10.796  70.570  1.00  0.00    -0.456 A  
HETATM   18  C   UNL     1     -12.890  11.217  71.522  1.00  0.00    -0.519 A  
HETATM   19  C   UNL     1     -13.185  12.565  71.716  1.00  0.00    -0.444 A  
HETATM   20  C   UNL     1     -12.520  13.525  70.970  1.00  0.00    -0.451 A  
HETATM   21  C   UNL     1     -11.560  13.135  70.039  1.00  0.00    -0.202 A  
HETATM   22  C   UNL     1     -11.255  11.776  69.811  1.00  0.00    -0.166 A  
ENDBRANCH   6   7
ENDBRANCH   3   6
TORSDOF 2
ENDMDL
MODEL      140
REMARK 921   NORMALIZED FREE ENERGY PREDICTED BY IDOCK:   -3.51 KCAL/MOL
REMARK 922        TOTAL FREE ENERGY PREDICTED BY IDOCK:   -4.23 KCAL/MOL
REMARK 923 INTER-LIGAND FREE ENERGY PREDICTED BY IDOCK:   -4.22 KCAL/MOL
REMARK 924 INTRA-LIGAND FREE ENERGY PREDICTED BY IDOCK:   -0.01 KCAL/MOL
REMARK 927      BINDING AFFINITY PREDICTED BY RF-SCORE:    0.00 PKD
ROOT
HETATM    1  C   UNL     1     -13.748   8.635  72.453  1.00  0.00    -0.356 C  
HETATM    2  N   UNL     1     -12.378   8.377  71.888  1.00  0.00    -0.326 N  
HETATM    3  C   UNL     1     -12.465   7.297  70.812  1.00  0.00    -0.148 C  
HETATM    4  O   UNL     1     -11.565   7.960  72.911  1.00  0.00    -0.383 OA 
HETATM    5  C   UNL     1     -11.845   9.664  71.316  1.00  0.00    -0.381 C  
ENDROOT
BRANCH   3   6
HETATM    6  C   UNL     1     -11.100   6.923  70.224  1.00  0.00    -0.342 C  
BRANCH   6   7
HETATM    7  C   UNL     1     -10.651   7.792  69.072  1.00  0.00    -0.179 C  
HETATM    8  C   UNL     1      -9.361   8.042  68.732  1.00  0.00    -0.147 C  
HETATM    9  C   UNL     1      -8.275   7.459  69.559  1.00  0.00    -0.131 A  
HETATM   10  C   UNL     1      -8.063   6.074  69.605  1.00  0.00    -0.107 A  
HETATM   11  C   UNL     1      -7.069   5.532  70.420  1.00  0.00    -0.062 A  
HETATM   12  C   UNL     1      -6.260   6.373  71.180  1.00  0.00    -0.040 A  
HETATM   13  C   UNL     1      -6.439   7.754  71.119  1.00  0.00    -0.038 A  
HETATM   14  C   UNL     1      -7.443   8.307  70.309  1.00  0.00    -0.066 A  
HETATM   15  C   UNL     1      -7.612   9.800  70.210  1.00  0.00    -0.184 C  
HETATM   16  C   UNL     1      -7.218  10.313  68.824  1.00  0.00    -0.083 C  
HETATM   17  C   UNL     1      -8.100   9.976  67.632  1.00  0.00    -0.110 A  
HETATM   18  C   UNL     1      -7.855  10.735  66.465  1.00  0.00    -0.145 A  
HETATM   19  C   UNL     1      -8.565  10.515  65.287  1.00  0.00    -0.185 A  
HETATM   20  C   UNL     1      -9.530   9.521  65.244  1.00  0.00    -0.326 A  
HETATM   21  C   UNL     1      -9.775   8.747  66.376  1.00  0.00    -0.335 A  
HETATM   22  C   UNL     1      -9.082   8.960  67.587  1.00  0.00    -0.144 A  
ENDBRANCH   6   7
ENDBRANCH   3   6
TORSDOF 2
ENDMDL
MODEL      141
REMARK 921   NORMALIZED FREE ENERGY PREDICTED BY IDOCK:   -3.51 KCAL/MOL
REMARK 922        TOTAL FREE ENERGY PREDICTED BY IDOCK:   -4.23 KCAL/MOL
REMARK 923 INTER-LIGAND FREE ENERGY PREDICTED BY IDOCK:   -4.53 KCAL/MOL
REMARK 924 INTRA-LIGAND FREE ENERGY PREDICTED BY IDOCK:    0.30 KCAL/MOL
REMARK 927      BINDING AFFINITY PREDICTED BY RF-SCORE:    0.00 PKD
ROOT
HETATM    1  C   UNL     1     -12.798  11.510  71.817  1.00  0.00    -0.335 C  
HETATM    2  N   UNL     1     -12.599  10.121  71.276  1.00  0.00    -0.368 N  
HETATM    3  C   UNL     1     -11.167   9.972  70.767  1.00  0.00    -0.352 C  
HETATM    4  O   UNL     1     -13.489   9.931  70.249  1.00  0.00     0.080 OA 
HETATM    5  C   UNL     1     -12.884   9.132  72.376  1.00  0.00    -0.367 C  
ENDROOT
BRANCH   3   6
HETATM    6  C   UNL     1     -10.894   8.602  70.136  1.00  0.00    -0.242 C  
BRANCH   6   7
HETATM    7  C   UNL     1     -10.882   7.450  71.114  1.00  0.00    -0.258 C  
HETATM    8  C   UNL     1      -9.964   6.450  71.139  1.00  0.00    -0.203 C  
HETATM    9  C   UNL     1      -8.891   6.434  70.113  1.00  0.00    -0.150 A  
HETATM   10  C   UNL     1      -7.902   7.428  70.085  1.00  0.00    -0.099 A  
HETATM   11  C   UNL     1      -6.924   7.431  69.091  1.00  0.00    -0.076 A  
HETATM   12  C   UNL     1      -6.910   6.425  68.128  1.00  0.00    -0.071 A  
HETATM   13  C   UNL     1      -7.869   5.413  68.164  1.00  0.00    -0.092 A  
HETATM   14  C   UNL     1      -8.861   5.408  69.155  1.00  0.00    -0.110 A  
HETATM   15  C   UNL     1      -9.873   4.294  69.220  1.00  0.00    -0.180 C  
HETATM   16  C   UNL     1      -9.655   3.417  70.454  1.00  0.00    -0.227 C  
HETATM   17  C   UNL     1      -9.960   3.987  71.830  1.00  0.00    -0.246 A  
HETATM   18  C   UNL     1     -10.040   3.037  72.874  1.00  0.00    -0.220 A  
HETATM   19  C   UNL     1     -10.282   3.417  74.192  1.00  0.00    -0.216 A  
HETATM   20  C   UNL     1     -10.439   4.759  74.500  1.00  0.00    -0.303 A  
HETATM   21  C   UNL     1     -10.344   5.715  73.491  1.00  0.00    -0.254 A  
HETATM   22  C   UNL     1     -10.116   5.357  72.145  1.00  0.00    -0.237 A  
ENDBRANCH   6   7
ENDBRANCH   3   6
TORSDOF 2
ENDMDL
MODEL      142
REMARK 921   NORMALIZED FREE ENERGY PREDICTED BY IDOCK:   -3.44 KCAL/MOL
REMARK 922        TOTAL FREE ENERGY PREDICTED BY IDOCK:   -4.15 KCAL/MOL
REMARK 923 INTER-LIGAND FREE ENERGY PREDICTED BY IDOCK:   -4.28 KCAL/MOL
REMARK 924 INTRA-LIGAND FREE ENERGY PREDICTED BY IDOCK:    0.13 KCAL/MOL
REMARK 927      BINDING AFFINITY PREDICTED BY RF-SCORE:    0.00 PKD
ROOT
HETATM    1  C   UNL     1      -5.915   6.195  70.734  1.00  0.00    -0.026 C  
HETATM    2  N   UNL     1      -6.189   7.674  70.702  1.00  0.00    -0.034 N  
HETATM    3  C   UNL     1      -7.597   7.943  71.228  1.00  0.00    -0.081 C  
HETATM    4  O   UNL     1      -6.079   8.101  69.403  1.00  0.00    -0.033 OA 
HETATM    5  C   UNL     1      -5.156   8.372  71.548  1.00  0.00    -0.033 C  
ENDROOT
BRANCH   3   6
HETATM    6  C   UNL     1      -7.986   9.424  71.171  1.00  0.00     0.075 C  
BRANCH   6   7
HETATM    7  C   UNL     1      -8.288   9.943  69.784  1.00  0.00    -0.196 C  
HETATM    8  C   UNL     1      -9.396   9.647  69.058  1.00  0.00    -0.159 C  
HETATM    9  C   UNL     1     -10.398   8.712  69.627  1.00  0.00    -0.213 A  
HETATM   10  C   UNL     1     -11.152   9.058  70.757  1.00  0.00    -0.328 A  
HETATM   11  C   UNL     1     -12.059   8.155  71.312  1.00  0.00    -0.313 A  
HETATM   12  C   UNL     1     -12.240   6.905  70.726  1.00  0.00    -0.364 A  
HETATM   13  C   UNL     1     -11.520   6.560  69.583  1.00  0.00    -0.417 A  
HETATM   14  C   UNL     1     -10.599   7.458  69.025  1.00  0.00    -0.203 A  
HETATM   15  C   UNL     1      -9.850   7.105  67.766  1.00  0.00    -0.175 C  
HETATM   16  C   UNL     1     -10.307   7.965  66.588  1.00  0.00    -0.270 C  
HETATM   17  C   UNL     1      -9.953   9.444  66.570  1.00  0.00    -0.339 A  
HETATM   18  C   UNL     1     -10.126  10.091  65.326  1.00  0.00    -0.299 A  
HETATM   19  C   UNL     1      -9.872  11.452  65.167  1.00  0.00    -0.302 A  
HETATM   20  C   UNL     1      -9.450  12.201  66.255  1.00  0.00    -0.238 A  
HETATM   21  C   UNL     1      -9.292  11.588  67.496  1.00  0.00    -0.166 A  
HETATM   22  C   UNL     1      -9.527  10.209  67.680  1.00  0.00    -0.166 A  
ENDBRANCH   6   7
ENDBRANCH   3   6
TORSDOF 2
ENDMDL
MODEL      143
REMARK 921   NORMALIZED FREE ENERGY PREDICTED BY IDOCK:   -3.37 KCAL/MOL
REMARK 922        TOTAL FREE ENERGY PREDICTED BY IDOCK:   -4.07 KCAL/MOL
REMARK 923 INTER-LIGAND FREE ENERGY PREDICTED BY IDOCK:   -3.90 KCAL/MOL
REMARK 924 INTRA-LIGAND FREE ENERGY PREDICTED BY IDOCK:   -0.17 KCAL/MOL
REMARK 927      BINDING AFFINITY PREDICTED BY RF-SCORE:    0.00 PKD
ROOT
HETATM    1  C   UNL     1      -6.823   9.412  69.661  1.00  0.00    -0.056 C  
HETATM    2  N   UNL     1      -7.870   9.355  68.583  1.00  0.00    -0.088 N  
HETATM    3  C   UNL     1      -7.825   7.989  67.901  1.00  0.00    -0.126 C  
HETATM    4  O   UNL     1      -7.602  10.346  67.674  1.00  0.00    -0.089 OA 
HETATM    5  C   UNL     1      -9.217   9.599  69.209  1.00  0.00    -0.183 C  
ENDROOT
BRANCH   3   6
HETATM    6  C   UNL     1      -8.820   7.864  66.742  1.00  0.00    -0.154 C  
BRANCH   6   7
HETATM    7  C   UNL     1      -8.888   6.491  66.115  1.00  0.00    -0.160 C  
HETATM    8  C   UNL     1      -9.391   5.379  66.709  1.00  0.00    -0.136 C  
HETATM    9  C   UNL     1      -9.892   5.475  68.103  1.00  0.00    -0.181 A  
HETATM   10  C   UNL     1     -11.029   6.235  68.413  1.00  0.00    -0.409 A  
HETATM   11  C   UNL     1     -11.466   6.356  69.732  1.00  0.00    -0.468 A  
HETATM   12  C   UNL     1     -10.785   5.698  70.753  1.00  0.00    -0.320 A  
HETATM   13  C   UNL     1      -9.671   4.913  70.454  1.00  0.00    -0.284 A  
HETATM   14  C   UNL     1      -9.219   4.794  69.131  1.00  0.00    -0.175 A  
HETATM   15  C   UNL     1      -8.042   3.914  68.800  1.00  0.00    -0.075 C  
HETATM   16  C   UNL     1      -8.475   2.686  67.999  1.00  0.00    -0.104 C  
HETATM   17  C   UNL     1      -8.944   2.865  66.564  1.00  0.00    -0.163 A  
HETATM   18  C   UNL     1      -9.020   1.679  65.800  1.00  0.00    -0.104 A  
HETATM   19  C   UNL     1      -9.464   1.686  64.479  1.00  0.00    -0.110 A  
HETATM   20  C   UNL     1      -9.854   2.880  63.895  1.00  0.00    -0.153 A  
HETATM   21  C   UNL     1      -9.808   4.060  64.635  1.00  0.00    -0.198 A  
HETATM   22  C   UNL     1      -9.346   4.083  65.969  1.00  0.00    -0.168 A  
ENDBRANCH   6   7
ENDBRANCH   3   6
TORSDOF 2
ENDMDL
MODEL      144
REMARK 921   NORMALIZED FREE ENERGY PREDICTED BY IDOCK:   -3.36 KCAL/MOL
REMARK 922        TOTAL FREE ENERGY PREDICTED BY IDOCK:   -4.07 KCAL/MOL
REMARK 923 INTER-LIGAND FREE ENERGY PREDICTED BY IDOCK:   -3.64 KCAL/MOL
REMARK 924 INTRA-LIGAND FREE ENERGY PREDICTED BY IDOCK:   -0.43 KCAL/MOL
REMARK 927      BINDING AFFINITY PREDICTED BY RF-SCORE:    0.00 PKD
ROOT
HETATM    1  C   UNL     1     -10.952  12.276  66.097  1.00  0.00    -0.293 C  
HETATM    2  N   UNL     1     -10.235  12.038  67.398  1.00  0.00    -0.199 N  
HETATM    3  C   UNL     1     -11.020  11.033  68.236  1.00  0.00    -0.235 C  
HETATM    4  O   UNL     1     -10.142  13.236  68.060  1.00  0.00    -0.222 OA 
HETATM    5  C   UNL     1      -8.852  11.523  67.096  1.00  0.00    -0.168 C  
ENDROOT
BRANCH   3   6
HETATM    6  C   UNL     1     -10.393  10.778  69.611  1.00  0.00    -0.142 C  
BRANCH   6   7
HETATM    7  C   UNL     1     -10.410   9.333  70.054  1.00  0.00    -0.245 C  
HETATM    8  C   UNL     1      -9.350   8.487  70.014  1.00  0.00    -0.164 C  
HETATM    9  C   UNL     1      -8.062   8.975  69.463  1.00  0.00    -0.105 A  
HETATM   10  C   UNL     1      -7.324   9.971  70.119  1.00  0.00    -0.171 A  
HETATM   11  C   UNL     1      -6.137  10.456  69.571  1.00  0.00    -0.047 A  
HETATM   12  C   UNL     1      -5.662   9.932  68.371  1.00  0.00    -0.042 A  
HETATM   13  C   UNL     1      -6.369   8.919  67.725  1.00  0.00    -0.056 A  
HETATM   14  C   UNL     1      -7.568   8.432  68.265  1.00  0.00    -0.098 A  
HETATM   15  C   UNL     1      -8.313   7.310  67.590  1.00  0.00    -0.117 C  
HETATM   16  C   UNL     1      -8.260   6.029  68.424  1.00  0.00    -0.110 C  
HETATM   17  C   UNL     1      -9.033   5.964  69.732  1.00  0.00    -0.135 A  
HETATM   18  C   UNL     1      -9.195   4.670  70.275  1.00  0.00    -0.195 A  
HETATM   19  C   UNL     1      -9.853   4.461  71.485  1.00  0.00    -0.259 A  
HETATM   20  C   UNL     1     -10.356   5.546  72.187  1.00  0.00    -0.263 A  
HETATM   21  C   UNL     1     -10.190   6.833  71.681  1.00  0.00    -0.208 A  
HETATM   22  C   UNL     1      -9.542   7.071  70.450  1.00  0.00    -0.169 A  
ENDBRANCH   6   7
ENDBRANCH   3   6
TORSDOF 2
ENDMDL
MODEL      145
REMARK 921   NORMALIZED FREE ENERGY PREDICTED BY IDOCK:   -3.34 KCAL/MOL
REMARK 922        TOTAL FREE ENERGY PREDICTED BY IDOCK:   -4.05 KCAL/MOL
REMARK 923 INTER-LIGAND FREE ENERGY PREDICTED BY IDOCK:   -3.78 KCAL/MOL
REMARK 924 INTRA-LIGAND FREE ENERGY PREDICTED BY IDOCK:   -0.27 KCAL/MOL
REMARK 927      BINDING AFFINITY PREDICTED BY RF-SCORE:    0.00 PKD
ROOT
HETATM    1  C   UNL     1     -10.409   6.203  73.712  1.00  0.00    -0.278 C  
HETATM    2  N   UNL     1      -9.205   6.507  72.863  1.00  0.00    -0.136 N  
HETATM    3  C   UNL     1      -9.655   6.848  71.444  1.00  0.00    -0.166 C  
HETATM    4  O   UNL     1      -8.400   5.397  72.850  1.00  0.00    -0.112 OA 
HETATM    5  C   UNL     1      -8.460   7.661  73.482  1.00  0.00    -0.186 C  
ENDROOT
BRANCH   3   6
HETATM    6  C   UNL     1      -8.485   7.110  70.490  1.00  0.00    -0.139 C  
BRANCH   6   7
HETATM    7  C   UNL     1      -8.818   7.998  69.313  1.00  0.00    -0.141 C  
HETATM    8  C   UNL     1      -9.079   7.568  68.053  1.00  0.00    -0.131 C  
HETATM    9  C   UNL     1      -9.006   6.115  67.760  1.00  0.00    -0.115 A  
HETATM   10  C   UNL     1      -9.921   5.215  68.326  1.00  0.00    -0.208 A  
HETATM   11  C   UNL     1      -9.817   3.846  68.081  1.00  0.00    -0.039 A  
HETATM   12  C   UNL     1      -8.811   3.364  67.248  1.00  0.00    -0.152 A  
HETATM   13  C   UNL     1      -7.915   4.251  66.653  1.00  0.00    -0.098 A  
HETATM   14  C   UNL     1      -8.006   5.629  66.901  1.00  0.00    -0.102 A  
HETATM   15  C   UNL     1      -7.065   6.593  66.228  1.00  0.00    -0.067 C  
HETATM   16  C   UNL     1      -7.798   7.462  65.205  1.00  0.00    -0.121 C  
HETATM   17  C   UNL     1      -8.777   8.517  65.696  1.00  0.00    -0.213 A  
HETATM   18  C   UNL     1      -9.166   9.476  64.734  1.00  0.00    -0.267 A  
HETATM   19  C   UNL     1     -10.082  10.483  65.032  1.00  0.00    -0.390 A  
HETATM   20  C   UNL     1     -10.640  10.546  66.299  1.00  0.00    -0.203 A  
HETATM   21  C   UNL     1     -10.288   9.600  67.258  1.00  0.00    -0.310 A  
HETATM   22  C   UNL     1      -9.350   8.580  66.988  1.00  0.00    -0.204 A  
ENDBRANCH   6   7
ENDBRANCH   3   6
TORSDOF 2
ENDMDL
MODEL      146
REMARK 921   NORMALIZED FREE ENERGY PREDICTED BY IDOCK:   -3.33 KCAL/MOL
REMARK 922        TOTAL FREE ENERGY PREDICTED BY IDOCK:   -4.03 KCAL/MOL
REMARK 923 INTER-LIGAND FREE ENERGY PREDICTED BY IDOCK:   -3.74 KCAL/MOL
REMARK 924 INTRA-LIGAND FREE ENERGY PREDICTED BY IDOCK:   -0.29 KCAL/MOL
REMARK 927      BINDING AFFINITY PREDICTED BY RF-SCORE:    0.00 PKD
ROOT
HETATM    1  C   UNL     1     -11.149  14.855  65.136  1.00  0.00    -0.393 C  
HETATM    2  N   UNL     1     -11.080  13.357  65.014  1.00  0.00    -0.307 N  
HETATM    3  C   UNL     1     -10.148  12.800  66.088  1.00  0.00    -0.266 C  
HETATM    4  O   UNL     1     -10.600  13.052  63.766  1.00  0.00    -0.347 OA 
HETATM    5  C   UNL     1     -12.471  12.799  65.167  1.00  0.00    -0.501 C  
ENDROOT
BRANCH   3   6
HETATM    6  C   UNL     1      -9.968  11.281  65.996  1.00  0.00    -0.273 C  
BRANCH   6   7
HETATM    7  C   UNL     1      -9.187  10.669  67.137  1.00  0.00    -0.161 C  
HETATM    8  C   UNL     1      -8.215   9.731  67.009  1.00  0.00    -0.117 C  
HETATM    9  C   UNL     1      -7.890   9.213  65.656  1.00  0.00    -0.095 A  
HETATM   10  C   UNL     1      -7.309  10.040  64.684  1.00  0.00    -0.143 A  
HETATM   11  C   UNL     1      -7.049   9.557  63.402  1.00  0.00    -0.101 A  
HETATM   12  C   UNL     1      -7.344   8.234  63.086  1.00  0.00    -0.105 A  
HETATM   13  C   UNL     1      -7.892   7.392  64.053  1.00  0.00    -0.120 A  
HETATM   14  C   UNL     1      -8.166   7.872  65.342  1.00  0.00    -0.139 A  
HETATM   15  C   UNL     1      -8.719   6.954  66.400  1.00  0.00    -0.147 C  
HETATM   16  C   UNL     1      -7.690   6.691  67.500  1.00  0.00    -0.110 C  
HETATM   17  C   UNL     1      -7.317   7.818  68.451  1.00  0.00    -0.095 A  
HETATM   18  C   UNL     1      -6.618   7.422  69.613  1.00  0.00    -0.040 A  
HETATM   19  C   UNL     1      -6.185   8.350  70.558  1.00  0.00    -0.035 A  
HETATM   20  C   UNL     1      -6.431   9.699  70.355  1.00  0.00    -0.088 A  
HETATM   21  C   UNL     1      -7.100  10.115  69.206  1.00  0.00    -0.076 A  
HETATM   22  C   UNL     1      -7.564   9.195  68.242  1.00  0.00    -0.083 A  
ENDBRANCH   6   7
ENDBRANCH   3   6
TORSDOF 2
ENDMDL
MODEL      147
REMARK 921   NORMALIZED FREE ENERGY PREDICTED BY IDOCK:   -3.24 KCAL/MOL
REMARK 922        TOTAL FREE ENERGY PREDICTED BY IDOCK:   -3.94 KCAL/MOL
REMARK 923 INTER-LIGAND FREE ENERGY PREDICTED BY IDOCK:   -5.09 KCAL/MOL
REMARK 924 INTRA-LIGAND FREE ENERGY PREDICTED BY IDOCK:    1.16 KCAL/MOL
REMARK 927      BINDING AFFINITY PREDICTED BY RF-SCORE:    0.00 PKD
ROOT
HETATM    1  C   UNL     1     -10.356  17.491  68.938  1.00  0.00    -0.338 C  
HETATM    2  N   UNL     1     -10.423  16.011  69.201  1.00  0.00    -0.232 N  
HETATM    3  C   UNL     1     -11.388  15.360  68.214  1.00  0.00    -0.348 C  
HETATM    4  O   UNL     1     -10.864  15.826  70.487  1.00  0.00    -0.319 OA 
HETATM    5  C   UNL     1      -9.038  15.436  69.058  1.00  0.00    -0.233 C  
ENDROOT
BRANCH   3   6
HETATM    6  C   UNL     1     -11.567  13.857  68.452  1.00  0.00    -0.368 C  
BRANCH   6   7
HETATM    7  C   UNL     1     -10.389  13.008  68.030  1.00  0.00    -0.237 C  
HETATM    8  C   UNL     1      -9.969  12.826  66.752  1.00  0.00    -0.237 C  
HETATM    9  C   UNL     1     -10.726  13.469  65.649  1.00  0.00    -0.284 A  
HETATM   10  C   UNL     1     -10.756  14.864  65.509  1.00  0.00    -0.369 A  
HETATM   11  C   UNL     1     -11.506  15.461  64.496  1.00  0.00    -0.314 A  
HETATM   12  C   UNL     1     -12.215  14.669  63.597  1.00  0.00     0.307 A  
HETATM   13  C   UNL     1     -12.168  13.279  63.706  1.00  0.00    -0.508 A  
HETATM   14  C   UNL     1     -11.423  12.671  64.727  1.00  0.00    -0.364 A  
HETATM   15  C   UNL     1     -11.337  11.170  64.822  1.00  0.00     0.070 C  
HETATM   16  C   UNL     1      -9.930  10.672  64.490  1.00  0.00    -0.410 C  
HETATM   17  C   UNL     1      -8.795  10.956  65.461  1.00  0.00    -0.199 A  
HETATM   18  C   UNL     1      -7.616  10.206  65.249  1.00  0.00    -0.144 A  
HETATM   19  C   UNL     1      -6.484  10.382  66.042  1.00  0.00    -0.119 A  
HETATM   20  C   UNL     1      -6.501  11.323  67.060  1.00  0.00    -0.114 A  
HETATM   21  C   UNL     1      -7.645  12.089  67.274  1.00  0.00    -0.157 A  
HETATM   22  C   UNL     1      -8.811  11.918  66.497  1.00  0.00    -0.178 A  
ENDBRANCH   6   7
ENDBRANCH   3   6
TORSDOF 2
ENDMDL
MODEL      148
REMARK 921   NORMALIZED FREE ENERGY PREDICTED BY IDOCK:   -3.22 KCAL/MOL
REMARK 922        TOTAL FREE ENERGY PREDICTED BY IDOCK:   -3.91 KCAL/MOL
REMARK 923 INTER-LIGAND FREE ENERGY PREDICTED BY IDOCK:   -3.58 KCAL/MOL
REMARK 924 INTRA-LIGAND FREE ENERGY PREDICTED BY IDOCK:   -0.32 KCAL/MOL
REMARK 927      BINDING AFFINITY PREDICTED BY RF-SCORE:    0.00 PKD
ROOT
HETATM    1  C   UNL     1     -13.839  13.895  71.210  1.00  0.00    -0.040 C  
HETATM    2  N   UNL     1     -12.524  14.269  70.582  1.00  0.00    -0.337 N  
HETATM    3  C   UNL     1     -12.073  13.155  69.640  1.00  0.00    -0.255 C  
HETATM    4  O   UNL     1     -11.605  14.442  71.585  1.00  0.00    -0.122 OA 
HETATM    5  C   UNL     1     -12.701  15.565  69.835  1.00  0.00    -0.034 C  
ENDROOT
BRANCH   3   6
HETATM    6  C   UNL     1     -10.706  13.424  69.003  1.00  0.00    -0.160 C  
BRANCH   6   7
HETATM    7  C   UNL     1     -10.565  12.931  67.582  1.00  0.00    -0.232 C  
HETATM    8  C   UNL     1      -9.855  11.840  67.195  1.00  0.00    -0.207 C  
HETATM    9  C   UNL     1      -9.114  11.065  68.221  1.00  0.00    -0.158 A  
HETATM   10  C   UNL     1      -9.793  10.350  69.218  1.00  0.00    -0.243 A  
HETATM   11  C   UNL     1      -9.087   9.660  70.204  1.00  0.00    -0.280 A  
HETATM   12  C   UNL     1      -7.695   9.659  70.190  1.00  0.00    -0.179 A  
HETATM   13  C   UNL     1      -7.009  10.340  69.185  1.00  0.00    -0.066 A  
HETATM   14  C   UNL     1      -7.710  11.043  68.195  1.00  0.00    -0.105 A  
HETATM   15  C   UNL     1      -6.971  11.745  67.085  1.00  0.00    -0.145 C  
HETATM   16  C   UNL     1      -7.204  11.055  65.740  1.00  0.00     0.097 C  
HETATM   17  C   UNL     1      -8.577  11.140  65.092  1.00  0.00     0.069 A  
HETATM   18  C   UNL     1      -8.628  10.762  63.732  1.00  0.00    -0.036 A  
HETATM   19  C   UNL     1      -9.824  10.760  63.017  1.00  0.00    -0.344 A  
HETATM   20  C   UNL     1     -11.001  11.125  63.652  1.00  0.00    -0.237 A  
HETATM   21  C   UNL     1     -10.979  11.482  64.998  1.00  0.00    -0.305 A  
HETATM   22  C   UNL     1      -9.779  11.509  65.740  1.00  0.00    -0.263 A  
ENDBRANCH   6   7
ENDBRANCH   3   6
TORSDOF 2
ENDMDL
MODEL      149
REMARK 921   NORMALIZED FREE ENERGY PREDICTED BY IDOCK:   -3.21 KCAL/MOL
REMARK 922        TOTAL FREE ENERGY PREDICTED BY IDOCK:   -3.89 KCAL/MOL
REMARK 923 INTER-LIGAND FREE ENERGY PREDICTED BY IDOCK:   -3.42 KCAL/MOL
REMARK 924 INTRA-LIGAND FREE ENERGY PREDICTED BY IDOCK:   -0.48 KCAL/MOL
REMARK 927      BINDING AFFINITY PREDICTED BY RF-SCORE:    0.00 PKD
ROOT
HETATM    1  C   UNL     1      -6.347   9.157  71.879  1.00  0.00     0.023 C  
HETATM    2  N   UNL     1      -6.502   9.397  70.402  1.00  0.00    -0.061 N  
HETATM    3  C   UNL     1      -6.158   8.120  69.639  1.00  0.00    -0.029 C  
HETATM    4  O   UNL     1      -5.647  10.408  70.043  1.00  0.00    -0.042 OA 
HETATM    5  C   UNL     1      -7.922   9.820  70.131  1.00  0.00    -0.186 C  
ENDROOT
BRANCH   3   6
HETATM    6  C   UNL     1      -6.227   8.293  68.118  1.00  0.00    -0.051 C  
BRANCH   6   7
HETATM    7  C   UNL     1      -6.862   7.137  67.380  1.00  0.00    -0.070 C  
HETATM    8  C   UNL     1      -8.032   7.190  66.694  1.00  0.00    -0.111 C  
HETATM    9  C   UNL     1      -8.796   8.463  66.676  1.00  0.00    -0.164 A  
HETATM   10  C   UNL     1      -8.291   9.601  66.031  1.00  0.00    -0.123 A  
HETATM   11  C   UNL     1      -8.995  10.805  66.057  1.00  0.00    -0.196 A  
HETATM   12  C   UNL     1     -10.224  10.877  66.707  1.00  0.00    -0.277 A  
HETATM   13  C   UNL     1     -10.752   9.744  67.325  1.00  0.00    -0.296 A  
HETATM   14  C   UNL     1     -10.046   8.532  67.312  1.00  0.00    -0.317 A  
HETATM   15  C   UNL     1     -10.634   7.296  67.943  1.00  0.00    -0.266 C  
HETATM   16  C   UNL     1     -11.007   6.257  66.885  1.00  0.00    -0.404 C  
HETATM   17  C   UNL     1      -9.900   5.536  66.132  1.00  0.00    -0.137 A  
HETATM   18  C   UNL     1     -10.305   4.387  65.417  1.00  0.00    -0.238 A  
HETATM   19  C   UNL     1      -9.405   3.644  64.655  1.00  0.00    -0.151 A  
HETATM   20  C   UNL     1      -8.080   4.042  64.581  1.00  0.00    -0.093 A  
HETATM   21  C   UNL     1      -7.662   5.184  65.261  1.00  0.00    -0.087 A  
HETATM   22  C   UNL     1      -8.549   5.945  66.053  1.00  0.00    -0.142 A  
ENDBRANCH   6   7
ENDBRANCH   3   6
TORSDOF 2
ENDMDL
MODEL      150
REMARK 921   NORMALIZED FREE ENERGY PREDICTED BY IDOCK:   -3.19 KCAL/MOL
REMARK 922        TOTAL FREE ENERGY PREDICTED BY IDOCK:   -3.88 KCAL/MOL
REMARK 923 INTER-LIGAND FREE ENERGY PREDICTED BY IDOCK:   -3.58 KCAL/MOL
REMARK 924 INTRA-LIGAND FREE ENERGY PREDICTED BY IDOCK:   -0.30 KCAL/MOL
REMARK 927      BINDING AFFINITY PREDICTED BY RF-SCORE:    0.00 PKD
ROOT
HETATM    1  C   UNL     1      -8.610   3.509  68.742  1.00  0.00    -0.087 C  
HETATM    2  N   UNL     1      -7.805   4.761  68.524  1.00  0.00    -0.080 N  
HETATM    3  C   UNL     1      -8.710   5.982  68.677  1.00  0.00    -0.110 C  
HETATM    4  O   UNL     1      -7.281   4.717  67.257  1.00  0.00    -0.070 OA 
HETATM    5  C   UNL     1      -6.685   4.793  69.530  1.00  0.00    -0.044 C  
ENDROOT
BRANCH   3   6
HETATM    6  C   UNL     1      -7.985   7.304  68.406  1.00  0.00    -0.124 C  
BRANCH   6   7
HETATM    7  C   UNL     1      -8.811   8.542  68.671  1.00  0.00    -0.136 C  
HETATM    8  C   UNL     1      -8.987   9.570  67.803  1.00  0.00    -0.126 C  
HETATM    9  C   UNL     1      -8.297   9.527  66.490  1.00  0.00    -0.119 A  
HETATM   10  C   UNL     1      -8.637   8.569  65.524  1.00  0.00    -0.204 A  
HETATM   11  C   UNL     1      -7.953   8.507  64.310  1.00  0.00    -0.149 A  
HETATM   12  C   UNL     1      -6.937   9.419  64.039  1.00  0.00    -0.096 A  
HETATM   13  C   UNL     1      -6.611  10.398  64.977  1.00  0.00    -0.075 A  
HETATM   14  C   UNL     1      -7.287  10.461  66.204  1.00  0.00    -0.131 A  
HETATM   15  C   UNL     1      -6.964  11.542  67.203  1.00  0.00    -0.138 C  
HETATM   16  C   UNL     1      -8.119  12.535  67.338  1.00  0.00    -0.180 C  
HETATM   17  C   UNL     1      -9.408  12.085  68.007  1.00  0.00    -0.196 A  
HETATM   18  C   UNL     1     -10.292  13.124  68.377  1.00  0.00    -0.257 A  
HETATM   19  C   UNL     1     -11.525  12.859  68.970  1.00  0.00    -0.358 A  
HETATM   20  C   UNL     1     -11.908  11.547  69.196  1.00  0.00    -0.406 A  
HETATM   21  C   UNL     1     -11.063  10.505  68.821  1.00  0.00    -0.315 A  
HETATM   22  C   UNL     1      -9.801  10.746  68.234  1.00  0.00    -0.177 A  
ENDBRANCH   6   7
ENDBRANCH   3   6
TORSDOF 2
ENDMDL
MODEL      151
REMARK 921   NORMALIZED FREE ENERGY PREDICTED BY IDOCK:   -3.18 KCAL/MOL
REMARK 922        TOTAL FREE ENERGY PREDICTED BY IDOCK:   -3.87 KCAL/MOL
REMARK 923 INTER-LIGAND FREE ENERGY PREDICTED BY IDOCK:   -5.36 KCAL/MOL
REMARK 924 INTRA-LIGAND FREE ENERGY PREDICTED BY IDOCK:    1.49 KCAL/MOL
REMARK 927      BINDING AFFINITY PREDICTED BY RF-SCORE:    0.00 PKD
ROOT
HETATM    1  C   UNL     1      -6.543  20.023  68.110  1.00  0.00    -0.280 C  
HETATM    2  N   UNL     1      -6.123  18.717  67.492  1.00  0.00    -0.178 N  
HETATM    3  C   UNL     1      -7.354  17.848  67.251  1.00  0.00    -0.192 C  
HETATM    4  O   UNL     1      -5.264  18.091  68.359  1.00  0.00    -0.154 OA 
HETATM    5  C   UNL     1      -5.407  19.007  66.198  1.00  0.00    -0.152 C  
ENDROOT
BRANCH   3   6
HETATM    6  C   UNL     1      -7.012  16.467  66.680  1.00  0.00    -0.196 C  
BRANCH   6   7
HETATM    7  C   UNL     1      -7.960  15.363  67.091  1.00  0.00    -0.251 C  
HETATM    8  C   UNL     1      -9.291  15.511  67.309  1.00  0.00    -0.220 C  
HETATM    9  C   UNL     1      -9.895  16.861  67.178  1.00  0.00    -0.270 A  
HETATM   10  C   UNL     1      -9.961  17.507  65.935  1.00  0.00    -0.155 A  
HETATM   11  C   UNL     1     -10.489  18.794  65.829  1.00  0.00    -0.317 A  
HETATM   12  C   UNL     1     -10.979  19.438  66.961  1.00  0.00    -0.438 A  
HETATM   13  C   UNL     1     -10.949  18.794  68.198  1.00  0.00     0.126 A  
HETATM   14  C   UNL     1     -10.411  17.504  68.315  1.00  0.00    -0.379 A  
HETATM   15  C   UNL     1     -10.414  16.790  69.641  1.00  0.00    -0.209 C  
HETATM   16  C   UNL     1     -11.379  15.604  69.631  1.00  0.00    -0.331 C  
HETATM   17  C   UNL     1     -11.038  14.380  68.795  1.00  0.00    -0.275 A  
HETATM   18  C   UNL     1     -11.798  13.223  69.081  1.00  0.00    -0.378 A  
HETATM   19  C   UNL     1     -11.617  12.036  68.373  1.00  0.00    -0.368 A  
HETATM   20  C   UNL     1     -10.680  11.983  67.354  1.00  0.00    -0.266 A  
HETATM   21  C   UNL     1      -9.934  13.117  67.041  1.00  0.00    -0.244 A  
HETATM   22  C   UNL     1     -10.085  14.326  67.753  1.00  0.00    -0.231 A  
ENDBRANCH   6   7
ENDBRANCH   3   6
TORSDOF 2
ENDMDL
MODEL      152
REMARK 921   NORMALIZED FREE ENERGY PREDICTED BY IDOCK:   -3.05 KCAL/MOL
REMARK 922        TOTAL FREE ENERGY PREDICTED BY IDOCK:   -3.72 KCAL/MOL
REMARK 923 INTER-LIGAND FREE ENERGY PREDICTED BY IDOCK:   -3.42 KCAL/MOL
REMARK 924 INTRA-LIGAND FREE ENERGY PREDICTED BY IDOCK:   -0.29 KCAL/MOL
REMARK 927      BINDING AFFINITY PREDICTED BY RF-SCORE:    0.00 PKD
ROOT
HETATM    1  C   UNL     1     -10.556  14.089  66.090  1.00  0.00    -0.290 C  
HETATM    2  N   UNL     1     -10.101  12.855  66.820  1.00  0.00    -0.234 N  
HETATM    3  C   UNL     1     -10.076  11.672  65.855  1.00  0.00    -0.230 C  
HETATM    4  O   UNL     1     -10.983  12.614  67.842  1.00  0.00    -0.215 OA 
HETATM    5  C   UNL     1      -8.731  13.113  67.390  1.00  0.00    -0.206 C  
ENDROOT
BRANCH   3   6
HETATM    6  C   UNL     1      -9.684  10.354  66.532  1.00  0.00    -0.241 C  
BRANCH   6   7
HETATM    7  C   UNL     1      -8.870   9.419  65.667  1.00  0.00    -0.208 C  
HETATM    8  C   UNL     1      -8.683   8.095  65.901  1.00  0.00    -0.184 C  
HETATM    9  C   UNL     1      -9.284   7.488  67.115  1.00  0.00    -0.161 A  
HETATM   10  C   UNL     1     -10.674   7.384  67.261  1.00  0.00    -0.379 A  
HETATM   11  C   UNL     1     -11.230   6.854  68.426  1.00  0.00    -0.066 A  
HETATM   12  C   UNL     1     -10.400   6.399  69.447  1.00  0.00    -0.252 A  
HETATM   13  C   UNL     1      -9.015   6.468  69.301  1.00  0.00    -0.131 A  
HETATM   14  C   UNL     1      -8.448   7.008  68.137  1.00  0.00    -0.129 A  
HETATM   15  C   UNL     1      -6.952   7.045  67.960  1.00  0.00    -0.083 C  
HETATM   16  C   UNL     1      -6.499   6.080  66.864  1.00  0.00    -0.050 C  
HETATM   17  C   UNL     1      -6.836   6.394  65.415  1.00  0.00    -0.048 A  
HETATM   18  C   UNL     1      -6.124   5.643  64.452  1.00  0.00    -0.025 A  
HETATM   19  C   UNL     1      -6.351   5.801  63.087  1.00  0.00    -0.025 A  
HETATM   20  C   UNL     1      -7.307   6.706  62.652  1.00  0.00    -0.069 A  
HETATM   21  C   UNL     1      -8.035   7.443  63.583  1.00  0.00    -0.074 A  
HETATM   22  C   UNL     1      -7.813   7.315  64.971  1.00  0.00    -0.125 A  
ENDBRANCH   6   7
ENDBRANCH   3   6
TORSDOF 2
ENDMDL
MODEL      153
REMARK 921   NORMALIZED FREE ENERGY PREDICTED BY IDOCK:   -3.02 KCAL/MOL
REMARK 922        TOTAL FREE ENERGY PREDICTED BY IDOCK:   -3.69 KCAL/MOL
REMARK 923 INTER-LIGAND FREE ENERGY PREDICTED BY IDOCK:   -3.42 KCAL/MOL
REMARK 924 INTRA-LIGAND FREE ENERGY PREDICTED BY IDOCK:   -0.27 KCAL/MOL
REMARK 927      BINDING AFFINITY PREDICTED BY RF-SCORE:    0.00 PKD
ROOT
HETATM    1  C   UNL     1     -13.803   6.870  71.906  1.00  0.00    -0.077 C  
HETATM    2  N   UNL     1     -12.426   7.385  71.590  1.00  0.00    -0.334 N  
HETATM    3  C   UNL     1     -11.871   6.646  70.374  1.00  0.00    -0.346 C  
HETATM    4  O   UNL     1     -11.626   7.164  72.683  1.00  0.00    -0.263 OA 
HETATM    5  C   UNL     1     -12.515   8.865  71.325  1.00  0.00    -0.272 C  
ENDROOT
BRANCH   3   6
HETATM    6  C   UNL     1     -10.440   7.063  70.019  1.00  0.00    -0.233 C  
BRANCH   6   7
HETATM    7  C   UNL     1      -9.835   6.311  68.856  1.00  0.00    -0.155 C  
HETATM    8  C   UNL     1      -8.838   6.770  68.057  1.00  0.00    -0.119 C  
HETATM    9  C   UNL     1      -8.299   8.133  68.293  1.00  0.00    -0.126 A  
HETATM   10  C   UNL     1      -7.589   8.438  69.463  1.00  0.00    -0.090 A  
HETATM   11  C   UNL     1      -7.124   9.733  69.696  1.00  0.00    -0.083 A  
HETATM   12  C   UNL     1      -7.344  10.730  68.750  1.00  0.00    -0.104 A  
HETATM   13  C   UNL     1      -8.020  10.432  67.568  1.00  0.00    -0.106 A  
HETATM   14  C   UNL     1      -8.499   9.135  67.329  1.00  0.00    -0.121 A  
HETATM   15  C   UNL     1      -9.194   8.801  66.035  1.00  0.00    -0.282 C  
HETATM   16  C   UNL     1      -8.343   7.866  65.174  1.00  0.00    -0.128 C  
HETATM   17  C   UNL     1      -8.142   6.427  65.620  1.00  0.00    -0.131 A  
HETATM   18  C   UNL     1      -7.625   5.556  64.635  1.00  0.00    -0.079 A  
HETATM   19  C   UNL     1      -7.360   4.216  64.909  1.00  0.00    -0.072 A  
HETATM   20  C   UNL     1      -7.595   3.718  66.182  1.00  0.00    -0.088 A  
HETATM   21  C   UNL     1      -8.085   4.563  67.175  1.00  0.00    -0.102 A  
HETATM   22  C   UNL     1      -8.378   5.920  66.919  1.00  0.00    -0.108 A  
ENDBRANCH   6   7
ENDBRANCH   3   6
TORSDOF 2
ENDMDL
MODEL      154
REMARK 921   NORMALIZED FREE ENERGY PREDICTED BY IDOCK:   -3.01 KCAL/MOL
REMARK 922        TOTAL FREE ENERGY PREDICTED BY IDOCK:   -3.68 KCAL/MOL
REMARK 923 INTER-LIGAND FREE ENERGY PREDICTED BY IDOCK:   -3.34 KCAL/MOL
REMARK 924 INTRA-LIGAND FREE ENERGY PREDICTED BY IDOCK:   -0.33 KCAL/MOL
REMARK 927      BINDING AFFINITY PREDICTED BY RF-SCORE:    0.00 PKD
ROOT
HETATM    1  C   UNL     1     -10.685   4.802  73.798  1.00  0.00    -0.295 C  
HETATM    2  N   UNL     1      -9.360   4.662  73.100  1.00  0.00    -0.121 N  
HETATM    3  C   UNL     1      -9.292   5.646  71.934  1.00  0.00    -0.144 C  
HETATM    4  O   UNL     1      -9.255   3.374  72.639  1.00  0.00    -0.091 OA 
HETATM    5  C   UNL     1      -8.262   4.930  74.095  1.00  0.00    -0.100 C  
ENDROOT
BRANCH   3   6
HETATM    6  C   UNL     1      -7.996   5.526  71.124  1.00  0.00    -0.111 C  
BRANCH   6   7
HETATM    7  C   UNL     1      -8.147   4.821  69.795  1.00  0.00    -0.069 C  
HETATM    8  C   UNL     1      -8.475   5.419  68.621  1.00  0.00    -0.093 C  
HETATM    9  C   UNL     1      -8.751   6.877  68.611  1.00  0.00    -0.122 A  
HETATM   10  C   UNL     1      -7.736   7.808  68.875  1.00  0.00    -0.113 A  
HETATM   11  C   UNL     1      -8.015   9.174  68.907  1.00  0.00    -0.099 A  
HETATM   12  C   UNL     1      -9.306   9.626  68.650  1.00  0.00    -0.143 A  
HETATM   13  C   UNL     1     -10.318   8.713  68.354  1.00  0.00    -0.239 A  
HETATM   14  C   UNL     1     -10.049   7.336  68.329  1.00  0.00    -0.193 A  
HETATM   15  C   UNL     1     -11.129   6.351  67.969  1.00  0.00    -0.365 C  
HETATM   16  C   UNL     1     -10.854   5.695  66.616  1.00  0.00    -0.280 C  
HETATM   17  C   UNL     1      -9.700   4.714  66.489  1.00  0.00    -0.212 A  
HETATM   18  C   UNL     1      -9.705   3.922  65.319  1.00  0.00    -0.187 A  
HETATM   19  C   UNL     1      -8.693   3.002  65.053  1.00  0.00    -0.112 A  
HETATM   20  C   UNL     1      -7.643   2.862  65.948  1.00  0.00    -0.073 A  
HETATM   21  C   UNL     1      -7.606   3.646  67.098  1.00  0.00    -0.079 A  
HETATM   22  C   UNL     1      -8.627   4.573  67.400  1.00  0.00    -0.104 A  
ENDBRANCH   6   7
ENDBRANCH   3   6
TORSDOF 2
ENDMDL
MODEL      155
REMARK 921   NORMALIZED FREE ENERGY PREDICTED BY IDOCK:   -2.99 KCAL/MOL
REMARK 922        TOTAL FREE ENERGY PREDICTED BY IDOCK:   -3.65 KCAL/MOL
REMARK 923 INTER-LIGAND FREE ENERGY PREDICTED BY IDOCK:   -3.36 KCAL/MOL
REMARK 924 INTRA-LIGAND FREE ENERGY PREDICTED BY IDOCK:   -0.30 KCAL/MOL
REMARK 927      BINDING AFFINITY PREDICTED BY RF-SCORE:    0.00 PKD
ROOT
HETATM    1  C   UNL     1     -13.196   9.283  72.368  1.00  0.00    -0.426 C  
HETATM    2  N   UNL     1     -11.902   9.069  71.631  1.00  0.00    -0.335 N  
HETATM    3  C   UNL     1     -12.036   7.858  70.709  1.00  0.00    -0.131 C  
HETATM    4  O   UNL     1     -10.914   8.852  72.557  1.00  0.00    -0.178 OA 
HETATM    5  C   UNL     1     -11.587  10.313  70.843  1.00  0.00    -0.365 C  
ENDROOT
BRANCH   3   6
HETATM    6  C   UNL     1     -10.738   7.526  69.964  1.00  0.00    -0.248 C  
BRANCH   6   7
HETATM    7  C   UNL     1     -10.063   6.250  70.413  1.00  0.00    -0.226 C  
HETATM    8  C   UNL     1      -9.197   5.516  69.670  1.00  0.00    -0.163 C  
HETATM    9  C   UNL     1      -8.892   5.952  68.284  1.00  0.00    -0.110 A  
HETATM   10  C   UNL     1      -8.196   7.143  68.036  1.00  0.00    -0.120 A  
HETATM   11  C   UNL     1      -7.953   7.567  66.729  1.00  0.00    -0.115 A  
HETATM   12  C   UNL     1      -8.384   6.791  65.656  1.00  0.00    -0.147 A  
HETATM   13  C   UNL     1      -9.049   5.588  65.889  1.00  0.00    -0.163 A  
HETATM   14  C   UNL     1      -9.306   5.159  67.200  1.00  0.00    -0.129 A  
HETATM   15  C   UNL     1      -9.988   3.841  67.455  1.00  0.00     0.141 C  
HETATM   16  C   UNL     1      -9.027   2.830  68.083  1.00  0.00    -0.198 C  
HETATM   17  C   UNL     1      -8.560   3.044  69.514  1.00  0.00    -0.114 A  
HETATM   18  C   UNL     1      -7.943   1.927  70.121  1.00  0.00    -0.052 A  
HETATM   19  C   UNL     1      -7.438   1.985  71.418  1.00  0.00    -0.036 A  
HETATM   20  C   UNL     1      -7.527   3.169  72.135  1.00  0.00    -0.052 A  
HETATM   21  C   UNL     1      -8.112   4.289  71.549  1.00  0.00    -0.087 A  
HETATM   22  C   UNL     1      -8.647   4.252  70.243  1.00  0.00    -0.102 A  
ENDBRANCH   6   7
ENDBRANCH   3   6
TORSDOF 2
ENDMDL
MODEL      156
REMARK 921   NORMALIZED FREE ENERGY PREDICTED BY IDOCK:   -2.97 KCAL/MOL
REMARK 922        TOTAL FREE ENERGY PREDICTED BY IDOCK:   -3.63 KCAL/MOL
REMARK 923 INTER-LIGAND FREE ENERGY PREDICTED BY IDOCK:   -3.32 KCAL/MOL
REMARK 924 INTRA-LIGAND FREE ENERGY PREDICTED BY IDOCK:   -0.31 KCAL/MOL
REMARK 927      BINDING AFFINITY PREDICTED BY RF-SCORE:    0.00 PKD
ROOT
HETATM    1  C   UNL     1     -12.129   6.589  71.459  1.00  0.00    -0.308 C  
HETATM    2  N   UNL     1     -10.726   6.903  71.016  1.00  0.00    -0.228 N  
HETATM    3  C   UNL     1     -10.762   7.988  69.942  1.00  0.00    -0.242 C  
HETATM    4  O   UNL     1     -10.170   5.755  70.512  1.00  0.00    -0.194 OA 
HETATM    5  C   UNL     1      -9.936   7.359  72.215  1.00  0.00    -0.169 C  
ENDROOT
BRANCH   3   6
HETATM    6  C   UNL     1      -9.375   8.326  69.385  1.00  0.00    -0.155 C  
BRANCH   6   7
HETATM    7  C   UNL     1      -9.307   8.419  67.878  1.00  0.00    -0.147 C  
HETATM    8  C   UNL     1      -8.765   9.448  67.177  1.00  0.00    -0.134 C  
HETATM    9  C   UNL     1      -8.216  10.611  67.919  1.00  0.00    -0.112 A  
HETATM   10  C   UNL     1      -7.082  10.481  68.732  1.00  0.00    -0.073 A  
HETATM   11  C   UNL     1      -6.600  11.569  69.460  1.00  0.00    -0.120 A  
HETATM   12  C   UNL     1      -7.234  12.805  69.364  1.00  0.00     0.272 A  
HETATM   13  C   UNL     1      -8.344  12.955  68.533  1.00  0.00    -0.054 A  
HETATM   14  C   UNL     1      -8.841  11.864  67.805  1.00  0.00    -0.166 A  
HETATM   15  C   UNL     1     -10.015  12.033  66.876  1.00  0.00    -0.218 C  
HETATM   16  C   UNL     1      -9.591  11.891  65.414  1.00  0.00    -0.183 C  
HETATM   17  C   UNL     1      -9.176  10.524  64.893  1.00  0.00    -0.254 A  
HETATM   18  C   UNL     1      -9.108  10.408  63.487  1.00  0.00    -0.270 A  
HETATM   19  C   UNL     1      -8.711   9.224  62.869  1.00  0.00    -0.210 A  
HETATM   20  C   UNL     1      -8.361   8.130  63.645  1.00  0.00     0.007 A  
HETATM   21  C   UNL     1      -8.401   8.227  65.034  1.00  0.00    -0.158 A  
HETATM   22  C   UNL     1      -8.815   9.409  65.685  1.00  0.00    -0.208 A  
ENDBRANCH   6   7
ENDBRANCH   3   6
TORSDOF 2
ENDMDL
MODEL      157
REMARK 921   NORMALIZED FREE ENERGY PREDICTED BY IDOCK:   -2.97 KCAL/MOL
REMARK 922        TOTAL FREE ENERGY PREDICTED BY IDOCK:   -3.63 KCAL/MOL
REMARK 923 INTER-LIGAND FREE ENERGY PREDICTED BY IDOCK:   -3.29 KCAL/MOL
REMARK 924 INTRA-LIGAND FREE ENERGY PREDICTED BY IDOCK:   -0.34 KCAL/MOL
REMARK 927      BINDING AFFINITY PREDICTED BY RF-SCORE:    0.00 PKD
ROOT
HETATM    1  C   UNL     1      -8.433   8.254  72.527  1.00  0.00    -0.187 C  
HETATM    2  N   UNL     1      -7.524   8.305  71.330  1.00  0.00    -0.073 N  
HETATM    3  C   UNL     1      -8.113   9.248  70.283  1.00  0.00    -0.154 C  
HETATM    4  O   UNL     1      -7.419   7.037  70.819  1.00  0.00    -0.079 OA 
HETATM    5  C   UNL     1      -6.167   8.780  71.778  1.00  0.00    -0.073 C  
ENDROOT
BRANCH   3   6
HETATM    6  C   UNL     1      -7.281   9.311  68.997  1.00  0.00    -0.071 C  
BRANCH   6   7
HETATM    7  C   UNL     1      -8.036   9.800  67.782  1.00  0.00    -0.101 C  
HETATM    8  C   UNL     1      -8.030  11.073  67.313  1.00  0.00    -0.126 C  
HETATM    9  C   UNL     1      -7.260  12.106  68.050  1.00  0.00    -0.099 A  
HETATM   10  C   UNL     1      -5.860  12.056  68.116  1.00  0.00    -0.053 A  
HETATM   11  C   UNL     1      -5.147  13.006  68.848  1.00  0.00    -0.068 A  
HETATM   12  C   UNL     1      -5.826  14.030  69.502  1.00  0.00    -0.097 A  
HETATM   13  C   UNL     1      -7.215  14.111  69.418  1.00  0.00    -0.011 A  
HETATM   14  C   UNL     1      -7.941  13.154  68.691  1.00  0.00    -0.033 A  
HETATM   15  C   UNL     1      -9.438  13.262  68.565  1.00  0.00    -0.113 C  
HETATM   16  C   UNL     1      -9.851  13.606  67.133  1.00  0.00    -0.242 C  
HETATM   17  C   UNL     1      -9.676  12.562  66.041  1.00  0.00    -0.247 A  
HETATM   18  C   UNL     1     -10.361  12.830  64.835  1.00  0.00    -0.330 A  
HETATM   19  C   UNL     1     -10.269  11.977  63.736  1.00  0.00    -0.447 A  
HETATM   20  C   UNL     1      -9.477  10.842  63.815  1.00  0.00    -0.308 A  
HETATM   21  C   UNL     1      -8.776  10.569  64.988  1.00  0.00    -0.193 A  
HETATM   22  C   UNL     1      -8.866  11.406  66.121  1.00  0.00    -0.186 A  
ENDBRANCH   6   7
ENDBRANCH   3   6
TORSDOF 2
ENDMDL
MODEL      158
REMARK 921   NORMALIZED FREE ENERGY PREDICTED BY IDOCK:   -2.96 KCAL/MOL
REMARK 922        TOTAL FREE ENERGY PREDICTED BY IDOCK:   -3.62 KCAL/MOL
REMARK 923 INTER-LIGAND FREE ENERGY PREDICTED BY IDOCK:   -3.16 KCAL/MOL
REMARK 924 INTRA-LIGAND FREE ENERGY PREDICTED BY IDOCK:   -0.46 KCAL/MOL
REMARK 927      BINDING AFFINITY PREDICTED BY RF-SCORE:    0.00 PKD
ROOT
HETATM    1  C   UNL     1      -8.334   9.864  66.238  1.00  0.00    -0.125 C  
HETATM    2  N   UNL     1      -9.195   8.893  66.999  1.00  0.00    -0.133 N  
HETATM    3  C   UNL     1      -8.469   7.556  67.123  1.00  0.00    -0.121 C  
HETATM    4  O   UNL     1     -10.369   8.731  66.308  1.00  0.00    -0.231 OA 
HETATM    5  C   UNL     1      -9.489   9.474  68.357  1.00  0.00    -0.137 C  
ENDROOT
BRANCH   3   6
HETATM    6  C   UNL     1      -9.303   6.483  67.831  1.00  0.00    -0.111 C  
BRANCH   6   7
HETATM    7  C   UNL     1      -8.505   5.530  68.691  1.00  0.00    -0.104 C  
HETATM    8  C   UNL     1      -8.557   5.462  70.046  1.00  0.00    -0.124 C  
HETATM    9  C   UNL     1      -9.432   6.411  70.779  1.00  0.00    -0.179 A  
HETATM   10  C   UNL     1     -10.828   6.351  70.658  1.00  0.00    -0.331 A  
HETATM   11  C   UNL     1     -11.639   7.276  71.315  1.00  0.00    -0.316 A  
HETATM   12  C   UNL     1     -11.065   8.255  72.121  1.00  0.00    -0.397 A  
HETATM   13  C   UNL     1      -9.680   8.306  72.275  1.00  0.00    -0.362 A  
HETATM   14  C   UNL     1      -8.856   7.386  71.610  1.00  0.00    -0.125 A  
HETATM   15  C   UNL     1      -7.363   7.413  71.808  1.00  0.00    -0.079 C  
HETATM   16  C   UNL     1      -6.883   6.184  72.582  1.00  0.00    -0.074 C  
HETATM   17  C   UNL     1      -6.927   4.821  71.910  1.00  0.00    -0.060 A  
HETATM   18  C   UNL     1      -6.186   3.805  72.554  1.00  0.00    -0.009 A  
HETATM   19  C   UNL     1      -6.160   2.499  72.069  1.00  0.00    -0.013 A  
HETATM   20  C   UNL     1      -6.886   2.176  70.933  1.00  0.00    -0.032 A  
HETATM   21  C   UNL     1      -7.641   3.156  70.293  1.00  0.00    -0.044 A  
HETATM   22  C   UNL     1      -7.671   4.490  70.754  1.00  0.00    -0.053 A  
ENDBRANCH   6   7
ENDBRANCH   3   6
TORSDOF 2
ENDMDL
MODEL      159
REMARK 921   NORMALIZED FREE ENERGY PREDICTED BY IDOCK:   -2.96 KCAL/MOL
REMARK 922        TOTAL FREE ENERGY PREDICTED BY IDOCK:   -3.61 KCAL/MOL
REMARK 923 INTER-LIGAND FREE ENERGY PREDICTED BY IDOCK:   -3.53 KCAL/MOL
REMARK 924 INTRA-LIGAND FREE ENERGY PREDICTED BY IDOCK:   -0.09 KCAL/MOL
REMARK 927      BINDING AFFINITY PREDICTED BY RF-SCORE:    0.00 PKD
ROOT
HETATM    1  C   UNL     1     -13.548   9.194  72.400  1.00  0.00    -0.483 C  
HETATM    2  N   UNL     1     -12.389   8.652  71.608  1.00  0.00    -0.317 N  
HETATM    3  C   UNL     1     -12.683   7.212  71.194  1.00  0.00    -0.315 C  
HETATM    4  O   UNL     1     -11.271   8.698  72.402  1.00  0.00    -0.357 OA 
HETATM    5  C   UNL     1     -12.182   9.528  70.400  1.00  0.00     0.060 C  
ENDROOT
BRANCH   3   6
HETATM    6  C   UNL     1     -11.524   6.558  70.435  1.00  0.00    -0.465 C  
BRANCH   6   7
HETATM    7  C   UNL     1     -10.399   6.056  71.313  1.00  0.00    -0.266 C  
HETATM    8  C   UNL     1      -9.094   5.981  70.951  1.00  0.00    -0.161 C  
HETATM    9  C   UNL     1      -8.706   6.383  69.576  1.00  0.00    -0.133 A  
HETATM   10  C   UNL     1      -8.813   7.716  69.153  1.00  0.00    -0.139 A  
HETATM   11  C   UNL     1      -8.489   8.076  67.845  1.00  0.00    -0.125 A  
HETATM   12  C   UNL     1      -8.030   7.111  66.953  1.00  0.00    -0.115 A  
HETATM   13  C   UNL     1      -7.887   5.788  67.370  1.00  0.00    -0.102 A  
HETATM   14  C   UNL     1      -8.220   5.415  68.680  1.00  0.00    -0.094 A  
HETATM   15  C   UNL     1      -8.028   3.996  69.145  1.00  0.00    -0.057 C  
HETATM   16  C   UNL     1      -6.901   3.896  70.174  1.00  0.00    -0.034 C  
HETATM   17  C   UNL     1      -7.109   4.487  71.560  1.00  0.00    -0.050 A  
HETATM   18  C   UNL     1      -6.170   4.084  72.536  1.00  0.00    -0.016 A  
HETATM   19  C   UNL     1      -6.217   4.569  73.841  1.00  0.00    -0.045 A  
HETATM   20  C   UNL     1      -7.199   5.481  74.197  1.00  0.00    -0.082 A  
HETATM   21  C   UNL     1      -8.122   5.909  73.246  1.00  0.00    -0.116 A  
HETATM   22  C   UNL     1      -8.107   5.420  71.922  1.00  0.00    -0.114 A  
ENDBRANCH   6   7
ENDBRANCH   3   6
TORSDOF 2
ENDMDL
MODEL      160
REMARK 921   NORMALIZED FREE ENERGY PREDICTED BY IDOCK:   -2.91 KCAL/MOL
REMARK 922        TOTAL FREE ENERGY PREDICTED BY IDOCK:   -3.56 KCAL/MOL
REMARK 923 INTER-LIGAND FREE ENERGY PREDICTED BY IDOCK:   -3.18 KCAL/MOL
REMARK 924 INTRA-LIGAND FREE ENERGY PREDICTED BY IDOCK:   -0.38 KCAL/MOL
REMARK 927      BINDING AFFINITY PREDICTED BY RF-SCORE:    0.00 PKD
ROOT
HETATM    1  C   UNL     1      -9.203  12.260  66.520  1.00  0.00    -0.219 C  
HETATM    2  N   UNL     1      -8.565  11.177  67.346  1.00  0.00    -0.135 N  
HETATM    3  C   UNL     1      -9.182   9.828  66.982  1.00  0.00    -0.142 C  
HETATM    4  O   UNL     1      -8.790  11.460  68.669  1.00  0.00    -0.164 OA 
HETATM    5  C   UNL     1      -7.083  11.180  67.077  1.00  0.00    -0.124 C  
ENDROOT
BRANCH   3   6
HETATM    6  C   UNL     1      -8.634   8.671  67.825  1.00  0.00    -0.136 C  
BRANCH   6   7
HETATM    7  C   UNL     1      -9.637   8.049  68.769  1.00  0.00    -0.149 C  
HETATM    8  C   UNL     1      -9.384   7.676  70.049  1.00  0.00    -0.154 C  
HETATM    9  C   UNL     1      -8.011   7.843  70.588  1.00  0.00    -0.096 A  
HETATM   10  C   UNL     1      -7.461   9.118  70.784  1.00  0.00    -0.133 A  
HETATM   11  C   UNL     1      -6.154   9.265  71.248  1.00  0.00    -0.077 A  
HETATM   12  C   UNL     1      -5.392   8.139  71.546  1.00  0.00    -0.034 A  
HETATM   13  C   UNL     1      -5.939   6.866  71.387  1.00  0.00    -0.037 A  
HETATM   14  C   UNL     1      -7.249   6.708  70.911  1.00  0.00    -0.074 A  
HETATM   15  C   UNL     1      -7.856   5.336  70.778  1.00  0.00    -0.093 C  
HETATM   16  C   UNL     1      -8.973   5.121  71.800  1.00  0.00    -0.148 C  
HETATM   17  C   UNL     1     -10.278   5.885  71.643  1.00  0.00    -0.249 A  
HETATM   18  C   UNL     1     -11.356   5.407  72.421  1.00  0.00    -0.242 A  
HETATM   19  C   UNL     1     -12.603   6.027  72.404  1.00  0.00     0.167 A  
HETATM   20  C   UNL     1     -12.798   7.150  71.615  1.00  0.00    -0.420 A  
HETATM   21  C   UNL     1     -11.744   7.653  70.855  1.00  0.00    -0.291 A  
HETATM   22  C   UNL     1     -10.475   7.033  70.842  1.00  0.00    -0.233 A  
ENDBRANCH   6   7
ENDBRANCH   3   6
TORSDOF 2
ENDMDL
MODEL      161
REMARK 921   NORMALIZED FREE ENERGY PREDICTED BY IDOCK:   -2.91 KCAL/MOL
REMARK 922        TOTAL FREE ENERGY PREDICTED BY IDOCK:   -3.56 KCAL/MOL
REMARK 923 INTER-LIGAND FREE ENERGY PREDICTED BY IDOCK:   -3.87 KCAL/MOL
REMARK 924 INTRA-LIGAND FREE ENERGY PREDICTED BY IDOCK:    0.31 KCAL/MOL
REMARK 927      BINDING AFFINITY PREDICTED BY RF-SCORE:    0.00 PKD
ROOT
HETATM    1  C   UNL     1      -6.198   7.430  66.847  1.00  0.00    -0.047 C  
HETATM    2  N   UNL     1      -6.659   8.722  66.229  1.00  0.00    -0.065 N  
HETATM    3  C   UNL     1      -7.969   9.160  66.879  1.00  0.00    -0.105 C  
HETATM    4  O   UNL     1      -6.843   8.511  64.886  1.00  0.00    -0.070 OA 
HETATM    5  C   UNL     1      -5.585   9.759  66.431  1.00  0.00    -0.052 C  
ENDROOT
BRANCH   3   6
HETATM    6  C   UNL     1      -8.546  10.439  66.263  1.00  0.00    -0.147 C  
BRANCH   6   7
HETATM    7  C   UNL     1      -8.018  11.721  66.864  1.00  0.00    -0.149 C  
HETATM    8  C   UNL     1      -8.510  12.331  67.972  1.00  0.00    -0.171 C  
HETATM    9  C   UNL     1      -9.686  11.737  68.656  1.00  0.00    -0.135 A  
HETATM   10  C   UNL     1      -9.598  10.494  69.300  1.00  0.00    -0.199 A  
HETATM   11  C   UNL     1     -10.720   9.923  69.901  1.00  0.00    -0.318 A  
HETATM   12  C   UNL     1     -11.936  10.600  69.886  1.00  0.00    -0.385 A  
HETATM   13  C   UNL     1     -12.029  11.851  69.278  1.00  0.00    -0.342 A  
HETATM   14  C   UNL     1     -10.909  12.429  68.662  1.00  0.00    -0.273 A  
HETATM   15  C   UNL     1     -10.997  13.798  68.040  1.00  0.00    -0.268 C  
HETATM   16  C   UNL     1     -10.186  14.822  68.835  1.00  0.00    -0.237 C  
HETATM   17  C   UNL     1      -8.668  14.740  68.818  1.00  0.00    -0.178 A  
HETATM   18  C   UNL     1      -7.995  15.884  69.301  1.00  0.00    -0.229 A  
HETATM   19  C   UNL     1      -6.605  15.940  69.374  1.00  0.00    -0.173 A  
HETATM   20  C   UNL     1      -5.855  14.845  68.975  1.00  0.00    -0.096 A  
HETATM   21  C   UNL     1      -6.497  13.697  68.515  1.00  0.00    -0.090 A  
HETATM   22  C   UNL     1      -7.903  13.621  68.415  1.00  0.00    -0.140 A  
ENDBRANCH   6   7
ENDBRANCH   3   6
TORSDOF 2
ENDMDL
MODEL      162
REMARK 921   NORMALIZED FREE ENERGY PREDICTED BY IDOCK:   -2.90 KCAL/MOL
REMARK 922        TOTAL FREE ENERGY PREDICTED BY IDOCK:   -3.55 KCAL/MOL
REMARK 923 INTER-LIGAND FREE ENERGY PREDICTED BY IDOCK:   -3.39 KCAL/MOL
REMARK 924 INTRA-LIGAND FREE ENERGY PREDICTED BY IDOCK:   -0.16 KCAL/MOL
REMARK 927      BINDING AFFINITY PREDICTED BY RF-SCORE:    0.00 PKD
ROOT
HETATM    1  C   UNL     1      -6.557  11.648  68.560  1.00  0.00    -0.061 C  
HETATM    2  N   UNL     1      -6.861  10.409  69.359  1.00  0.00    -0.071 N  
HETATM    3  C   UNL     1      -8.322  10.015  69.152  1.00  0.00    -0.146 C  
HETATM    4  O   UNL     1      -6.628  10.686  70.682  1.00  0.00    -0.332 OA 
HETATM    5  C   UNL     1      -5.938   9.308  68.906  1.00  0.00    -0.043 C  
ENDROOT
BRANCH   3   6
HETATM    6  C   UNL     1      -8.737   8.796  69.983  1.00  0.00    -0.146 C  
BRANCH   6   7
HETATM    7  C   UNL     1      -8.757   7.491  69.219  1.00  0.00    -0.136 C  
HETATM    8  C   UNL     1      -9.260   6.318  69.682  1.00  0.00    -0.144 C  
HETATM    9  C   UNL     1      -9.810   6.266  71.059  1.00  0.00    -0.206 A  
HETATM   10  C   UNL     1     -10.972   6.973  71.402  1.00  0.00    -0.266 A  
HETATM   11  C   UNL     1     -11.456   6.954  72.710  1.00  0.00    -0.183 A  
HETATM   12  C   UNL     1     -10.798   6.208  73.683  1.00  0.00    -0.150 A  
HETATM   13  C   UNL     1      -9.661   5.474  73.348  1.00  0.00    -0.146 A  
HETATM   14  C   UNL     1      -9.161   5.495  72.038  1.00  0.00    -0.150 A  
HETATM   15  C   UNL     1      -7.956   4.672  71.664  1.00  0.00    -0.101 C  
HETATM   16  C   UNL     1      -8.338   3.523  70.729  1.00  0.00    -0.090 C  
HETATM   17  C   UNL     1      -8.760   3.839  69.303  1.00  0.00    -0.131 A  
HETATM   18  C   UNL     1      -8.787   2.734  68.422  1.00  0.00    -0.165 A  
HETATM   19  C   UNL     1      -9.185   2.866  67.093  1.00  0.00    -0.189 A  
HETATM   20  C   UNL     1      -9.578   4.108  66.617  1.00  0.00    -0.225 A  
HETATM   21  C   UNL     1      -9.580   5.207  67.472  1.00  0.00    -0.159 A  
HETATM   22  C   UNL     1      -9.165   5.104  68.818  1.00  0.00    -0.152 A  
ENDBRANCH   6   7
ENDBRANCH   3   6
TORSDOF 2
ENDMDL
MODEL      163
REMARK 921   NORMALIZED FREE ENERGY PREDICTED BY IDOCK:   -2.89 KCAL/MOL
REMARK 922        TOTAL FREE ENERGY PREDICTED BY IDOCK:   -3.54 KCAL/MOL
REMARK 923 INTER-LIGAND FREE ENERGY PREDICTED BY IDOCK:   -5.18 KCAL/MOL
REMARK 924 INTRA-LIGAND FREE ENERGY PREDICTED BY IDOCK:    1.64 KCAL/MOL
REMARK 927      BINDING AFFINITY PREDICTED BY RF-SCORE:    0.00 PKD
ROOT
HETATM    1  C   UNL     1     -11.991  16.298  68.737  1.00  0.00     0.139 C  
HETATM    2  N   UNL     1     -11.974  15.260  69.826  1.00  0.00    -0.331 N  
HETATM    3  C   UNL     1     -11.942  13.867  69.203  1.00  0.00    -0.363 C  
HETATM    4  O   UNL     1     -13.108  15.415  70.582  1.00  0.00    -0.426 OA 
HETATM    5  C   UNL     1     -10.760  15.491  70.689  1.00  0.00    -0.233 C  
ENDROOT
BRANCH   3   6
HETATM    6  C   UNL     1     -11.988  12.743  70.244  1.00  0.00    -0.358 C  
BRANCH   6   7
HETATM    7  C   UNL     1     -11.588  11.382  69.720  1.00  0.00    -0.407 C  
HETATM    8  C   UNL     1     -10.703  11.156  68.716  1.00  0.00    -0.236 C  
HETATM    9  C   UNL     1     -10.083  12.317  68.030  1.00  0.00    -0.206 A  
HETATM   10  C   UNL     1      -9.199  13.170  68.705  1.00  0.00     0.026 A  
HETATM   11  C   UNL     1      -8.657  14.285  68.064  1.00  0.00    -0.169 A  
HETATM   12  C   UNL     1      -8.975  14.544  66.734  1.00  0.00    -0.270 A  
HETATM   13  C   UNL     1      -9.827  13.685  66.041  1.00  0.00    -0.290 A  
HETATM   14  C   UNL     1     -10.385  12.567  66.680  1.00  0.00    -0.244 A  
HETATM   15  C   UNL     1     -11.273  11.616  65.923  1.00  0.00    -0.296 C  
HETATM   16  C   UNL     1     -10.594  10.260  65.725  1.00  0.00    -0.064 C  
HETATM   17  C   UNL     1     -10.385   9.354  66.929  1.00  0.00    -0.308 A  
HETATM   18  C   UNL     1     -10.051   8.015  66.626  1.00  0.00    -0.329 A  
HETATM   19  C   UNL     1      -9.799   7.079  67.627  1.00  0.00    -0.180 A  
HETATM   20  C   UNL     1      -9.863   7.466  68.957  1.00  0.00    -0.168 A  
HETATM   21  C   UNL     1     -10.170   8.786  69.279  1.00  0.00    -0.215 A  
HETATM   22  C   UNL     1     -10.446   9.749  68.285  1.00  0.00    -0.255 A  
ENDBRANCH   6   7
ENDBRANCH   3   6
TORSDOF 2
ENDMDL
MODEL      164
REMARK 921   NORMALIZED FREE ENERGY PREDICTED BY IDOCK:   -2.86 KCAL/MOL
REMARK 922        TOTAL FREE ENERGY PREDICTED BY IDOCK:   -3.51 KCAL/MOL
REMARK 923 INTER-LIGAND FREE ENERGY PREDICTED BY IDOCK:   -3.20 KCAL/MOL
REMARK 924 INTRA-LIGAND FREE ENERGY PREDICTED BY IDOCK:   -0.32 KCAL/MOL
REMARK 927      BINDING AFFINITY PREDICTED BY RF-SCORE:    0.00 PKD
ROOT
HETATM    1  C   UNL     1      -5.889  10.533  66.678  1.00  0.00    -0.066 C  
HETATM    2  N   UNL     1      -6.680  10.311  67.938  1.00  0.00    -0.066 N  
HETATM    3  C   UNL     1      -7.048   8.834  68.056  1.00  0.00    -0.079 C  
HETATM    4  O   UNL     1      -7.816  11.077  67.870  1.00  0.00    -0.105 OA 
HETATM    5  C   UNL     1      -5.846  10.752  69.113  1.00  0.00    -0.041 C  
ENDROOT
BRANCH   3   6
HETATM    6  C   UNL     1      -7.913   8.526  69.283  1.00  0.00    -0.111 C  
BRANCH   6   7
HETATM    7  C   UNL     1      -7.346   7.472  70.206  1.00  0.00    -0.076 C  
HETATM    8  C   UNL     1      -8.060   6.753  71.109  1.00  0.00    -0.111 C  
HETATM    9  C   UNL     1      -9.512   7.022  71.255  1.00  0.00    -0.164 A  
HETATM   10  C   UNL     1     -10.410   6.731  70.218  1.00  0.00    -0.224 A  
HETATM   11  C   UNL     1     -11.767   7.029  70.347  1.00  0.00    -0.326 A  
HETATM   12  C   UNL     1     -12.244   7.598  71.525  1.00  0.00    -0.351 A  
HETATM   13  C   UNL     1     -11.366   7.862  72.576  1.00  0.00    -0.449 A  
HETATM   14  C   UNL     1      -9.999   7.574  72.451  1.00  0.00    -0.233 A  
HETATM   15  C   UNL     1      -9.056   7.820  73.600  1.00  0.00    -0.345 C  
HETATM   16  C   UNL     1      -8.540   6.506  74.186  1.00  0.00    -0.148 C  
HETATM   17  C   UNL     1      -7.575   5.660  73.370  1.00  0.00    -0.095 A  
HETATM   18  C   UNL     1      -6.906   4.644  74.089  1.00  0.00    -0.070 A  
HETATM   19  C   UNL     1      -6.016   3.772  73.466  1.00  0.00    -0.008 A  
HETATM   20  C   UNL     1      -5.784   3.888  72.104  1.00  0.00    -0.008 A  
HETATM   21  C   UNL     1      -6.448   4.868  71.371  1.00  0.00    -0.027 A  
HETATM   22  C   UNL     1      -7.342   5.775  71.980  1.00  0.00    -0.094 A  
ENDBRANCH   6   7
ENDBRANCH   3   6
TORSDOF 2
ENDMDL
MODEL      165
REMARK 921   NORMALIZED FREE ENERGY PREDICTED BY IDOCK:   -2.85 KCAL/MOL
REMARK 922        TOTAL FREE ENERGY PREDICTED BY IDOCK:   -3.50 KCAL/MOL
REMARK 923 INTER-LIGAND FREE ENERGY PREDICTED BY IDOCK:   -3.22 KCAL/MOL
REMARK 924 INTRA-LIGAND FREE ENERGY PREDICTED BY IDOCK:   -0.28 KCAL/MOL
REMARK 927      BINDING AFFINITY PREDICTED BY RF-SCORE:    0.00 PKD
ROOT
HETATM    1  C   UNL     1     -12.938  10.658  71.733  1.00  0.00    -0.472 C  
HETATM    2  N   UNL     1     -12.095   9.491  71.298  1.00  0.00    -0.336 N  
HETATM    3  C   UNL     1     -10.982   9.982  70.376  1.00  0.00    -0.320 C  
HETATM    4  O   UNL     1     -12.904   8.605  70.633  1.00  0.00     0.180 OA 
HETATM    5  C   UNL     1     -11.525   8.827  72.523  1.00  0.00    -0.113 C  
ENDROOT
BRANCH   3   6
HETATM    6  C   UNL     1     -10.109   8.847  69.830  1.00  0.00    -0.205 C  
BRANCH   6   7
HETATM    7  C   UNL     1      -8.976   9.296  68.936  1.00  0.00    -0.136 C  
HETATM    8  C   UNL     1      -8.530   8.633  67.839  1.00  0.00    -0.129 C  
HETATM    9  C   UNL     1      -9.160   7.338  67.478  1.00  0.00    -0.125 A  
HETATM   10  C   UNL     1     -10.494   7.276  67.052  1.00  0.00    -0.398 A  
HETATM   11  C   UNL     1     -11.091   6.050  66.758  1.00  0.00    -0.201 A  
HETATM   12  C   UNL     1     -10.351   4.875  66.861  1.00  0.00    -0.237 A  
HETATM   13  C   UNL     1      -9.014   4.926  67.252  1.00  0.00    -0.113 A  
HETATM   14  C   UNL     1      -8.408   6.154  67.560  1.00  0.00    -0.109 A  
HETATM   15  C   UNL     1      -6.953   6.216  67.942  1.00  0.00    -0.076 C  
HETATM   16  C   UNL     1      -6.122   6.902  66.856  1.00  0.00    -0.036 C  
HETATM   17  C   UNL     1      -6.289   8.396  66.630  1.00  0.00    -0.055 A  
HETATM   18  C   UNL     1      -5.280   9.005  65.849  1.00  0.00    -0.036 A  
HETATM   19  C   UNL     1      -5.319  10.362  65.533  1.00  0.00    -0.095 A  
HETATM   20  C   UNL     1      -6.375  11.139  65.982  1.00  0.00    -0.004 A  
HETATM   21  C   UNL     1      -7.391  10.557  66.735  1.00  0.00    -0.114 A  
HETATM   22  C   UNL     1      -7.368   9.189  67.084  1.00  0.00    -0.087 A  
ENDBRANCH   6   7
ENDBRANCH   3   6
TORSDOF 2
ENDMDL
MODEL      166
REMARK 921   NORMALIZED FREE ENERGY PREDICTED BY IDOCK:   -2.84 KCAL/MOL
REMARK 922        TOTAL FREE ENERGY PREDICTED BY IDOCK:   -3.48 KCAL/MOL
REMARK 923 INTER-LIGAND FREE ENERGY PREDICTED BY IDOCK:   -3.00 KCAL/MOL
REMARK 924 INTRA-LIGAND FREE ENERGY PREDICTED BY IDOCK:   -0.48 KCAL/MOL
REMARK 927      BINDING AFFINITY PREDICTED BY RF-SCORE:    0.00 PKD
ROOT
HETATM    1  C   UNL     1      -9.974  10.366  65.616  1.00  0.00    -0.272 C  
HETATM    2  N   UNL     1      -8.864   9.704  66.386  1.00  0.00    -0.147 N  
HETATM    3  C   UNL     1      -9.161   9.788  67.881  1.00  0.00    -0.121 C  
HETATM    4  O   UNL     1      -7.695  10.360  66.098  1.00  0.00    -0.118 OA 
HETATM    5  C   UNL     1      -8.758   8.270  65.938  1.00  0.00    -0.159 C  
ENDROOT
BRANCH   3   6
HETATM    6  C   UNL     1      -8.046   9.193  68.748  1.00  0.00    -0.101 C  
BRANCH   6   7
HETATM    7  C   UNL     1      -8.527   8.299  69.868  1.00  0.00    -0.127 C  
HETATM    8  C   UNL     1      -8.281   6.969  69.973  1.00  0.00    -0.133 C  
HETATM    9  C   UNL     1      -7.508   6.295  68.899  1.00  0.00    -0.087 A  
HETATM   10  C   UNL     1      -6.156   6.594  68.683  1.00  0.00    -0.026 A  
HETATM   11  C   UNL     1      -5.450   5.990  67.643  1.00  0.00    -0.005 A  
HETATM   12  C   UNL     1      -6.084   5.060  66.822  1.00  0.00    -0.031 A  
HETATM   13  C   UNL     1      -7.419   4.730  67.046  1.00  0.00    -0.086 A  
HETATM   14  C   UNL     1      -8.139   5.340  68.084  1.00  0.00    -0.095 A  
HETATM   15  C   UNL     1      -9.570   4.955  68.354  1.00  0.00    -0.201 C  
HETATM   16  C   UNL     1      -9.702   4.202  69.679  1.00  0.00    -0.269 C  
HETATM   17  C   UNL     1      -9.495   4.957  70.983  1.00  0.00    -0.225 A  
HETATM   18  C   UNL     1      -9.939   4.287  72.145  1.00  0.00    -0.246 A  
HETATM   19  C   UNL     1      -9.785   4.843  73.413  1.00  0.00    -0.156 A  
HETATM   20  C   UNL     1      -9.172   6.079  73.549  1.00  0.00    -0.131 A  
HETATM   21  C   UNL     1      -8.707   6.748  72.419  1.00  0.00    -0.131 A  
HETATM   22  C   UNL     1      -8.865   6.215  71.122  1.00  0.00    -0.139 A  
ENDBRANCH   6   7
ENDBRANCH   3   6
TORSDOF 2
ENDMDL
MODEL      167
REMARK 921   NORMALIZED FREE ENERGY PREDICTED BY IDOCK:   -2.81 KCAL/MOL
REMARK 922        TOTAL FREE ENERGY PREDICTED BY IDOCK:   -3.45 KCAL/MOL
REMARK 923 INTER-LIGAND FREE ENERGY PREDICTED BY IDOCK:   -3.11 KCAL/MOL
REMARK 924 INTRA-LIGAND FREE ENERGY PREDICTED BY IDOCK:   -0.34 KCAL/MOL
REMARK 927      BINDING AFFINITY PREDICTED BY RF-SCORE:    0.00 PKD
ROOT
HETATM    1  C   UNL     1     -10.635   6.120  73.833  1.00  0.00    -0.213 C  
HETATM    2  N   UNL     1      -9.380   6.141  73.005  1.00  0.00    -0.140 N  
HETATM    3  C   UNL     1      -9.713   6.594  71.585  1.00  0.00    -0.162 C  
HETATM    4  O   UNL     1      -8.858   4.872  72.986  1.00  0.00    -0.113 OA 
HETATM    5  C   UNL     1      -8.394   7.079  73.651  1.00  0.00    -0.123 C  
ENDROOT
BRANCH   3   6
HETATM    6  C   UNL     1      -8.498   6.584  70.651  1.00  0.00    -0.134 C  
BRANCH   6   7
HETATM    7  C   UNL     1      -8.186   7.915  70.007  1.00  0.00    -0.119 C  
HETATM    8  C   UNL     1      -8.392   8.224  68.702  1.00  0.00    -0.125 C  
HETATM    9  C   UNL     1      -8.932   7.181  67.794  1.00  0.00    -0.122 A  
HETATM   10  C   UNL     1     -10.237   6.690  67.950  1.00  0.00    -0.203 A  
HETATM   11  C   UNL     1     -10.720   5.679  67.120  1.00  0.00    -0.316 A  
HETATM   12  C   UNL     1      -9.913   5.164  66.110  1.00  0.00    -0.216 A  
HETATM   13  C   UNL     1      -8.626   5.666  65.923  1.00  0.00    -0.144 A  
HETATM   14  C   UNL     1      -8.128   6.677  66.758  1.00  0.00    -0.113 A  
HETATM   15  C   UNL     1      -6.753   7.249  66.533  1.00  0.00    -0.060 C  
HETATM   16  C   UNL     1      -6.827   8.695  66.039  1.00  0.00    -0.065 C  
HETATM   17  C   UNL     1      -7.294   9.781  66.995  1.00  0.00    -0.091 A  
HETATM   18  C   UNL     1      -7.037  11.106  66.576  1.00  0.00    -0.124 A  
HETATM   19  C   UNL     1      -7.436  12.204  67.335  1.00  0.00    -0.156 A  
HETATM   20  C   UNL     1      -8.115  12.002  68.527  1.00  0.00    -0.123 A  
HETATM   21  C   UNL     1      -8.398  10.705  68.950  1.00  0.00    -0.150 A  
HETATM   22  C   UNL     1      -7.990   9.575  68.208  1.00  0.00    -0.094 A  
ENDBRANCH   6   7
ENDBRANCH   3   6
TORSDOF 2
ENDMDL
MODEL      168
REMARK 921   NORMALIZED FREE ENERGY PREDICTED BY IDOCK:   -2.77 KCAL/MOL
REMARK 922        TOTAL FREE ENERGY PREDICTED BY IDOCK:   -3.41 KCAL/MOL
REMARK 923 INTER-LIGAND FREE ENERGY PREDICTED BY IDOCK:   -3.09 KCAL/MOL
REMARK 924 INTRA-LIGAND FREE ENERGY PREDICTED BY IDOCK:   -0.32 KCAL/MOL
REMARK 927      BINDING AFFINITY PREDICTED BY RF-SCORE:    0.00 PKD
ROOT
HETATM    1  C   UNL     1     -13.249  10.280  70.429  1.00  0.00     0.062 C  
HETATM    2  N   UNL     1     -11.902   9.753  70.843  1.00  0.00    -0.313 N  
HETATM    3  C   UNL     1     -11.785   8.285  70.442  1.00  0.00     0.015 C  
HETATM    4  O   UNL     1     -11.793   9.882  72.204  1.00  0.00    -0.033 OA 
HETATM    5  C   UNL     1     -10.837  10.581  70.173  1.00  0.00    -0.227 C  
ENDROOT
BRANCH   3   6
HETATM    6  C   UNL     1     -10.464   7.646  70.884  1.00  0.00    -0.210 C  
BRANCH   6   7
HETATM    7  C   UNL     1      -9.934   6.582  69.949  1.00  0.00    -0.191 C  
HETATM    8  C   UNL     1      -9.576   5.325  70.312  1.00  0.00    -0.241 C  
HETATM    9  C   UNL     1      -9.665   4.938  71.743  1.00  0.00    -0.223 A  
HETATM   10  C   UNL     1     -10.905   4.842  72.391  1.00  0.00    -0.171 A  
HETATM   11  C   UNL     1     -10.975   4.521  73.747  1.00  0.00    -0.361 A  
HETATM   12  C   UNL     1      -9.808   4.269  74.463  1.00  0.00    -0.183 A  
HETATM   13  C   UNL     1      -8.571   4.329  73.822  1.00  0.00    -0.091 A  
HETATM   14  C   UNL     1      -8.490   4.660  72.461  1.00  0.00    -0.115 A  
HETATM   15  C   UNL     1      -7.159   4.686  71.757  1.00  0.00    -0.060 C  
HETATM   16  C   UNL     1      -7.045   3.546  70.744  1.00  0.00    -0.033 C  
HETATM   17  C   UNL     1      -7.890   3.590  69.481  1.00  0.00    -0.053 A  
HETATM   18  C   UNL     1      -7.504   2.688  68.464  1.00  0.00    -0.048 A  
HETATM   19  C   UNL     1      -8.206   2.595  67.264  1.00  0.00    -0.082 A  
HETATM   20  C   UNL     1      -9.320   3.395  67.058  1.00  0.00    -0.212 A  
HETATM   21  C   UNL     1      -9.731   4.276  68.055  1.00  0.00    -0.168 A  
HETATM   22  C   UNL     1      -9.029   4.403  69.273  1.00  0.00    -0.148 A  
ENDBRANCH   6   7
ENDBRANCH   3   6
TORSDOF 2
ENDMDL
MODEL      169
REMARK 921   NORMALIZED FREE ENERGY PREDICTED BY IDOCK:   -2.75 KCAL/MOL
REMARK 922        TOTAL FREE ENERGY PREDICTED BY IDOCK:   -3.38 KCAL/MOL
REMARK 923 INTER-LIGAND FREE ENERGY PREDICTED BY IDOCK:   -3.03 KCAL/MOL
REMARK 924 INTRA-LIGAND FREE ENERGY PREDICTED BY IDOCK:   -0.35 KCAL/MOL
REMARK 927      BINDING AFFINITY PREDICTED BY RF-SCORE:    0.00 PKD
ROOT
HETATM    1  C   UNL     1     -12.092  13.450  68.014  1.00  0.00    -0.248 C  
HETATM    2  N   UNL     1     -11.805  12.222  68.835  1.00  0.00    -0.314 N  
HETATM    3  C   UNL     1     -10.334  11.839  68.682  1.00  0.00    -0.214 C  
HETATM    4  O   UNL     1     -12.608  11.207  68.380  1.00  0.00    -0.107 OA 
HETATM    5  C   UNL     1     -12.137  12.518  70.274  1.00  0.00    -0.294 C  
ENDROOT
BRANCH   3   6
HETATM    6  C   UNL     1      -9.967  10.557  69.436  1.00  0.00    -0.220 C  
BRANCH   6   7
HETATM    7  C   UNL     1      -9.788   9.339  68.558  1.00  0.00    -0.173 C  
HETATM    8  C   UNL     1      -8.617   8.936  68.003  1.00  0.00    -0.130 C  
HETATM    9  C   UNL     1      -7.399   9.754  68.224  1.00  0.00    -0.079 A  
HETATM   10  C   UNL     1      -6.827   9.872  69.499  1.00  0.00    -0.065 A  
HETATM   11  C   UNL     1      -5.708  10.678  69.706  1.00  0.00    -0.050 A  
HETATM   12  C   UNL     1      -5.134  11.356  68.634  1.00  0.00    -0.043 A  
HETATM   13  C   UNL     1      -5.673  11.222  67.355  1.00  0.00    -0.057 A  
HETATM   14  C   UNL     1      -6.803  10.420  67.140  1.00  0.00    -0.083 A  
HETATM   15  C   UNL     1      -7.363  10.241  65.753  1.00  0.00    -0.140 C  
HETATM   16  C   UNL     1      -7.149   8.813  65.248  1.00  0.00    -0.083 C  
HETATM   17  C   UNL     1      -7.936   7.678  65.882  1.00  0.00    -0.116 A  
HETATM   18  C   UNL     1      -7.925   6.460  65.165  1.00  0.00    -0.116 A  
HETATM   19  C   UNL     1      -8.577   5.325  65.641  1.00  0.00    -0.143 A  
HETATM   20  C   UNL     1      -9.246   5.377  66.854  1.00  0.00    -0.121 A  
HETATM   21  C   UNL     1      -9.253   6.561  67.589  1.00  0.00    -0.113 A  
HETATM   22  C   UNL     1      -8.615   7.730  67.121  1.00  0.00    -0.128 A  
ENDBRANCH   6   7
ENDBRANCH   3   6
TORSDOF 2
ENDMDL
MODEL      170
REMARK 921   NORMALIZED FREE ENERGY PREDICTED BY IDOCK:   -2.75 KCAL/MOL
REMARK 922        TOTAL FREE ENERGY PREDICTED BY IDOCK:   -3.38 KCAL/MOL
REMARK 923 INTER-LIGAND FREE ENERGY PREDICTED BY IDOCK:   -2.93 KCAL/MOL
REMARK 924 INTRA-LIGAND FREE ENERGY PREDICTED BY IDOCK:   -0.45 KCAL/MOL
REMARK 927      BINDING AFFINITY PREDICTED BY RF-SCORE:    0.00 PKD
ROOT
HETATM    1  C   UNL     1     -10.734  12.147  66.180  1.00  0.00    -0.272 C  
HETATM    2  N   UNL     1     -10.056  11.466  67.337  1.00  0.00    -0.182 N  
HETATM    3  C   UNL     1     -10.813  10.187  67.690  1.00  0.00    -0.290 C  
HETATM    4  O   UNL     1     -10.062  12.329  68.404  1.00  0.00    -0.214 OA 
HETATM    5  C   UNL     1      -8.634  11.159  66.948  1.00  0.00    -0.148 C  
ENDROOT
BRANCH   3   6
HETATM    6  C   UNL     1     -10.227   9.460  68.905  1.00  0.00    -0.215 C  
BRANCH   6   7
HETATM    7  C   UNL     1      -9.932   7.994  68.680  1.00  0.00    -0.200 C  
HETATM    8  C   UNL     1      -8.726   7.398  68.864  1.00  0.00    -0.132 C  
HETATM    9  C   UNL     1      -7.571   8.230  69.285  1.00  0.00    -0.094 A  
HETATM   10  C   UNL     1      -7.537   8.834  70.550  1.00  0.00    -0.085 A  
HETATM   11  C   UNL     1      -6.468   9.650  70.920  1.00  0.00    -0.083 A  
HETATM   12  C   UNL     1      -5.410   9.851  70.038  1.00  0.00    -0.037 A  
HETATM   13  C   UNL     1      -5.416   9.229  68.790  1.00  0.00    -0.037 A  
HETATM   14  C   UNL     1      -6.491   8.415  68.406  1.00  0.00    -0.059 A  
HETATM   15  C   UNL     1      -6.481   7.709  67.075  1.00  0.00    -0.054 C  
HETATM   16  C   UNL     1      -6.337   6.197  67.249  1.00  0.00    -0.041 C  
HETATM   17  C   UNL     1      -7.495   5.406  67.836  1.00  0.00    -0.077 A  
HETATM   18  C   UNL     1      -7.414   4.004  67.672  1.00  0.00    -0.068 A  
HETATM   19  C   UNL     1      -8.388   3.150  68.186  1.00  0.00    -0.094 A  
HETATM   20  C   UNL     1      -9.460   3.678  68.888  1.00  0.00    -0.218 A  
HETATM   21  C   UNL     1      -9.550   5.055  69.080  1.00  0.00    -0.220 A  
HETATM   22  C   UNL     1      -8.587   5.944  68.555  1.00  0.00    -0.110 A  
ENDBRANCH   6   7
ENDBRANCH   3   6
TORSDOF 2
ENDMDL
MODEL      171
REMARK 921   NORMALIZED FREE ENERGY PREDICTED BY IDOCK:   -2.72 KCAL/MOL
REMARK 922        TOTAL FREE ENERGY PREDICTED BY IDOCK:   -3.35 KCAL/MOL
REMARK 923 INTER-LIGAND FREE ENERGY PREDICTED BY IDOCK:   -4.11 KCAL/MOL
REMARK 924 INTRA-LIGAND FREE ENERGY PREDICTED BY IDOCK:    0.76 KCAL/MOL
REMARK 927      BINDING AFFINITY PREDICTED BY RF-SCORE:    0.00 PKD
ROOT
HETATM    1  C   UNL     1     -13.426   9.566  72.646  1.00  0.00    -0.174 C  
HETATM    2  N   UNL     1     -12.490   8.611  71.956  1.00  0.00    -0.348 N  
HETATM    3  C   UNL     1     -13.234   7.321  71.621  1.00  0.00    -0.366 C  
HETATM    4  O   UNL     1     -11.445   8.349  72.804  1.00  0.00    -0.350 OA 
HETATM    5  C   UNL     1     -11.969   9.271  70.706  1.00  0.00    -0.210 C  
ENDROOT
BRANCH   3   6
HETATM    6  C   UNL     1     -12.337   6.262  70.971  1.00  0.00     0.181 C  
BRANCH   6   7
HETATM    7  C   UNL     1     -10.882   6.336  71.373  1.00  0.00    -0.312 C  
HETATM    8  C   UNL     1      -9.826   6.188  70.534  1.00  0.00    -0.214 C  
HETATM    9  C   UNL     1     -10.083   5.893  69.102  1.00  0.00    -0.244 A  
HETATM   10  C   UNL     1     -10.697   6.837  68.267  1.00  0.00    -0.290 A  
HETATM   11  C   UNL     1     -10.975   6.534  66.934  1.00  0.00    -0.408 A  
HETATM   12  C   UNL     1     -10.619   5.292  66.416  1.00  0.00    -0.338 A  
HETATM   13  C   UNL     1      -9.978   4.356  67.227  1.00  0.00    -0.164 A  
HETATM   14  C   UNL     1      -9.703   4.649  68.571  1.00  0.00    -0.208 A  
HETATM   15  C   UNL     1      -8.975   3.656  69.438  1.00  0.00    -0.175 C  
HETATM   16  C   UNL     1      -7.573   4.153  69.795  1.00  0.00    -0.053 C  
HETATM   17  C   UNL     1      -7.425   5.330  70.746  1.00  0.00    -0.075 A  
HETATM   18  C   UNL     1      -6.127   5.524  71.270  1.00  0.00    -0.033 A  
HETATM   19  C   UNL     1      -5.836   6.581  72.130  1.00  0.00    -0.038 A  
HETATM   20  C   UNL     1      -6.835   7.477  72.476  1.00  0.00    -0.064 A  
HETATM   21  C   UNL     1      -8.117   7.318  71.956  1.00  0.00    -0.099 A  
HETATM   22  C   UNL     1      -8.443   6.246  71.097  1.00  0.00    -0.124 A  
ENDBRANCH   6   7
ENDBRANCH   3   6
TORSDOF 2
ENDMDL
MODEL      172
REMARK 921   NORMALIZED FREE ENERGY PREDICTED BY IDOCK:   -2.70 KCAL/MOL
REMARK 922        TOTAL FREE ENERGY PREDICTED BY IDOCK:   -3.33 KCAL/MOL
REMARK 923 INTER-LIGAND FREE ENERGY PREDICTED BY IDOCK:   -3.01 KCAL/MOL
REMARK 924 INTRA-LIGAND FREE ENERGY PREDICTED BY IDOCK:   -0.32 KCAL/MOL
REMARK 927      BINDING AFFINITY PREDICTED BY RF-SCORE:    0.00 PKD
ROOT
HETATM    1  C   UNL     1      -5.804   8.209  73.882  1.00  0.00    -0.086 C  
HETATM    2  N   UNL     1      -6.412   7.565  72.666  1.00  0.00    -0.058 N  
HETATM    3  C   UNL     1      -5.506   7.796  71.459  1.00  0.00    -0.035 C  
HETATM    4  O   UNL     1      -7.642   8.134  72.451  1.00  0.00    -0.104 OA 
HETATM    5  C   UNL     1      -6.582   6.093  72.938  1.00  0.00    -0.065 C  
ENDROOT
BRANCH   3   6
HETATM    6  C   UNL     1      -6.082   7.226  70.158  1.00  0.00    -0.024 C  
BRANCH   6   7
HETATM    7  C   UNL     1      -6.941   8.190  69.374  1.00  0.00    -0.051 C  
HETATM    8  C   UNL     1      -8.130   7.890  68.792  1.00  0.00    -0.126 C  
HETATM    9  C   UNL     1      -8.642   6.499  68.882  1.00  0.00    -0.125 A  
HETATM   10  C   UNL     1      -9.031   5.949  70.112  1.00  0.00    -0.148 A  
HETATM   11  C   UNL     1      -9.468   4.627  70.193  1.00  0.00    -0.246 A  
HETATM   12  C   UNL     1      -9.544   3.848  69.041  1.00  0.00    -0.209 A  
HETATM   13  C   UNL     1      -9.191   4.393  67.808  1.00  0.00    -0.166 A  
HETATM   14  C   UNL     1      -8.741   5.719  67.718  1.00  0.00    -0.107 A  
HETATM   15  C   UNL     1      -8.398   6.323  66.381  1.00  0.00    -0.118 C  
HETATM   16  C   UNL     1      -9.407   7.401  65.983  1.00  0.00    -0.045 C  
HETATM   17  C   UNL     1      -9.427   8.715  66.748  1.00  0.00    -0.250 A  
HETATM   18  C   UNL     1     -10.150   9.761  66.132  1.00  0.00    -0.315 A  
HETATM   19  C   UNL     1     -10.281  11.012  66.732  1.00  0.00    -0.272 A  
HETATM   20  C   UNL     1      -9.701  11.241  67.970  1.00  0.00    -0.185 A  
HETATM   21  C   UNL     1      -9.001  10.218  68.606  1.00  0.00    -0.144 A  
HETATM   22  C   UNL     1      -8.839   8.948  68.012  1.00  0.00    -0.133 A  
ENDBRANCH   6   7
ENDBRANCH   3   6
TORSDOF 2
ENDMDL
MODEL      173
REMARK 921   NORMALIZED FREE ENERGY PREDICTED BY IDOCK:   -2.67 KCAL/MOL
REMARK 922        TOTAL FREE ENERGY PREDICTED BY IDOCK:   -3.29 KCAL/MOL
REMARK 923 INTER-LIGAND FREE ENERGY PREDICTED BY IDOCK:   -3.44 KCAL/MOL
REMARK 924 INTRA-LIGAND FREE ENERGY PREDICTED BY IDOCK:    0.15 KCAL/MOL
REMARK 927      BINDING AFFINITY PREDICTED BY RF-SCORE:    0.00 PKD
ROOT
HETATM    1  C   UNL     1      -7.678   1.965  73.363  1.00  0.00    -0.041 C  
HETATM    2  N   UNL     1      -7.039   2.556  72.136  1.00  0.00    -0.033 N  
HETATM    3  C   UNL     1      -6.835   4.056  72.340  1.00  0.00    -0.045 C  
HETATM    4  O   UNL     1      -7.873   2.333  71.070  1.00  0.00    -0.045 OA 
HETATM    5  C   UNL     1      -5.724   1.862  71.898  1.00  0.00    -0.008 C  
ENDROOT
BRANCH   3   6
HETATM    6  C   UNL     1      -6.246   4.754  71.110  1.00  0.00    -0.019 C  
BRANCH   6   7
HETATM    7  C   UNL     1      -7.259   5.129  70.053  1.00  0.00    -0.059 C  
HETATM    8  C   UNL     1      -8.251   6.044  70.204  1.00  0.00    -0.119 C  
HETATM    9  C   UNL     1      -8.405   6.725  71.513  1.00  0.00    -0.115 A  
HETATM   10  C   UNL     1      -7.427   7.611  71.988  1.00  0.00    -0.075 A  
HETATM   11  C   UNL     1      -7.560   8.213  73.240  1.00  0.00    -0.196 A  
HETATM   12  C   UNL     1      -8.683   7.954  74.019  1.00  0.00    -0.305 A  
HETATM   13  C   UNL     1      -9.679   7.100  73.545  1.00  0.00    -0.293 A  
HETATM   14  C   UNL     1      -9.549   6.483  72.292  1.00  0.00    -0.149 A  
HETATM   15  C   UNL     1     -10.641   5.593  71.759  1.00  0.00    -0.296 C  
HETATM   16  C   UNL     1     -11.348   6.235  70.564  1.00  0.00    -0.428 C  
HETATM   17  C   UNL     1     -10.600   6.370  69.247  1.00  0.00    -0.311 A  
HETATM   18  C   UNL     1     -11.404   6.671  68.125  1.00  0.00    -0.079 A  
HETATM   19  C   UNL     1     -10.853   6.855  66.858  1.00  0.00    -0.380 A  
HETATM   20  C   UNL     1      -9.481   6.753  66.688  1.00  0.00    -0.205 A  
HETATM   21  C   UNL     1      -8.666   6.477  67.784  1.00  0.00    -0.115 A  
HETATM   22  C   UNL     1      -9.201   6.270  69.074  1.00  0.00    -0.127 A  
ENDBRANCH   6   7
ENDBRANCH   3   6
TORSDOF 2
ENDMDL
MODEL      174
REMARK 921   NORMALIZED FREE ENERGY PREDICTED BY IDOCK:   -2.63 KCAL/MOL
REMARK 922        TOTAL FREE ENERGY PREDICTED BY IDOCK:   -3.25 KCAL/MOL
REMARK 923 INTER-LIGAND FREE ENERGY PREDICTED BY IDOCK:   -3.07 KCAL/MOL
REMARK 924 INTRA-LIGAND FREE ENERGY PREDICTED BY IDOCK:   -0.18 KCAL/MOL
REMARK 927      BINDING AFFINITY PREDICTED BY RF-SCORE:    0.00 PKD
ROOT
HETATM    1  C   UNL     1      -5.822  10.473  70.823  1.00  0.00    -0.093 C  
HETATM    2  N   UNL     1      -6.240  10.041  69.444  1.00  0.00    -0.044 N  
HETATM    3  C   UNL     1      -6.380   8.520  69.407  1.00  0.00    -0.037 C  
HETATM    4  O   UNL     1      -5.277  10.449  68.558  1.00  0.00    -0.039 OA 
HETATM    5  C   UNL     1      -7.548  10.709  69.107  1.00  0.00    -0.131 C  
ENDROOT
BRANCH   3   6
HETATM    6  C   UNL     1      -6.742   7.985  68.018  1.00  0.00    -0.065 C  
BRANCH   6   7
HETATM    7  C   UNL     1      -7.192   6.542  67.997  1.00  0.00    -0.088 C  
HETATM    8  C   UNL     1      -8.361   6.076  68.507  1.00  0.00    -0.113 C  
HETATM    9  C   UNL     1      -9.280   7.027  69.181  1.00  0.00    -0.138 A  
HETATM   10  C   UNL     1      -9.924   8.044  68.462  1.00  0.00    -0.206 A  
HETATM   11  C   UNL     1     -10.751   8.960  69.111  1.00  0.00    -0.162 A  
HETATM   12  C   UNL     1     -10.962   8.855  70.483  1.00  0.00    -0.280 A  
HETATM   13  C   UNL     1     -10.352   7.829  71.205  1.00  0.00    -0.218 A  
HETATM   14  C   UNL     1      -9.511   6.909  70.561  1.00  0.00    -0.169 A  
HETATM   15  C   UNL     1      -8.885   5.776  71.330  1.00  0.00    -0.143 C  
HETATM   16  C   UNL     1      -9.476   4.428  70.915  1.00  0.00    -0.241 C  
HETATM   17  C   UNL     1      -9.159   3.874  69.535  1.00  0.00    -0.196 A  
HETATM   18  C   UNL     1      -9.470   2.509  69.346  1.00  0.00    -0.129 A  
HETATM   19  C   UNL     1      -9.263   1.874  68.123  1.00  0.00    -0.231 A  
HETATM   20  C   UNL     1      -8.751   2.595  67.055  1.00  0.00    -0.137 A  
HETATM   21  C   UNL     1      -8.457   3.947  67.212  1.00  0.00    -0.102 A  
HETATM   22  C   UNL     1      -8.641   4.610  68.445  1.00  0.00    -0.106 A  
ENDBRANCH   6   7
ENDBRANCH   3   6
TORSDOF 2
ENDMDL
MODEL      175
REMARK 921   NORMALIZED FREE ENERGY PREDICTED BY IDOCK:   -2.61 KCAL/MOL
REMARK 922        TOTAL FREE ENERGY PREDICTED BY IDOCK:   -3.23 KCAL/MOL
REMARK 923 INTER-LIGAND FREE ENERGY PREDICTED BY IDOCK:   -2.77 KCAL/MOL
REMARK 924 INTRA-LIGAND FREE ENERGY PREDICTED BY IDOCK:   -0.46 KCAL/MOL
REMARK 927      BINDING AFFINITY PREDICTED BY RF-SCORE:    0.00 PKD
ROOT
HETATM    1  C   UNL     1     -13.504   9.246  70.678  1.00  0.00     0.362 C  
HETATM    2  N   UNL     1     -12.048   9.486  70.966  1.00  0.00    -0.310 N  
HETATM    3  C   UNL     1     -11.236   8.262  70.547  1.00  0.00    -0.239 C  
HETATM    4  O   UNL     1     -11.909   9.708  72.313  1.00  0.00    -0.072 OA 
HETATM    5  C   UNL     1     -11.604  10.710  70.208  1.00  0.00    -0.336 C  
ENDROOT
BRANCH   3   6
HETATM    6  C   UNL     1      -9.743   8.395  70.865  1.00  0.00    -0.212 C  
BRANCH   6   7
HETATM    7  C   UNL     1      -8.843   7.495  70.050  1.00  0.00    -0.144 C  
HETATM    8  C   UNL     1      -8.305   7.806  68.844  1.00  0.00    -0.128 C  
HETATM    9  C   UNL     1      -8.634   9.116  68.227  1.00  0.00    -0.129 A  
HETATM   10  C   UNL     1      -8.200  10.318  68.803  1.00  0.00    -0.119 A  
HETATM   11  C   UNL     1      -8.552  11.545  68.242  1.00  0.00    -0.161 A  
HETATM   12  C   UNL     1      -9.323  11.582  67.083  1.00  0.00    -0.177 A  
HETATM   13  C   UNL     1      -9.734  10.393  66.481  1.00  0.00    -0.241 A  
HETATM   14  C   UNL     1      -9.393   9.155  67.045  1.00  0.00    -0.188 A  
HETATM   15  C   UNL     1      -9.801   7.869  66.375  1.00  0.00    -0.217 C  
HETATM   16  C   UNL     1      -8.589   7.130  65.807  1.00  0.00    -0.143 C  
HETATM   17  C   UNL     1      -7.592   6.497  66.765  1.00  0.00    -0.091 A  
HETATM   18  C   UNL     1      -6.693   5.577  66.181  1.00  0.00    -0.057 A  
HETATM   19  C   UNL     1      -5.704   4.943  66.931  1.00  0.00    -0.014 A  
HETATM   20  C   UNL     1      -5.584   5.225  68.282  1.00  0.00    -0.012 A  
HETATM   21  C   UNL     1      -6.446   6.144  68.876  1.00  0.00    -0.046 A  
HETATM   22  C   UNL     1      -7.467   6.787  68.143  1.00  0.00    -0.099 A  
ENDBRANCH   6   7
ENDBRANCH   3   6
TORSDOF 2
ENDMDL
MODEL      176
REMARK 921   NORMALIZED FREE ENERGY PREDICTED BY IDOCK:   -2.59 KCAL/MOL
REMARK 922        TOTAL FREE ENERGY PREDICTED BY IDOCK:   -3.21 KCAL/MOL
REMARK 923 INTER-LIGAND FREE ENERGY PREDICTED BY IDOCK:   -3.66 KCAL/MOL
REMARK 924 INTRA-LIGAND FREE ENERGY PREDICTED BY IDOCK:    0.45 KCAL/MOL
REMARK 927      BINDING AFFINITY PREDICTED BY RF-SCORE:    0.00 PKD
ROOT
HETATM    1  C   UNL     1     -11.658  12.366  63.061  1.00  0.00     0.010 C  
HETATM    2  N   UNL     1     -11.613  12.455  64.562  1.00  0.00    -0.333 N  
HETATM    3  C   UNL     1     -11.004  11.176  65.131  1.00  0.00    -0.086 C  
HETATM    4  O   UNL     1     -12.897  12.612  65.020  1.00  0.00    -0.765 OA 
HETATM    5  C   UNL     1     -10.793  13.658  64.947  1.00  0.00    -0.375 C  
ENDROOT
BRANCH   3   6
HETATM    6  C   UNL     1     -10.977  11.152  66.663  1.00  0.00    -0.289 C  
BRANCH   6   7
HETATM    7  C   UNL     1      -9.718  11.716  67.280  1.00  0.00    -0.192 C  
HETATM    8  C   UNL     1      -8.533  11.062  67.384  1.00  0.00    -0.132 C  
HETATM    9  C   UNL     1      -8.439   9.664  66.894  1.00  0.00    -0.121 A  
HETATM   10  C   UNL     1      -8.558   9.365  65.530  1.00  0.00    -0.169 A  
HETATM   11  C   UNL     1      -8.514   8.044  65.084  1.00  0.00    -0.117 A  
HETATM   12  C   UNL     1      -8.325   7.010  65.996  1.00  0.00    -0.134 A  
HETATM   13  C   UNL     1      -8.173   7.296  67.352  1.00  0.00    -0.116 A  
HETATM   14  C   UNL     1      -8.226   8.620  67.810  1.00  0.00    -0.118 A  
HETATM   15  C   UNL     1      -8.022   8.935  69.269  1.00  0.00    -0.104 C  
HETATM   16  C   UNL     1      -6.701   9.672  69.498  1.00  0.00    -0.051 C  
HETATM   17  C   UNL     1      -6.557  11.104  69.007  1.00  0.00    -0.075 A  
HETATM   18  C   UNL     1      -5.450  11.812  69.527  1.00  0.00    -0.066 A  
HETATM   19  C   UNL     1      -5.174  13.122  69.142  1.00  0.00    -0.069 A  
HETATM   20  C   UNL     1      -5.993  13.751  68.218  1.00  0.00    -0.108 A  
HETATM   21  C   UNL     1      -7.079  13.066  67.677  1.00  0.00    -0.156 A  
HETATM   22  C   UNL     1      -7.391  11.744  68.062  1.00  0.00    -0.091 A  
ENDBRANCH   6   7
ENDBRANCH   3   6
TORSDOF 2
ENDMDL
MODEL      177
REMARK 921   NORMALIZED FREE ENERGY PREDICTED BY IDOCK:   -2.56 KCAL/MOL
REMARK 922        TOTAL FREE ENERGY PREDICTED BY IDOCK:   -3.17 KCAL/MOL
REMARK 923 INTER-LIGAND FREE ENERGY PREDICTED BY IDOCK:   -2.98 KCAL/MOL
REMARK 924 INTRA-LIGAND FREE ENERGY PREDICTED BY IDOCK:   -0.19 KCAL/MOL
REMARK 927      BINDING AFFINITY PREDICTED BY RF-SCORE:    0.00 PKD
ROOT
HETATM    1  C   UNL     1      -7.386   6.809  72.321  1.00  0.00    -0.088 C  
HETATM    2  N   UNL     1      -6.643   7.242  71.087  1.00  0.00    -0.043 N  
HETATM    3  C   UNL     1      -7.386   8.399  70.424  1.00  0.00    -0.056 C  
HETATM    4  O   UNL     1      -6.573   6.172  70.232  1.00  0.00    -0.041 OA 
HETATM    5  C   UNL     1      -5.251   7.657  71.487  1.00  0.00    -0.031 C  
ENDROOT
BRANCH   3   6
HETATM    6  C   UNL     1      -6.731   8.864  69.119  1.00  0.00    -0.051 C  
BRANCH   6   7
HETATM    7  C   UNL     1      -7.507   9.920  68.365  1.00  0.00    -0.082 C  
HETATM    8  C   UNL     1      -8.415   9.680  67.386  1.00  0.00    -0.125 C  
HETATM    9  C   UNL     1      -8.666   8.277  66.969  1.00  0.00    -0.132 A  
HETATM   10  C   UNL     1      -9.268   7.359  67.842  1.00  0.00    -0.132 A  
HETATM   11  C   UNL     1      -9.460   6.032  67.457  1.00  0.00    -0.113 A  
HETATM   12  C   UNL     1      -9.074   5.615  66.186  1.00  0.00    -0.158 A  
HETATM   13  C   UNL     1      -8.504   6.526  65.297  1.00  0.00    -0.091 A  
HETATM   14  C   UNL     1      -8.299   7.860  65.679  1.00  0.00    -0.146 A  
HETATM   15  C   UNL     1      -7.722   8.855  64.707  1.00  0.00    -0.111 C  
HETATM   16  C   UNL     1      -8.765   9.893  64.289  1.00  0.00    -0.229 C  
HETATM   17  C   UNL     1      -9.234  10.921  65.305  1.00  0.00    -0.236 A  
HETATM   18  C   UNL     1      -9.942  12.021  64.769  1.00  0.00    -0.241 A  
HETATM   19  C   UNL     1     -10.459  13.025  65.584  1.00  0.00    -0.291 A  
HETATM   20  C   UNL     1     -10.292  12.946  66.958  1.00  0.00    -0.245 A  
HETATM   21  C   UNL     1      -9.616  11.861  67.511  1.00  0.00    -0.175 A  
HETATM   22  C   UNL     1      -9.067  10.839  66.707  1.00  0.00    -0.167 A  
ENDBRANCH   6   7
ENDBRANCH   3   6
TORSDOF 2
ENDMDL
MODEL      178
REMARK 921   NORMALIZED FREE ENERGY PREDICTED BY IDOCK:   -2.45 KCAL/MOL
REMARK 922        TOTAL FREE ENERGY PREDICTED BY IDOCK:   -3.05 KCAL/MOL
REMARK 923 INTER-LIGAND FREE ENERGY PREDICTED BY IDOCK:   -3.62 KCAL/MOL
REMARK 924 INTRA-LIGAND FREE ENERGY PREDICTED BY IDOCK:    0.57 KCAL/MOL
REMARK 927      BINDING AFFINITY PREDICTED BY RF-SCORE:    0.00 PKD
ROOT
HETATM    1  C   UNL     1      -5.134   6.171  71.611  1.00  0.00    -0.021 C  
HETATM    2  N   UNL     1      -6.002   7.370  71.875  1.00  0.00    -0.037 N  
HETATM    3  C   UNL     1      -7.107   6.993  72.859  1.00  0.00    -0.073 C  
HETATM    4  O   UNL     1      -6.547   7.774  70.683  1.00  0.00    -0.038 OA 
HETATM    5  C   UNL     1      -5.140   8.473  72.432  1.00  0.00    -0.039 C  
ENDROOT
BRANCH   3   6
HETATM    6  C   UNL     1      -8.081   8.143  73.137  1.00  0.00    -0.237 C  
BRANCH   6   7
HETATM    7  C   UNL     1      -8.711   8.748  71.903  1.00  0.00    -0.199 C  
HETATM    8  C   UNL     1      -9.649   8.150  71.126  1.00  0.00    -0.196 C  
HETATM    9  C   UNL     1     -10.091   6.774  71.464  1.00  0.00    -0.196 A  
HETATM   10  C   UNL     1     -10.806   6.512  72.641  1.00  0.00    -0.278 A  
HETATM   11  C   UNL     1     -11.178   5.209  72.973  1.00  0.00    -0.390 A  
HETATM   12  C   UNL     1     -10.860   4.157  72.119  1.00  0.00     0.183 A  
HETATM   13  C   UNL     1     -10.177   4.408  70.929  1.00  0.00    -0.112 A  
HETATM   14  C   UNL     1      -9.790   5.714  70.592  1.00  0.00    -0.244 A  
HETATM   15  C   UNL     1      -9.089   5.993  69.289  1.00  0.00    -0.126 C  
HETATM   16  C   UNL     1      -9.984   6.786  68.335  1.00  0.00    -0.153 C  
HETATM   17  C   UNL     1     -10.304   8.237  68.655  1.00  0.00    -0.225 A  
HETATM   18  C   UNL     1     -10.858   8.982  67.590  1.00  0.00    -0.133 A  
HETATM   19  C   UNL     1     -11.230  10.316  67.746  1.00  0.00    -0.262 A  
HETATM   20  C   UNL     1     -11.067  10.933  68.976  1.00  0.00    -0.302 A  
HETATM   21  C   UNL     1     -10.542  10.212  70.046  1.00  0.00    -0.338 A  
HETATM   22  C   UNL     1     -10.141   8.866  69.911  1.00  0.00    -0.204 A  
ENDBRANCH   6   7
ENDBRANCH   3   6
TORSDOF 2
ENDMDL
MODEL      179
REMARK 921   NORMALIZED FREE ENERGY PREDICTED BY IDOCK:   -2.45 KCAL/MOL
REMARK 922        TOTAL FREE ENERGY PREDICTED BY IDOCK:   -3.05 KCAL/MOL
REMARK 923 INTER-LIGAND FREE ENERGY PREDICTED BY IDOCK:   -2.67 KCAL/MOL
REMARK 924 INTRA-LIGAND FREE ENERGY PREDICTED BY IDOCK:   -0.38 KCAL/MOL
REMARK 927      BINDING AFFINITY PREDICTED BY RF-SCORE:    0.00 PKD
ROOT
HETATM    1  C   UNL     1     -12.306  16.276  64.345  1.00  0.00     0.996 C  
HETATM    2  N   UNL     1     -12.349  14.782  64.511  1.00  0.00    -0.439 N  
HETATM    3  C   UNL     1     -10.935  14.253  64.738  1.00  0.00    -0.398 C  
HETATM    4  O   UNL     1     -12.880  14.240  63.368  1.00  0.00    -0.557 OA 
HETATM    5  C   UNL     1     -13.240  14.455  65.681  1.00  0.00     0.318 C  
ENDROOT
BRANCH   3   6
HETATM    6  C   UNL     1     -10.877  12.726  64.854  1.00  0.00    -0.326 C  
BRANCH   6   7
HETATM    7  C   UNL     1      -9.556  12.181  65.346  1.00  0.00    -0.112 C  
HETATM    8  C   UNL     1      -9.197  12.047  66.648  1.00  0.00    -0.211 C  
HETATM    9  C   UNL     1     -10.140  12.496  67.702  1.00  0.00    -0.217 A  
HETATM   10  C   UNL     1     -11.364  11.841  67.905  1.00  0.00    -0.362 A  
HETATM   11  C   UNL     1     -12.264  12.298  68.868  1.00  0.00    -0.009 A  
HETATM   12  C   UNL     1     -11.939  13.398  69.656  1.00  0.00    -0.386 A  
HETATM   13  C   UNL     1     -10.711  14.038  69.487  1.00  0.00    -0.009 A  
HETATM   14  C   UNL     1      -9.805  13.592  68.514  1.00  0.00    -0.196 A  
HETATM   15  C   UNL     1      -8.462  14.255  68.357  1.00  0.00    -0.166 C  
HETATM   16  C   UNL     1      -7.329  13.328  68.799  1.00  0.00    -0.070 C  
HETATM   17  C   UNL     1      -6.999  12.107  67.956  1.00  0.00    -0.090 A  
HETATM   18  C   UNL     1      -5.762  11.489  68.244  1.00  0.00    -0.045 A  
HETATM   19  C   UNL     1      -5.342  10.343  67.573  1.00  0.00    -0.040 A  
HETATM   20  C   UNL     1      -6.158   9.779  66.604  1.00  0.00    -0.060 A  
HETATM   21  C   UNL     1      -7.392  10.359  66.317  1.00  0.00    -0.128 A  
HETATM   22  C   UNL     1      -7.833  11.530  66.970  1.00  0.00    -0.161 A  
ENDBRANCH   6   7
ENDBRANCH   3   6
TORSDOF 2
ENDMDL
MODEL      180
REMARK 921   NORMALIZED FREE ENERGY PREDICTED BY IDOCK:   -2.41 KCAL/MOL
REMARK 922        TOTAL FREE ENERGY PREDICTED BY IDOCK:   -3.01 KCAL/MOL
REMARK 923 INTER-LIGAND FREE ENERGY PREDICTED BY IDOCK:   -2.80 KCAL/MOL
REMARK 924 INTRA-LIGAND FREE ENERGY PREDICTED BY IDOCK:   -0.21 KCAL/MOL
REMARK 927      BINDING AFFINITY PREDICTED BY RF-SCORE:    0.00 PKD
ROOT
HETATM    1  C   UNL     1      -9.818  10.664  65.173  1.00  0.00    -0.284 C  
HETATM    2  N   UNL     1      -9.154  10.181  66.434  1.00  0.00    -0.150 N  
HETATM    3  C   UNL     1      -9.801   8.872  66.881  1.00  0.00    -0.223 C  
HETATM    4  O   UNL     1      -9.318  11.143  67.398  1.00  0.00    -0.162 OA 
HETATM    5  C   UNL     1      -7.685   9.990  66.161  1.00  0.00    -0.108 C  
ENDROOT
BRANCH   3   6
HETATM    6  C   UNL     1      -9.228   8.339  68.199  1.00  0.00    -0.137 C  
BRANCH   6   7
HETATM    7  C   UNL     1      -9.440   6.859  68.425  1.00  0.00    -0.128 C  
HETATM    8  C   UNL     1      -8.726   5.864  67.841  1.00  0.00    -0.104 C  
HETATM    9  C   UNL     1      -7.665   6.219  66.865  1.00  0.00    -0.100 A  
HETATM   10  C   UNL     1      -6.508   6.900  67.270  1.00  0.00    -0.049 A  
HETATM   11  C   UNL     1      -5.537   7.269  66.339  1.00  0.00    -0.024 A  
HETATM   12  C   UNL     1      -5.702   6.940  64.996  1.00  0.00    -0.032 A  
HETATM   13  C   UNL     1      -6.833   6.235  64.586  1.00  0.00    -0.047 A  
HETATM   14  C   UNL     1      -7.818   5.868  65.514  1.00  0.00    -0.103 A  
HETATM   15  C   UNL     1      -9.021   5.071  65.080  1.00  0.00    -0.131 C  
HETATM   16  C   UNL     1      -8.981   3.652  65.649  1.00  0.00    -0.136 C  
HETATM   17  C   UNL     1      -9.189   3.448  67.142  1.00  0.00    -0.218 A  
HETATM   18  C   UNL     1      -9.454   2.117  67.538  1.00  0.00    -0.062 A  
HETATM   19  C   UNL     1      -9.633   1.775  68.877  1.00  0.00    -0.129 A  
HETATM   20  C   UNL     1      -9.540   2.755  69.853  1.00  0.00    -0.088 A  
HETATM   21  C   UNL     1      -9.258   4.069  69.488  1.00  0.00    -0.220 A  
HETATM   22  C   UNL     1      -9.089   4.446  68.138  1.00  0.00    -0.161 A  
ENDBRANCH   6   7
ENDBRANCH   3   6
TORSDOF 2
ENDMDL
MODEL      181
REMARK 921   NORMALIZED FREE ENERGY PREDICTED BY IDOCK:   -2.41 KCAL/MOL
REMARK 922        TOTAL FREE ENERGY PREDICTED BY IDOCK:   -3.00 KCAL/MOL
REMARK 923 INTER-LIGAND FREE ENERGY PREDICTED BY IDOCK:   -3.54 KCAL/MOL
REMARK 924 INTRA-LIGAND FREE ENERGY PREDICTED BY IDOCK:    0.54 KCAL/MOL
REMARK 927      BINDING AFFINITY PREDICTED BY RF-SCORE:    0.00 PKD
ROOT
HETATM    1  C   UNL     1      -9.627  10.851  66.048  1.00  0.00    -0.209 C  
HETATM    2  N   UNL     1      -8.725  10.703  67.243  1.00  0.00    -0.129 N  
HETATM    3  C   UNL     1      -8.555   9.222  67.573  1.00  0.00    -0.116 C  
HETATM    4  O   UNL     1      -9.304  11.360  68.298  1.00  0.00    -0.174 OA 
HETATM    5  C   UNL     1      -7.398  11.339  66.923  1.00  0.00    -0.145 C  
ENDROOT
BRANCH   3   6
HETATM    6  C   UNL     1      -7.700   8.980  68.821  1.00  0.00    -0.095 C  
BRANCH   6   7
HETATM    7  C   UNL     1      -7.902   7.631  69.472  1.00  0.00    -0.115 C  
HETATM    8  C   UNL     1      -9.007   7.249  70.162  1.00  0.00    -0.148 C  
HETATM    9  C   UNL     1     -10.112   8.223  70.344  1.00  0.00    -0.199 A  
HETATM   10  C   UNL     1     -10.870   8.670  69.252  1.00  0.00    -0.082 A  
HETATM   11  C   UNL     1     -11.877   9.619  69.426  1.00  0.00     0.379 A  
HETATM   12  C   UNL     1     -12.154  10.113  70.698  1.00  0.00    -0.411 A  
HETATM   13  C   UNL     1     -11.429   9.652  71.797  1.00  0.00    -0.258 A  
HETATM   14  C   UNL     1     -10.408   8.705  71.630  1.00  0.00    -0.366 A  
HETATM   15  C   UNL     1      -9.652   8.175  72.820  1.00  0.00    -0.353 C  
HETATM   16  C   UNL     1      -9.983   6.705  73.079  1.00  0.00    -0.191 C  
HETATM   17  C   UNL     1      -9.491   5.651  72.099  1.00  0.00    -0.166 A  
HETATM   18  C   UNL     1      -9.558   4.318  72.563  1.00  0.00    -0.187 A  
HETATM   19  C   UNL     1      -9.171   3.245  71.762  1.00  0.00    -0.186 A  
HETATM   20  C   UNL     1      -8.720   3.480  70.473  1.00  0.00    -0.127 A  
HETATM   21  C   UNL     1      -8.665   4.785  69.988  1.00  0.00    -0.110 A  
HETATM   22  C   UNL     1      -9.034   5.891  70.783  1.00  0.00    -0.155 A  
ENDBRANCH   6   7
ENDBRANCH   3   6
TORSDOF 2
ENDMDL
MODEL      182
REMARK 921   NORMALIZED FREE ENERGY PREDICTED BY IDOCK:   -2.33 KCAL/MOL
REMARK 922        TOTAL FREE ENERGY PREDICTED BY IDOCK:   -2.92 KCAL/MOL
REMARK 923 INTER-LIGAND FREE ENERGY PREDICTED BY IDOCK:   -2.61 KCAL/MOL
REMARK 924 INTRA-LIGAND FREE ENERGY PREDICTED BY IDOCK:   -0.31 KCAL/MOL
REMARK 927      BINDING AFFINITY PREDICTED BY RF-SCORE:    0.00 PKD
ROOT
HETATM    1  C   UNL     1     -10.483   5.673  73.268  1.00  0.00    -0.231 C  
HETATM    2  N   UNL     1      -9.480   5.299  72.212  1.00  0.00    -0.141 N  
HETATM    3  C   UNL     1     -10.105   5.474  70.830  1.00  0.00    -0.212 C  
HETATM    4  O   UNL     1      -9.122   3.990  72.407  1.00  0.00    -0.111 OA 
HETATM    5  C   UNL     1      -8.268   6.180  72.368  1.00  0.00    -0.108 C  
ENDROOT
BRANCH   3   6
HETATM    6  C   UNL     1      -9.171   5.052  69.691  1.00  0.00    -0.168 C  
BRANCH   6   7
HETATM    7  C   UNL     1      -9.011   6.080  68.594  1.00  0.00    -0.118 C  
HETATM    8  C   UNL     1      -8.588   5.821  67.330  1.00  0.00    -0.105 C  
HETATM    9  C   UNL     1      -8.208   4.432  66.971  1.00  0.00    -0.101 A  
HETATM   10  C   UNL     1      -9.165   3.407  66.929  1.00  0.00    -0.202 A  
HETATM   11  C   UNL     1      -8.790   2.096  66.634  1.00  0.00    -0.132 A  
HETATM   12  C   UNL     1      -7.460   1.801  66.353  1.00  0.00    -0.061 A  
HETATM   13  C   UNL     1      -6.504   2.816  66.359  1.00  0.00    -0.032 A  
HETATM   14  C   UNL     1      -6.870   4.135  66.664  1.00  0.00    -0.055 A  
HETATM   15  C   UNL     1      -5.847   5.241  66.631  1.00  0.00    -0.018 C  
HETATM   16  C   UNL     1      -6.107   6.203  65.471  1.00  0.00    -0.030 C  
HETATM   17  C   UNL     1      -7.322   7.116  65.523  1.00  0.00    -0.079 A  
HETATM   18  C   UNL     1      -7.321   8.178  64.592  1.00  0.00    -0.087 A  
HETATM   19  C   UNL     1      -8.384   9.075  64.504  1.00  0.00    -0.182 A  
HETATM   20  C   UNL     1      -9.480   8.922  65.338  1.00  0.00    -0.086 A  
HETATM   21  C   UNL     1      -9.513   7.870  66.250  1.00  0.00    -0.220 A  
HETATM   22  C   UNL     1      -8.442   6.957  66.372  1.00  0.00    -0.130 A  
ENDBRANCH   6   7
ENDBRANCH   3   6
TORSDOF 2
ENDMDL
MODEL      183
REMARK 921   NORMALIZED FREE ENERGY PREDICTED BY IDOCK:   -2.31 KCAL/MOL
REMARK 922        TOTAL FREE ENERGY PREDICTED BY IDOCK:   -2.89 KCAL/MOL
REMARK 923 INTER-LIGAND FREE ENERGY PREDICTED BY IDOCK:   -3.29 KCAL/MOL
REMARK 924 INTRA-LIGAND FREE ENERGY PREDICTED BY IDOCK:    0.40 KCAL/MOL
REMARK 927      BINDING AFFINITY PREDICTED BY RF-SCORE:    0.00 PKD
ROOT
HETATM    1  C   UNL     1      -7.118   3.919  66.943  1.00  0.00    -0.063 C  
HETATM    2  N   UNL     1      -6.891   4.615  65.628  1.00  0.00    -0.060 N  
HETATM    3  C   UNL     1      -6.595   6.092  65.878  1.00  0.00    -0.047 C  
HETATM    4  O   UNL     1      -8.028   4.481  64.873  1.00  0.00    -0.094 OA 
HETATM    5  C   UNL     1      -5.739   3.947  64.925  1.00  0.00    -0.014 C  
ENDROOT
BRANCH   3   6
HETATM    6  C   UNL     1      -6.414   6.895  64.585  1.00  0.00    -0.042 C  
BRANCH   6   7
HETATM    7  C   UNL     1      -7.484   7.932  64.332  1.00  0.00    -0.098 C  
HETATM    8  C   UNL     1      -7.870   8.893  65.209  1.00  0.00    -0.104 C  
HETATM    9  C   UNL     1      -7.236   8.937  66.551  1.00  0.00    -0.085 A  
HETATM   10  C   UNL     1      -5.879   9.255  66.700  1.00  0.00    -0.055 A  
HETATM   11  C   UNL     1      -5.281   9.250  67.961  1.00  0.00    -0.034 A  
HETATM   12  C   UNL     1      -6.041   8.951  69.088  1.00  0.00    -0.042 A  
HETATM   13  C   UNL     1      -7.400   8.664  68.956  1.00  0.00    -0.077 A  
HETATM   14  C   UNL     1      -8.006   8.658  67.692  1.00  0.00    -0.107 A  
HETATM   15  C   UNL     1      -9.482   8.389  67.551  1.00  0.00    -0.182 C  
HETATM   16  C   UNL     1     -10.235   9.644  67.107  1.00  0.00    -0.305 C  
HETATM   17  C   UNL     1     -10.035  10.165  65.693  1.00  0.00    -0.348 A  
HETATM   18  C   UNL     1     -10.986  11.118  65.260  1.00  0.00    -0.153 A  
HETATM   19  C   UNL     1     -10.910  11.706  63.999  1.00  0.00    -0.455 A  
HETATM   20  C   UNL     1      -9.874  11.363  63.145  1.00  0.00    -0.413 A  
HETATM   21  C   UNL     1      -8.914  10.442  63.557  1.00  0.00    -0.247 A  
HETATM   22  C   UNL     1      -8.976   9.819  64.823  1.00  0.00    -0.266 A  
ENDBRANCH   6   7
ENDBRANCH   3   6
TORSDOF 2
ENDMDL
MODEL      184
REMARK 921   NORMALIZED FREE ENERGY PREDICTED BY IDOCK:   -2.27 KCAL/MOL
REMARK 922        TOTAL FREE ENERGY PREDICTED BY IDOCK:   -2.85 KCAL/MOL
REMARK 923 INTER-LIGAND FREE ENERGY PREDICTED BY IDOCK:   -2.88 KCAL/MOL
REMARK 924 INTRA-LIGAND FREE ENERGY PREDICTED BY IDOCK:    0.03 KCAL/MOL
REMARK 927      BINDING AFFINITY PREDICTED BY RF-SCORE:    0.00 PKD
ROOT
HETATM    1  C   UNL     1      -7.419   5.770  73.069  1.00  0.00    -0.096 C  
HETATM    2  N   UNL     1      -7.540   7.211  72.656  1.00  0.00    -0.083 N  
HETATM    3  C   UNL     1      -7.375   7.323  71.142  1.00  0.00    -0.074 C  
HETATM    4  O   UNL     1      -6.555   7.922  73.294  1.00  0.00    -0.073 OA 
HETATM    5  C   UNL     1      -8.889   7.723  73.089  1.00  0.00    -0.204 C  
ENDROOT
BRANCH   3   6
HETATM    6  C   UNL     1      -7.420   8.770  70.639  1.00  0.00    -0.079 C  
BRANCH   6   7
HETATM    7  C   UNL     1      -7.277   8.922  69.142  1.00  0.00    -0.067 C  
HETATM    8  C   UNL     1      -8.137   8.425  68.217  1.00  0.00    -0.120 C  
HETATM    9  C   UNL     1      -9.305   7.631  68.675  1.00  0.00    -0.147 A  
HETATM   10  C   UNL     1     -10.339   8.224  69.412  1.00  0.00    -0.223 A  
HETATM   11  C   UNL     1     -11.410   7.461  69.877  1.00  0.00    -0.098 A  
HETATM   12  C   UNL     1     -11.470   6.100  69.588  1.00  0.00    -0.332 A  
HETATM   13  C   UNL     1     -10.464   5.504  68.829  1.00  0.00    -0.261 A  
HETATM   14  C   UNL     1      -9.379   6.262  68.366  1.00  0.00    -0.113 A  
HETATM   15  C   UNL     1      -8.312   5.630  67.511  1.00  0.00    -0.100 C  
HETATM   16  C   UNL     1      -8.363   6.160  66.077  1.00  0.00    -0.136 C  
HETATM   17  C   UNL     1      -7.950   7.598  65.804  1.00  0.00    -0.116 A  
HETATM   18  C   UNL     1      -7.720   7.913  64.445  1.00  0.00    -0.123 A  
HETATM   19  C   UNL     1      -7.367   9.199  64.042  1.00  0.00    -0.100 A  
HETATM   20  C   UNL     1      -7.248  10.204  64.989  1.00  0.00    -0.139 A  
HETATM   21  C   UNL     1      -7.489   9.922  66.331  1.00  0.00    -0.101 A  
HETATM   22  C   UNL     1      -7.832   8.624  66.769  1.00  0.00    -0.094 A  
ENDBRANCH   6   7
ENDBRANCH   3   6
TORSDOF 2
ENDMDL
MODEL      185
REMARK 921   NORMALIZED FREE ENERGY PREDICTED BY IDOCK:   -2.23 KCAL/MOL
REMARK 922        TOTAL FREE ENERGY PREDICTED BY IDOCK:   -2.80 KCAL/MOL
REMARK 923 INTER-LIGAND FREE ENERGY PREDICTED BY IDOCK:   -2.53 KCAL/MOL
REMARK 924 INTRA-LIGAND FREE ENERGY PREDICTED BY IDOCK:   -0.27 KCAL/MOL
REMARK 927      BINDING AFFINITY PREDICTED BY RF-SCORE:    0.00 PKD
ROOT
HETATM    1  C   UNL     1     -10.042   6.148  72.933  1.00  0.00    -0.182 C  
HETATM    2  N   UNL     1      -9.257   7.175  72.164  1.00  0.00    -0.130 N  
HETATM    3  C   UNL     1      -9.538   7.020  70.671  1.00  0.00    -0.165 C  
HETATM    4  O   UNL     1      -7.924   6.972  72.418  1.00  0.00    -0.095 OA 
HETATM    5  C   UNL     1      -9.656   8.545  72.647  1.00  0.00    -0.223 C  
ENDROOT
BRANCH   3   6
HETATM    6  C   UNL     1      -8.727   7.988  69.803  1.00  0.00    -0.136 C  
BRANCH   6   7
HETATM    7  C   UNL     1      -8.674   7.627  68.337  1.00  0.00    -0.127 C  
HETATM    8  C   UNL     1      -7.906   8.243  67.403  1.00  0.00    -0.106 C  
HETATM    9  C   UNL     1      -7.063   9.393  67.812  1.00  0.00    -0.082 A  
HETATM   10  C   UNL     1      -5.978   9.222  68.685  1.00  0.00    -0.044 A  
HETATM   11  C   UNL     1      -5.219  10.316  69.099  1.00  0.00    -0.038 A  
HETATM   12  C   UNL     1      -5.521  11.590  68.626  1.00  0.00    -0.042 A  
HETATM   13  C   UNL     1      -6.576  11.770  67.733  1.00  0.00    -0.075 A  
HETATM   14  C   UNL     1      -7.351  10.676  67.318  1.00  0.00    -0.092 A  
HETATM   15  C   UNL     1      -8.465  10.861  66.322  1.00  0.00    -0.166 C  
HETATM   16  C   UNL     1      -8.127  10.205  64.982  1.00  0.00    -0.149 C  
HETATM   17  C   UNL     1      -8.085   8.688  64.890  1.00  0.00    -0.146 A  
HETATM   18  C   UNL     1      -8.083   8.162  63.579  1.00  0.00    -0.113 A  
HETATM   19  C   UNL     1      -8.015   6.791  63.341  1.00  0.00    -0.070 A  
HETATM   20  C   UNL     1      -7.935   5.913  64.411  1.00  0.00    -0.129 A  
HETATM   21  C   UNL     1      -7.915   6.410  65.712  1.00  0.00    -0.117 A  
HETATM   22  C   UNL     1      -8.000   7.793  65.982  1.00  0.00    -0.108 A  
ENDBRANCH   6   7
ENDBRANCH   3   6
TORSDOF 2
ENDMDL
MODEL      186
REMARK 921   NORMALIZED FREE ENERGY PREDICTED BY IDOCK:   -2.21 KCAL/MOL
REMARK 922        TOTAL FREE ENERGY PREDICTED BY IDOCK:   -2.78 KCAL/MOL
REMARK 923 INTER-LIGAND FREE ENERGY PREDICTED BY IDOCK:   -2.45 KCAL/MOL
REMARK 924 INTRA-LIGAND FREE ENERGY PREDICTED BY IDOCK:   -0.33 KCAL/MOL
REMARK 927      BINDING AFFINITY PREDICTED BY RF-SCORE:    0.00 PKD
ROOT
HETATM    1  C   UNL     1      -9.129  11.511  65.819  1.00  0.00    -0.154 C  
HETATM    2  N   UNL     1      -8.244  11.154  66.982  1.00  0.00    -0.140 N  
HETATM    3  C   UNL     1      -8.054   9.640  67.032  1.00  0.00    -0.113 C  
HETATM    4  O   UNL     1      -8.852  11.593  68.131  1.00  0.00    -0.151 OA 
HETATM    5  C   UNL     1      -6.923  11.857  66.813  1.00  0.00    -0.003 C  
ENDROOT
BRANCH   3   6
HETATM    6  C   UNL     1      -7.214   9.180  68.229  1.00  0.00    -0.078 C  
BRANCH   6   7
HETATM    7  C   UNL     1      -7.055   7.681  68.348  1.00  0.00    -0.081 C  
HETATM    8  C   UNL     1      -7.612   6.906  69.312  1.00  0.00    -0.096 C  
HETATM    9  C   UNL     1      -8.423   7.552  70.374  1.00  0.00    -0.141 A  
HETATM   10  C   UNL     1      -9.644   8.173  70.076  1.00  0.00    -0.171 A  
HETATM   11  C   UNL     1     -10.377   8.817  71.073  1.00  0.00    -0.297 A  
HETATM   12  C   UNL     1      -9.908   8.826  72.384  1.00  0.00    -0.226 A  
HETATM   13  C   UNL     1      -8.710   8.184  72.699  1.00  0.00    -0.277 A  
HETATM   14  C   UNL     1      -7.962   7.542  71.701  1.00  0.00    -0.092 A  
HETATM   15  C   UNL     1      -6.690   6.814  72.046  1.00  0.00    -0.058 C  
HETATM   16  C   UNL     1      -6.853   5.302  71.883  1.00  0.00    -0.065 C  
HETATM   17  C   UNL     1      -6.993   4.719  70.486  1.00  0.00    -0.037 A  
HETATM   18  C   UNL     1      -6.821   3.320  70.395  1.00  0.00    -0.033 A  
HETATM   19  C   UNL     1      -6.952   2.643  69.184  1.00  0.00    -0.044 A  
HETATM   20  C   UNL     1      -7.270   3.351  68.036  1.00  0.00    -0.051 A  
HETATM   21  C   UNL     1      -7.465   4.729  68.105  1.00  0.00    -0.074 A  
HETATM   22  C   UNL     1      -7.322   5.441  69.315  1.00  0.00    -0.065 A  
ENDBRANCH   6   7
ENDBRANCH   3   6
TORSDOF 2
ENDMDL
MODEL      187
REMARK 921   NORMALIZED FREE ENERGY PREDICTED BY IDOCK:   -2.20 KCAL/MOL
REMARK 922        TOTAL FREE ENERGY PREDICTED BY IDOCK:   -2.77 KCAL/MOL
REMARK 923 INTER-LIGAND FREE ENERGY PREDICTED BY IDOCK:   -2.43 KCAL/MOL
REMARK 924 INTRA-LIGAND FREE ENERGY PREDICTED BY IDOCK:   -0.33 KCAL/MOL
REMARK 927      BINDING AFFINITY PREDICTED BY RF-SCORE:    0.00 PKD
ROOT
HETATM    1  C   UNL     1      -7.902  15.802  67.875  1.00  0.00    -0.139 C  
HETATM    2  N   UNL     1      -8.421  14.420  68.165  1.00  0.00    -0.152 N  
HETATM    3  C   UNL     1      -9.254  13.930  66.982  1.00  0.00    -0.250 C  
HETATM    4  O   UNL     1      -9.195  14.482  69.296  1.00  0.00    -0.049 OA 
HETATM    5  C   UNL     1      -7.247  13.508  68.410  1.00  0.00    -0.109 C  
ENDROOT
BRANCH   3   6
HETATM    6  C   UNL     1      -9.878  12.551  67.219  1.00  0.00    -0.204 C  
BRANCH   6   7
HETATM    7  C   UNL     1      -9.207  11.419  66.475  1.00  0.00    -0.200 C  
HETATM    8  C   UNL     1      -8.838  10.232  67.017  1.00  0.00    -0.143 C  
HETATM    9  C   UNL     1      -9.064  10.003  68.467  1.00  0.00    -0.127 A  
HETATM   10  C   UNL     1     -10.361   9.914  68.992  1.00  0.00    -0.224 A  
HETATM   11  C   UNL     1     -10.564   9.744  70.361  1.00  0.00    -0.365 A  
HETATM   12  C   UNL     1      -9.472   9.638  71.217  1.00  0.00     0.350 A  
HETATM   13  C   UNL     1      -8.177   9.693  70.704  1.00  0.00    -0.054 A  
HETATM   14  C   UNL     1      -7.963   9.873  69.329  1.00  0.00    -0.121 A  
HETATM   15  C   UNL     1      -6.566   9.891  68.767  1.00  0.00    -0.046 C  
HETATM   16  C   UNL     1      -6.295   8.653  67.912  1.00  0.00    -0.057 C  
HETATM   17  C   UNL     1      -7.000   8.509  66.573  1.00  0.00    -0.075 A  
HETATM   18  C   UNL     1      -6.469   7.521  65.713  1.00  0.00    -0.045 A  
HETATM   19  C   UNL     1      -7.033   7.256  64.467  1.00  0.00    -0.052 A  
HETATM   20  C   UNL     1      -8.150   7.966  64.056  1.00  0.00    -0.078 A  
HETATM   21  C   UNL     1      -8.704   8.930  64.895  1.00  0.00    -0.184 A  
HETATM   22  C   UNL     1      -8.143   9.230  66.155  1.00  0.00    -0.110 A  
ENDBRANCH   6   7
ENDBRANCH   3   6
TORSDOF 2
ENDMDL
MODEL      188
REMARK 921   NORMALIZED FREE ENERGY PREDICTED BY IDOCK:   -2.15 KCAL/MOL
REMARK 922        TOTAL FREE ENERGY PREDICTED BY IDOCK:   -2.71 KCAL/MOL
REMARK 923 INTER-LIGAND FREE ENERGY PREDICTED BY IDOCK:   -2.80 KCAL/MOL
REMARK 924 INTRA-LIGAND FREE ENERGY PREDICTED BY IDOCK:    0.09 KCAL/MOL
REMARK 927      BINDING AFFINITY PREDICTED BY RF-SCORE:    0.00 PKD
ROOT
HETATM    1  C   UNL     1      -6.491  12.481  67.562  1.00  0.00    -0.153 C  
HETATM    2  N   UNL     1      -7.165  11.382  68.337  1.00  0.00    -0.081 N  
HETATM    3  C   UNL     1      -8.665  11.655  68.410  1.00  0.00    -0.158 C  
HETATM    4  O   UNL     1      -6.626  11.358  69.599  1.00  0.00    -0.120 OA 
HETATM    5  C   UNL     1      -6.889  10.071  67.649  1.00  0.00    -0.084 C  
ENDROOT
BRANCH   3   6
HETATM    6  C   UNL     1      -9.425  10.615  69.241  1.00  0.00    -0.152 C  
BRANCH   6   7
HETATM    7  C   UNL     1      -9.699   9.313  68.522  1.00  0.00    -0.162 C  
HETATM    8  C   UNL     1      -9.493   8.074  69.036  1.00  0.00    -0.151 C  
HETATM    9  C   UNL     1      -8.918   7.948  70.399  1.00  0.00    -0.147 A  
HETATM   10  C   UNL     1      -9.635   8.367  71.528  1.00  0.00    -0.273 A  
HETATM   11  C   UNL     1      -9.069   8.286  72.801  1.00  0.00    -0.332 A  
HETATM   12  C   UNL     1      -7.789   7.761  72.959  1.00  0.00    -0.156 A  
HETATM   13  C   UNL     1      -7.078   7.311  71.847  1.00  0.00    -0.063 A  
HETATM   14  C   UNL     1      -7.636   7.397  70.563  1.00  0.00    -0.087 A  
HETATM   15  C   UNL     1      -6.887   6.874  69.365  1.00  0.00    -0.054 C  
HETATM   16  C   UNL     1      -7.563   5.630  68.788  1.00  0.00    -0.088 C  
HETATM   17  C   UNL     1      -8.903   5.774  68.084  1.00  0.00    -0.105 A  
HETATM   18  C   UNL     1      -9.304   4.660  67.313  1.00  0.00    -0.159 A  
HETATM   19  C   UNL     1     -10.522   4.637  66.637  1.00  0.00    -0.130 A  
HETATM   20  C   UNL     1     -11.375   5.726  66.728  1.00  0.00     0.367 A  
HETATM   21  C   UNL     1     -11.011   6.827  67.499  1.00  0.00    -0.375 A  
HETATM   22  C   UNL     1      -9.775   6.883  68.180  1.00  0.00    -0.134 A  
ENDBRANCH   6   7
ENDBRANCH   3   6
TORSDOF 2
ENDMDL
MODEL      189
REMARK 921   NORMALIZED FREE ENERGY PREDICTED BY IDOCK:   -2.08 KCAL/MOL
REMARK 922        TOTAL FREE ENERGY PREDICTED BY IDOCK:   -2.63 KCAL/MOL
REMARK 923 INTER-LIGAND FREE ENERGY PREDICTED BY IDOCK:   -4.26 KCAL/MOL
REMARK 924 INTRA-LIGAND FREE ENERGY PREDICTED BY IDOCK:    1.63 KCAL/MOL
REMARK 927      BINDING AFFINITY PREDICTED BY RF-SCORE:    0.00 PKD
ROOT
HETATM    1  C   UNL     1      -6.550   7.114  67.602  1.00  0.00    -0.056 C  
HETATM    2  N   UNL     1      -8.037   7.282  67.760  1.00  0.00    -0.114 N  
HETATM    3  C   UNL     1      -8.610   7.954  66.514  1.00  0.00    -0.142 C  
HETATM    4  O   UNL     1      -8.263   8.063  68.865  1.00  0.00    -0.122 OA 
HETATM    5  C   UNL     1      -8.653   5.924  67.970  1.00  0.00    -0.113 C  
ENDROOT
BRANCH   3   6
HETATM    6  C   UNL     1     -10.115   8.223  66.616  1.00  0.00    -0.351 C  
BRANCH   6   7
HETATM    7  C   UNL     1     -10.477   9.646  66.976  1.00  0.00    -0.302 C  
HETATM    8  C   UNL     1      -9.718  10.740  66.713  1.00  0.00    -0.221 C  
HETATM    9  C   UNL     1      -8.401  10.559  66.053  1.00  0.00    -0.158 A  
HETATM   10  C   UNL     1      -8.312  10.100  64.731  1.00  0.00    -0.167 A  
HETATM   11  C   UNL     1      -7.069   9.890  64.133  1.00  0.00    -0.128 A  
HETATM   12  C   UNL     1      -5.902  10.161  64.843  1.00  0.00    -0.123 A  
HETATM   13  C   UNL     1      -5.978  10.648  66.148  1.00  0.00    -0.121 A  
HETATM   14  C   UNL     1      -7.223  10.853  66.760  1.00  0.00    -0.134 A  
HETATM   15  C   UNL     1      -7.309  11.419  68.153  1.00  0.00    -0.092 C  
HETATM   16  C   UNL     1      -7.892  12.832  68.144  1.00  0.00    -0.146 C  
HETATM   17  C   UNL     1      -9.362  13.025  67.807  1.00  0.00    -0.199 A  
HETATM   18  C   UNL     1      -9.894  14.295  68.126  1.00  0.00    -0.226 A  
HETATM   19  C   UNL     1     -11.218  14.625  67.845  1.00  0.00    -0.318 A  
HETATM   20  C   UNL     1     -12.039  13.695  67.227  1.00  0.00    -0.385 A  
HETATM   21  C   UNL     1     -11.531  12.444  66.885  1.00  0.00    -0.423 A  
HETATM   22  C   UNL     1     -10.199  12.078  67.173  1.00  0.00    -0.221 A  
ENDBRANCH   6   7
ENDBRANCH   3   6
TORSDOF 2
ENDMDL
MODEL      190
REMARK 921   NORMALIZED FREE ENERGY PREDICTED BY IDOCK:   -2.06 KCAL/MOL
REMARK 922        TOTAL FREE ENERGY PREDICTED BY IDOCK:   -2.61 KCAL/MOL
REMARK 923 INTER-LIGAND FREE ENERGY PREDICTED BY IDOCK:   -2.27 KCAL/MOL
REMARK 924 INTRA-LIGAND FREE ENERGY PREDICTED BY IDOCK:   -0.34 KCAL/MOL
REMARK 927      BINDING AFFINITY PREDICTED BY RF-SCORE:    0.00 PKD
ROOT
HETATM    1  C   UNL     1     -10.694   4.745  72.396  1.00  0.00    -0.149 C  
HETATM    2  N   UNL     1      -9.339   4.446  71.815  1.00  0.00    -0.134 N  
HETATM    3  C   UNL     1      -8.749   5.719  71.214  1.00  0.00    -0.132 C  
HETATM    4  O   UNL     1      -9.493   3.490  70.843  1.00  0.00    -0.141 OA 
HETATM    5  C   UNL     1      -8.455   3.909  72.911  1.00  0.00    -0.095 C  
ENDROOT
BRANCH   3   6
HETATM    6  C   UNL     1      -7.392   5.492  70.540  1.00  0.00    -0.075 C  
BRANCH   6   7
HETATM    7  C   UNL     1      -7.431   5.497  69.028  1.00  0.00    -0.082 C  
HETATM    8  C   UNL     1      -7.318   6.597  68.243  1.00  0.00    -0.090 C  
HETATM    9  C   UNL     1      -7.180   7.928  68.886  1.00  0.00    -0.076 A  
HETATM   10  C   UNL     1      -6.035   8.259  69.626  1.00  0.00    -0.029 A  
HETATM   11  C   UNL     1      -5.934   9.495  70.265  1.00  0.00    -0.047 A  
HETATM   12  C   UNL     1      -6.966  10.423  70.150  1.00  0.00    -0.146 A  
HETATM   13  C   UNL     1      -8.095  10.118  69.391  1.00  0.00    -0.163 A  
HETATM   14  C   UNL     1      -8.209   8.874  68.753  1.00  0.00    -0.115 A  
HETATM   15  C   UNL     1      -9.409   8.558  67.899  1.00  0.00    -0.148 C  
HETATM   16  C   UNL     1      -9.030   8.469  66.420  1.00  0.00    -0.201 C  
HETATM   17  C   UNL     1      -8.185   7.299  65.941  1.00  0.00    -0.132 A  
HETATM   18  C   UNL     1      -8.146   7.116  64.541  1.00  0.00    -0.069 A  
HETATM   19  C   UNL     1      -7.387   6.103  63.957  1.00  0.00    -0.070 A  
HETATM   20  C   UNL     1      -6.639   5.257  64.761  1.00  0.00    -0.043 A  
HETATM   21  C   UNL     1      -6.646   5.432  66.143  1.00  0.00    -0.048 A  
HETATM   22  C   UNL     1      -7.419   6.439  66.761  1.00  0.00    -0.087 A  
ENDBRANCH   6   7
ENDBRANCH   3   6
TORSDOF 2
ENDMDL
MODEL      191
REMARK 921   NORMALIZED FREE ENERGY PREDICTED BY IDOCK:   -1.99 KCAL/MOL
REMARK 922        TOTAL FREE ENERGY PREDICTED BY IDOCK:   -2.54 KCAL/MOL
REMARK 923 INTER-LIGAND FREE ENERGY PREDICTED BY IDOCK:   -3.24 KCAL/MOL
REMARK 924 INTRA-LIGAND FREE ENERGY PREDICTED BY IDOCK:    0.70 KCAL/MOL
REMARK 927      BINDING AFFINITY PREDICTED BY RF-SCORE:    0.00 PKD
ROOT
HETATM    1  C   UNL     1     -12.252   9.703  71.444  1.00  0.00    -0.385 C  
HETATM    2  N   UNL     1     -11.239   8.592  71.482  1.00  0.00    -0.261 N  
HETATM    3  C   UNL     1     -11.707   7.508  72.450  1.00  0.00    -0.290 C  
HETATM    4  O   UNL     1     -10.044   9.118  71.902  1.00  0.00    -0.322 OA 
HETATM    5  C   UNL     1     -11.082   8.038  70.090  1.00  0.00    -0.191 C  
ENDROOT
BRANCH   3   6
HETATM    6  C   UNL     1     -10.700   6.362  72.601  1.00  0.00    -0.262 C  
BRANCH   6   7
HETATM    7  C   UNL     1     -10.112   5.865  71.300  1.00  0.00    -0.245 C  
HETATM    8  C   UNL     1      -8.787   5.749  71.030  1.00  0.00    -0.143 C  
HETATM    9  C   UNL     1      -7.805   6.169  72.061  1.00  0.00    -0.105 A  
HETATM   10  C   UNL     1      -7.685   5.474  73.273  1.00  0.00    -0.100 A  
HETATM   11  C   UNL     1      -6.791   5.903  74.254  1.00  0.00    -0.080 A  
HETATM   12  C   UNL     1      -5.989   7.017  74.023  1.00  0.00    -0.062 A  
HETATM   13  C   UNL     1      -6.075   7.698  72.809  1.00  0.00    -0.051 A  
HETATM   14  C   UNL     1      -6.978   7.280  71.821  1.00  0.00    -0.059 A  
HETATM   15  C   UNL     1      -7.044   7.988  70.494  1.00  0.00    -0.045 C  
HETATM   16  C   UNL     1      -6.517   7.103  69.364  1.00  0.00    -0.036 C  
HETATM   17  C   UNL     1      -7.327   5.890  68.934  1.00  0.00    -0.084 A  
HETATM   18  C   UNL     1      -6.947   5.316  67.700  1.00  0.00    -0.065 A  
HETATM   19  C   UNL     1      -7.580   4.182  67.195  1.00  0.00    -0.077 A  
HETATM   20  C   UNL     1      -8.600   3.587  67.920  1.00  0.00    -0.117 A  
HETATM   21  C   UNL     1      -8.978   4.123  69.149  1.00  0.00    -0.164 A  
HETATM   22  C   UNL     1      -8.365   5.280  69.676  1.00  0.00    -0.098 A  
ENDBRANCH   6   7
ENDBRANCH   3   6
TORSDOF 2
ENDMDL
MODEL      192
REMARK 921   NORMALIZED FREE ENERGY PREDICTED BY IDOCK:   -1.97 KCAL/MOL
REMARK 922        TOTAL FREE ENERGY PREDICTED BY IDOCK:   -2.52 KCAL/MOL
REMARK 923 INTER-LIGAND FREE ENERGY PREDICTED BY IDOCK:   -2.47 KCAL/MOL
REMARK 924 INTRA-LIGAND FREE ENERGY PREDICTED BY IDOCK:   -0.04 KCAL/MOL
REMARK 927      BINDING AFFINITY PREDICTED BY RF-SCORE:    0.00 PKD
ROOT
HETATM    1  C   UNL     1      -6.495   8.870  68.438  1.00  0.00    -0.055 C  
HETATM    2  N   UNL     1      -7.913   8.620  68.003  1.00  0.00    -0.106 N  
HETATM    3  C   UNL     1      -8.357   7.239  68.480  1.00  0.00    -0.125 C  
HETATM    4  O   UNL     1      -7.957   8.683  66.633  1.00  0.00    -0.095 OA 
HETATM    5  C   UNL     1      -8.791   9.697  68.584  1.00  0.00    -0.128 C  
ENDROOT
BRANCH   3   6
HETATM    6  C   UNL     1      -9.773   6.872  68.024  1.00  0.00    -0.138 C  
BRANCH   6   7
HETATM    7  C   UNL     1      -9.835   6.065  66.748  1.00  0.00    -0.198 C  
HETATM    8  C   UNL     1      -9.421   4.779  66.610  1.00  0.00    -0.161 C  
HETATM    9  C   UNL     1      -8.820   4.090  67.779  1.00  0.00    -0.134 A  
HETATM   10  C   UNL     1      -9.586   3.790  68.915  1.00  0.00    -0.183 A  
HETATM   11  C   UNL     1      -9.002   3.182  70.027  1.00  0.00    -0.170 A  
HETATM   12  C   UNL     1      -7.651   2.845  70.004  1.00  0.00    -0.043 A  
HETATM   13  C   UNL     1      -6.886   3.108  68.868  1.00  0.00    -0.044 A  
HETATM   14  C   UNL     1      -7.463   3.728  67.750  1.00  0.00    -0.067 A  
HETATM   15  C   UNL     1      -6.649   3.976  66.507  1.00  0.00    -0.045 C  
HETATM   16  C   UNL     1      -7.115   3.089  65.352  1.00  0.00    -0.061 C  
HETATM   17  C   UNL     1      -8.467   3.358  64.710  1.00  0.00    -0.097 A  
HETATM   18  C   UNL     1      -8.684   2.718  63.469  1.00  0.00    -0.085 A  
HETATM   19  C   UNL     1      -9.889   2.848  62.780  1.00  0.00    -0.093 A  
HETATM   20  C   UNL     1     -10.910   3.612  63.324  1.00  0.00    -0.168 A  
HETATM   21  C   UNL     1     -10.726   4.234  64.556  1.00  0.00    -0.100 A  
HETATM   22  C   UNL     1      -9.510   4.133  65.267  1.00  0.00    -0.173 A  
ENDBRANCH   6   7
ENDBRANCH   3   6
TORSDOF 2
ENDMDL
MODEL      193
REMARK 921   NORMALIZED FREE ENERGY PREDICTED BY IDOCK:   -1.89 KCAL/MOL
REMARK 922        TOTAL FREE ENERGY PREDICTED BY IDOCK:   -2.42 KCAL/MOL
REMARK 923 INTER-LIGAND FREE ENERGY PREDICTED BY IDOCK:   -2.19 KCAL/MOL
REMARK 924 INTRA-LIGAND FREE ENERGY PREDICTED BY IDOCK:   -0.24 KCAL/MOL
REMARK 927      BINDING AFFINITY PREDICTED BY RF-SCORE:    0.00 PKD
ROOT
HETATM    1  C   UNL     1     -11.956  13.690  68.653  1.00  0.00    -0.360 C  
HETATM    2  N   UNL     1     -11.912  12.198  68.846  1.00  0.00    -0.282 N  
HETATM    3  C   UNL     1     -10.556  11.799  69.422  1.00  0.00     0.081 C  
HETATM    4  O   UNL     1     -12.101  11.604  67.625  1.00  0.00    -0.615 OA 
HETATM    5  C   UNL     1     -13.029  11.802  69.776  1.00  0.00     0.799 C  
ENDROOT
BRANCH   3   6
HETATM    6  C   UNL     1     -10.399  10.284  69.592  1.00  0.00    -0.281 C  
BRANCH   6   7
HETATM    7  C   UNL     1      -9.656   9.597  68.469  1.00  0.00    -0.152 C  
HETATM    8  C   UNL     1      -8.654   8.695  68.625  1.00  0.00    -0.131 C  
HETATM    9  C   UNL     1      -8.200   8.357  69.997  1.00  0.00    -0.121 A  
HETATM   10  C   UNL     1      -9.039   7.677  70.891  1.00  0.00    -0.149 A  
HETATM   11  C   UNL     1      -8.620   7.403  72.192  1.00  0.00    -0.129 A  
HETATM   12  C   UNL     1      -7.348   7.785  72.607  1.00  0.00    -0.101 A  
HETATM   13  C   UNL     1      -6.491   8.434  71.718  1.00  0.00    -0.064 A  
HETATM   14  C   UNL     1      -6.908   8.722  70.410  1.00  0.00    -0.045 A  
HETATM   15  C   UNL     1      -5.970   9.386  69.436  1.00  0.00    -0.034 C  
HETATM   16  C   UNL     1      -5.557   8.425  68.321  1.00  0.00    -0.034 C  
HETATM   17  C   UNL     1      -6.588   8.005  67.284  1.00  0.00    -0.058 A  
HETATM   18  C   UNL     1      -6.064   7.386  66.127  1.00  0.00    -0.037 A  
HETATM   19  C   UNL     1      -6.892   6.921  65.108  1.00  0.00    -0.051 A  
HETATM   20  C   UNL     1      -8.267   7.055  65.228  1.00  0.00    -0.128 A  
HETATM   21  C   UNL     1      -8.807   7.643  66.369  1.00  0.00    -0.179 A  
HETATM   22  C   UNL     1      -7.990   8.138  67.409  1.00  0.00    -0.117 A  
ENDBRANCH   6   7
ENDBRANCH   3   6
TORSDOF 2
ENDMDL
MODEL      194
REMARK 921   NORMALIZED FREE ENERGY PREDICTED BY IDOCK:   -1.86 KCAL/MOL
REMARK 922        TOTAL FREE ENERGY PREDICTED BY IDOCK:   -2.39 KCAL/MOL
REMARK 923 INTER-LIGAND FREE ENERGY PREDICTED BY IDOCK:   -3.23 KCAL/MOL
REMARK 924 INTRA-LIGAND FREE ENERGY PREDICTED BY IDOCK:    0.84 KCAL/MOL
REMARK 927      BINDING AFFINITY PREDICTED BY RF-SCORE:    0.00 PKD
ROOT
HETATM    1  C   UNL     1     -12.970  10.099  70.540  1.00  0.00    -0.152 C  
HETATM    2  N   UNL     1     -11.609  10.428  69.991  1.00  0.00    -0.280 N  
HETATM    3  C   UNL     1     -11.374   9.639  68.705  1.00  0.00     0.144 C  
HETATM    4  O   UNL     1     -10.674  10.086  70.934  1.00  0.00    -0.300 OA 
HETATM    5  C   UNL     1     -11.541  11.910  69.731  1.00  0.00    -0.286 C  
ENDROOT
BRANCH   3   6
HETATM    6  C   UNL     1      -9.980   9.864  68.109  1.00  0.00    -0.175 C  
BRANCH   6   7
HETATM    7  C   UNL     1      -9.471  11.283  68.216  1.00  0.00    -0.190 C  
HETATM    8  C   UNL     1      -8.608  11.876  67.352  1.00  0.00    -0.164 C  
HETATM    9  C   UNL     1      -8.070  11.083  66.218  1.00  0.00    -0.159 A  
HETATM   10  C   UNL     1      -8.905  10.643  65.182  1.00  0.00    -0.207 A  
HETATM   11  C   UNL     1      -8.399   9.861  64.143  1.00  0.00    -0.168 A  
HETATM   12  C   UNL     1      -7.047   9.531  64.118  1.00  0.00    -0.112 A  
HETATM   13  C   UNL     1      -6.199   9.990  65.125  1.00  0.00    -0.109 A  
HETATM   14  C   UNL     1      -6.701  10.769  66.178  1.00  0.00    -0.126 A  
HETATM   15  C   UNL     1      -5.780  11.300  67.245  1.00  0.00    -0.069 C  
HETATM   16  C   UNL     1      -5.636  12.819  67.149  1.00  0.00     0.136 C  
HETATM   17  C   UNL     1      -6.821  13.699  67.514  1.00  0.00    -0.152 A  
HETATM   18  C   UNL     1      -6.522  15.067  67.706  1.00  0.00    -0.183 A  
HETATM   19  C   UNL     1      -7.513  15.997  68.013  1.00  0.00    -0.134 A  
HETATM   20  C   UNL     1      -8.831  15.582  68.122  1.00  0.00    -0.169 A  
HETATM   21  C   UNL     1      -9.153  14.243  67.917  1.00  0.00    -0.190 A  
HETATM   22  C   UNL     1      -8.166  13.277  67.622  1.00  0.00    -0.179 A  
ENDBRANCH   6   7
ENDBRANCH   3   6
TORSDOF 2
ENDMDL
MODEL      195
REMARK 921   NORMALIZED FREE ENERGY PREDICTED BY IDOCK:   -1.79 KCAL/MOL
REMARK 922        TOTAL FREE ENERGY PREDICTED BY IDOCK:   -2.31 KCAL/MOL
REMARK 923 INTER-LIGAND FREE ENERGY PREDICTED BY IDOCK:   -2.17 KCAL/MOL
REMARK 924 INTRA-LIGAND FREE ENERGY PREDICTED BY IDOCK:   -0.14 KCAL/MOL
REMARK 927      BINDING AFFINITY PREDICTED BY RF-SCORE:    0.00 PKD
ROOT
HETATM    1  C   UNL     1     -12.766  11.872  69.702  1.00  0.00     0.466 C  
HETATM    2  N   UNL     1     -11.352  12.134  69.260  1.00  0.00    -0.268 N  
HETATM    3  C   UNL     1     -11.314  12.297  67.742  1.00  0.00    -0.301 C  
HETATM    4  O   UNL     1     -10.580  11.067  69.641  1.00  0.00    -0.193 OA 
HETATM    5  C   UNL     1     -10.858  13.381  69.946  1.00  0.00     0.511 C  
ENDROOT
BRANCH   3   6
HETATM    6  C   UNL     1      -9.897  12.504  67.196  1.00  0.00    -0.210 C  
BRANCH   6   7
HETATM    7  C   UNL     1      -9.462  13.949  67.105  1.00  0.00    -0.246 C  
HETATM    8  C   UNL     1      -8.232  14.421  67.430  1.00  0.00    -0.215 C  
HETATM    9  C   UNL     1      -7.216  13.475  67.956  1.00  0.00    -0.125 A  
HETATM   10  C   UNL     1      -6.684  12.460  67.148  1.00  0.00    -0.084 A  
HETATM   11  C   UNL     1      -5.763  11.548  67.664  1.00  0.00    -0.054 A  
HETATM   12  C   UNL     1      -5.346  11.657  68.988  1.00  0.00    -0.046 A  
HETATM   13  C   UNL     1      -5.843  12.680  69.793  1.00  0.00    -0.121 A  
HETATM   14  C   UNL     1      -6.776  13.596  69.285  1.00  0.00    -0.094 A  
HETATM   15  C   UNL     1      -7.284  14.727  70.141  1.00  0.00     0.145 C  
HETATM   16  C   UNL     1      -6.769  16.077  69.639  1.00  0.00    -0.171 C  
HETATM   17  C   UNL     1      -7.296  16.628  68.323  1.00  0.00    -0.179 A  
HETATM   18  C   UNL     1      -7.025  17.994  68.088  1.00  0.00    -0.224 A  
HETATM   19  C   UNL     1      -7.419  18.626  66.910  1.00  0.00    -0.230 A  
HETATM   20  C   UNL     1      -8.085  17.902  65.934  1.00  0.00    -0.017 A  
HETATM   21  C   UNL     1      -8.345  16.548  66.135  1.00  0.00    -0.305 A  
HETATM   22  C   UNL     1      -7.972  15.888  67.325  1.00  0.00    -0.212 A  
ENDBRANCH   6   7
ENDBRANCH   3   6
TORSDOF 2
ENDMDL
MODEL      196
REMARK 921   NORMALIZED FREE ENERGY PREDICTED BY IDOCK:   -1.63 KCAL/MOL
REMARK 922        TOTAL FREE ENERGY PREDICTED BY IDOCK:   -2.13 KCAL/MOL
REMARK 923 INTER-LIGAND FREE ENERGY PREDICTED BY IDOCK:   -2.67 KCAL/MOL
REMARK 924 INTRA-LIGAND FREE ENERGY PREDICTED BY IDOCK:    0.54 KCAL/MOL
REMARK 927      BINDING AFFINITY PREDICTED BY RF-SCORE:    0.00 PKD
ROOT
HETATM    1  C   UNL     1      -9.335   5.561  72.248  1.00  0.00    -0.145 C  
HETATM    2  N   UNL     1      -9.386   5.683  70.749  1.00  0.00    -0.160 N  
HETATM    3  C   UNL     1      -8.731   4.459  70.115  1.00  0.00    -0.074 C  
HETATM    4  O   UNL     1      -8.710   6.821  70.390  1.00  0.00    -0.148 OA 
HETATM    5  C   UNL     1     -10.827   5.801  70.327  1.00  0.00    -0.303 C  
ENDROOT
BRANCH   3   6
HETATM    6  C   UNL     1      -8.681   4.530  68.585  1.00  0.00    -0.118 C  
BRANCH   6   7
HETATM    7  C   UNL     1      -8.236   5.864  68.030  1.00  0.00    -0.105 C  
HETATM    8  C   UNL     1      -8.411   6.280  66.750  1.00  0.00    -0.110 C  
HETATM    9  C   UNL     1      -9.055   5.361  65.778  1.00  0.00    -0.160 A  
HETATM   10  C   UNL     1     -10.402   4.995  65.910  1.00  0.00    -0.223 A  
HETATM   11  C   UNL     1     -10.986   4.096  65.018  1.00  0.00     0.027 A  
HETATM   12  C   UNL     1     -10.236   3.573  63.969  1.00  0.00    -0.223 A  
HETATM   13  C   UNL     1      -8.904   3.954  63.806  1.00  0.00    -0.112 A  
HETATM   14  C   UNL     1      -8.306   4.850  64.705  1.00  0.00    -0.134 A  
HETATM   15  C   UNL     1      -6.880   5.294  64.508  1.00  0.00    -0.048 C  
HETATM   16  C   UNL     1      -6.808   6.770  64.113  1.00  0.00    -0.050 C  
HETATM   17  C   UNL     1      -7.162   7.830  65.144  1.00  0.00    -0.065 A  
HETATM   18  C   UNL     1      -6.772   9.148  64.814  1.00  0.00    -0.078 A  
HETATM   19  C   UNL     1      -7.057  10.226  65.649  1.00  0.00    -0.137 A  
HETATM   20  C   UNL     1      -7.752  10.013  66.829  1.00  0.00    -0.103 A  
HETATM   21  C   UNL     1      -8.165   8.726  67.165  1.00  0.00    -0.104 A  
HETATM   22  C   UNL     1      -7.874   7.614  66.346  1.00  0.00    -0.094 A  
ENDBRANCH   6   7
ENDBRANCH   3   6
TORSDOF 2
ENDMDL
MODEL      197
REMARK 921   NORMALIZED FREE ENERGY PREDICTED BY IDOCK:   -1.61 KCAL/MOL
REMARK 922        TOTAL FREE ENERGY PREDICTED BY IDOCK:   -2.11 KCAL/MOL
REMARK 923 INTER-LIGAND FREE ENERGY PREDICTED BY IDOCK:   -4.37 KCAL/MOL
REMARK 924 INTRA-LIGAND FREE ENERGY PREDICTED BY IDOCK:    2.26 KCAL/MOL
REMARK 927      BINDING AFFINITY PREDICTED BY RF-SCORE:    0.00 PKD
ROOT
HETATM    1  C   UNL     1      -5.936   9.008  67.432  1.00  0.00    -0.050 C  
HETATM    2  N   UNL     1      -7.147   9.403  66.631  1.00  0.00    -0.085 N  
HETATM    3  C   UNL     1      -8.408   9.147  67.452  1.00  0.00    -0.115 C  
HETATM    4  O   UNL     1      -7.166   8.648  65.486  1.00  0.00    -0.081 OA 
HETATM    5  C   UNL     1      -7.028  10.860  66.269  1.00  0.00    -0.120 C  
ENDROOT
BRANCH   3   6
HETATM    6  C   UNL     1      -9.697   9.462  66.686  1.00  0.00    -0.280 C  
BRANCH   6   7
HETATM    7  C   UNL     1     -10.269  10.835  66.953  1.00  0.00    -0.274 C  
HETATM    8  C   UNL     1     -10.373  11.420  68.173  1.00  0.00    -0.206 C  
HETATM    9  C   UNL     1      -9.933  10.663  69.372  1.00  0.00    -0.183 A  
HETATM   10  C   UNL     1      -8.582  10.341  69.569  1.00  0.00    -0.153 A  
HETATM   11  C   UNL     1      -8.184   9.591  70.676  1.00  0.00    -0.155 A  
HETATM   12  C   UNL     1      -9.129   9.175  71.609  1.00  0.00    -0.044 A  
HETATM   13  C   UNL     1     -10.470   9.515  71.441  1.00  0.00    -0.258 A  
HETATM   14  C   UNL     1     -10.882  10.261  70.327  1.00  0.00    -0.349 A  
HETATM   15  C   UNL     1     -12.323  10.665  70.165  1.00  0.00    -0.370 C  
HETATM   16  C   UNL     1     -12.500  12.175  70.334  1.00  0.00    -0.224 C  
HETATM   17  C   UNL     1     -11.955  13.108  69.264  1.00  0.00    -0.344 A  
HETATM   18  C   UNL     1     -12.426  14.439  69.326  1.00  0.00    -0.063 A  
HETATM   19  C   UNL     1     -11.990  15.412  68.431  1.00  0.00    -0.156 A  
HETATM   20  C   UNL     1     -11.060  15.080  67.458  1.00  0.00    -0.317 A  
HETATM   21  C   UNL     1     -10.565  13.779  67.390  1.00  0.00    -0.260 A  
HETATM   22  C   UNL     1     -11.004  12.770  68.274  1.00  0.00    -0.278 A  
ENDBRANCH   6   7
ENDBRANCH   3   6
TORSDOF 2
ENDMDL
MODEL      198
REMARK 921   NORMALIZED FREE ENERGY PREDICTED BY IDOCK:   -1.58 KCAL/MOL
REMARK 922        TOTAL FREE ENERGY PREDICTED BY IDOCK:   -2.08 KCAL/MOL
REMARK 923 INTER-LIGAND FREE ENERGY PREDICTED BY IDOCK:   -1.97 KCAL/MOL
REMARK 924 INTRA-LIGAND FREE ENERGY PREDICTED BY IDOCK:   -0.11 KCAL/MOL
REMARK 927      BINDING AFFINITY PREDICTED BY RF-SCORE:    0.00 PKD
ROOT
HETATM    1  C   UNL     1      -6.735   5.744  68.020  1.00  0.00    -0.054 C  
HETATM    2  N   UNL     1      -6.581   6.647  69.214  1.00  0.00    -0.046 N  
HETATM    3  C   UNL     1      -7.773   7.597  69.291  1.00  0.00    -0.104 C  
HETATM    4  O   UNL     1      -5.418   7.357  69.065  1.00  0.00    -0.018 OA 
HETATM    5  C   UNL     1      -6.493   5.793  70.452  1.00  0.00    -0.036 C  
ENDROOT
BRANCH   3   6
HETATM    6  C   UNL     1      -7.668   8.600  70.445  1.00  0.00    -0.081 C  
BRANCH   6   7
HETATM    7  C   UNL     1      -7.012   9.912  70.081  1.00  0.00    -0.138 C  
HETATM    8  C   UNL     1      -7.585  10.901  69.349  1.00  0.00    -0.097 C  
HETATM    9  C   UNL     1      -8.955  10.697  68.815  1.00  0.00    -0.172 A  
HETATM   10  C   UNL     1     -10.060  10.603  69.673  1.00  0.00    -0.120 A  
HETATM   11  C   UNL     1     -11.337  10.366  69.164  1.00  0.00    -0.286 A  
HETATM   12  C   UNL     1     -11.526  10.246  67.790  1.00  0.00     0.044 A  
HETATM   13  C   UNL     1     -10.440  10.369  66.924  1.00  0.00    -0.300 A  
HETATM   14  C   UNL     1      -9.151  10.598  67.427  1.00  0.00    -0.146 A  
HETATM   15  C   UNL     1      -7.983  10.773  66.492  1.00  0.00    -0.144 C  
HETATM   16  C   UNL     1      -7.464  12.211  66.516  1.00  0.00     0.307 C  
HETATM   17  C   UNL     1      -6.747  12.719  67.757  1.00  0.00    -0.134 A  
HETATM   18  C   UNL     1      -6.029  13.924  67.589  1.00  0.00    -0.059 A  
HETATM   19  C   UNL     1      -5.350  14.525  68.647  1.00  0.00    -0.095 A  
HETATM   20  C   UNL     1      -5.384  13.939  69.903  1.00  0.00    -0.097 A  
HETATM   21  C   UNL     1      -6.103  12.762  70.097  1.00  0.00    -0.090 A  
HETATM   22  C   UNL     1      -6.786  12.124  69.039  1.00  0.00    -0.103 A  
ENDBRANCH   6   7
ENDBRANCH   3   6
TORSDOF 2
ENDMDL
MODEL      199
REMARK 921   NORMALIZED FREE ENERGY PREDICTED BY IDOCK:   -1.22 KCAL/MOL
REMARK 922        TOTAL FREE ENERGY PREDICTED BY IDOCK:   -1.68 KCAL/MOL
REMARK 923 INTER-LIGAND FREE ENERGY PREDICTED BY IDOCK:   -1.78 KCAL/MOL
REMARK 924 INTRA-LIGAND FREE ENERGY PREDICTED BY IDOCK:    0.10 KCAL/MOL
REMARK 927      BINDING AFFINITY PREDICTED BY RF-SCORE:    0.00 PKD
ROOT
HETATM    1  C   UNL     1      -8.480   8.096  65.872  1.00  0.00    -0.142 C  
HETATM    2  N   UNL     1      -7.843   7.585  67.135  1.00  0.00    -0.115 N  
HETATM    3  C   UNL     1      -8.680   8.013  68.338  1.00  0.00    -0.130 C  
HETATM    4  O   UNL     1      -6.582   8.118  67.222  1.00  0.00    -0.056 OA 
HETATM    5  C   UNL     1      -7.749   6.084  67.051  1.00  0.00    -0.101 C  
ENDROOT
BRANCH   3   6
HETATM    6  C   UNL     1      -8.067   7.589  69.677  1.00  0.00    -0.127 C  
BRANCH   6   7
HETATM    7  C   UNL     1      -8.345   6.156  70.071  1.00  0.00    -0.125 C  
HETATM    8  C   UNL     1      -8.470   5.702  71.344  1.00  0.00    -0.128 C  
HETATM    9  C   UNL     1      -8.290   6.655  72.467  1.00  0.00    -0.113 A  
HETATM   10  C   UNL     1      -9.199   7.701  72.683  1.00  0.00    -0.217 A  
HETATM   11  C   UNL     1      -8.998   8.618  73.714  1.00  0.00     0.512 A  
HETATM   12  C   UNL     1      -7.897   8.485  74.556  1.00  0.00    -0.177 A  
HETATM   13  C   UNL     1      -7.003   7.430  74.373  1.00  0.00    -0.109 A  
HETATM   14  C   UNL     1      -7.193   6.509  73.333  1.00  0.00    -0.081 A  
HETATM   15  C   UNL     1      -6.252   5.346  73.158  1.00  0.00    -0.055 C  
HETATM   16  C   UNL     1      -6.940   4.020  73.486  1.00  0.00    -0.059 C  
HETATM   17  C   UNL     1      -8.016   3.493  72.550  1.00  0.00    -0.069 A  
HETATM   18  C   UNL     1      -8.372   2.139  72.741  1.00  0.00    -0.058 A  
HETATM   19  C   UNL     1      -9.365   1.528  71.977  1.00  0.00    -0.139 A  
HETATM   20  C   UNL     1     -10.035   2.264  71.012  1.00  0.00     0.068 A  
HETATM   21  C   UNL     1      -9.716   3.606  70.821  1.00  0.00    -0.222 A  
HETATM   22  C   UNL     1      -8.703   4.244  71.569  1.00  0.00    -0.138 A  
ENDBRANCH   6   7
ENDBRANCH   3   6
TORSDOF 2
ENDMDL
MODEL      200
REMARK 921   NORMALIZED FREE ENERGY PREDICTED BY IDOCK:   -1.18 KCAL/MOL
REMARK 922        TOTAL FREE ENERGY PREDICTED BY IDOCK:   -1.63 KCAL/MOL
REMARK 923 INTER-LIGAND FREE ENERGY PREDICTED BY IDOCK:   -2.74 KCAL/MOL
REMARK 924 INTRA-LIGAND FREE ENERGY PREDICTED BY IDOCK:    1.11 KCAL/MOL
REMARK 927      BINDING AFFINITY PREDICTED BY RF-SCORE:    0.00 PKD
ROOT
HETATM    1  C   UNL     1      -7.677   2.260  68.351  1.00  0.00    -0.054 C  
HETATM    2  N   UNL     1      -7.392   2.959  67.050  1.00  0.00    -0.061 N  
HETATM    3  C   UNL     1      -6.904   4.379  67.331  1.00  0.00    -0.055 C  
HETATM    4  O   UNL     1      -8.553   2.993  66.320  1.00  0.00    -0.109 OA 
HETATM    5  C   UNL     1      -6.350   2.171  66.300  1.00  0.00    -0.024 C  
ENDROOT
BRANCH   3   6
HETATM    6  C   UNL     1      -6.650   5.189  66.055  1.00  0.00    -0.048 C  
BRANCH   6   7
HETATM    7  C   UNL     1      -7.543   6.397  65.887  1.00  0.00    -0.084 C  
HETATM    8  C   UNL     1      -7.938   7.227  66.886  1.00  0.00    -0.112 C  
HETATM    9  C   UNL     1      -7.505   6.934  68.275  1.00  0.00    -0.099 A  
HETATM   10  C   UNL     1      -6.156   7.022  68.648  1.00  0.00    -0.027 A  
HETATM   11  C   UNL     1      -5.754   6.702  69.944  1.00  0.00    -0.018 A  
HETATM   12  C   UNL     1      -6.700   6.314  70.889  1.00  0.00    -0.058 A  
HETATM   13  C   UNL     1      -8.049   6.254  70.541  1.00  0.00    -0.113 A  
HETATM   14  C   UNL     1      -8.461   6.565  69.237  1.00  0.00    -0.127 A  
HETATM   15  C   UNL     1      -9.921   6.540  68.868  1.00  0.00    -0.165 C  
HETATM   16  C   UNL     1     -10.450   7.949  68.597  1.00  0.00    -0.196 C  
HETATM   17  C   UNL     1      -9.987   8.686  67.350  1.00  0.00    -0.270 A  
HETATM   18  C   UNL     1     -10.746   9.827  67.005  1.00  0.00    -0.236 A  
HETATM   19  C   UNL     1     -10.419  10.618  65.906  1.00  0.00    -0.243 A  
HETATM   20  C   UNL     1      -9.316  10.293  65.132  1.00  0.00    -0.279 A  
HETATM   21  C   UNL     1      -8.541   9.184  65.464  1.00  0.00    -0.192 A  
HETATM   22  C   UNL     1      -8.859   8.356  66.562  1.00  0.00    -0.172 A  
ENDBRANCH   6   7
ENDBRANCH   3   6
TORSDOF 2
ENDMDL
MODEL      201
REMARK 921   NORMALIZED FREE ENERGY PREDICTED BY IDOCK:   -0.85 KCAL/MOL
REMARK 922        TOTAL FREE ENERGY PREDICTED BY IDOCK:   -1.26 KCAL/MOL
REMARK 923 INTER-LIGAND FREE ENERGY PREDICTED BY IDOCK:   -1.00 KCAL/MOL
REMARK 924 INTRA-LIGAND FREE ENERGY PREDICTED BY IDOCK:   -0.25 KCAL/MOL
REMARK 927      BINDING AFFINITY PREDICTED BY RF-SCORE:    0.00 PKD
ROOT
HETATM    1  C   UNL     1     -12.325  14.899  68.040  1.00  0.00     0.246 C  
HETATM    2  N   UNL     1     -12.092  13.915  66.926  1.00  0.00    -0.436 N  
HETATM    3  C   UNL     1     -11.843  12.528  67.515  1.00  0.00    -0.323 C  
HETATM    4  O   UNL     1     -10.997  14.330  66.212  1.00  0.00    -0.308 OA 
HETATM    5  C   UNL     1     -13.303  13.909  66.031  1.00  0.00     0.937 C  
ENDROOT
BRANCH   3   6
HETATM    6  C   UNL     1     -11.531  11.471  66.450  1.00  0.00    -0.150 C  
BRANCH   6   7
HETATM    7  C   UNL     1     -10.058  11.236  66.208  1.00  0.00    -0.271 C  
HETATM    8  C   UNL     1      -9.275  10.372  66.903  1.00  0.00    -0.170 C  
HETATM    9  C   UNL     1      -9.874   9.603  68.023  1.00  0.00    -0.175 A  
HETATM   10  C   UNL     1     -10.855   8.629  67.791  1.00  0.00    -0.075 A  
HETATM   11  C   UNL     1     -11.444   7.944  68.854  1.00  0.00     0.809 A  
HETATM   12  C   UNL     1     -11.039   8.209  70.159  1.00  0.00    -0.187 A  
HETATM   13  C   UNL     1     -10.041   9.152  70.402  1.00  0.00    -0.264 A  
HETATM   14  C   UNL     1      -9.450   9.852  69.339  1.00  0.00    -0.226 A  
HETATM   15  C   UNL     1      -8.344  10.842  69.595  1.00  0.00     0.182 C  
HETATM   16  C   UNL     1      -7.008  10.333  69.051  1.00  0.00    -0.064 C  
HETATM   17  C   UNL     1      -6.803  10.255  67.547  1.00  0.00    -0.072 A  
HETATM   18  C   UNL     1      -5.464  10.085  67.127  1.00  0.00    -0.042 A  
HETATM   19  C   UNL     1      -5.129   9.966  65.780  1.00  0.00    -0.040 A  
HETATM   20  C   UNL     1      -6.128  10.000  64.820  1.00  0.00    -0.114 A  
HETATM   21  C   UNL     1      -7.457  10.145  65.211  1.00  0.00    -0.145 A  
HETATM   22  C   UNL     1      -7.822  10.286  66.568  1.00  0.00    -0.116 A  
ENDBRANCH   6   7
ENDBRANCH   3   6
TORSDOF 2
ENDMDL
MODEL      202
REMARK 921   NORMALIZED FREE ENERGY PREDICTED BY IDOCK:   -0.66 KCAL/MOL
REMARK 922        TOTAL FREE ENERGY PREDICTED BY IDOCK:   -1.05 KCAL/MOL
REMARK 923 INTER-LIGAND FREE ENERGY PREDICTED BY IDOCK:   -2.04 KCAL/MOL
REMARK 924 INTRA-LIGAND FREE ENERGY PREDICTED BY IDOCK:    0.99 KCAL/MOL
REMARK 927      BINDING AFFINITY PREDICTED BY RF-SCORE:    0.00 PKD
ROOT
HETATM    1  C   UNL     1     -10.514  12.307  64.481  1.00  0.00    -0.309 C  
HETATM    2  N   UNL     1      -9.761  11.440  65.452  1.00  0.00    -0.224 N  
HETATM    3  C   UNL     1     -10.499  10.115  65.630  1.00  0.00    -0.033 C  
HETATM    4  O   UNL     1      -9.686  12.105  66.649  1.00  0.00    -0.208 OA 
HETATM    5  C   UNL     1      -8.372  11.213  64.916  1.00  0.00     0.288 C  
ENDROOT
BRANCH   3   6
HETATM    6  C   UNL     1      -9.834   9.191  66.657  1.00  0.00    -0.307 C  
BRANCH   6   7
HETATM    7  C   UNL     1      -8.879   9.883  67.602  1.00  0.00    -0.126 C  
HETATM    8  C   UNL     1      -7.959   9.263  68.384  1.00  0.00    -0.102 C  
HETATM    9  C   UNL     1      -7.880   7.781  68.361  1.00  0.00    -0.121 A  
HETATM   10  C   UNL     1      -7.461   7.096  67.211  1.00  0.00    -0.099 A  
HETATM   11  C   UNL     1      -7.432   5.701  67.185  1.00  0.00    -0.084 A  
HETATM   12  C   UNL     1      -7.800   4.978  68.316  1.00  0.00    -0.086 A  
HETATM   13  C   UNL     1      -8.188   5.647  69.476  1.00  0.00    -0.103 A  
HETATM   14  C   UNL     1      -8.228   7.049  69.508  1.00  0.00    -0.132 A  
HETATM   15  C   UNL     1      -8.607   7.775  70.772  1.00  0.00    -0.133 C  
HETATM   16  C   UNL     1      -7.409   8.517  71.367  1.00  0.00    -0.104 C  
HETATM   17  C   UNL     1      -6.861   9.737  70.644  1.00  0.00    -0.108 A  
HETATM   18  C   UNL     1      -5.979  10.542  71.401  1.00  0.00     0.284 A  
HETATM   19  C   UNL     1      -5.375  11.674  70.859  1.00  0.00    -0.127 A  
HETATM   20  C   UNL     1      -5.629  12.021  69.541  1.00  0.00    -0.078 A  
HETATM   21  C   UNL     1      -6.478  11.231  68.770  1.00  0.00    -0.058 A  
HETATM   22  C   UNL     1      -7.116  10.089  69.299  1.00  0.00    -0.074 A  
ENDBRANCH   6   7
ENDBRANCH   3   6
TORSDOF 2
ENDMDL
MODEL      203
REMARK 921   NORMALIZED FREE ENERGY PREDICTED BY IDOCK:   -0.47 KCAL/MOL
REMARK 922        TOTAL FREE ENERGY PREDICTED BY IDOCK:   -0.83 KCAL/MOL
REMARK 923 INTER-LIGAND FREE ENERGY PREDICTED BY IDOCK:   -1.25 KCAL/MOL
REMARK 924 INTRA-LIGAND FREE ENERGY PREDICTED BY IDOCK:    0.42 KCAL/MOL
REMARK 927      BINDING AFFINITY PREDICTED BY RF-SCORE:    0.00 PKD
ROOT
HETATM    1  C   UNL     1     -11.527  15.337  64.766  1.00  0.00    -0.363 C  
HETATM    2  N   UNL     1     -11.893  14.568  66.006  1.00  0.00    -0.362 N  
HETATM    3  C   UNL     1     -10.625  14.219  66.782  1.00  0.00    -0.278 C  
HETATM    4  O   UNL     1     -12.543  13.423  65.622  1.00  0.00    -0.466 OA 
HETATM    5  C   UNL     1     -12.818  15.415  66.840  1.00  0.00     2.306 C  
ENDROOT
BRANCH   3   6
HETATM    6  C   UNL     1     -10.900  13.376  68.033  1.00  0.00    -0.264 C  
BRANCH   6   7
HETATM    7  C   UNL     1      -9.661  12.900  68.756  1.00  0.00     0.058 C  
HETATM    8  C   UNL     1      -8.815  11.935  68.314  1.00  0.00    -0.174 C  
HETATM    9  C   UNL     1      -9.119  11.244  67.036  1.00  0.00    -0.167 A  
HETATM   10  C   UNL     1      -9.079  11.930  65.814  1.00  0.00    -0.041 A  
HETATM   11  C   UNL     1      -9.410  11.284  64.623  1.00  0.00    -0.156 A  
HETATM   12  C   UNL     1      -9.761   9.937  64.639  1.00  0.00    -0.265 A  
HETATM   13  C   UNL     1      -9.775   9.234  65.844  1.00  0.00    -0.355 A  
HETATM   14  C   UNL     1      -9.452   9.879  67.047  1.00  0.00    -0.196 A  
HETATM   15  C   UNL     1      -9.426   9.113  68.344  1.00  0.00    -0.150 C  
HETATM   16  C   UNL     1      -7.999   8.973  68.877  1.00  0.00    -0.100 C  
HETATM   17  C   UNL     1      -7.283  10.204  69.408  1.00  0.00    -0.096 A  
HETATM   18  C   UNL     1      -6.116   9.946  70.162  1.00  0.00    -0.063 A  
HETATM   19  C   UNL     1      -5.340  10.978  70.685  1.00  0.00    -0.114 A  
HETATM   20  C   UNL     1      -5.706  12.294  70.455  1.00  0.00    -0.169 A  
HETATM   21  C   UNL     1      -6.841  12.574  69.697  1.00  0.00     0.164 A  
HETATM   22  C   UNL     1      -7.654  11.547  69.170  1.00  0.00    -0.003 A  
ENDBRANCH   6   7
ENDBRANCH   3   6
TORSDOF 2
ENDMDL
MODEL      204
REMARK 921   NORMALIZED FREE ENERGY PREDICTED BY IDOCK:    2.72 KCAL/MOL
REMARK 922        TOTAL FREE ENERGY PREDICTED BY IDOCK:    2.72 KCAL/MOL
REMARK 923 INTER-LIGAND FREE ENERGY PREDICTED BY IDOCK:   -1.65 KCAL/MOL
REMARK 924 INTRA-LIGAND FREE ENERGY PREDICTED BY IDOCK:    4.38 KCAL/MOL
REMARK 927      BINDING AFFINITY PREDICTED BY RF-SCORE:    0.00 PKD
ROOT
HETATM    1  C   UNL     1      -5.564  12.902  66.889  1.00  0.00     0.722 C  
HETATM    2  N   UNL     1      -6.148  12.746  68.267  1.00  0.00    -0.067 N  
HETATM    3  C   UNL     1      -7.433  11.925  68.186  1.00  0.00    -0.100 C  
HETATM    4  O   UNL     1      -6.415  13.996  68.762  1.00  0.00    -0.083 OA 
HETATM    5  C   UNL     1      -5.130  12.065  69.145  1.00  0.00    -0.051 C  
ENDROOT
BRANCH   3   6
HETATM    6  C   UNL     1      -8.132  11.770  69.540  1.00  0.00     0.792 C  
BRANCH   6   7
HETATM    7  C   UNL     1      -8.747  10.410  69.780  1.00  0.00     0.027 C  
HETATM    8  C   UNL     1      -8.768   9.388  68.887  1.00  0.00    -0.132 C  
HETATM    9  C   UNL     1      -8.180   9.600  67.540  1.00  0.00    -0.114 A  
HETATM   10  C   UNL     1      -6.802   9.802  67.375  1.00  0.00    -0.083 A  
HETATM   11  C   UNL     1      -6.265  10.045  66.111  1.00  0.00    -0.076 A  
HETATM   12  C   UNL     1      -7.097  10.064  64.995  1.00  0.00    -0.136 A  
HETATM   13  C   UNL     1      -8.464   9.832  65.142  1.00  0.00    -0.157 A  
HETATM   14  C   UNL     1      -9.014   9.597  66.410  1.00  0.00    -0.179 A  
HETATM   15  C   UNL     1     -10.484   9.306  66.566  1.00  0.00    -0.204 C  
HETATM   16  C   UNL     1     -10.721   7.856  66.991  1.00  0.00    -0.289 C  
HETATM   17  C   UNL     1     -10.327   7.421  68.393  1.00  0.00    -0.224 A  
HETATM   18  C   UNL     1     -10.858   6.181  68.813  1.00  0.00    -0.402 A  
HETATM   19  C   UNL     1     -10.556   5.641  70.061  1.00  0.00    -0.388 A  
HETATM   20  C   UNL     1      -9.705   6.325  70.915  1.00  0.00    -0.197 A  
HETATM   21  C   UNL     1      -9.152   7.539  70.514  1.00  0.00    -0.156 A  
HETATM   22  C   UNL     1      -9.455   8.116  69.262  1.00  0.00    -0.159 A  
ENDBRANCH   6   7
ENDBRANCH   3   6
TORSDOF 2
ENDMDL
MODEL      205
REMARK 921   NORMALIZED FREE ENERGY PREDICTED BY IDOCK:    4.48 KCAL/MOL
REMARK 922        TOTAL FREE ENERGY PREDICTED BY IDOCK:    4.69 KCAL/MOL
REMARK 923 INTER-LIGAND FREE ENERGY PREDICTED BY IDOCK:    1.59 KCAL/MOL
REMARK 924 INTRA-LIGAND FREE ENERGY PREDICTED BY IDOCK:    3.10 KCAL/MOL
REMARK 927      BINDING AFFINITY PREDICTED BY RF-SCORE:    0.00 PKD
ROOT
HETATM    1  C   UNL     1      -6.102  13.269  67.317  1.00  0.00     0.211 C  
HETATM    2  N   UNL     1      -6.314  13.938  68.648  1.00  0.00    -0.084 N  
HETATM    3  C   UNL     1      -7.606  14.750  68.611  1.00  0.00    -0.126 C  
HETATM    4  O   UNL     1      -5.243  14.762  68.886  1.00  0.00    -0.086 OA 
HETATM    5  C   UNL     1      -6.376  12.876  69.714  1.00  0.00    -0.063 C  
ENDROOT
BRANCH   3   6
HETATM    6  C   UNL     1      -7.868  15.521  69.909  1.00  0.00     0.112 C  
BRANCH   6   7
HETATM    7  C   UNL     1      -9.253  15.333  70.484  1.00  0.00     1.117 C  
HETATM    8  C   UNL     1     -10.371  15.050  69.767  1.00  0.00    -0.172 C  
HETATM    9  C   UNL     1     -10.268  14.944  68.290  1.00  0.00    -0.225 A  
HETATM   10  C   UNL     1      -9.540  13.908  67.688  1.00  0.00    -0.215 A  
HETATM   11  C   UNL     1      -9.412  13.842  66.300  1.00  0.00    -0.235 A  
HETATM   12  C   UNL     1     -10.031  14.798  65.500  1.00  0.00    -0.390 A  
HETATM   13  C   UNL     1     -10.785  15.815  66.085  1.00  0.00    -0.293 A  
HETATM   14  C   UNL     1     -10.911  15.894  67.480  1.00  0.00    -0.305 A  
HETATM   15  C   UNL     1     -11.758  16.967  68.113  1.00  0.00     0.609 C  
HETATM   16  C   UNL     1     -13.013  16.376  68.757  1.00  0.00     2.887 C  
HETATM   17  C   UNL     1     -12.871  15.528  70.011  1.00  0.00    -0.047 A  
HETATM   18  C   UNL     1     -14.072  15.289  70.717  1.00  0.00    -0.012 A  
HETATM   19  C   UNL     1     -14.100  14.503  71.867  1.00  0.00    -0.595 A  
HETATM   20  C   UNL     1     -12.928  13.926  72.331  1.00  0.00    -0.457 A  
HETATM   21  C   UNL     1     -11.736  14.131  71.640  1.00  0.00     0.303 A  
HETATM   22  C   UNL     1     -11.677  14.937  70.483  1.00  0.00    -0.344 A  
ENDBRANCH   6   7
ENDBRANCH   3   6
TORSDOF 2
ENDMDL
MODEL      206
REMARK 921   NORMALIZED FREE ENERGY PREDICTED BY IDOCK:    6.68 KCAL/MOL
REMARK 922        TOTAL FREE ENERGY PREDICTED BY IDOCK:    7.15 KCAL/MOL
REMARK 923 INTER-LIGAND FREE ENERGY PREDICTED BY IDOCK:    7.38 KCAL/MOL
REMARK 924 INTRA-LIGAND FREE ENERGY PREDICTED BY IDOCK:   -0.23 KCAL/MOL
REMARK 927      BINDING AFFINITY PREDICTED BY RF-SCORE:    0.00 PKD
ROOT
HETATM    1  C   UNL     1     -12.375  11.693  65.596  1.00  0.00     1.295 C  
HETATM    2  N   UNL     1     -10.940  11.829  65.167  1.00  0.00    -0.302 N  
HETATM    3  C   UNL     1     -10.040  11.092  66.155  1.00  0.00    -0.237 C  
HETATM    4  O   UNL     1     -10.626  13.164  65.144  1.00  0.00    -0.297 OA 
HETATM    5  C   UNL     1     -10.798  11.257  63.780  1.00  0.00    -0.350 C  
ENDROOT
BRANCH   3   6
HETATM    6  C   UNL     1      -8.549  11.233  65.830  1.00  0.00    -0.067 C  
BRANCH   6   7
HETATM    7  C   UNL     1      -7.866  12.404  66.498  1.00  0.00     0.328 C  
HETATM    8  C   UNL     1      -7.211  12.359  67.685  1.00  0.00    -0.130 C  
HETATM    9  C   UNL     1      -7.172  11.079  68.436  1.00  0.00    -0.085 A  
HETATM   10  C   UNL     1      -6.477   9.968  67.937  1.00  0.00    -0.059 A  
HETATM   11  C   UNL     1      -6.484   8.756  68.627  1.00  0.00    -0.054 A  
HETATM   12  C   UNL     1      -7.165   8.649  69.836  1.00  0.00    -0.051 A  
HETATM   13  C   UNL     1      -7.833   9.756  70.360  1.00  0.00    -0.144 A  
HETATM   14  C   UNL     1      -7.840  10.976  69.668  1.00  0.00     0.201 A  
HETATM   15  C   UNL     1      -8.525  12.184  70.250  1.00  0.00     4.371 C  
HETATM   16  C   UNL     1      -7.512  13.252  70.664  1.00  0.00     3.202 C  
HETATM   17  C   UNL     1      -6.752  14.009  69.586  1.00  0.00    -0.064 A  
HETATM   18  C   UNL     1      -6.086  15.176  70.023  1.00  0.00    -0.148 A  
HETATM   19  C   UNL     1      -5.324  15.952  69.152  1.00  0.00    -0.109 A  
HETATM   20  C   UNL     1      -5.201  15.572  67.825  1.00  0.00    -0.111 A  
HETATM   21  C   UNL     1      -5.832  14.414  67.376  1.00  0.00     0.297 A  
HETATM   22  C   UNL     1      -6.624  13.619  68.233  1.00  0.00    -0.108 A  
ENDBRANCH   6   7
ENDBRANCH   3   6
TORSDOF 2
ENDMDL
MODEL      207
REMARK 921   NORMALIZED FREE ENERGY PREDICTED BY IDOCK:    7.63 KCAL/MOL
REMARK 922        TOTAL FREE ENERGY PREDICTED BY IDOCK:    8.21 KCAL/MOL
REMARK 923 INTER-LIGAND FREE ENERGY PREDICTED BY IDOCK:    7.31 KCAL/MOL
REMARK 924 INTRA-LIGAND FREE ENERGY PREDICTED BY IDOCK:    0.90 KCAL/MOL
REMARK 927      BINDING AFFINITY PREDICTED BY RF-SCORE:    0.00 PKD
ROOT
HETATM    1  C   UNL     1     -10.831  14.797  63.311  1.00  0.00     4.035 C  
HETATM    2  N   UNL     1     -11.062  14.934  64.791  1.00  0.00    -0.395 N  
HETATM    3  C   UNL     1     -12.304  14.140  65.189  1.00  0.00    -0.451 C  
HETATM    4  O   UNL     1     -11.240  16.264  65.074  1.00  0.00    -0.292 OA 
HETATM    5  C   UNL     1      -9.843  14.426  65.515  1.00  0.00    -0.266 C  
ENDROOT
BRANCH   3   6
HETATM    6  C   UNL     1     -12.652  14.276  66.675  1.00  0.00    -0.014 C  
BRANCH   6   7
HETATM    7  C   UNL     1     -12.088  15.508  67.344  1.00  0.00     0.559 C  
HETATM    8  C   UNL     1     -11.451  15.530  68.543  1.00  0.00    -0.369 C  
HETATM    9  C   UNL     1     -11.311  14.264  69.304  1.00  0.00    -0.322 A  
HETATM   10  C   UNL     1     -10.512  13.216  68.826  1.00  0.00    -0.187 A  
HETATM   11  C   UNL     1     -10.422  12.013  69.526  1.00  0.00     0.358 A  
HETATM   12  C   UNL     1     -11.111  11.854  70.725  1.00  0.00     1.794 A  
HETATM   13  C   UNL     1     -11.883  12.900  71.228  1.00  0.00     0.825 A  
HETATM   14  C   UNL     1     -11.987  14.110  70.526  1.00  0.00    -0.393 A  
HETATM   15  C   UNL     1     -12.788  15.255  71.088  1.00  0.00    -0.494 C  
HETATM   16  C   UNL     1     -11.881  16.413  71.509  1.00  0.00    -0.289 C  
HETATM   17  C   UNL     1     -11.174  17.227  70.437  1.00  0.00     1.165 A  
HETATM   18  C   UNL     1     -10.621  18.452  70.874  1.00  0.00     2.504 A  
HETATM   19  C   UNL     1      -9.918  19.287  70.010  1.00  0.00     0.592 A  
HETATM   20  C   UNL     1      -9.739  18.910  68.688  1.00  0.00    -0.454 A  
HETATM   21  C   UNL     1     -10.256  17.698  68.239  1.00  0.00    -0.374 A  
HETATM   22  C   UNL     1     -10.988  16.841  69.089  1.00  0.00    -0.223 A  
ENDBRANCH   6   7
ENDBRANCH   3   6
TORSDOF 2
ENDMDL
MODEL      208
REMARK 921   NORMALIZED FREE ENERGY PREDICTED BY IDOCK:    8.34 KCAL/MOL
REMARK 922        TOTAL FREE ENERGY PREDICTED BY IDOCK:    9.01 KCAL/MOL
REMARK 923 INTER-LIGAND FREE ENERGY PREDICTED BY IDOCK:    8.68 KCAL/MOL
REMARK 924 INTRA-LIGAND FREE ENERGY PREDICTED BY IDOCK:    0.33 KCAL/MOL
REMARK 927      BINDING AFFINITY PREDICTED BY RF-SCORE:    0.00 PKD
ROOT
HETATM    1  C   UNL     1     -11.431  11.840  62.930  1.00  0.00     0.351 C  
HETATM    2  N   UNL     1     -11.104  10.702  63.858  1.00  0.00     0.597 N  
HETATM    3  C   UNL     1     -10.309  11.229  65.050  1.00  0.00    -0.301 C  
HETATM    4  O   UNL     1     -10.360   9.783  63.162  1.00  0.00     1.279 OA 
HETATM    5  C   UNL     1     -12.392  10.066  64.310  1.00  0.00     8.480 C  
ENDROOT
BRANCH   3   6
HETATM    6  C   UNL     1      -9.876  10.123  66.019  1.00  0.00    -0.308 C  
BRANCH   6   7
HETATM    7  C   UNL     1      -9.036   9.032  65.395  1.00  0.00    -0.250 C  
HETATM    8  C   UNL     1      -8.302   8.118  66.079  1.00  0.00    -0.132 C  
HETATM    9  C   UNL     1      -8.268   8.187  67.561  1.00  0.00    -0.123 A  
HETATM   10  C   UNL     1      -9.417   7.931  68.324  1.00  0.00    -0.149 A  
HETATM   11  C   UNL     1      -9.387   8.042  69.714  1.00  0.00    -0.159 A  
HETATM   12  C   UNL     1      -8.202   8.387  70.358  1.00  0.00    -0.115 A  
HETATM   13  C   UNL     1      -7.045   8.613  69.613  1.00  0.00    -0.055 A  
HETATM   14  C   UNL     1      -7.068   8.513  68.214  1.00  0.00    -0.085 A  
HETATM   15  C   UNL     1      -5.811   8.717  67.411  1.00  0.00    -0.043 C  
HETATM   16  C   UNL     1      -5.340   7.408  66.774  1.00  0.00    -0.023 C  
HETATM   17  C   UNL     1      -6.153   6.801  65.642  1.00  0.00    -0.035 A  
HETATM   18  C   UNL     1      -5.500   5.788  64.905  1.00  0.00    -0.016 A  
HETATM   19  C   UNL     1      -6.134   5.120  63.859  1.00  0.00    -0.022 A  
HETATM   20  C   UNL     1      -7.442   5.443  63.533  1.00  0.00    -0.056 A  
HETATM   21  C   UNL     1      -8.113   6.424  64.259  1.00  0.00    -0.063 A  
HETATM   22  C   UNL     1      -7.489   7.128  65.312  1.00  0.00    -0.092 A  
ENDBRANCH   6   7
ENDBRANCH   3   6
TORSDOF 2
ENDMDL
MODEL      209
REMARK 921   NORMALIZED FREE ENERGY PREDICTED BY IDOCK:   11.52 KCAL/MOL
REMARK 922        TOTAL FREE ENERGY PREDICTED BY IDOCK:   12.55 KCAL/MOL
REMARK 923 INTER-LIGAND FREE ENERGY PREDICTED BY IDOCK:   11.52 KCAL/MOL
REMARK 924 INTRA-LIGAND FREE ENERGY PREDICTED BY IDOCK:    1.03 KCAL/MOL
REMARK 927      BINDING AFFINITY PREDICTED BY RF-SCORE:    0.00 PKD
ROOT
HETATM    1  C   UNL     1      -7.083  14.092  73.250  1.00  0.00     4.196 C  
HETATM    2  N   UNL     1      -7.144  14.178  71.749  1.00  0.00     2.476 N  
HETATM    3  C   UNL     1      -5.848  14.790  71.220  1.00  0.00     0.034 C  
HETATM    4  O   UNL     1      -8.213  14.968  71.409  1.00  0.00     2.584 OA 
HETATM    5  C   UNL     1      -7.348  12.792  71.197  1.00  0.00     5.562 C  
ENDROOT
BRANCH   3   6
HETATM    6  C   UNL     1      -5.849  14.975  69.699  1.00  0.00    -0.110 C  
BRANCH   6   7
HETATM    7  C   UNL     1      -6.830  14.096  68.958  1.00  0.00    -0.110 C  
HETATM    8  C   UNL     1      -7.512  14.449  67.839  1.00  0.00    -0.160 C  
HETATM    9  C   UNL     1      -7.332  15.816  67.290  1.00  0.00    -0.257 A  
HETATM   10  C   UNL     1      -6.105  16.224  66.749  1.00  0.00     0.185 A  
HETATM   11  C   UNL     1      -5.932  17.525  66.276  1.00  0.00    -0.249 A  
HETATM   12  C   UNL     1      -6.993  18.425  66.318  1.00  0.00    -0.278 A  
HETATM   13  C   UNL     1      -8.229  18.023  66.825  1.00  0.00    -0.272 A  
HETATM   14  C   UNL     1      -8.408  16.720  67.310  1.00  0.00    -0.197 A  
HETATM   15  C   UNL     1      -9.753  16.270  67.820  1.00  0.00    -0.233 C  
HETATM   16  C   UNL     1     -10.382  15.234  66.887  1.00  0.00    -0.278 C  
HETATM   17  C   UNL     1      -9.773  13.844  66.807  1.00  0.00    -0.282 A  
HETATM   18  C   UNL     1     -10.580  12.865  66.184  1.00  0.00    -0.287 A  
HETATM   19  C   UNL     1     -10.139  11.555  66.011  1.00  0.00    -0.270 A  
HETATM   20  C   UNL     1      -8.874  11.195  66.447  1.00  0.00    -0.182 A  
HETATM   21  C   UNL     1      -8.052  12.147  67.046  1.00  0.00    -0.154 A  
HETATM   22  C   UNL     1      -8.480  13.477  67.248  1.00  0.00    -0.200 A  
ENDBRANCH   6   7
ENDBRANCH   3   6
TORSDOF 2
ENDMDL
MODEL      210
REMARK 921   NORMALIZED FREE ENERGY PREDICTED BY IDOCK:   11.96 KCAL/MOL
REMARK 922        TOTAL FREE ENERGY PREDICTED BY IDOCK:   13.05 KCAL/MOL
REMARK 923 INTER-LIGAND FREE ENERGY PREDICTED BY IDOCK:   -0.71 KCAL/MOL
REMARK 924 INTRA-LIGAND FREE ENERGY PREDICTED BY IDOCK:   13.76 KCAL/MOL
REMARK 927      BINDING AFFINITY PREDICTED BY RF-SCORE:    0.00 PKD
ROOT
HETATM    1  C   UNL     1      -7.827  15.526  67.048  1.00  0.00    -0.225 C  
HETATM    2  N   UNL     1      -7.364  14.697  68.215  1.00  0.00    -0.108 N  
HETATM    3  C   UNL     1      -6.059  13.991  67.852  1.00  0.00    -0.148 C  
HETATM    4  O   UNL     1      -8.338  13.775  68.498  1.00  0.00    -0.155 OA 
HETATM    5  C   UNL     1      -7.172  15.605  69.401  1.00  0.00    -0.212 C  
ENDROOT
BRANCH   3   6
HETATM    6  C   UNL     1      -5.546  13.071  68.965  1.00  0.00    -0.070 C  
BRANCH   6   7
HETATM    7  C   UNL     1      -5.560  11.599  68.621  1.00  0.00    -0.045 C  
HETATM    8  C   UNL     1      -6.671  10.859  68.378  1.00  0.00    -0.059 C  
HETATM    9  C   UNL     1      -8.003  11.507  68.485  1.00  0.00    -0.143 A  
HETATM   10  C   UNL     1      -8.395  12.509  67.586  1.00  0.00    -0.172 A  
HETATM   11  C   UNL     1      -9.629  13.143  67.722  1.00  0.00    -0.208 A  
HETATM   12  C   UNL     1     -10.496  12.765  68.744  1.00  0.00    -0.179 A  
HETATM   13  C   UNL     1     -10.132  11.747  69.625  1.00  0.00     0.798 A  
HETATM   14  C   UNL     1      -8.888  11.111  69.502  1.00  0.00     0.482 A  
HETATM   15  C   UNL     1      -8.509   9.984  70.426  1.00  0.00     0.193 C  
HETATM   16  C   UNL     1      -8.454   8.649  69.682  1.00  0.00    -0.129 C  
HETATM   17  C   UNL     1      -7.339   8.408  68.677  1.00  0.00    -0.088 A  
HETATM   18  C   UNL     1      -7.168   7.064  68.275  1.00  0.00    -0.091 A  
HETATM   19  C   UNL     1      -6.207   6.697  67.335  1.00  0.00    -0.033 A  
HETATM   20  C   UNL     1      -5.400   7.671  66.766  1.00  0.00    -0.024 A  
HETATM   21  C   UNL     1      -5.564   9.005  67.132  1.00  0.00    -0.041 A  
HETATM   22  C   UNL     1      -6.519   9.401  68.093  1.00  0.00    -0.054 A  
ENDBRANCH   6   7
ENDBRANCH   3   6
TORSDOF 2
ENDMDL
MODEL      211
REMARK 921   NORMALIZED FREE ENERGY PREDICTED BY IDOCK:   12.18 KCAL/MOL
REMARK 922        TOTAL FREE ENERGY PREDICTED BY IDOCK:   13.29 KCAL/MOL
REMARK 923 INTER-LIGAND FREE ENERGY PREDICTED BY IDOCK:    3.21 KCAL/MOL
REMARK 924 INTRA-LIGAND FREE ENERGY PREDICTED BY IDOCK:   10.09 KCAL/MOL
REMARK 927      BINDING AFFINITY PREDICTED BY RF-SCORE:    0.00 PKD
ROOT
HETATM    1  C   UNL     1     -10.639  14.379  67.831  1.00  0.00    -0.240 C  
HETATM    2  N   UNL     1     -10.129  13.131  67.164  1.00  0.00    -0.239 N  
HETATM    3  C   UNL     1     -11.274  12.446  66.422  1.00  0.00    -0.319 C  
HETATM    4  O   UNL     1      -9.631  12.301  68.136  1.00  0.00    -0.203 OA 
HETATM    5  C   UNL     1      -9.024  13.511  66.214  1.00  0.00     0.136 C  
ENDROOT
BRANCH   3   6
HETATM    6  C   UNL     1     -10.858  11.126  65.764  1.00  0.00    -0.218 C  
BRANCH   6   7
HETATM    7  C   UNL     1      -9.552  10.555  66.268  1.00  0.00    -0.232 C  
HETATM    8  C   UNL     1      -9.325  10.108  67.530  1.00  0.00    -0.168 C  
HETATM    9  C   UNL     1     -10.414  10.206  68.533  1.00  0.00    -0.221 A  
HETATM   10  C   UNL     1     -11.587   9.447  68.406  1.00  0.00     0.754 A  
HETATM   11  C   UNL     1     -12.624   9.580  69.330  1.00  0.00     2.079 A  
HETATM   12  C   UNL     1     -12.489  10.455  70.404  1.00  0.00    -0.348 A  
HETATM   13  C   UNL     1     -11.315  11.192  70.560  1.00  0.00    -0.015 A  
HETATM   14  C   UNL     1     -10.271  11.072  69.631  1.00  0.00     0.070 A  
HETATM   15  C   UNL     1      -8.987  11.835  69.819  1.00  0.00     1.851 C  
HETATM   16  C   UNL     1      -7.827  10.897  70.155  1.00  0.00     0.904 C  
HETATM   17  C   UNL     1      -7.297   9.961  69.081  1.00  0.00    -0.083 A  
HETATM   18  C   UNL     1      -6.045   9.367  69.361  1.00  0.00    -0.037 A  
HETATM   19  C   UNL     1      -5.451   8.464  68.482  1.00  0.00    -0.033 A  
HETATM   20  C   UNL     1      -6.102   8.123  67.307  1.00  0.00    -0.054 A  
HETATM   21  C   UNL     1      -7.346   8.680  67.019  1.00  0.00    -0.080 A  
HETATM   22  C   UNL     1      -7.962   9.610  67.883  1.00  0.00    -0.098 A  
ENDBRANCH   6   7
ENDBRANCH   3   6
TORSDOF 2
ENDMDL
MODEL      212
REMARK 921   NORMALIZED FREE ENERGY PREDICTED BY IDOCK:   12.26 KCAL/MOL
REMARK 922        TOTAL FREE ENERGY PREDICTED BY IDOCK:   13.38 KCAL/MOL
REMARK 923 INTER-LIGAND FREE ENERGY PREDICTED BY IDOCK:   13.00 KCAL/MOL
REMARK 924 INTRA-LIGAND FREE ENERGY PREDICTED BY IDOCK:    0.37 KCAL/MOL
REMARK 927      BINDING AFFINITY PREDICTED BY RF-SCORE:    0.00 PKD
ROOT
HETATM    1  C   UNL     1      -7.083  14.092  73.250  1.00  0.00     4.196 C  
HETATM    2  N   UNL     1      -7.150  14.184  71.750  1.00  0.00     2.476 N  
HETATM    3  C   UNL     1      -5.861  14.807  71.218  1.00  0.00     0.034 C  
HETATM    4  O   UNL     1      -8.226  14.966  71.417  1.00  0.00     2.603 OA 
HETATM    5  C   UNL     1      -7.346  12.798  71.193  1.00  0.00     5.562 C  
ENDROOT
BRANCH   3   6
HETATM    6  C   UNL     1      -5.870  14.998  69.698  1.00  0.00    -0.110 C  
BRANCH   6   7
HETATM    7  C   UNL     1      -5.924  13.714  68.902  1.00  0.00    -0.085 C  
HETATM    8  C   UNL     1      -6.574  13.548  67.721  1.00  0.00    -0.175 C  
HETATM    9  C   UNL     1      -7.333  14.690  67.153  1.00  0.00     0.018 A  
HETATM   10  C   UNL     1      -6.677  15.845  66.704  1.00  0.00     0.463 A  
HETATM   11  C   UNL     1      -7.403  16.930  66.213  1.00  0.00    -0.248 A  
HETATM   12  C   UNL     1      -8.791  16.863  66.144  1.00  0.00    -0.279 A  
HETATM   13  C   UNL     1      -9.454  15.708  66.557  1.00  0.00    -0.300 A  
HETATM   14  C   UNL     1      -8.733  14.615  67.061  1.00  0.00    -0.258 A  
HETATM   15  C   UNL     1      -9.443  13.351  67.470  1.00  0.00    -0.219 C  
HETATM   16  C   UNL     1      -9.121  12.200  66.516  1.00  0.00    -0.199 C  
HETATM   17  C   UNL     1      -7.723  11.603  66.523  1.00  0.00    -0.003 A  
HETATM   18  C   UNL     1      -7.593  10.361  65.861  1.00  0.00    -0.146 A  
HETATM   19  C   UNL     1      -6.365   9.710  65.760  1.00  0.00    -0.075 A  
HETATM   20  C   UNL     1      -5.234  10.294  66.308  1.00  0.00    -0.052 A  
HETATM   21  C   UNL     1      -5.334  11.528  66.947  1.00  0.00    -0.118 A  
HETATM   22  C   UNL     1      -6.568  12.200  67.079  1.00  0.00    -0.081 A  
ENDBRANCH   6   7
ENDBRANCH   3   6
TORSDOF 2
ENDMDL
MODEL      213
REMARK 921   NORMALIZED FREE ENERGY PREDICTED BY IDOCK:   12.98 KCAL/MOL
REMARK 922        TOTAL FREE ENERGY PREDICTED BY IDOCK:   14.19 KCAL/MOL
REMARK 923 INTER-LIGAND FREE ENERGY PREDICTED BY IDOCK:    9.43 KCAL/MOL
REMARK 924 INTRA-LIGAND FREE ENERGY PREDICTED BY IDOCK:    4.76 KCAL/MOL
REMARK 927      BINDING AFFINITY PREDICTED BY RF-SCORE:    0.00 PKD
ROOT
HETATM    1  C   UNL     1      -5.157  15.565  66.462  1.00  0.00     1.962 C  
HETATM    2  N   UNL     1      -5.922  16.789  66.886  1.00  0.00    -0.172 N  
HETATM    3  C   UNL     1      -7.207  16.895  66.068  1.00  0.00     0.090 C  
HETATM    4  O   UNL     1      -5.129  17.886  66.666  1.00  0.00    -0.125 OA 
HETATM    5  C   UNL     1      -6.229  16.678  68.357  1.00  0.00    -0.133 C  
ENDROOT
BRANCH   3   6
HETATM    6  C   UNL     1      -8.021  18.153  66.390  1.00  0.00    -0.297 C  
BRANCH   6   7
HETATM    7  C   UNL     1      -7.541  18.922  67.600  1.00  0.00    -0.250 C  
HETATM    8  C   UNL     1      -7.916  18.683  68.882  1.00  0.00    -0.252 C  
HETATM    9  C   UNL     1      -8.905  17.610  69.152  1.00  0.00     0.118 A  
HETATM   10  C   UNL     1      -8.592  16.262  68.925  1.00  0.00    -0.260 A  
HETATM   11  C   UNL     1      -9.543  15.265  69.140  1.00  0.00    -0.243 A  
HETATM   12  C   UNL     1     -10.810  15.602  69.608  1.00  0.00    -0.287 A  
HETATM   13  C   UNL     1     -11.124  16.936  69.869  1.00  0.00     0.174 A  
HETATM   14  C   UNL     1     -10.177  17.946  69.647  1.00  0.00     0.343 A  
HETATM   15  C   UNL     1     -10.499  19.382  69.966  1.00  0.00     0.992 C  
HETATM   16  C   UNL     1      -9.685  19.882  71.161  1.00  0.00     2.051 C  
HETATM   17  C   UNL     1      -8.188  20.090  71.001  1.00  0.00     1.940 A  
HETATM   18  C   UNL     1      -7.569  20.841  72.025  1.00  0.00     2.700 A  
HETATM   19  C   UNL     1      -6.197  21.085  72.028  1.00  0.00     1.385 A  
HETATM   20  C   UNL     1      -5.409  20.572  71.010  1.00  0.00    -0.254 A  
HETATM   21  C   UNL     1      -5.993  19.811  70.000  1.00  0.00    -0.337 A  
HETATM   22  C   UNL     1      -7.383  19.563  69.965  1.00  0.00     0.280 A  
ENDBRANCH   6   7
ENDBRANCH   3   6
TORSDOF 2
ENDMDL
MODEL      214
REMARK 921   NORMALIZED FREE ENERGY PREDICTED BY IDOCK:   13.56 KCAL/MOL
REMARK 922        TOTAL FREE ENERGY PREDICTED BY IDOCK:   14.83 KCAL/MOL
REMARK 923 INTER-LIGAND FREE ENERGY PREDICTED BY IDOCK:   14.20 KCAL/MOL
REMARK 924 INTRA-LIGAND FREE ENERGY PREDICTED BY IDOCK:    0.64 KCAL/MOL
REMARK 927      BINDING AFFINITY PREDICTED BY RF-SCORE:    0.00 PKD
ROOT
HETATM    1  C   UNL     1      -8.728  19.843  66.363  1.00  0.00    -0.345 C  
HETATM    2  N   UNL     1      -8.566  18.572  67.150  1.00  0.00    -0.264 N  
HETATM    3  C   UNL     1      -9.940  18.053  67.569  1.00  0.00    -0.327 C  
HETATM    4  O   UNL     1      -7.807  18.849  68.259  1.00  0.00    -0.285 OA 
HETATM    5  C   UNL     1      -7.849  17.564  66.291  1.00  0.00    -0.287 C  
ENDROOT
BRANCH   3   6
HETATM    6  C   UNL     1      -9.866  16.790  68.433  1.00  0.00    -0.253 C  
BRANCH   6   7
HETATM    7  C   UNL     1      -8.975  15.700  67.882  1.00  0.00    -0.180 C  
HETATM    8  C   UNL     1      -9.243  14.370  67.924  1.00  0.00    -0.195 C  
HETATM    9  C   UNL     1     -10.487  13.909  68.589  1.00  0.00    -0.249 A  
HETATM   10  C   UNL     1     -11.748  14.212  68.057  1.00  0.00    -0.394 A  
HETATM   11  C   UNL     1     -12.912  13.812  68.713  1.00  0.00     1.685 A  
HETATM   12  C   UNL     1     -12.827  13.084  69.896  1.00  0.00     0.492 A  
HETATM   13  C   UNL     1     -11.579  12.748  70.419  1.00  0.00     0.078 A  
HETATM   14  C   UNL     1     -10.403  13.154  69.771  1.00  0.00     1.068 A  
HETATM   15  C   UNL     1      -9.054  12.757  70.312  1.00  0.00     4.928 C  
HETATM   16  C   UNL     1      -8.359  11.756  69.388  1.00  0.00     0.696 C  
HETATM   17  C   UNL     1      -7.852  12.226  68.034  1.00  0.00    -0.147 A  
HETATM   18  C   UNL     1      -6.956  11.347  67.386  1.00  0.00    -0.106 A  
HETATM   19  C   UNL     1      -6.435  11.631  66.125  1.00  0.00     0.375 A  
HETATM   20  C   UNL     1      -6.809  12.798  65.477  1.00  0.00     5.617 A  
HETATM   21  C   UNL     1      -7.707  13.670  66.088  1.00  0.00     2.477 A  
HETATM   22  C   UNL     1      -8.237  13.415  67.371  1.00  0.00    -0.188 A  
ENDBRANCH   6   7
ENDBRANCH   3   6
TORSDOF 2
ENDMDL
MODEL      215
REMARK 921   NORMALIZED FREE ENERGY PREDICTED BY IDOCK:   14.55 KCAL/MOL
REMARK 922        TOTAL FREE ENERGY PREDICTED BY IDOCK:   15.94 KCAL/MOL
REMARK 923 INTER-LIGAND FREE ENERGY PREDICTED BY IDOCK:   16.20 KCAL/MOL
REMARK 924 INTRA-LIGAND FREE ENERGY PREDICTED BY IDOCK:   -0.27 KCAL/MOL
REMARK 927      BINDING AFFINITY PREDICTED BY RF-SCORE:    0.00 PKD
ROOT
HETATM    1  C   UNL     1     -12.012  11.394  62.967  1.00  0.00     0.499 C  
HETATM    2  N   UNL     1     -12.042  10.734  64.318  1.00  0.00     1.972 N  
HETATM    3  C   UNL     1     -10.626  10.325  64.717  1.00  0.00     0.331 C  
HETATM    4  O   UNL     1     -12.849   9.628  64.236  1.00  0.00    10.503 OA 
HETATM    5  C   UNL     1     -12.622  11.705  65.314  1.00  0.00     1.592 C  
ENDROOT
BRANCH   3   6
HETATM    6  C   UNL     1     -10.571   9.584  66.057  1.00  0.00     0.194 C  
BRANCH   6   7
HETATM    7  C   UNL     1      -9.292   8.815  66.300  1.00  0.00    -0.283 C  
HETATM    8  C   UNL     1      -9.066   7.974  67.341  1.00  0.00    -0.147 C  
HETATM    9  C   UNL     1     -10.126   7.798  68.365  1.00  0.00    -0.215 A  
HETATM   10  C   UNL     1     -11.345   7.181  68.047  1.00  0.00     0.256 A  
HETATM   11  C   UNL     1     -12.352   7.060  69.004  1.00  0.00     2.299 A  
HETATM   12  C   UNL     1     -12.143   7.533  70.296  1.00  0.00     0.183 A  
HETATM   13  C   UNL     1     -10.924   8.120  70.634  1.00  0.00    -0.255 A  
HETATM   14  C   UNL     1      -9.909   8.254  69.676  1.00  0.00    -0.184 A  
HETATM   15  C   UNL     1      -8.576   8.850  70.049  1.00  0.00    -0.145 C  
HETATM   16  C   UNL     1      -7.469   7.796  70.020  1.00  0.00    -0.080 C  
HETATM   17  C   UNL     1      -7.018   7.231  68.682  1.00  0.00    -0.082 A  
HETATM   18  C   UNL     1      -5.800   6.517  68.707  1.00  0.00    -0.021 A  
HETATM   19  C   UNL     1      -5.279   5.917  67.562  1.00  0.00    -0.005 A  
HETATM   20  C   UNL     1      -5.974   6.008  66.366  1.00  0.00    -0.025 A  
HETATM   21  C   UNL     1      -7.188   6.689  66.321  1.00  0.00    -0.072 A  
HETATM   22  C   UNL     1      -7.729   7.321  67.462  1.00  0.00    -0.111 A  
ENDBRANCH   6   7
ENDBRANCH   3   6
TORSDOF 2
ENDMDL
MODEL      216
REMARK 921   NORMALIZED FREE ENERGY PREDICTED BY IDOCK:   15.34 KCAL/MOL
REMARK 922        TOTAL FREE ENERGY PREDICTED BY IDOCK:   16.82 KCAL/MOL
REMARK 923 INTER-LIGAND FREE ENERGY PREDICTED BY IDOCK:   15.80 KCAL/MOL
REMARK 924 INTRA-LIGAND FREE ENERGY PREDICTED BY IDOCK:    1.02 KCAL/MOL
REMARK 927      BINDING AFFINITY PREDICTED BY RF-SCORE:    0.00 PKD
ROOT
HETATM    1  C   UNL     1     -10.396  14.609  63.019  1.00  0.00     7.770 C  
HETATM    2  N   UNL     1     -10.274  15.403  64.291  1.00  0.00     1.086 N  
HETATM    3  C   UNL     1     -11.666  15.700  64.843  1.00  0.00    -0.055 C  
HETATM    4  O   UNL     1      -9.619  16.574  64.002  1.00  0.00     3.864 OA 
HETATM    5  C   UNL     1      -9.463  14.606  65.278  1.00  0.00     0.324 C  
ENDROOT
BRANCH   3   6
HETATM    6  C   UNL     1     -11.639  16.564  66.108  1.00  0.00     1.068 C  
BRANCH   6   7
HETATM    7  C   UNL     1     -10.293  17.174  66.426  1.00  0.00    -0.307 C  
HETATM    8  C   UNL     1      -9.757  17.294  67.667  1.00  0.00    -0.272 C  
HETATM    9  C   UNL     1     -10.546  16.832  68.837  1.00  0.00    -0.350 A  
HETATM   10  C   UNL     1     -10.836  15.473  69.023  1.00  0.00    -0.249 A  
HETATM   11  C   UNL     1     -11.616  15.053  70.101  1.00  0.00    -0.326 A  
HETATM   12  C   UNL     1     -12.093  15.985  71.017  1.00  0.00    -0.372 A  
HETATM   13  C   UNL     1     -11.784  17.336  70.862  1.00  0.00     2.247 A  
HETATM   14  C   UNL     1     -11.009  17.768  69.776  1.00  0.00     1.257 A  
HETATM   15  C   UNL     1     -10.640  19.221  69.628  1.00  0.00     0.939 C  
HETATM   16  C   UNL     1      -9.143  19.440  69.853  1.00  0.00     0.740 C  
HETATM   17  C   UNL     1      -8.156  18.922  68.819  1.00  0.00    -0.354 A  
HETATM   18  C   UNL     1      -6.842  19.430  68.931  1.00  0.00    -0.370 A  
HETATM   19  C   UNL     1      -5.824  19.021  68.072  1.00  0.00    -0.205 A  
HETATM   20  C   UNL     1      -6.094  18.083  67.088  1.00  0.00    -0.168 A  
HETATM   21  C   UNL     1      -7.376  17.552  66.973  1.00  0.00    -0.222 A  
HETATM   22  C   UNL     1      -8.430  17.962  67.818  1.00  0.00    -0.242 A  
ENDBRANCH   6   7
ENDBRANCH   3   6
TORSDOF 2
ENDMDL
MODEL      217
REMARK 921   NORMALIZED FREE ENERGY PREDICTED BY IDOCK:   16.05 KCAL/MOL
REMARK 922        TOTAL FREE ENERGY PREDICTED BY IDOCK:   17.61 KCAL/MOL
REMARK 923 INTER-LIGAND FREE ENERGY PREDICTED BY IDOCK:   15.34 KCAL/MOL
REMARK 924 INTRA-LIGAND FREE ENERGY PREDICTED BY IDOCK:    2.27 KCAL/MOL
REMARK 927      BINDING AFFINITY PREDICTED BY RF-SCORE:    0.00 PKD
ROOT
HETATM    1  C   UNL     1     -11.406  15.119  64.643  1.00  0.00    -0.356 C  
HETATM    2  N   UNL     1     -11.783  15.415  66.069  1.00  0.00     0.093 N  
HETATM    3  C   UNL     1     -10.614  15.070  66.988  1.00  0.00    -0.293 C  
HETATM    4  O   UNL     1     -12.878  14.652  66.389  1.00  0.00     0.110 OA 
HETATM    5  C   UNL     1     -12.139  16.874  66.178  1.00  0.00     3.069 C  
ENDROOT
BRANCH   3   6
HETATM    6  C   UNL     1     -10.934  15.280  68.472  1.00  0.00    -0.266 C  
BRANCH   6   7
HETATM    7  C   UNL     1     -10.433  16.586  69.045  1.00  0.00    -0.303 C  
HETATM    8  C   UNL     1      -9.214  17.134  68.807  1.00  0.00    -0.249 C  
HETATM    9  C   UNL     1      -8.254  16.399  67.946  1.00  0.00    -0.170 A  
HETATM   10  C   UNL     1      -8.506  16.206  66.580  1.00  0.00    -0.346 A  
HETATM   11  C   UNL     1      -7.619  15.477  65.788  1.00  0.00     3.139 A  
HETATM   12  C   UNL     1      -6.458  14.952  66.349  1.00  0.00     3.266 A  
HETATM   13  C   UNL     1      -6.179  15.164  67.699  1.00  0.00    -0.145 A  
HETATM   14  C   UNL     1      -7.070  15.889  68.504  1.00  0.00    -0.124 A  
HETATM   15  C   UNL     1      -6.751  16.154  69.952  1.00  0.00    -0.004 C  
HETATM   16  C   UNL     1      -6.461  17.636  70.195  1.00  0.00     0.370 C  
HETATM   17  C   UNL     1      -7.600  18.639  70.099  1.00  0.00     1.371 A  
HETATM   18  C   UNL     1      -7.327  19.916  70.639  1.00  0.00     0.775 A  
HETATM   19  C   UNL     1      -8.265  20.945  70.593  1.00  0.00     3.321 A  
HETATM   20  C   UNL     1      -9.496  20.723  69.995  1.00  0.00     1.681 A  
HETATM   21  C   UNL     1      -9.779  19.479  69.438  1.00  0.00    -0.212 A  
HETATM   22  C   UNL     1      -8.854  18.414  69.485  1.00  0.00     0.615 A  
ENDBRANCH   6   7
ENDBRANCH   3   6
TORSDOF 2
ENDMDL
MODEL      218
REMARK 921   NORMALIZED FREE ENERGY PREDICTED BY IDOCK:   18.36 KCAL/MOL
REMARK 922        TOTAL FREE ENERGY PREDICTED BY IDOCK:   20.20 KCAL/MOL
REMARK 923 INTER-LIGAND FREE ENERGY PREDICTED BY IDOCK:   10.84 KCAL/MOL
REMARK 924 INTRA-LIGAND FREE ENERGY PREDICTED BY IDOCK:    9.36 KCAL/MOL
REMARK 927      BINDING AFFINITY PREDICTED BY RF-SCORE:    0.00 PKD
ROOT
HETATM    1  C   UNL     1      -8.135   6.975  68.291  1.00  0.00    -0.123 C  
HETATM    2  N   UNL     1      -8.062   8.410  67.844  1.00  0.00    -0.121 N  
HETATM    3  C   UNL     1      -8.614   9.315  68.943  1.00  0.00    -0.130 C  
HETATM    4  O   UNL     1      -8.812   8.540  66.703  1.00  0.00    -0.125 OA 
HETATM    5  C   UNL     1      -6.626   8.746  67.541  1.00  0.00    -0.062 C  
ENDROOT
BRANCH   3   6
HETATM    6  C   UNL     1      -8.638  10.795  68.546  1.00  0.00    -0.148 C  
BRANCH   6   7
HETATM    7  C   UNL     1      -7.930  11.718  69.511  1.00  0.00     0.700 C  
HETATM    8  C   UNL     1      -6.917  11.360  70.341  1.00  0.00     0.944 C  
HETATM    9  C   UNL     1      -6.465   9.946  70.354  1.00  0.00    -0.115 A  
HETATM   10  C   UNL     1      -5.838   9.376  69.238  1.00  0.00    -0.035 A  
HETATM   11  C   UNL     1      -5.458   8.034  69.244  1.00  0.00    -0.030 A  
HETATM   12  C   UNL     1      -5.678   7.255  70.376  1.00  0.00    -0.024 A  
HETATM   13  C   UNL     1      -6.272   7.818  71.505  1.00  0.00    -0.035 A  
HETATM   14  C   UNL     1      -6.666   9.164  71.504  1.00  0.00    -0.020 A  
HETATM   15  C   UNL     1      -7.270   9.786  72.736  1.00  0.00     2.194 C  
HETATM   16  C   UNL     1      -6.325  10.815  73.359  1.00  0.00     3.104 C  
HETATM   17  C   UNL     1      -6.071  12.125  72.630  1.00  0.00     3.150 A  
HETATM   18  C   UNL     1      -5.455  13.136  73.402  1.00  0.00     0.432 A  
HETATM   19  C   UNL     1      -5.134  14.378  72.858  1.00  0.00    -0.288 A  
HETATM   20  C   UNL     1      -5.411  14.633  71.524  1.00  0.00    -0.129 A  
HETATM   21  C   UNL     1      -5.999  13.644  70.738  1.00  0.00    -0.130 A  
HETATM   22  C   UNL     1      -6.350  12.384  71.269  1.00  0.00     1.827 A  
ENDBRANCH   6   7
ENDBRANCH   3   6
TORSDOF 2
ENDMDL
MODEL      219
REMARK 921   NORMALIZED FREE ENERGY PREDICTED BY IDOCK:   25.57 KCAL/MOL
REMARK 922        TOTAL FREE ENERGY PREDICTED BY IDOCK:   28.24 KCAL/MOL
REMARK 923 INTER-LIGAND FREE ENERGY PREDICTED BY IDOCK:   27.93 KCAL/MOL
REMARK 924 INTRA-LIGAND FREE ENERGY PREDICTED BY IDOCK:    0.32 KCAL/MOL
REMARK 927      BINDING AFFINITY PREDICTED BY RF-SCORE:    0.00 PKD
ROOT
HETATM    1  C   UNL     1      -6.769  19.894  69.670  1.00  0.00    -0.302 C  
HETATM    2  N   UNL     1      -6.550  19.127  68.395  1.00  0.00    -0.245 N  
HETATM    3  C   UNL     1      -7.827  19.155  67.557  1.00  0.00    -0.245 C  
HETATM    4  O   UNL     1      -6.229  17.835  68.724  1.00  0.00    -0.188 OA 
HETATM    5  C   UNL     1      -5.403  19.754  67.648  1.00  0.00    -0.182 C  
ENDROOT
BRANCH   3   6
HETATM    6  C   UNL     1      -7.714  18.340  66.264  1.00  0.00    -0.283 C  
BRANCH   6   7
HETATM    7  C   UNL     1      -8.969  17.590  65.881  1.00  0.00     0.067 C  
HETATM    8  C   UNL     1      -9.148  16.249  65.993  1.00  0.00    -0.332 C  
HETATM    9  C   UNL     1      -8.027  15.415  66.496  1.00  0.00     0.074 A  
HETATM   10  C   UNL     1      -7.575  15.530  67.818  1.00  0.00    -0.162 A  
HETATM   11  C   UNL     1      -6.492  14.774  68.268  1.00  0.00    -0.121 A  
HETATM   12  C   UNL     1      -5.866  13.877  67.407  1.00  0.00     0.250 A  
HETATM   13  C   UNL     1      -6.327  13.729  66.099  1.00  0.00     5.272 A  
HETATM   14  C   UNL     1      -7.409  14.492  65.635  1.00  0.00     6.732 A  
HETATM   15  C   UNL     1      -7.934  14.305  64.236  1.00  0.00    13.216 C  
HETATM   16  C   UNL     1      -9.323  13.665  64.246  1.00  0.00     2.365 C  
HETATM   17  C   UNL     1     -10.508  14.474  64.751  1.00  0.00    -0.365 A  
HETATM   18  C   UNL     1     -11.779  13.944  64.437  1.00  0.00    -0.427 A  
HETATM   19  C   UNL     1     -12.954  14.562  64.861  1.00  0.00     0.202 A  
HETATM   20  C   UNL     1     -12.884  15.718  65.621  1.00  0.00     2.194 A  
HETATM   21  C   UNL     1     -11.641  16.248  65.961  1.00  0.00     0.833 A  
HETATM   22  C   UNL     1     -10.436  15.652  65.530  1.00  0.00    -0.426 A  
ENDBRANCH   6   7
ENDBRANCH   3   6
TORSDOF 2
ENDMDL
MODEL      220
REMARK 921   NORMALIZED FREE ENERGY PREDICTED BY IDOCK:   40.42 KCAL/MOL
REMARK 922        TOTAL FREE ENERGY PREDICTED BY IDOCK:   44.83 KCAL/MOL
REMARK 923 INTER-LIGAND FREE ENERGY PREDICTED BY IDOCK:   25.43 KCAL/MOL
REMARK 924 INTRA-LIGAND FREE ENERGY PREDICTED BY IDOCK:   19.40 KCAL/MOL
REMARK 927      BINDING AFFINITY PREDICTED BY RF-SCORE:    0.00 PKD
ROOT
HETATM    1  C   UNL     1      -8.960  17.289  67.088  1.00  0.00    -0.226 C  
HETATM    2  N   UNL     1      -8.400  16.291  68.065  1.00  0.00    -0.163 N  
HETATM    3  C   UNL     1      -6.926  16.045  67.753  1.00  0.00    -0.143 C  
HETATM    4  O   UNL     1      -9.111  15.125  67.939  1.00  0.00    -0.176 OA 
HETATM    5  C   UNL     1      -8.572  16.835  69.459  1.00  0.00     0.408 C  
ENDROOT
BRANCH   3   6
HETATM    6  C   UNL     1      -6.288  14.989  68.662  1.00  0.00    -0.088 C  
BRANCH   6   7
HETATM    7  C   UNL     1      -7.274  14.086  69.367  1.00  0.00     0.030 C  
HETATM    8  C   UNL     1      -8.306  13.433  68.773  1.00  0.00     0.086 C  
HETATM    9  C   UNL     1      -8.536  13.628  67.319  1.00  0.00    -0.220 A  
HETATM   10  C   UNL     1      -7.613  13.165  66.371  1.00  0.00     1.442 A  
HETATM   11  C   UNL     1      -7.816  13.392  65.010  1.00  0.00     7.236 A  
HETATM   12  C   UNL     1      -8.958  14.063  64.581  1.00  0.00     3.493 A  
HETATM   13  C   UNL     1      -9.900  14.500  65.511  1.00  0.00    -0.320 A  
HETATM   14  C   UNL     1      -9.699  14.284  66.883  1.00  0.00    -0.268 A  
HETATM   15  C   UNL     1     -10.734  14.719  67.886  1.00  0.00    -0.259 C  
HETATM   16  C   UNL     1     -11.420  13.515  68.535  1.00  0.00    -0.345 C  
HETATM   17  C   UNL     1     -10.628  12.641  69.495  1.00  0.00     0.381 A  
HETATM   18  C   UNL     1     -11.399  11.759  70.284  1.00  0.00     0.095 A  
HETATM   19  C   UNL     1     -10.808  10.876  71.185  1.00  0.00     1.718 A  
HETATM   20  C   UNL     1      -9.427  10.848  71.309  1.00  0.00     5.804 A  
HETATM   21  C   UNL     1      -8.645  11.694  70.527  1.00  0.00     4.950 A  
HETATM   22  C   UNL     1      -9.220  12.609  69.619  1.00  0.00     1.994 A  
ENDBRANCH   6   7
ENDBRANCH   3   6
TORSDOF 2
ENDMDL
MODEL      221
REMARK 921   NORMALIZED FREE ENERGY PREDICTED BY IDOCK:   43.51 KCAL/MOL
REMARK 922        TOTAL FREE ENERGY PREDICTED BY IDOCK:   48.29 KCAL/MOL
REMARK 923 INTER-LIGAND FREE ENERGY PREDICTED BY IDOCK:   46.56 KCAL/MOL
REMARK 924 INTRA-LIGAND FREE ENERGY PREDICTED BY IDOCK:    1.73 KCAL/MOL
REMARK 927      BINDING AFFINITY PREDICTED BY RF-SCORE:    0.00 PKD
ROOT
HETATM    1  C   UNL     1     -12.391  15.237  64.219  1.00  0.00    -0.121 C  
HETATM    2  N   UNL     1     -12.918  15.197  65.627  1.00  0.00     0.729 N  
HETATM    3  C   UNL     1     -11.882  14.546  66.541  1.00  0.00    -0.352 C  
HETATM    4  O   UNL     1     -14.077  14.464  65.629  1.00  0.00     0.792 OA 
HETATM    5  C   UNL     1     -13.214  16.606  66.069  1.00  0.00     7.310 C  
ENDROOT
BRANCH   3   6
HETATM    6  C   UNL     1     -12.363  14.405  67.989  1.00  0.00     0.001 C  
BRANCH   6   7
HETATM    7  C   UNL     1     -11.745  15.389  68.957  1.00  0.00    -0.380 C  
HETATM    8  C   UNL     1     -10.417  15.640  69.082  1.00  0.00    -0.236 C  
HETATM    9  C   UNL     1      -9.460  14.878  68.241  1.00  0.00    -0.210 A  
HETATM   10  C   UNL     1      -9.427  15.046  66.849  1.00  0.00    -0.252 A  
HETATM   11  C   UNL     1      -8.555  14.293  66.063  1.00  0.00     0.865 A  
HETATM   12  C   UNL     1      -7.690  13.382  66.662  1.00  0.00     0.785 A  
HETATM   13  C   UNL     1      -7.691  13.228  68.048  1.00  0.00    -0.147 A  
HETATM   14  C   UNL     1      -8.571  13.974  68.846  1.00  0.00     0.053 A  
HETATM   15  C   UNL     1      -8.545  13.841  70.346  1.00  0.00     3.519 C  
HETATM   16  C   UNL     1      -8.015  15.113  71.008  1.00  0.00     2.446 C  
HETATM   17  C   UNL     1      -8.865  16.373  70.978  1.00  0.00     4.770 A  
HETATM   18  C   UNL     1      -8.462  17.395  71.867  1.00  0.00    13.148 A  
HETATM   19  C   UNL     1      -9.128  18.618  71.926  1.00  0.00     9.120 A  
HETATM   20  C   UNL     1     -10.206  18.851  71.087  1.00  0.00     2.760 A  
HETATM   21  C   UNL     1     -10.608  17.866  70.188  1.00  0.00     1.262 A  
HETATM   22  C   UNL     1      -9.962  16.613  70.120  1.00  0.00     0.694 A  
ENDBRANCH   6   7
ENDBRANCH   3   6
TORSDOF 2
ENDMDL
MODEL      222
REMARK 921   NORMALIZED FREE ENERGY PREDICTED BY IDOCK:   53.95 KCAL/MOL
REMARK 922        TOTAL FREE ENERGY PREDICTED BY IDOCK:   59.95 KCAL/MOL
REMARK 923 INTER-LIGAND FREE ENERGY PREDICTED BY IDOCK:   16.54 KCAL/MOL
REMARK 924 INTRA-LIGAND FREE ENERGY PREDICTED BY IDOCK:   43.41 KCAL/MOL
REMARK 927      BINDING AFFINITY PREDICTED BY RF-SCORE:    0.00 PKD
ROOT
HETATM    1  C   UNL     1      -7.353  18.829  70.622  1.00  0.00     2.237 C  
HETATM    2  N   UNL     1      -7.895  17.435  70.783  1.00  0.00     4.369 N  
HETATM    3  C   UNL     1      -9.417  17.488  70.887  1.00  0.00     4.883 C  
HETATM    4  O   UNL     1      -7.361  16.898  71.927  1.00  0.00     6.997 OA 
HETATM    5  C   UNL     1      -7.465  16.613  69.595  1.00  0.00     0.271 C  
ENDROOT
BRANCH   3   6
HETATM    6  C   UNL     1     -10.051  16.112  71.118  1.00  0.00     1.853 C  
BRANCH   6   7
HETATM    7  C   UNL     1     -10.189  15.265  69.874  1.00  0.00    -0.233 C  
HETATM    8  C   UNL     1      -9.523  15.465  68.708  1.00  0.00    -0.211 C  
HETATM    9  C   UNL     1      -8.602  16.624  68.599  1.00  0.00    -0.253 A  
HETATM   10  C   UNL     1      -7.424  16.687  69.358  1.00  0.00    -0.061 A  
HETATM   11  C   UNL     1      -6.587  17.801  69.281  1.00  0.00    -0.239 A  
HETATM   12  C   UNL     1      -6.906  18.852  68.426  1.00  0.00    -0.276 A  
HETATM   13  C   UNL     1      -8.058  18.786  67.641  1.00  0.00    -0.270 A  
HETATM   14  C   UNL     1      -8.910  17.675  67.719  1.00  0.00    -0.240 A  
HETATM   15  C   UNL     1     -10.132  17.584  66.843  1.00  0.00    -0.324 C  
HETATM   16  C   UNL     1      -9.980  16.484  65.791  1.00  0.00    -0.302 C  
HETATM   17  C   UNL     1      -9.995  15.030  66.233  1.00  0.00    -0.300 A  
HETATM   18  C   UNL     1     -10.169  14.085  65.196  1.00  0.00    -0.396 A  
HETATM   19  C   UNL     1     -10.172  12.715  65.448  1.00  0.00    -0.301 A  
HETATM   20  C   UNL     1      -9.988  12.256  66.743  1.00  0.00    -0.217 A  
HETATM   21  C   UNL     1      -9.794  13.168  67.778  1.00  0.00    -0.228 A  
HETATM   22  C   UNL     1      -9.803  14.561  67.553  1.00  0.00    -0.222 A  
ENDBRANCH   6   7
ENDBRANCH   3   6
TORSDOF 2
ENDMDL
MODEL      223
REMARK 921   NORMALIZED FREE ENERGY PREDICTED BY IDOCK:   71.60 KCAL/MOL
REMARK 922        TOTAL FREE ENERGY PREDICTED BY IDOCK:   79.66 KCAL/MOL
REMARK 923 INTER-LIGAND FREE ENERGY PREDICTED BY IDOCK:   79.57 KCAL/MOL
REMARK 924 INTRA-LIGAND FREE ENERGY PREDICTED BY IDOCK:    0.09 KCAL/MOL
REMARK 927      BINDING AFFINITY PREDICTED BY RF-SCORE:    0.00 PKD
ROOT
HETATM    1  C   UNL     1     -11.703   9.654  65.932  1.00  0.00     4.497 C  
HETATM    2  N   UNL     1     -12.349   9.324  67.250  1.00  0.00     6.239 N  
HETATM    3  C   UNL     1     -11.268   9.100  68.305  1.00  0.00     0.335 C  
HETATM    4  O   UNL     1     -13.094   8.184  67.087  1.00  0.00    11.232 OA 
HETATM    5  C   UNL     1     -13.254  10.463  67.640  1.00  0.00     9.865 C  
ENDROOT
BRANCH   3   6
HETATM    6  C   UNL     1     -11.837   8.694  69.669  1.00  0.00     0.805 C  
BRANCH   6   7
HETATM    7  C   UNL     1     -12.332   9.846  70.514  1.00  0.00    -0.229 C  
HETATM    8  C   UNL     1     -12.148   9.974  71.853  1.00  0.00    -0.186 C  
HETATM    9  C   UNL     1     -11.439   8.896  72.587  1.00  0.00     0.162 A  
HETATM   10  C   UNL     1     -10.079   8.638  72.360  1.00  0.00    -0.321 A  
HETATM   11  C   UNL     1      -9.433   7.595  73.021  1.00  0.00    -0.282 A  
HETATM   12  C   UNL     1     -10.133   6.812  73.935  1.00  0.00    -0.375 A  
HETATM   13  C   UNL     1     -11.477   7.078  74.194  1.00  0.00     2.630 A  
HETATM   14  C   UNL     1     -12.138   8.120  73.527  1.00  0.00     2.022 A  
HETATM   15  C   UNL     1     -13.578   8.435  73.834  1.00  0.00     4.084 C  
HETATM   16  C   UNL     1     -13.711   9.780  74.551  1.00  0.00    10.142 C  
HETATM   17  C   UNL     1     -13.432  11.060  73.780  1.00  0.00     8.428 A  
HETATM   18  C   UNL     1     -13.877  12.249  74.401  1.00  0.00    14.743 A  
HETATM   19  C   UNL     1     -13.662  13.500  73.826  1.00  0.00     4.483 A  
HETATM   20  C   UNL     1     -12.986  13.592  72.620  1.00  0.00    -0.291 A  
HETATM   21  C   UNL     1     -12.519  12.435  71.999  1.00  0.00     0.306 A  
HETATM   22  C   UNL     1     -12.738  11.155  72.551  1.00  0.00     1.286 A  
ENDBRANCH   6   7
ENDBRANCH   3   6
TORSDOF 2
ENDMDL
