MODEL        1
REMARK 921   NORMALIZED FREE ENERGY PREDICTED BY IDOCK:   -6.57 KCAL/MOL
REMARK 922        TOTAL FREE ENERGY PREDICTED BY IDOCK:   -8.22 KCAL/MOL
REMARK 923 INTER-LIGAND FREE ENERGY PREDICTED BY IDOCK:   -7.72 KCAL/MOL
REMARK 924 INTRA-LIGAND FREE ENERGY PREDICTED BY IDOCK:   -0.50 KCAL/MOL
REMARK 927      BINDING AFFINITY PREDICTED BY RF-SCORE:    0.00 PKD
ROOT
HETATM    1  C   UNL     1     -12.445  12.011  63.536  1.00  0.00    -0.540 C  
HETATM    2  N   UNL     1     -12.042  12.345  64.903  1.00  0.00    -0.414 NA 
HETATM    3  C   UNL     1     -10.599  12.148  65.057  1.00  0.00    -0.291 C  
ENDROOT
BRANCH   2   4
HETATM    4  C   UNL     1     -12.472  13.719  65.248  1.00  0.00    -0.480 C  
BRANCH   4   5
HETATM    5  C   UNL     1     -11.568  14.377  66.306  1.00  0.00    -0.377 C  
BRANCH   5   6
HETATM    6  C   UNL     1     -12.159  14.455  67.698  1.00  0.00    -0.312 C  
HETATM    7  C   UNL     1     -11.663  13.841  68.798  1.00  0.00    -0.391 C  
HETATM    8  C   UNL     1     -10.493  12.947  68.647  1.00  0.00    -0.231 A  
HETATM    9  C   UNL     1      -9.223  13.454  68.338  1.00  0.00    -0.149 A  
HETATM   10  C   UNL     1      -8.151  12.586  68.140  1.00  0.00    -0.167 A  
HETATM   11  C   UNL     1      -8.337  11.210  68.263  1.00  0.00    -0.143 A  
HETATM   12  C   UNL     1      -9.594  10.700  68.600  1.00  0.00    -0.179 A  
HETATM   13  C   UNL     1     -10.677  11.564  68.799  1.00  0.00    -0.247 A  
HETATM   14  C   UNL     1     -12.030  11.038  69.206  1.00  0.00    -0.410 C  
HETATM   15  C   UNL     1     -12.372  11.446  70.643  1.00  0.00    -0.466 C  
HETATM   16  C   UNL     1     -12.633  12.911  70.960  1.00  0.00    -0.376 A  
HETATM   17  C   UNL     1     -13.168  13.169  72.242  1.00  0.00    -0.555 A  
HETATM   18  C   UNL     1     -13.429  14.469  72.675  1.00  0.00    -0.590 A  
HETATM   19  C   UNL     1     -13.158  15.540  71.837  1.00  0.00    -0.539 A  
HETATM   20  C   UNL     1     -12.616  15.309  70.571  1.00  0.00    -0.450 A  
HETATM   21  C   UNL     1     -12.345  14.003  70.110  1.00  0.00    -0.409 A  
ENDBRANCH   5   6
ENDBRANCH   4   5
ENDBRANCH   2   4
TORSDOF 3
ENDMDL
MODEL        2
REMARK 921   NORMALIZED FREE ENERGY PREDICTED BY IDOCK:   -6.55 KCAL/MOL
REMARK 922        TOTAL FREE ENERGY PREDICTED BY IDOCK:   -8.19 KCAL/MOL
REMARK 923 INTER-LIGAND FREE ENERGY PREDICTED BY IDOCK:   -7.89 KCAL/MOL
REMARK 924 INTRA-LIGAND FREE ENERGY PREDICTED BY IDOCK:   -0.31 KCAL/MOL
REMARK 927      BINDING AFFINITY PREDICTED BY RF-SCORE:    0.00 PKD
ROOT
HETATM    1  C   UNL     1     -13.828  13.734  72.218  1.00  0.00    -0.580 C  
HETATM    2  N   UNL     1     -13.747  15.159  71.898  1.00  0.00    -0.426 NA 
HETATM    3  C   UNL     1     -13.289  15.906  73.072  1.00  0.00    -0.571 C  
ENDROOT
BRANCH   2   4
HETATM    4  C   UNL     1     -12.887  15.375  70.713  1.00  0.00    -0.466 C  
BRANCH   4   5
HETATM    5  C   UNL     1     -12.024  14.146  70.372  1.00  0.00    -0.400 C  
BRANCH   5   6
HETATM    6  C   UNL     1     -11.865  13.862  68.893  1.00  0.00    -0.393 C  
HETATM    7  C   UNL     1     -11.708  12.636  68.341  1.00  0.00    -0.377 C  
HETATM    8  C   UNL     1     -11.599  11.462  69.236  1.00  0.00    -0.384 A  
HETATM    9  C   UNL     1     -12.698  11.005  69.977  1.00  0.00    -0.157 A  
HETATM   10  C   UNL     1     -12.553   9.936  70.859  1.00  0.00    -0.392 A  
HETATM   11  C   UNL     1     -11.315   9.308  70.995  1.00  0.00    -0.390 A  
HETATM   12  C   UNL     1     -10.223   9.740  70.237  1.00  0.00    -0.346 A  
HETATM   13  C   UNL     1     -10.360  10.814  69.350  1.00  0.00    -0.207 A  
HETATM   14  C   UNL     1      -9.205  11.267  68.491  1.00  0.00    -0.181 C  
HETATM   15  C   UNL     1      -9.462  10.953  67.013  1.00  0.00    -0.184 C  
HETATM   16  C   UNL     1     -10.558  11.701  66.271  1.00  0.00    -0.301 A  
HETATM   17  C   UNL     1     -10.572  11.527  64.868  1.00  0.00    -0.360 A  
HETATM   18  C   UNL     1     -11.540  12.131  64.067  1.00  0.00    -0.504 A  
HETATM   19  C   UNL     1     -12.518  12.923  64.651  1.00  0.00    -0.499 A  
HETATM   20  C   UNL     1     -12.533  13.098  66.036  1.00  0.00    -0.330 A  
HETATM   21  C   UNL     1     -11.563  12.498  66.866  1.00  0.00    -0.436 A  
ENDBRANCH   5   6
ENDBRANCH   4   5
ENDBRANCH   2   4
TORSDOF 3
ENDMDL
MODEL        3
REMARK 921   NORMALIZED FREE ENERGY PREDICTED BY IDOCK:   -6.51 KCAL/MOL
REMARK 922        TOTAL FREE ENERGY PREDICTED BY IDOCK:   -8.16 KCAL/MOL
REMARK 923 INTER-LIGAND FREE ENERGY PREDICTED BY IDOCK:   -7.97 KCAL/MOL
REMARK 924 INTRA-LIGAND FREE ENERGY PREDICTED BY IDOCK:   -0.19 KCAL/MOL
REMARK 927      BINDING AFFINITY PREDICTED BY RF-SCORE:    0.00 PKD
ROOT
HETATM    1  C   UNL     1     -12.519  13.955  65.185  1.00  0.00    -0.453 C  
HETATM    2  N   UNL     1     -12.439  12.495  65.153  1.00  0.00    -0.628 NA 
HETATM    3  C   UNL     1     -12.627  12.018  63.780  1.00  0.00    -0.454 C  
ENDROOT
BRANCH   2   4
HETATM    4  C   UNL     1     -11.166  12.032  65.750  1.00  0.00    -0.334 C  
BRANCH   4   5
HETATM    5  C   UNL     1     -11.358  11.387  67.134  1.00  0.00    -0.327 C  
BRANCH   5   6
HETATM    6  C   UNL     1     -11.874  12.317  68.211  1.00  0.00    -0.367 C  
HETATM    7  C   UNL     1     -11.708  12.146  69.544  1.00  0.00    -0.402 C  
HETATM    8  C   UNL     1     -11.040  10.915  70.024  1.00  0.00    -0.285 A  
HETATM    9  C   UNL     1      -9.672  10.697  69.809  1.00  0.00     0.104 A  
HETATM   10  C   UNL     1      -9.080   9.502  70.217  1.00  0.00    -0.296 A  
HETATM   11  C   UNL     1      -9.847   8.527  70.854  1.00  0.00    -0.234 A  
HETATM   12  C   UNL     1     -11.205   8.751  71.097  1.00  0.00    -0.339 A  
HETATM   13  C   UNL     1     -11.808   9.947  70.690  1.00  0.00    -0.386 A  
HETATM   14  C   UNL     1     -13.261  10.227  70.982  1.00  0.00    -0.399 C  
HETATM   15  C   UNL     1     -13.409  11.348  72.016  1.00  0.00    -0.388 C  
HETATM   16  C   UNL     1     -13.013  12.767  71.640  1.00  0.00    -0.402 A  
HETATM   17  C   UNL     1     -13.399  13.770  72.557  1.00  0.00    -0.656 A  
HETATM   18  C   UNL     1     -13.076  15.111  72.351  1.00  0.00    -0.468 A  
HETATM   19  C   UNL     1     -12.357  15.479  71.224  1.00  0.00    -0.468 A  
HETATM   20  C   UNL     1     -11.952  14.503  70.311  1.00  0.00    -0.379 A  
HETATM   21  C   UNL     1     -12.269  13.141  70.497  1.00  0.00    -0.405 A  
ENDBRANCH   5   6
ENDBRANCH   4   5
ENDBRANCH   2   4
TORSDOF 3
ENDMDL
MODEL        4
REMARK 921   NORMALIZED FREE ENERGY PREDICTED BY IDOCK:   -6.42 KCAL/MOL
REMARK 922        TOTAL FREE ENERGY PREDICTED BY IDOCK:   -8.04 KCAL/MOL
REMARK 923 INTER-LIGAND FREE ENERGY PREDICTED BY IDOCK:   -7.82 KCAL/MOL
REMARK 924 INTRA-LIGAND FREE ENERGY PREDICTED BY IDOCK:   -0.22 KCAL/MOL
REMARK 927      BINDING AFFINITY PREDICTED BY RF-SCORE:    0.00 PKD
ROOT
HETATM    1  C   UNL     1     -12.988  15.295  73.304  1.00  0.00    -0.527 C  
HETATM    2  N   UNL     1     -12.783  14.417  72.151  1.00  0.00    -0.330 NA 
HETATM    3  C   UNL     1     -13.554  13.183  72.324  1.00  0.00    -0.581 C  
ENDROOT
BRANCH   2   4
HETATM    4  C   UNL     1     -13.114  15.126  70.895  1.00  0.00    -0.441 C  
BRANCH   4   5
HETATM    5  C   UNL     1     -12.117  14.823  69.761  1.00  0.00    -0.364 C  
BRANCH   5   6
HETATM    6  C   UNL     1     -11.408  16.032  69.188  1.00  0.00    -0.352 C  
HETATM    7  C   UNL     1     -10.889  16.120  67.940  1.00  0.00    -0.332 C  
HETATM    8  C   UNL     1     -10.931  14.926  67.066  1.00  0.00    -0.327 A  
HETATM    9  C   UNL     1     -12.141  14.446  66.547  1.00  0.00    -0.395 A  
HETATM   10  C   UNL     1     -12.162  13.284  65.777  1.00  0.00    -0.510 A  
HETATM   11  C   UNL     1     -10.974  12.605  65.511  1.00  0.00    -0.313 A  
HETATM   12  C   UNL     1      -9.761  13.094  66.002  1.00  0.00    -0.234 A  
HETATM   13  C   UNL     1      -9.731  14.260  66.777  1.00  0.00    -0.282 A  
HETATM   14  C   UNL     1      -8.428  14.829  67.279  1.00  0.00    -0.234 C  
HETATM   15  C   UNL     1      -8.098  16.152  66.580  1.00  0.00    -0.331 C  
HETATM   16  C   UNL     1      -8.960  17.375  66.852  1.00  0.00    -0.260 A  
HETATM   17  C   UNL     1      -8.452  18.599  66.359  1.00  0.00    -0.286 A  
HETATM   18  C   UNL     1      -9.153  19.794  66.514  1.00  0.00    -0.450 A  
HETATM   19  C   UNL     1     -10.379  19.793  67.164  1.00  0.00    -0.589 A  
HETATM   20  C   UNL     1     -10.907  18.594  67.646  1.00  0.00    -0.347 A  
HETATM   21  C   UNL     1     -10.215  17.373  67.503  1.00  0.00    -0.332 A  
ENDBRANCH   5   6
ENDBRANCH   4   5
ENDBRANCH   2   4
TORSDOF 3
ENDMDL
MODEL        5
REMARK 921   NORMALIZED FREE ENERGY PREDICTED BY IDOCK:   -6.28 KCAL/MOL
REMARK 922        TOTAL FREE ENERGY PREDICTED BY IDOCK:   -7.88 KCAL/MOL
REMARK 923 INTER-LIGAND FREE ENERGY PREDICTED BY IDOCK:   -7.28 KCAL/MOL
REMARK 924 INTRA-LIGAND FREE ENERGY PREDICTED BY IDOCK:   -0.60 KCAL/MOL
REMARK 927      BINDING AFFINITY PREDICTED BY RF-SCORE:    0.00 PKD
ROOT
HETATM    1  C   UNL     1      -8.410  16.926  66.220  1.00  0.00    -0.296 C  
HETATM    2  N   UNL     1      -9.783  17.228  65.814  1.00  0.00    -0.544 NA 
HETATM    3  C   UNL     1     -10.477  15.991  65.449  1.00  0.00    -0.392 C  
ENDROOT
BRANCH   2   4
HETATM    4  C   UNL     1     -10.483  17.985  66.876  1.00  0.00    -0.341 C  
BRANCH   4   5
HETATM    5  C   UNL     1      -9.868  17.761  68.270  1.00  0.00    -0.340 C  
BRANCH   5   6
HETATM    6  C   UNL     1     -10.781  17.091  69.275  1.00  0.00    -0.226 C  
HETATM    7  C   UNL     1     -10.645  15.827  69.741  1.00  0.00    -0.312 C  
HETATM    8  C   UNL     1      -9.571  14.975  69.182  1.00  0.00    -0.202 A  
HETATM    9  C   UNL     1      -8.220  15.237  69.448  1.00  0.00    -0.233 A  
HETATM   10  C   UNL     1      -7.225  14.457  68.859  1.00  0.00    -0.125 A  
HETATM   11  C   UNL     1      -7.575  13.405  68.014  1.00  0.00    -0.143 A  
HETATM   12  C   UNL     1      -8.921  13.121  67.768  1.00  0.00    -0.194 A  
HETATM   13  C   UNL     1      -9.926  13.900  68.354  1.00  0.00    -0.233 A  
HETATM   14  C   UNL     1     -11.384  13.583  68.137  1.00  0.00    -0.319 C  
HETATM   15  C   UNL     1     -12.035  13.069  69.426  1.00  0.00    -0.338 C  
HETATM   16  C   UNL     1     -12.219  14.020  70.599  1.00  0.00    -0.442 A  
HETATM   17  C   UNL     1     -13.032  13.539  71.650  1.00  0.00    -0.447 A  
HETATM   18  C   UNL     1     -13.261  14.295  72.799  1.00  0.00    -0.614 A  
HETATM   19  C   UNL     1     -12.680  15.548  72.924  1.00  0.00    -0.545 A  
HETATM   20  C   UNL     1     -11.861  16.038  71.905  1.00  0.00    -0.619 A  
HETATM   21  C   UNL     1     -11.617  15.292  70.733  1.00  0.00    -0.371 A  
ENDBRANCH   5   6
ENDBRANCH   4   5
ENDBRANCH   2   4
TORSDOF 3
ENDMDL
MODEL        6
REMARK 921   NORMALIZED FREE ENERGY PREDICTED BY IDOCK:   -6.19 KCAL/MOL
REMARK 922        TOTAL FREE ENERGY PREDICTED BY IDOCK:   -7.77 KCAL/MOL
REMARK 923 INTER-LIGAND FREE ENERGY PREDICTED BY IDOCK:   -7.35 KCAL/MOL
REMARK 924 INTRA-LIGAND FREE ENERGY PREDICTED BY IDOCK:   -0.43 KCAL/MOL
REMARK 927      BINDING AFFINITY PREDICTED BY RF-SCORE:    0.00 PKD
ROOT
HETATM    1  C   UNL     1     -10.041   8.877  66.471  1.00  0.00    -0.286 C  
HETATM    2  N   UNL     1      -9.477  10.212  66.675  1.00  0.00    -0.165 NA 
HETATM    3  C   UNL     1      -9.967  11.122  65.637  1.00  0.00    -0.249 C  
ENDROOT
BRANCH   2   4
HETATM    4  C   UNL     1      -9.771  10.694  68.043  1.00  0.00    -0.157 C  
BRANCH   4   5
HETATM    5  C   UNL     1     -11.278  10.872  68.301  1.00  0.00    -0.347 C  
BRANCH   5   6
HETATM    6  C   UNL     1     -11.630  11.807  69.439  1.00  0.00    -0.386 C  
HETATM    7  C   UNL     1     -11.849  13.139  69.323  1.00  0.00    -0.377 C  
HETATM    8  C   UNL     1     -11.658  13.778  68.002  1.00  0.00    -0.368 A  
HETATM    9  C   UNL     1     -12.534  13.525  66.936  1.00  0.00    -0.162 A  
HETATM   10  C   UNL     1     -12.297  14.092  65.685  1.00  0.00    -0.502 A  
HETATM   11  C   UNL     1     -11.195  14.924  65.495  1.00  0.00    -0.348 A  
HETATM   12  C   UNL     1     -10.335  15.204  66.560  1.00  0.00    -0.286 A  
HETATM   13  C   UNL     1     -10.565  14.638  67.820  1.00  0.00    -0.251 A  
HETATM   14  C   UNL     1      -9.674  14.961  68.994  1.00  0.00    -0.212 C  
HETATM   15  C   UNL     1     -10.420  15.801  70.036  1.00  0.00    -0.313 C  
HETATM   16  C   UNL     1     -11.557  15.172  70.826  1.00  0.00    -0.361 A  
HETATM   17  C   UNL     1     -12.030  15.930  71.921  1.00  0.00    -0.588 A  
HETATM   18  C   UNL     1     -13.088  15.486  72.714  1.00  0.00    -0.579 A  
HETATM   19  C   UNL     1     -13.699  14.274  72.428  1.00  0.00    -0.616 A  
HETATM   20  C   UNL     1     -13.258  13.515  71.342  1.00  0.00    -0.348 A  
HETATM   21  C   UNL     1     -12.189  13.943  70.528  1.00  0.00    -0.443 A  
ENDBRANCH   5   6
ENDBRANCH   4   5
ENDBRANCH   2   4
TORSDOF 3
ENDMDL
MODEL        7
REMARK 921   NORMALIZED FREE ENERGY PREDICTED BY IDOCK:   -6.16 KCAL/MOL
REMARK 922        TOTAL FREE ENERGY PREDICTED BY IDOCK:   -7.73 KCAL/MOL
REMARK 923 INTER-LIGAND FREE ENERGY PREDICTED BY IDOCK:   -7.16 KCAL/MOL
REMARK 924 INTRA-LIGAND FREE ENERGY PREDICTED BY IDOCK:   -0.58 KCAL/MOL
REMARK 927      BINDING AFFINITY PREDICTED BY RF-SCORE:    0.00 PKD
ROOT
HETATM    1  C   UNL     1      -7.690  11.257  66.625  1.00  0.00    -0.148 C  
HETATM    2  N   UNL     1      -9.110  11.527  66.853  1.00  0.00    -0.174 NA 
HETATM    3  C   UNL     1      -9.873  11.226  65.639  1.00  0.00    -0.234 C  
ENDROOT
BRANCH   2   4
HETATM    4  C   UNL     1      -9.596  10.780  68.034  1.00  0.00    -0.163 C  
BRANCH   4   5
HETATM    5  C   UNL     1     -11.109  10.951  68.265  1.00  0.00    -0.324 C  
BRANCH   5   6
HETATM    6  C   UNL     1     -11.485  11.893  69.390  1.00  0.00    -0.366 C  
HETATM    7  C   UNL     1     -11.767  13.210  69.250  1.00  0.00    -0.376 C  
HETATM    8  C   UNL     1     -11.628  13.829  67.913  1.00  0.00    -0.376 A  
HETATM    9  C   UNL     1     -12.507  13.514  66.868  1.00  0.00    -0.162 A  
HETATM   10  C   UNL     1     -12.316  14.064  65.601  1.00  0.00    -0.502 A  
HETATM   11  C   UNL     1     -11.257  14.942  65.376  1.00  0.00    -0.359 A  
HETATM   12  C   UNL     1     -10.394  15.283  66.421  1.00  0.00    -0.296 A  
HETATM   13  C   UNL     1     -10.577  14.734  67.696  1.00  0.00    -0.262 A  
HETATM   14  C   UNL     1      -9.684  15.123  68.847  1.00  0.00    -0.224 C  
HETATM   15  C   UNL     1     -10.452  15.950  69.885  1.00  0.00    -0.311 C  
HETATM   16  C   UNL     1     -11.546  15.286  70.706  1.00  0.00    -0.371 A  
HETATM   17  C   UNL     1     -12.036  16.045  71.793  1.00  0.00    -0.592 A  
HETATM   18  C   UNL     1     -13.059  15.570  72.612  1.00  0.00    -0.553 A  
HETATM   19  C   UNL     1     -13.618  14.326  72.362  1.00  0.00    -0.599 A  
HETATM   20  C   UNL     1     -13.160  13.564  71.285  1.00  0.00    -0.339 A  
HETATM   21  C   UNL     1     -12.125  14.023  70.444  1.00  0.00    -0.426 A  
ENDBRANCH   5   6
ENDBRANCH   4   5
ENDBRANCH   2   4
TORSDOF 3
ENDMDL
MODEL        8
REMARK 921   NORMALIZED FREE ENERGY PREDICTED BY IDOCK:   -6.14 KCAL/MOL
REMARK 922        TOTAL FREE ENERGY PREDICTED BY IDOCK:   -7.71 KCAL/MOL
REMARK 923 INTER-LIGAND FREE ENERGY PREDICTED BY IDOCK:   -7.40 KCAL/MOL
REMARK 924 INTRA-LIGAND FREE ENERGY PREDICTED BY IDOCK:   -0.31 KCAL/MOL
REMARK 927      BINDING AFFINITY PREDICTED BY RF-SCORE:    0.00 PKD
ROOT
HETATM    1  C   UNL     1     -11.577   8.473  71.083  1.00  0.00    -0.281 C  
HETATM    2  N   UNL     1     -10.631   9.416  70.487  1.00  0.00    -0.248 NA 
HETATM    3  C   UNL     1      -9.268   9.085  70.908  1.00  0.00    -0.259 C  
ENDROOT
BRANCH   2   4
HETATM    4  C   UNL     1     -10.784   9.443  69.015  1.00  0.00    -0.187 C  
BRANCH   4   5
HETATM    5  C   UNL     1     -11.316  10.792  68.497  1.00  0.00    -0.360 C  
BRANCH   5   6
HETATM    6  C   UNL     1     -11.680  11.795  69.570  1.00  0.00    -0.408 C  
HETATM    7  C   UNL     1     -11.885  13.119  69.372  1.00  0.00    -0.383 C  
HETATM    8  C   UNL     1     -11.665  13.677  68.019  1.00  0.00    -0.387 A  
HETATM    9  C   UNL     1     -12.523  13.368  66.954  1.00  0.00    -0.114 A  
HETATM   10  C   UNL     1     -12.258  13.857  65.676  1.00  0.00    -0.477 A  
HETATM   11  C   UNL     1     -11.146  14.668  65.457  1.00  0.00    -0.345 A  
HETATM   12  C   UNL     1     -10.303  15.004  66.520  1.00  0.00    -0.287 A  
HETATM   13  C   UNL     1     -10.560  14.516  67.807  1.00  0.00    -0.250 A  
HETATM   14  C   UNL     1      -9.688  14.902  68.975  1.00  0.00    -0.212 C  
HETATM   15  C   UNL     1     -10.445  15.808  69.952  1.00  0.00    -0.324 C  
HETATM   16  C   UNL     1     -11.602  15.236  70.757  1.00  0.00    -0.371 A  
HETATM   17  C   UNL     1     -12.087  16.062  71.796  1.00  0.00    -0.570 A  
HETATM   18  C   UNL     1     -13.163  15.675  72.594  1.00  0.00    -0.592 A  
HETATM   19  C   UNL     1     -13.780  14.453  72.369  1.00  0.00    -0.590 A  
HETATM   20  C   UNL     1     -13.327  13.626  71.339  1.00  0.00    -0.321 A  
HETATM   21  C   UNL     1     -12.239  13.996  70.520  1.00  0.00    -0.435 A  
ENDBRANCH   5   6
ENDBRANCH   4   5
ENDBRANCH   2   4
TORSDOF 3
ENDMDL
MODEL        9
REMARK 921   NORMALIZED FREE ENERGY PREDICTED BY IDOCK:   -6.10 KCAL/MOL
REMARK 922        TOTAL FREE ENERGY PREDICTED BY IDOCK:   -7.67 KCAL/MOL
REMARK 923 INTER-LIGAND FREE ENERGY PREDICTED BY IDOCK:   -7.33 KCAL/MOL
REMARK 924 INTRA-LIGAND FREE ENERGY PREDICTED BY IDOCK:   -0.34 KCAL/MOL
REMARK 927      BINDING AFFINITY PREDICTED BY RF-SCORE:    0.00 PKD
ROOT
HETATM    1  C   UNL     1      -8.337  10.931  65.996  1.00  0.00    -0.165 C  
HETATM    2  N   UNL     1      -9.739  10.564  65.796  1.00  0.00    -0.209 NA 
HETATM    3  C   UNL     1     -10.113  10.777  64.395  1.00  0.00    -0.353 C  
ENDROOT
BRANCH   2   4
HETATM    4  C   UNL     1      -9.980   9.175  66.246  1.00  0.00    -0.282 C  
BRANCH   4   5
HETATM    5  C   UNL     1     -10.765   9.106  67.569  1.00  0.00    -0.255 C  
BRANCH   5   6
HETATM    6  C   UNL     1     -11.268  10.437  68.088  1.00  0.00    -0.333 C  
HETATM    7  C   UNL     1     -11.184  10.862  69.372  1.00  0.00    -0.335 C  
HETATM    8  C   UNL     1     -10.634   9.940  70.391  1.00  0.00    -0.364 A  
HETATM    9  C   UNL     1      -9.276   9.592  70.401  1.00  0.00    -0.305 A  
HETATM   10  C   UNL     1      -8.795   8.674  71.334  1.00  0.00    -0.276 A  
HETATM   11  C   UNL     1      -9.663   8.112  72.269  1.00  0.00    -0.322 A  
HETATM   12  C   UNL     1     -11.012   8.478  72.283  1.00  0.00    -0.426 A  
HETATM   13  C   UNL     1     -11.504   9.398  71.349  1.00  0.00    -0.449 A  
HETATM   14  C   UNL     1     -12.946   9.839  71.374  1.00  0.00    -0.490 C  
HETATM   15  C   UNL     1     -13.066  11.305  71.801  1.00  0.00    -0.527 C  
HETATM   16  C   UNL     1     -12.548  12.397  70.876  1.00  0.00    -0.337 A  
HETATM   17  C   UNL     1     -12.907  13.716  71.231  1.00  0.00    -0.424 A  
HETATM   18  C   UNL     1     -12.477  14.815  70.488  1.00  0.00    -0.411 A  
HETATM   19  C   UNL     1     -11.675  14.618  69.374  1.00  0.00    -0.355 A  
HETATM   20  C   UNL     1     -11.295  13.324  69.012  1.00  0.00    -0.334 A  
HETATM   21  C   UNL     1     -11.720  12.198  69.748  1.00  0.00    -0.381 A  
ENDBRANCH   5   6
ENDBRANCH   4   5
ENDBRANCH   2   4
TORSDOF 3
ENDMDL
MODEL       10
REMARK 921   NORMALIZED FREE ENERGY PREDICTED BY IDOCK:   -6.07 KCAL/MOL
REMARK 922        TOTAL FREE ENERGY PREDICTED BY IDOCK:   -7.63 KCAL/MOL
REMARK 923 INTER-LIGAND FREE ENERGY PREDICTED BY IDOCK:   -7.22 KCAL/MOL
REMARK 924 INTRA-LIGAND FREE ENERGY PREDICTED BY IDOCK:   -0.41 KCAL/MOL
REMARK 927      BINDING AFFINITY PREDICTED BY RF-SCORE:    0.00 PKD
ROOT
HETATM    1  C   UNL     1      -8.723  16.331  66.242  1.00  0.00    -0.335 C  
HETATM    2  N   UNL     1     -10.156  16.576  66.408  1.00  0.00    -0.298 NA 
HETATM    3  C   UNL     1     -10.455  17.982  66.124  1.00  0.00    -0.331 C  
ENDROOT
BRANCH   2   4
HETATM    4  C   UNL     1     -10.941  15.644  65.568  1.00  0.00    -0.300 C  
BRANCH   4   5
HETATM    5  C   UNL     1     -11.233  14.308  66.276  1.00  0.00    -0.337 C  
BRANCH   5   6
HETATM    6  C   UNL     1     -11.897  14.430  67.631  1.00  0.00    -0.412 C  
HETATM    7  C   UNL     1     -11.480  13.825  68.769  1.00  0.00    -0.338 C  
HETATM    8  C   UNL     1     -10.329  12.897  68.699  1.00  0.00    -0.202 A  
HETATM    9  C   UNL     1      -9.031  13.363  68.451  1.00  0.00    -0.136 A  
HETATM   10  C   UNL     1      -7.973  12.463  68.329  1.00  0.00    -0.160 A  
HETATM   11  C   UNL     1      -8.205  11.095  68.467  1.00  0.00    -0.149 A  
HETATM   12  C   UNL     1      -9.492  10.626  68.743  1.00  0.00    -0.186 A  
HETATM   13  C   UNL     1     -10.560  11.523  68.866  1.00  0.00    -0.236 A  
HETATM   14  C   UNL     1     -11.947  11.041  69.207  1.00  0.00    -0.410 C  
HETATM   15  C   UNL     1     -12.356  11.487  70.615  1.00  0.00    -0.457 C  
HETATM   16  C   UNL     1     -12.593  12.964  70.890  1.00  0.00    -0.355 A  
HETATM   17  C   UNL     1     -13.190  13.263  72.136  1.00  0.00    -0.562 A  
HETATM   18  C   UNL     1     -13.438  14.577  72.530  1.00  0.00    -0.580 A  
HETATM   19  C   UNL     1     -13.092  15.624  71.687  1.00  0.00    -0.554 A  
HETATM   20  C   UNL     1     -12.487  15.353  70.458  1.00  0.00    -0.468 A  
HETATM   21  C   UNL     1     -12.229  14.032  70.038  1.00  0.00    -0.414 A  
ENDBRANCH   5   6
ENDBRANCH   4   5
ENDBRANCH   2   4
TORSDOF 3
ENDMDL
MODEL       11
REMARK 921   NORMALIZED FREE ENERGY PREDICTED BY IDOCK:   -6.02 KCAL/MOL
REMARK 922        TOTAL FREE ENERGY PREDICTED BY IDOCK:   -7.58 KCAL/MOL
REMARK 923 INTER-LIGAND FREE ENERGY PREDICTED BY IDOCK:   -7.21 KCAL/MOL
REMARK 924 INTRA-LIGAND FREE ENERGY PREDICTED BY IDOCK:   -0.37 KCAL/MOL
REMARK 927      BINDING AFFINITY PREDICTED BY RF-SCORE:    0.00 PKD
ROOT
HETATM    1  C   UNL     1     -10.365  17.423  68.477  1.00  0.00    -0.378 C  
HETATM    2  N   UNL     1     -10.237  16.009  68.829  1.00  0.00    -0.215 NA 
HETATM    3  C   UNL     1      -8.876  15.733  69.293  1.00  0.00    -0.262 C  
ENDROOT
BRANCH   2   4
HETATM    4  C   UNL     1     -11.268  15.626  69.820  1.00  0.00    -0.321 C  
BRANCH   4   5
HETATM    5  C   UNL     1     -12.020  14.340  69.430  1.00  0.00    -0.381 C  
BRANCH   5   6
HETATM    6  C   UNL     1     -11.873  13.923  67.982  1.00  0.00    -0.411 C  
HETATM    7  C   UNL     1     -11.555  12.679  67.551  1.00  0.00    -0.418 C  
HETATM    8  C   UNL     1     -11.243  11.637  68.555  1.00  0.00    -0.312 A  
HETATM    9  C   UNL     1     -12.235  11.111  69.394  1.00  0.00    -0.329 A  
HETATM   10  C   UNL     1     -11.903  10.176  70.373  1.00  0.00    -0.373 A  
HETATM   11  C   UNL     1     -10.582   9.751  70.510  1.00  0.00    -0.376 A  
HETATM   12  C   UNL     1      -9.593  10.250  69.657  1.00  0.00    -0.192 A  
HETATM   13  C   UNL     1      -9.918  11.190  68.672  1.00  0.00    -0.210 A  
HETATM   14  C   UNL     1      -8.874  11.708  67.715  1.00  0.00    -0.159 C  
HETATM   15  C   UNL     1      -9.133  11.201  66.292  1.00  0.00    -0.207 C  
HETATM   16  C   UNL     1     -10.353  11.699  65.533  1.00  0.00    -0.309 A  
HETATM   17  C   UNL     1     -10.390  11.373  64.158  1.00  0.00    -0.400 A  
HETATM   18  C   UNL     1     -11.465  11.742  63.349  1.00  0.00    -0.424 A  
HETATM   19  C   UNL     1     -12.528  12.444  63.897  1.00  0.00    -0.573 A  
HETATM   20  C   UNL     1     -12.520  12.765  65.256  1.00  0.00    -0.528 A  
HETATM   21  C   UNL     1     -11.443  12.404  66.093  1.00  0.00    -0.430 A  
ENDBRANCH   5   6
ENDBRANCH   4   5
ENDBRANCH   2   4
TORSDOF 3
ENDMDL
MODEL       12
REMARK 921   NORMALIZED FREE ENERGY PREDICTED BY IDOCK:   -5.95 KCAL/MOL
REMARK 922        TOTAL FREE ENERGY PREDICTED BY IDOCK:   -7.49 KCAL/MOL
REMARK 923 INTER-LIGAND FREE ENERGY PREDICTED BY IDOCK:   -7.07 KCAL/MOL
REMARK 924 INTRA-LIGAND FREE ENERGY PREDICTED BY IDOCK:   -0.42 KCAL/MOL
REMARK 927      BINDING AFFINITY PREDICTED BY RF-SCORE:    0.00 PKD
ROOT
HETATM    1  C   UNL     1     -10.020  19.256  68.667  1.00  0.00    -0.431 C  
HETATM    2  N   UNL     1      -9.381  18.215  67.860  1.00  0.00    -0.267 NA 
HETATM    3  C   UNL     1      -8.781  18.813  66.665  1.00  0.00    -0.303 C  
ENDROOT
BRANCH   2   4
HETATM    4  C   UNL     1      -8.404  17.457  68.672  1.00  0.00    -0.264 C  
BRANCH   4   5
HETATM    5  C   UNL     1      -8.783  15.973  68.829  1.00  0.00    -0.223 C  
BRANCH   5   6
HETATM    6  C   UNL     1      -9.440  15.347  67.617  1.00  0.00    -0.205 C  
HETATM    7  C   UNL     1     -10.667  14.773  67.596  1.00  0.00    -0.270 C  
HETATM    8  C   UNL     1     -11.421  14.663  68.865  1.00  0.00    -0.323 A  
HETATM    9  C   UNL     1     -11.944  15.796  69.504  1.00  0.00    -0.326 A  
HETATM   10  C   UNL     1     -12.597  15.671  70.729  1.00  0.00    -0.482 A  
HETATM   11  C   UNL     1     -12.744  14.415  71.315  1.00  0.00    -0.414 A  
HETATM   12  C   UNL     1     -12.251  13.278  70.669  1.00  0.00    -0.417 A  
HETATM   13  C   UNL     1     -11.593  13.394  69.439  1.00  0.00    -0.365 A  
HETATM   14  C   UNL     1     -11.093  12.175  68.705  1.00  0.00    -0.297 C  
HETATM   15  C   UNL     1     -11.903  11.931  67.427  1.00  0.00    -0.239 C  
HETATM   16  C   UNL     1     -11.788  12.912  66.271  1.00  0.00    -0.477 A  
HETATM   17  C   UNL     1     -12.376  12.492  65.056  1.00  0.00    -0.522 A  
HETATM   18  C   UNL     1     -12.369  13.305  63.923  1.00  0.00    -0.422 A  
HETATM   19  C   UNL     1     -11.776  14.557  63.980  1.00  0.00    -0.104 A  
HETATM   20  C   UNL     1     -11.202  14.999  65.174  1.00  0.00    -0.391 A  
HETATM   21  C   UNL     1     -11.195  14.193  66.332  1.00  0.00    -0.328 A  
ENDBRANCH   5   6
ENDBRANCH   4   5
ENDBRANCH   2   4
TORSDOF 3
ENDMDL
MODEL       13
REMARK 921   NORMALIZED FREE ENERGY PREDICTED BY IDOCK:   -5.94 KCAL/MOL
REMARK 922        TOTAL FREE ENERGY PREDICTED BY IDOCK:   -7.48 KCAL/MOL
REMARK 923 INTER-LIGAND FREE ENERGY PREDICTED BY IDOCK:   -7.18 KCAL/MOL
REMARK 924 INTRA-LIGAND FREE ENERGY PREDICTED BY IDOCK:   -0.30 KCAL/MOL
REMARK 927      BINDING AFFINITY PREDICTED BY RF-SCORE:    0.00 PKD
ROOT
HETATM    1  C   UNL     1     -10.363  10.876  64.713  1.00  0.00    -0.323 C  
HETATM    2  N   UNL     1      -9.826   9.661  65.326  1.00  0.00    -0.281 NA 
HETATM    3  C   UNL     1      -8.605   9.251  64.629  1.00  0.00    -0.187 C  
ENDROOT
BRANCH   2   4
HETATM    4  C   UNL     1      -9.615   9.863  66.777  1.00  0.00    -0.183 C  
BRANCH   4   5
HETATM    5  C   UNL     1     -10.855   9.502  67.615  1.00  0.00    -0.253 C  
BRANCH   5   6
HETATM    6  C   UNL     1     -11.501  10.663  68.341  1.00  0.00    -0.330 C  
HETATM    7  C   UNL     1     -11.444  10.885  69.676  1.00  0.00    -0.377 C  
HETATM    8  C   UNL     1     -10.770   9.885  70.535  1.00  0.00    -0.382 A  
HETATM    9  C   UNL     1      -9.380   9.704  70.489  1.00  0.00    -0.227 A  
HETATM   10  C   UNL     1      -8.777   8.713  71.263  1.00  0.00    -0.246 A  
HETATM   11  C   UNL     1      -9.554   7.910  72.095  1.00  0.00    -0.255 A  
HETATM   12  C   UNL     1     -10.936   8.105  72.166  1.00  0.00    -0.372 A  
HETATM   13  C   UNL     1     -11.551   9.096  71.392  1.00  0.00    -0.411 A  
HETATM   14  C   UNL     1     -13.034   9.352  71.488  1.00  0.00    -0.449 C  
HETATM   15  C   UNL     1     -13.318  10.707  72.145  1.00  0.00    -0.335 C  
HETATM   16  C   UNL     1     -12.951  11.986  71.408  1.00  0.00    -0.362 A  
HETATM   17  C   UNL     1     -13.457  13.179  71.970  1.00  0.00    -0.598 A  
HETATM   18  C   UNL     1     -13.173  14.426  71.413  1.00  0.00    -0.418 A  
HETATM   19  C   UNL     1     -12.374  14.507  70.282  1.00  0.00    -0.408 A  
HETATM   20  C   UNL     1     -11.851  13.342  69.717  1.00  0.00    -0.394 A  
HETATM   21  C   UNL     1     -12.127  12.070  70.262  1.00  0.00    -0.395 A  
ENDBRANCH   5   6
ENDBRANCH   4   5
ENDBRANCH   2   4
TORSDOF 3
ENDMDL
MODEL       14
REMARK 921   NORMALIZED FREE ENERGY PREDICTED BY IDOCK:   -5.94 KCAL/MOL
REMARK 922        TOTAL FREE ENERGY PREDICTED BY IDOCK:   -7.48 KCAL/MOL
REMARK 923 INTER-LIGAND FREE ENERGY PREDICTED BY IDOCK:   -7.18 KCAL/MOL
REMARK 924 INTRA-LIGAND FREE ENERGY PREDICTED BY IDOCK:   -0.30 KCAL/MOL
REMARK 927      BINDING AFFINITY PREDICTED BY RF-SCORE:    0.00 PKD
ROOT
HETATM    1  C   UNL     1     -12.544  15.845  74.050  1.00  0.00    -0.625 C  
HETATM    2  N   UNL     1     -12.861  15.200  72.776  1.00  0.00    -0.373 NA 
HETATM    3  C   UNL     1     -14.256  15.468  72.417  1.00  0.00    -0.481 C  
ENDROOT
BRANCH   2   4
HETATM    4  C   UNL     1     -11.909  15.628  71.727  1.00  0.00    -0.444 C  
BRANCH   4   5
HETATM    5  C   UNL     1     -12.423  15.344  70.304  1.00  0.00    -0.413 C  
BRANCH   5   6
HETATM    6  C   UNL     1     -12.178  13.937  69.800  1.00  0.00    -0.388 C  
HETATM    7  C   UNL     1     -11.357  13.601  68.776  1.00  0.00    -0.326 C  
HETATM    8  C   UNL     1     -10.692  14.682  68.014  1.00  0.00    -0.246 A  
HETATM    9  C   UNL     1      -9.681  15.464  68.589  1.00  0.00    -0.210 A  
HETATM   10  C   UNL     1      -9.113  16.515  67.871  1.00  0.00    -0.206 A  
HETATM   11  C   UNL     1      -9.543  16.782  66.572  1.00  0.00    -0.285 A  
HETATM   12  C   UNL     1     -10.530  15.988  65.982  1.00  0.00    -0.356 A  
HETATM   13  C   UNL     1     -11.106  14.931  66.697  1.00  0.00    -0.329 A  
HETATM   14  C   UNL     1     -12.141  14.035  66.064  1.00  0.00    -0.461 C  
HETATM   15  C   UNL     1     -11.586  12.625  65.838  1.00  0.00    -0.443 C  
HETATM   16  C   UNL     1     -11.277  11.743  67.038  1.00  0.00    -0.382 A  
HETATM   17  C   UNL     1     -10.998  10.389  66.743  1.00  0.00    -0.116 A  
HETATM   18  C   UNL     1     -10.670   9.477  67.746  1.00  0.00    -0.302 A  
HETATM   19  C   UNL     1     -10.614   9.898  69.066  1.00  0.00    -0.240 A  
HETATM   20  C   UNL     1     -10.872  11.234  69.380  1.00  0.00    -0.239 A  
HETATM   21  C   UNL     1     -11.207  12.174  68.383  1.00  0.00    -0.314 A  
ENDBRANCH   5   6
ENDBRANCH   4   5
ENDBRANCH   2   4
TORSDOF 3
ENDMDL
MODEL       15
REMARK 921   NORMALIZED FREE ENERGY PREDICTED BY IDOCK:   -5.92 KCAL/MOL
REMARK 922        TOTAL FREE ENERGY PREDICTED BY IDOCK:   -7.46 KCAL/MOL
REMARK 923 INTER-LIGAND FREE ENERGY PREDICTED BY IDOCK:   -7.15 KCAL/MOL
REMARK 924 INTRA-LIGAND FREE ENERGY PREDICTED BY IDOCK:   -0.31 KCAL/MOL
REMARK 927      BINDING AFFINITY PREDICTED BY RF-SCORE:    0.00 PKD
ROOT
HETATM    1  C   UNL     1     -12.976  10.771  71.781  1.00  0.00    -0.463 C  
HETATM    2  N   UNL     1     -11.857   9.860  71.536  1.00  0.00    -0.385 NA 
HETATM    3  C   UNL     1     -12.358   8.495  71.357  1.00  0.00    -0.297 C  
ENDROOT
BRANCH   2   4
HETATM    4  C   UNL     1     -11.051  10.328  70.386  1.00  0.00    -0.319 C  
BRANCH   4   5
HETATM    5  C   UNL     1     -11.903  11.010  69.300  1.00  0.00    -0.411 C  
BRANCH   5   6
HETATM    6  C   UNL     1     -11.467  10.738  67.876  1.00  0.00    -0.306 C  
HETATM    7  C   UNL     1     -10.936  11.652  67.028  1.00  0.00    -0.338 C  
HETATM    8  C   UNL     1     -10.834  13.060  67.474  1.00  0.00    -0.264 A  
HETATM    9  C   UNL     1      -9.934  13.444  68.478  1.00  0.00    -0.193 A  
HETATM   10  C   UNL     1      -9.901  14.765  68.923  1.00  0.00    -0.222 A  
HETATM   11  C   UNL     1     -10.756  15.710  68.358  1.00  0.00    -0.271 A  
HETATM   12  C   UNL     1     -11.635  15.340  67.337  1.00  0.00    -0.196 A  
HETATM   13  C   UNL     1     -11.676  14.016  66.885  1.00  0.00    -0.435 A  
HETATM   14  C   UNL     1     -12.586  13.605  65.755  1.00  0.00    -0.511 C  
HETATM   15  C   UNL     1     -11.780  13.246  64.502  1.00  0.00    -0.420 C  
HETATM   16  C   UNL     1     -10.908  12.000  64.507  1.00  0.00    -0.363 A  
HETATM   17  C   UNL     1     -10.391  11.614  63.250  1.00  0.00    -0.444 A  
HETATM   18  C   UNL     1      -9.552  10.508  63.114  1.00  0.00    -0.375 A  
HETATM   19  C   UNL     1      -9.211   9.764  64.234  1.00  0.00    -0.286 A  
HETATM   20  C   UNL     1      -9.698  10.135  65.489  1.00  0.00    -0.344 A  
HETATM   21  C   UNL     1     -10.549  11.249  65.650  1.00  0.00    -0.303 A  
ENDBRANCH   5   6
ENDBRANCH   4   5
ENDBRANCH   2   4
TORSDOF 3
ENDMDL
MODEL       16
REMARK 921   NORMALIZED FREE ENERGY PREDICTED BY IDOCK:   -5.89 KCAL/MOL
REMARK 922        TOTAL FREE ENERGY PREDICTED BY IDOCK:   -7.43 KCAL/MOL
REMARK 923 INTER-LIGAND FREE ENERGY PREDICTED BY IDOCK:   -6.86 KCAL/MOL
REMARK 924 INTRA-LIGAND FREE ENERGY PREDICTED BY IDOCK:   -0.57 KCAL/MOL
REMARK 927      BINDING AFFINITY PREDICTED BY RF-SCORE:    0.00 PKD
ROOT
HETATM    1  C   UNL     1      -7.125  14.521  69.311  1.00  0.00    -0.140 C  
HETATM    2  N   UNL     1      -7.972  13.848  68.327  1.00  0.00    -0.139 NA 
HETATM    3  C   UNL     1      -8.204  14.734  67.184  1.00  0.00    -0.211 C  
ENDROOT
BRANCH   2   4
HETATM    4  C   UNL     1      -7.378  12.551  67.933  1.00  0.00    -0.115 C  
BRANCH   4   5
HETATM    5  C   UNL     1      -8.439  11.493  67.579  1.00  0.00    -0.143 C  
BRANCH   5   6
HETATM    6  C   UNL     1      -9.359  11.100  68.716  1.00  0.00    -0.156 C  
HETATM    7  C   UNL     1     -10.671  11.421  68.813  1.00  0.00    -0.240 C  
HETATM    8  C   UNL     1     -11.267  12.295  67.777  1.00  0.00    -0.331 A  
HETATM    9  C   UNL     1     -11.457  11.844  66.464  1.00  0.00    -0.381 A  
HETATM   10  C   UNL     1     -11.963  12.707  65.493  1.00  0.00    -0.509 A  
HETATM   11  C   UNL     1     -12.295  14.018  65.831  1.00  0.00    -0.515 A  
HETATM   12  C   UNL     1     -12.135  14.464  67.146  1.00  0.00    -0.367 A  
HETATM   13  C   UNL     1     -11.626  13.605  68.127  1.00  0.00    -0.367 A  
HETATM   14  C   UNL     1     -11.487  14.054  69.560  1.00  0.00    -0.331 C  
HETATM   15  C   UNL     1     -12.484  13.323  70.465  1.00  0.00    -0.332 C  
HETATM   16  C   UNL     1     -12.312  11.832  70.714  1.00  0.00    -0.433 A  
HETATM   17  C   UNL     1     -13.122  11.289  71.737  1.00  0.00    -0.527 A  
HETATM   18  C   UNL     1     -13.087   9.931  72.051  1.00  0.00    -0.545 A  
HETATM   19  C   UNL     1     -12.243   9.084  71.347  1.00  0.00    -0.387 A  
HETATM   20  C   UNL     1     -11.445   9.597  70.322  1.00  0.00    -0.288 A  
HETATM   21  C   UNL     1     -11.462  10.967  69.989  1.00  0.00    -0.398 A  
ENDBRANCH   5   6
ENDBRANCH   4   5
ENDBRANCH   2   4
TORSDOF 3
ENDMDL
MODEL       17
REMARK 921   NORMALIZED FREE ENERGY PREDICTED BY IDOCK:   -5.84 KCAL/MOL
REMARK 922        TOTAL FREE ENERGY PREDICTED BY IDOCK:   -7.36 KCAL/MOL
REMARK 923 INTER-LIGAND FREE ENERGY PREDICTED BY IDOCK:   -7.04 KCAL/MOL
REMARK 924 INTRA-LIGAND FREE ENERGY PREDICTED BY IDOCK:   -0.32 KCAL/MOL
REMARK 927      BINDING AFFINITY PREDICTED BY RF-SCORE:    0.00 PKD
ROOT
HETATM    1  C   UNL     1      -9.705   9.990  64.474  1.00  0.00    -0.239 C  
HETATM    2  N   UNL     1      -8.855   9.461  65.541  1.00  0.00    -0.172 NA 
HETATM    3  C   UNL     1      -7.516  10.048  65.447  1.00  0.00    -0.139 C  
ENDROOT
BRANCH   2   4
HETATM    4  C   UNL     1      -9.485   9.683  66.862  1.00  0.00    -0.153 C  
BRANCH   4   5
HETATM    5  C   UNL     1      -9.237  11.101  67.409  1.00  0.00    -0.157 C  
BRANCH   5   6
HETATM    6  C   UNL     1     -10.084  11.487  68.603  1.00  0.00    -0.214 C  
HETATM    7  C   UNL     1     -11.162  12.306  68.571  1.00  0.00    -0.316 C  
HETATM    8  C   UNL     1     -11.521  12.957  67.291  1.00  0.00    -0.388 A  
HETATM    9  C   UNL     1     -12.029  12.219  66.214  1.00  0.00    -0.307 A  
HETATM   10  C   UNL     1     -12.302  12.846  64.999  1.00  0.00    -0.541 A  
HETATM   11  C   UNL     1     -12.081  14.215  64.859  1.00  0.00    -0.438 A  
HETATM   12  C   UNL     1     -11.602  14.963  65.938  1.00  0.00    -0.228 A  
HETATM   13  C   UNL     1     -11.325  14.341  67.161  1.00  0.00    -0.352 A  
HETATM   14  C   UNL     1     -10.849  15.136  68.350  1.00  0.00    -0.255 C  
HETATM   15  C   UNL     1     -11.921  15.187  69.444  1.00  0.00    -0.337 C  
HETATM   16  C   UNL     1     -12.280  13.914  70.196  1.00  0.00    -0.425 A  
HETATM   17  C   UNL     1     -13.095  14.091  71.337  1.00  0.00    -0.423 A  
HETATM   18  C   UNL     1     -13.524  13.007  72.103  1.00  0.00    -0.638 A  
HETATM   19  C   UNL     1     -13.147  11.722  71.744  1.00  0.00    -0.480 A  
HETATM   20  C   UNL     1     -12.354  11.521  70.612  1.00  0.00    -0.457 A  
HETATM   21  C   UNL     1     -11.908  12.602  69.824  1.00  0.00    -0.379 A  
ENDBRANCH   5   6
ENDBRANCH   4   5
ENDBRANCH   2   4
TORSDOF 3
ENDMDL
MODEL       18
REMARK 921   NORMALIZED FREE ENERGY PREDICTED BY IDOCK:   -5.82 KCAL/MOL
REMARK 922        TOTAL FREE ENERGY PREDICTED BY IDOCK:   -7.34 KCAL/MOL
REMARK 923 INTER-LIGAND FREE ENERGY PREDICTED BY IDOCK:   -7.06 KCAL/MOL
REMARK 924 INTRA-LIGAND FREE ENERGY PREDICTED BY IDOCK:   -0.28 KCAL/MOL
REMARK 927      BINDING AFFINITY PREDICTED BY RF-SCORE:    0.00 PKD
ROOT
HETATM    1  C   UNL     1      -7.730   9.010  66.698  1.00  0.00    -0.096 C  
HETATM    2  N   UNL     1      -8.867   8.394  66.015  1.00  0.00    -0.159 NA 
HETATM    3  C   UNL     1      -9.007   7.000  66.442  1.00  0.00    -0.154 C  
ENDROOT
BRANCH   2   4
HETATM    4  C   UNL     1     -10.097   9.187  66.238  1.00  0.00    -0.249 C  
BRANCH   4   5
HETATM    5  C   UNL     1     -10.608   9.097  67.687  1.00  0.00    -0.307 C  
BRANCH   5   6
HETATM    6  C   UNL     1     -11.199  10.377  68.241  1.00  0.00    -0.330 C  
HETATM    7  C   UNL     1     -11.171  10.758  69.540  1.00  0.00    -0.342 C  
HETATM    8  C   UNL     1     -10.591   9.833  70.540  1.00  0.00    -0.376 A  
HETATM    9  C   UNL     1      -9.216   9.563  70.572  1.00  0.00    -0.284 A  
HETATM   10  C   UNL     1      -8.703   8.641  71.483  1.00  0.00    -0.266 A  
HETATM   11  C   UNL     1      -9.558   7.995  72.375  1.00  0.00    -0.297 A  
HETATM   12  C   UNL     1     -10.926   8.282  72.368  1.00  0.00    -0.438 A  
HETATM   13  C   UNL     1     -11.449   9.206  71.455  1.00  0.00    -0.437 A  
HETATM   14  C   UNL     1     -12.915   9.561  71.460  1.00  0.00    -0.471 C  
HETATM   15  C   UNL     1     -13.130  11.002  71.936  1.00  0.00    -0.525 C  
HETATM   16  C   UNL     1     -12.656  12.155  71.064  1.00  0.00    -0.359 A  
HETATM   17  C   UNL     1     -13.100  13.437  71.457  1.00  0.00    -0.427 A  
HETATM   18  C   UNL     1     -12.718  14.586  70.764  1.00  0.00    -0.425 A  
HETATM   19  C   UNL     1     -11.880  14.477  69.664  1.00  0.00    -0.367 A  
HETATM   20  C   UNL     1     -11.417  13.221  69.266  1.00  0.00    -0.345 A  
HETATM   21  C   UNL     1     -11.792  12.046  69.950  1.00  0.00    -0.405 A  
ENDBRANCH   5   6
ENDBRANCH   4   5
ENDBRANCH   2   4
TORSDOF 3
ENDMDL
MODEL       19
REMARK 921   NORMALIZED FREE ENERGY PREDICTED BY IDOCK:   -5.81 KCAL/MOL
REMARK 922        TOTAL FREE ENERGY PREDICTED BY IDOCK:   -7.33 KCAL/MOL
REMARK 923 INTER-LIGAND FREE ENERGY PREDICTED BY IDOCK:   -6.98 KCAL/MOL
REMARK 924 INTRA-LIGAND FREE ENERGY PREDICTED BY IDOCK:   -0.35 KCAL/MOL
REMARK 927      BINDING AFFINITY PREDICTED BY RF-SCORE:    0.00 PKD
ROOT
HETATM    1  C   UNL     1      -9.807   9.851  65.414  1.00  0.00    -0.313 C  
HETATM    2  N   UNL     1      -9.476  11.182  64.903  1.00  0.00    -0.221 NA 
HETATM    3  C   UNL     1      -9.654  11.214  63.450  1.00  0.00    -0.332 C  
ENDROOT
BRANCH   2   4
HETATM    4  C   UNL     1     -10.273  12.217  65.600  1.00  0.00    -0.256 C  
BRANCH   4   5
HETATM    5  C   UNL     1     -11.336  11.618  66.538  1.00  0.00    -0.331 C  
BRANCH   5   6
HETATM    6  C   UNL     1     -11.837  12.551  67.620  1.00  0.00    -0.381 C  
HETATM    7  C   UNL     1     -11.540  12.457  68.939  1.00  0.00    -0.364 C  
HETATM    8  C   UNL     1     -10.724  11.313  69.403  1.00  0.00    -0.188 A  
HETATM    9  C   UNL     1      -9.367  11.203  69.073  1.00  0.00    -0.065 A  
HETATM   10  C   UNL     1      -8.636  10.085  69.471  1.00  0.00    -0.197 A  
HETATM   11  C   UNL     1      -9.253   9.079  70.213  1.00  0.00    -0.229 A  
HETATM   12  C   UNL     1     -10.599   9.196  70.571  1.00  0.00    -0.287 A  
HETATM   13  C   UNL     1     -11.340  10.315  70.174  1.00  0.00    -0.388 A  
HETATM   14  C   UNL     1     -12.781  10.482  70.587  1.00  0.00    -0.441 C  
HETATM   15  C   UNL     1     -12.938  11.634  71.585  1.00  0.00    -0.483 C  
HETATM   16  C   UNL     1     -12.706  13.063  71.119  1.00  0.00    -0.372 A  
HETATM   17  C   UNL     1     -13.099  14.072  72.027  1.00  0.00    -0.487 A  
HETATM   18  C   UNL     1     -12.917  15.424  71.740  1.00  0.00    -0.509 A  
HETATM   19  C   UNL     1     -12.336  15.798  70.537  1.00  0.00    -0.388 A  
HETATM   20  C   UNL     1     -11.926  14.819  69.630  1.00  0.00    -0.360 A  
HETATM   21  C   UNL     1     -12.102  13.445  69.899  1.00  0.00    -0.389 A  
ENDBRANCH   5   6
ENDBRANCH   4   5
ENDBRANCH   2   4
TORSDOF 3
ENDMDL
MODEL       20
REMARK 921   NORMALIZED FREE ENERGY PREDICTED BY IDOCK:   -5.78 KCAL/MOL
REMARK 922        TOTAL FREE ENERGY PREDICTED BY IDOCK:   -7.29 KCAL/MOL
REMARK 923 INTER-LIGAND FREE ENERGY PREDICTED BY IDOCK:   -7.05 KCAL/MOL
REMARK 924 INTRA-LIGAND FREE ENERGY PREDICTED BY IDOCK:   -0.25 KCAL/MOL
REMARK 927      BINDING AFFINITY PREDICTED BY RF-SCORE:    0.00 PKD
ROOT
HETATM    1  C   UNL     1     -13.452  13.816  72.225  1.00  0.00    -0.541 C  
HETATM    2  N   UNL     1     -13.246  15.256  72.381  1.00  0.00    -0.371 NA 
HETATM    3  C   UNL     1     -12.407  15.512  73.555  1.00  0.00    -0.547 C  
ENDROOT
BRANCH   2   4
HETATM    4  C   UNL     1     -12.686  15.837  71.141  1.00  0.00    -0.431 C  
BRANCH   4   5
HETATM    5  C   UNL     1     -11.631  14.929  70.482  1.00  0.00    -0.336 C  
BRANCH   5   6
HETATM    6  C   UNL     1     -11.902  14.575  69.034  1.00  0.00    -0.354 C  
HETATM    7  C   UNL     1     -11.028  14.728  68.011  1.00  0.00    -0.276 C  
HETATM    8  C   UNL     1      -9.720  15.366  68.283  1.00  0.00    -0.209 A  
HETATM    9  C   UNL     1      -8.738  14.719  69.046  1.00  0.00    -0.139 A  
HETATM   10  C   UNL     1      -7.539  15.366  69.340  1.00  0.00    -0.224 A  
HETATM   11  C   UNL     1      -7.309  16.655  68.861  1.00  0.00    -0.225 A  
HETATM   12  C   UNL     1      -8.271  17.294  68.075  1.00  0.00    -0.223 A  
HETATM   13  C   UNL     1      -9.479  16.652  67.777  1.00  0.00    -0.227 A  
HETATM   14  C   UNL     1     -10.513  17.307  66.895  1.00  0.00    -0.272 C  
HETATM   15  C   UNL     1     -10.630  16.579  65.551  1.00  0.00    -0.310 C  
HETATM   16  C   UNL     1     -11.207  15.173  65.511  1.00  0.00    -0.320 A  
HETATM   17  C   UNL     1     -11.499  14.671  64.223  1.00  0.00    -0.174 A  
HETATM   18  C   UNL     1     -12.005  13.385  64.038  1.00  0.00    -0.520 A  
HETATM   19  C   UNL     1     -12.230  12.570  65.138  1.00  0.00    -0.509 A  
HETATM   20  C   UNL     1     -11.935  13.040  66.420  1.00  0.00    -0.466 A  
HETATM   21  C   UNL     1     -11.424  14.338  66.631  1.00  0.00    -0.374 A  
ENDBRANCH   5   6
ENDBRANCH   4   5
ENDBRANCH   2   4
TORSDOF 3
ENDMDL
MODEL       21
REMARK 921   NORMALIZED FREE ENERGY PREDICTED BY IDOCK:   -5.75 KCAL/MOL
REMARK 922        TOTAL FREE ENERGY PREDICTED BY IDOCK:   -7.26 KCAL/MOL
REMARK 923 INTER-LIGAND FREE ENERGY PREDICTED BY IDOCK:   -6.77 KCAL/MOL
REMARK 924 INTRA-LIGAND FREE ENERGY PREDICTED BY IDOCK:   -0.48 KCAL/MOL
REMARK 927      BINDING AFFINITY PREDICTED BY RF-SCORE:    0.00 PKD
ROOT
HETATM    1  C   UNL     1      -5.927  19.586  66.908  1.00  0.00    -0.173 C  
HETATM    2  N   UNL     1      -5.931  18.878  68.188  1.00  0.00    -0.206 NA 
HETATM    3  C   UNL     1      -6.853  19.536  69.117  1.00  0.00    -0.346 C  
ENDROOT
BRANCH   2   4
HETATM    4  C   UNL     1      -6.248  17.446  67.987  1.00  0.00    -0.147 C  
BRANCH   4   5
HETATM    5  C   UNL     1      -6.742  17.141  66.562  1.00  0.00    -0.290 C  
BRANCH   5   6
HETATM    6  C   UNL     1      -7.856  16.119  66.472  1.00  0.00    -0.263 C  
HETATM    7  C   UNL     1      -9.172  16.371  66.671  1.00  0.00    -0.279 C  
HETATM    8  C   UNL     1      -9.580  17.731  67.089  1.00  0.00    -0.276 A  
HETATM    9  C   UNL     1      -9.486  18.822  66.214  1.00  0.00    -0.288 A  
HETATM   10  C   UNL     1      -9.818  20.103  66.651  1.00  0.00    -0.588 A  
HETATM   11  C   UNL     1     -10.259  20.298  67.959  1.00  0.00    -0.424 A  
HETATM   12  C   UNL     1     -10.383  19.211  68.828  1.00  0.00    -0.229 A  
HETATM   13  C   UNL     1     -10.050  17.921  68.397  1.00  0.00    -0.385 A  
HETATM   14  C   UNL     1     -10.217  16.728  69.305  1.00  0.00    -0.278 C  
HETATM   15  C   UNL     1     -11.348  15.818  68.814  1.00  0.00    -0.362 C  
HETATM   16  C   UNL     1     -11.175  15.047  67.515  1.00  0.00    -0.333 A  
HETATM   17  C   UNL     1     -12.153  14.059  67.258  1.00  0.00    -0.405 A  
HETATM   18  C   UNL     1     -12.132  13.298  66.090  1.00  0.00    -0.477 A  
HETATM   19  C   UNL     1     -11.133  13.508  65.151  1.00  0.00    -0.326 A  
HETATM   20  C   UNL     1     -10.165  14.489  65.376  1.00  0.00    -0.415 A  
HETATM   21  C   UNL     1     -10.165  15.270  66.551  1.00  0.00    -0.282 A  
ENDBRANCH   5   6
ENDBRANCH   4   5
ENDBRANCH   2   4
TORSDOF 3
ENDMDL
MODEL       22
REMARK 921   NORMALIZED FREE ENERGY PREDICTED BY IDOCK:   -5.75 KCAL/MOL
REMARK 922        TOTAL FREE ENERGY PREDICTED BY IDOCK:   -7.25 KCAL/MOL
REMARK 923 INTER-LIGAND FREE ENERGY PREDICTED BY IDOCK:   -6.89 KCAL/MOL
REMARK 924 INTRA-LIGAND FREE ENERGY PREDICTED BY IDOCK:   -0.36 KCAL/MOL
REMARK 927      BINDING AFFINITY PREDICTED BY RF-SCORE:    0.00 PKD
ROOT
HETATM    1  C   UNL     1     -10.323   5.162  67.001  1.00  0.00    -0.217 C  
HETATM    2  N   UNL     1     -11.039   6.178  67.771  1.00  0.00    -0.297 NA 
HETATM    3  C   UNL     1     -10.696   6.058  69.190  1.00  0.00    -0.331 C  
ENDROOT
BRANCH   2   4
HETATM    4  C   UNL     1     -10.765   7.528  67.229  1.00  0.00    -0.295 C  
BRANCH   4   5
HETATM    5  C   UNL     1     -10.005   8.425  68.223  1.00  0.00    -0.214 C  
BRANCH   5   6
HETATM    6  C   UNL     1     -10.761   9.650  68.692  1.00  0.00    -0.233 C  
HETATM    7  C   UNL     1     -10.956  10.006  69.984  1.00  0.00    -0.352 C  
HETATM    8  C   UNL     1     -10.470   9.103  71.052  1.00  0.00    -0.368 A  
HETATM    9  C   UNL     1      -9.100   8.926  71.290  1.00  0.00    -0.323 A  
HETATM   10  C   UNL     1      -8.668   8.023  72.260  1.00  0.00    -0.220 A  
HETATM   11  C   UNL     1      -9.600   7.304  73.006  1.00  0.00    -0.219 A  
HETATM   12  C   UNL     1     -10.968   7.497  72.793  1.00  0.00    -0.410 A  
HETATM   13  C   UNL     1     -11.411   8.401  71.820  1.00  0.00    -0.365 A  
HETATM   14  C   UNL     1     -12.882   8.656  71.605  1.00  0.00    -0.380 C  
HETATM   15  C   UNL     1     -13.267  10.069  72.056  1.00  0.00    -0.545 C  
HETATM   16  C   UNL     1     -12.749  11.268  71.277  1.00  0.00    -0.510 A  
HETATM   17  C   UNL     1     -13.336  12.510  71.610  1.00  0.00    -0.290 A  
HETATM   18  C   UNL     1     -12.935  13.695  70.994  1.00  0.00    -0.303 A  
HETATM   19  C   UNL     1     -11.936  13.665  70.033  1.00  0.00    -0.413 A  
HETATM   20  C   UNL     1     -11.330  12.452  69.699  1.00  0.00    -0.193 A  
HETATM   21  C   UNL     1     -11.721  11.241  70.307  1.00  0.00    -0.415 A  
ENDBRANCH   5   6
ENDBRANCH   4   5
ENDBRANCH   2   4
TORSDOF 3
ENDMDL
MODEL       23
REMARK 921   NORMALIZED FREE ENERGY PREDICTED BY IDOCK:   -5.74 KCAL/MOL
REMARK 922        TOTAL FREE ENERGY PREDICTED BY IDOCK:   -7.24 KCAL/MOL
REMARK 923 INTER-LIGAND FREE ENERGY PREDICTED BY IDOCK:   -7.00 KCAL/MOL
REMARK 924 INTRA-LIGAND FREE ENERGY PREDICTED BY IDOCK:   -0.24 KCAL/MOL
REMARK 927      BINDING AFFINITY PREDICTED BY RF-SCORE:    0.00 PKD
ROOT
HETATM    1  C   UNL     1     -12.418  15.439  70.748  1.00  0.00    -0.423 C  
HETATM    2  N   UNL     1     -12.416  14.133  71.408  1.00  0.00    -0.350 NA 
HETATM    3  C   UNL     1     -13.623  13.988  72.225  1.00  0.00    -0.525 C  
ENDROOT
BRANCH   2   4
HETATM    4  C   UNL     1     -12.267  13.049  70.411  1.00  0.00    -0.310 C  
BRANCH   4   5
HETATM    5  C   UNL     1     -11.963  13.578  68.998  1.00  0.00    -0.376 C  
BRANCH   5   6
HETATM    6  C   UNL     1     -11.442  12.544  68.023  1.00  0.00    -0.368 C  
HETATM    7  C   UNL     1     -10.724  12.809  66.905  1.00  0.00    -0.272 C  
HETATM    8  C   UNL     1     -10.481  14.221  66.535  1.00  0.00    -0.287 A  
HETATM    9  C   UNL     1      -9.631  15.038  67.294  1.00  0.00    -0.208 A  
HETATM   10  C   UNL     1      -9.466  16.381  66.960  1.00  0.00    -0.240 A  
HETATM   11  C   UNL     1     -10.138  16.912  65.860  1.00  0.00    -0.302 A  
HETATM   12  C   UNL     1     -10.964  16.096  65.082  1.00  0.00    -0.327 A  
HETATM   13  C   UNL     1     -11.136  14.746  65.411  1.00  0.00    -0.359 A  
HETATM   14  C   UNL     1     -11.987  13.839  64.559  1.00  0.00    -0.458 C  
HETATM   15  C   UNL     1     -11.128  12.803  63.827  1.00  0.00    -0.475 C  
HETATM   16  C   UNL     1     -10.428  11.715  64.626  1.00  0.00    -0.354 A  
HETATM   17  C   UNL     1      -9.856  10.671  63.863  1.00  0.00    -0.398 A  
HETATM   18  C   UNL     1      -9.160   9.624  64.465  1.00  0.00    -0.287 A  
HETATM   19  C   UNL     1      -9.018   9.597  65.844  1.00  0.00    -0.203 A  
HETATM   20  C   UNL     1      -9.562  10.625  66.618  1.00  0.00    -0.209 A  
HETATM   21  C   UNL     1     -10.272  11.693  66.031  1.00  0.00    -0.270 A  
ENDBRANCH   5   6
ENDBRANCH   4   5
ENDBRANCH   2   4
TORSDOF 3
ENDMDL
MODEL       24
REMARK 921   NORMALIZED FREE ENERGY PREDICTED BY IDOCK:   -5.72 KCAL/MOL
REMARK 922        TOTAL FREE ENERGY PREDICTED BY IDOCK:   -7.22 KCAL/MOL
REMARK 923 INTER-LIGAND FREE ENERGY PREDICTED BY IDOCK:   -6.74 KCAL/MOL
REMARK 924 INTRA-LIGAND FREE ENERGY PREDICTED BY IDOCK:   -0.47 KCAL/MOL
REMARK 927      BINDING AFFINITY PREDICTED BY RF-SCORE:    0.00 PKD
ROOT
HETATM    1  C   UNL     1      -6.320  12.590  69.142  1.00  0.00    -0.095 C  
HETATM    2  N   UNL     1      -7.486  12.732  68.270  1.00  0.00    -0.115 NA 
HETATM    3  C   UNL     1      -7.399  13.991  67.526  1.00  0.00    -0.170 C  
ENDROOT
BRANCH   2   4
HETATM    4  C   UNL     1      -7.618  11.553  67.385  1.00  0.00    -0.135 C  
BRANCH   4   5
HETATM    5  C   UNL     1      -9.055  11.005  67.333  1.00  0.00    -0.143 C  
BRANCH   5   6
HETATM    6  C   UNL     1      -9.912  11.331  68.538  1.00  0.00    -0.206 C  
HETATM    7  C   UNL     1     -11.002  12.135  68.534  1.00  0.00    -0.276 C  
HETATM    8  C   UNL     1     -11.366  12.831  67.280  1.00  0.00    -0.364 A  
HETATM    9  C   UNL     1     -11.860  12.128  66.173  1.00  0.00    -0.327 A  
HETATM   10  C   UNL     1     -12.138  12.800  64.983  1.00  0.00    -0.491 A  
HETATM   11  C   UNL     1     -11.937  14.177  64.898  1.00  0.00    -0.424 A  
HETATM   12  C   UNL     1     -11.473  14.888  66.007  1.00  0.00    -0.275 A  
HETATM   13  C   UNL     1     -11.190  14.221  67.206  1.00  0.00    -0.330 A  
HETATM   14  C   UNL     1     -10.730  14.976  68.428  1.00  0.00    -0.245 C  
HETATM   15  C   UNL     1     -11.806  14.967  69.519  1.00  0.00    -0.360 C  
HETATM   16  C   UNL     1     -12.148  13.661  70.218  1.00  0.00    -0.427 A  
HETATM   17  C   UNL     1     -12.970  13.780  71.362  1.00  0.00    -0.433 A  
HETATM   18  C   UNL     1     -13.384  12.660  72.082  1.00  0.00    -0.570 A  
HETATM   19  C   UNL     1     -12.988  11.395  71.674  1.00  0.00    -0.523 A  
HETATM   20  C   UNL     1     -12.189  11.252  70.538  1.00  0.00    -0.474 A  
HETATM   21  C   UNL     1     -11.755  12.370  69.795  1.00  0.00    -0.361 A  
ENDBRANCH   5   6
ENDBRANCH   4   5
ENDBRANCH   2   4
TORSDOF 3
ENDMDL
MODEL       25
REMARK 921   NORMALIZED FREE ENERGY PREDICTED BY IDOCK:   -5.72 KCAL/MOL
REMARK 922        TOTAL FREE ENERGY PREDICTED BY IDOCK:   -7.22 KCAL/MOL
REMARK 923 INTER-LIGAND FREE ENERGY PREDICTED BY IDOCK:   -6.76 KCAL/MOL
REMARK 924 INTRA-LIGAND FREE ENERGY PREDICTED BY IDOCK:   -0.46 KCAL/MOL
REMARK 927      BINDING AFFINITY PREDICTED BY RF-SCORE:    0.00 PKD
ROOT
HETATM    1  C   UNL     1     -10.400  10.541  65.126  1.00  0.00    -0.240 C  
HETATM    2  N   UNL     1     -10.572  11.879  64.559  1.00  0.00    -0.292 NA 
HETATM    3  C   UNL     1      -9.953  11.939  63.233  1.00  0.00    -0.380 C  
ENDROOT
BRANCH   2   4
HETATM    4  C   UNL     1     -12.004  12.252  64.539  1.00  0.00    -0.383 C  
BRANCH   4   5
HETATM    5  C   UNL     1     -12.391  13.191  65.695  1.00  0.00    -0.519 C  
BRANCH   5   6
HETATM    6  C   UNL     1     -11.371  14.261  66.023  1.00  0.00    -0.335 C  
HETATM    7  C   UNL     1     -10.763  14.427  67.223  1.00  0.00    -0.285 C  
HETATM    8  C   UNL     1     -11.167  13.557  68.350  1.00  0.00    -0.309 A  
HETATM    9  C   UNL     1     -10.856  12.190  68.363  1.00  0.00    -0.255 A  
HETATM   10  C   UNL     1     -11.301  11.380  69.407  1.00  0.00    -0.365 A  
HETATM   11  C   UNL     1     -12.045  11.933  70.448  1.00  0.00    -0.421 A  
HETATM   12  C   UNL     1     -12.333  13.300  70.456  1.00  0.00    -0.389 A  
HETATM   13  C   UNL     1     -11.891  14.121  69.411  1.00  0.00    -0.378 A  
HETATM   14  C   UNL     1     -12.154  15.606  69.422  1.00  0.00    -0.287 C  
HETATM   15  C   UNL     1     -10.855  16.393  69.623  1.00  0.00    -0.346 C  
HETATM   16  C   UNL     1      -9.804  16.393  68.524  1.00  0.00    -0.231 A  
HETATM   17  C   UNL     1      -8.753  17.324  68.686  1.00  0.00    -0.268 A  
HETATM   18  C   UNL     1      -7.707  17.411  67.768  1.00  0.00    -0.200 A  
HETATM   19  C   UNL     1      -7.687  16.567  66.668  1.00  0.00    -0.318 A  
HETATM   20  C   UNL     1      -8.706  15.629  66.495  1.00  0.00    -0.342 A  
HETATM   21  C   UNL     1      -9.776  15.524  67.409  1.00  0.00    -0.218 A  
ENDBRANCH   5   6
ENDBRANCH   4   5
ENDBRANCH   2   4
TORSDOF 3
ENDMDL
MODEL       26
REMARK 921   NORMALIZED FREE ENERGY PREDICTED BY IDOCK:   -5.63 KCAL/MOL
REMARK 922        TOTAL FREE ENERGY PREDICTED BY IDOCK:   -7.11 KCAL/MOL
REMARK 923 INTER-LIGAND FREE ENERGY PREDICTED BY IDOCK:   -6.83 KCAL/MOL
REMARK 924 INTRA-LIGAND FREE ENERGY PREDICTED BY IDOCK:   -0.28 KCAL/MOL
REMARK 927      BINDING AFFINITY PREDICTED BY RF-SCORE:    0.00 PKD
ROOT
HETATM    1  C   UNL     1      -9.745  20.646  67.552  1.00  0.00    -0.369 C  
HETATM    2  N   UNL     1      -9.456  19.216  67.437  1.00  0.00    -0.301 NA 
HETATM    3  C   UNL     1      -8.657  18.778  68.584  1.00  0.00    -0.323 C  
ENDROOT
BRANCH   2   4
HETATM    4  C   UNL     1     -10.711  18.445  67.286  1.00  0.00    -0.353 C  
BRANCH   4   5
HETATM    5  C   UNL     1     -10.513  16.936  67.518  1.00  0.00    -0.328 C  
BRANCH   5   6
HETATM    6  C   UNL     1     -11.368  16.336  68.614  1.00  0.00    -0.333 C  
HETATM    7  C   UNL     1     -11.056  15.238  69.343  1.00  0.00    -0.283 C  
HETATM    8  C   UNL     1      -9.820  14.493  69.012  1.00  0.00    -0.142 A  
HETATM    9  C   UNL     1      -8.553  15.038  69.259  1.00  0.00    -0.167 A  
HETATM   10  C   UNL     1      -7.405  14.342  68.881  1.00  0.00    -0.126 A  
HETATM   11  C   UNL     1      -7.517  13.094  68.269  1.00  0.00    -0.129 A  
HETATM   12  C   UNL     1      -8.778  12.533  68.047  1.00  0.00    -0.186 A  
HETATM   13  C   UNL     1      -9.935  13.225  68.422  1.00  0.00    -0.226 A  
HETATM   14  C   UNL     1     -11.303  12.618  68.230  1.00  0.00    -0.337 C  
HETATM   15  C   UNL     1     -11.945  12.273  69.578  1.00  0.00    -0.333 C  
HETATM   16  C   UNL     1     -12.363  13.395  70.515  1.00  0.00    -0.401 A  
HETATM   17  C   UNL     1     -13.155  13.004  71.619  1.00  0.00    -0.440 A  
HETATM   18  C   UNL     1     -13.584  13.926  72.573  1.00  0.00    -0.680 A  
HETATM   19  C   UNL     1     -13.229  15.261  72.446  1.00  0.00    -0.505 A  
HETATM   20  C   UNL     1     -12.435  15.668  71.372  1.00  0.00    -0.500 A  
HETATM   21  C   UNL     1     -11.991  14.754  70.394  1.00  0.00    -0.368 A  
ENDBRANCH   5   6
ENDBRANCH   4   5
ENDBRANCH   2   4
TORSDOF 3
ENDMDL
MODEL       27
REMARK 921   NORMALIZED FREE ENERGY PREDICTED BY IDOCK:   -5.54 KCAL/MOL
REMARK 922        TOTAL FREE ENERGY PREDICTED BY IDOCK:   -7.01 KCAL/MOL
REMARK 923 INTER-LIGAND FREE ENERGY PREDICTED BY IDOCK:   -6.77 KCAL/MOL
REMARK 924 INTRA-LIGAND FREE ENERGY PREDICTED BY IDOCK:   -0.24 KCAL/MOL
REMARK 927      BINDING AFFINITY PREDICTED BY RF-SCORE:    0.00 PKD
ROOT
HETATM    1  C   UNL     1      -6.248  15.859  69.165  1.00  0.00    -0.140 C  
HETATM    2  N   UNL     1      -6.788  17.197  69.411  1.00  0.00    -0.210 NA 
HETATM    3  C   UNL     1      -5.827  18.209  68.967  1.00  0.00    -0.212 C  
ENDROOT
BRANCH   2   4
HETATM    4  C   UNL     1      -8.113  17.346  68.769  1.00  0.00    -0.234 C  
BRANCH   4   5
HETATM    5  C   UNL     1      -9.044  16.151  69.040  1.00  0.00    -0.250 C  
BRANCH   5   6
HETATM    6  C   UNL     1      -9.620  15.491  67.805  1.00  0.00    -0.209 C  
HETATM    7  C   UNL     1     -10.787  14.806  67.751  1.00  0.00    -0.278 C  
HETATM    8  C   UNL     1     -11.547  14.598  69.004  1.00  0.00    -0.328 A  
HETATM    9  C   UNL     1     -12.184  15.664  69.655  1.00  0.00    -0.264 A  
HETATM   10  C   UNL     1     -12.842  15.453  70.866  1.00  0.00    -0.536 A  
HETATM   11  C   UNL     1     -12.880  14.176  71.424  1.00  0.00    -0.428 A  
HETATM   12  C   UNL     1     -12.272  13.104  70.765  1.00  0.00    -0.375 A  
HETATM   13  C   UNL     1     -11.608  13.307  69.549  1.00  0.00    -0.349 A  
HETATM   14  C   UNL     1     -10.983  12.157  68.801  1.00  0.00    -0.274 C  
HETATM   15  C   UNL     1     -11.746  11.864  67.505  1.00  0.00    -0.335 C  
HETATM   16  C   UNL     1     -11.706  12.875  66.370  1.00  0.00    -0.454 A  
HETATM   17  C   UNL     1     -12.232  12.428  65.137  1.00  0.00    -0.449 A  
HETATM   18  C   UNL     1     -12.284  13.261  64.020  1.00  0.00    -0.475 A  
HETATM   19  C   UNL     1     -11.812  14.562  64.112  1.00  0.00    -0.290 A  
HETATM   20  C   UNL     1     -11.301  15.031  65.324  1.00  0.00    -0.349 A  
HETATM   21  C   UNL     1     -11.237  14.205  66.466  1.00  0.00    -0.333 A  
ENDBRANCH   5   6
ENDBRANCH   4   5
ENDBRANCH   2   4
TORSDOF 3
ENDMDL
MODEL       28
REMARK 921   NORMALIZED FREE ENERGY PREDICTED BY IDOCK:   -5.54 KCAL/MOL
REMARK 922        TOTAL FREE ENERGY PREDICTED BY IDOCK:   -7.01 KCAL/MOL
REMARK 923 INTER-LIGAND FREE ENERGY PREDICTED BY IDOCK:   -6.61 KCAL/MOL
REMARK 924 INTRA-LIGAND FREE ENERGY PREDICTED BY IDOCK:   -0.39 KCAL/MOL
REMARK 927      BINDING AFFINITY PREDICTED BY RF-SCORE:    0.00 PKD
ROOT
HETATM    1  C   UNL     1      -9.455   7.813  66.560  1.00  0.00    -0.201 C  
HETATM    2  N   UNL     1      -8.686   8.768  67.358  1.00  0.00    -0.129 NA 
HETATM    3  C   UNL     1      -7.435   8.148  67.803  1.00  0.00    -0.094 C  
ENDROOT
BRANCH   2   4
HETATM    4  C   UNL     1      -8.465  10.019  66.598  1.00  0.00    -0.125 C  
BRANCH   4   5
HETATM    5  C   UNL     1      -8.735  11.280  67.438  1.00  0.00    -0.139 C  
BRANCH   5   6
HETATM    6  C   UNL     1      -9.624  11.071  68.645  1.00  0.00    -0.198 C  
HETATM    7  C   UNL     1     -10.874  11.570  68.797  1.00  0.00    -0.258 C  
HETATM    8  C   UNL     1     -11.415  12.464  67.748  1.00  0.00    -0.383 A  
HETATM    9  C   UNL     1     -11.746  11.978  66.476  1.00  0.00    -0.330 A  
HETATM   10  C   UNL     1     -12.195  12.851  65.487  1.00  0.00    -0.527 A  
HETATM   11  C   UNL     1     -12.330  14.210  65.767  1.00  0.00    -0.481 A  
HETATM   12  C   UNL     1     -12.030  14.696  67.043  1.00  0.00    -0.301 A  
HETATM   13  C   UNL     1     -11.577  13.826  68.042  1.00  0.00    -0.368 A  
HETATM   14  C   UNL     1     -11.289  14.323  69.436  1.00  0.00    -0.325 C  
HETATM   15  C   UNL     1     -12.314  13.778  70.437  1.00  0.00    -0.423 C  
HETATM   16  C   UNL     1     -12.324  12.292  70.761  1.00  0.00    -0.383 A  
HETATM   17  C   UNL     1     -13.131  11.914  71.858  1.00  0.00    -0.474 A  
HETATM   18  C   UNL     1     -13.255  10.580  72.247  1.00  0.00    -0.253 A  
HETATM   19  C   UNL     1     -12.575   9.595  71.546  1.00  0.00    -0.483 A  
HETATM   20  C   UNL     1     -11.784   9.943  70.450  1.00  0.00    -0.333 A  
HETATM   21  C   UNL     1     -11.642  11.286  70.040  1.00  0.00    -0.404 A  
ENDBRANCH   5   6
ENDBRANCH   4   5
ENDBRANCH   2   4
TORSDOF 3
ENDMDL
MODEL       29
REMARK 921   NORMALIZED FREE ENERGY PREDICTED BY IDOCK:   -5.53 KCAL/MOL
REMARK 922        TOTAL FREE ENERGY PREDICTED BY IDOCK:   -7.00 KCAL/MOL
REMARK 923 INTER-LIGAND FREE ENERGY PREDICTED BY IDOCK:   -6.57 KCAL/MOL
REMARK 924 INTRA-LIGAND FREE ENERGY PREDICTED BY IDOCK:   -0.42 KCAL/MOL
REMARK 927      BINDING AFFINITY PREDICTED BY RF-SCORE:    0.00 PKD
ROOT
HETATM    1  C   UNL     1      -8.829   9.986  64.433  1.00  0.00    -0.213 C  
HETATM    2  N   UNL     1      -9.663  11.038  65.015  1.00  0.00    -0.237 NA 
HETATM    3  C   UNL     1     -10.907  11.165  64.252  1.00  0.00    -0.284 C  
ENDROOT
BRANCH   2   4
HETATM    4  C   UNL     1      -9.899  10.775  66.453  1.00  0.00    -0.209 C  
BRANCH   4   5
HETATM    5  C   UNL     1     -11.357  11.033  66.873  1.00  0.00    -0.112 C  
BRANCH   5   6
HETATM    6  C   UNL     1     -11.527  11.799  68.168  1.00  0.00    -0.382 C  
HETATM    7  C   UNL     1     -11.635  13.144  68.277  1.00  0.00    -0.370 C  
HETATM    8  C   UNL     1     -11.499  13.969  67.055  1.00  0.00    -0.370 A  
HETATM    9  C   UNL     1     -12.479  13.956  66.054  1.00  0.00    -0.501 A  
HETATM   10  C   UNL     1     -12.299  14.694  64.885  1.00  0.00    -0.322 A  
HETATM   11  C   UNL     1     -11.146  15.460  64.718  1.00  0.00    -0.416 A  
HETATM   12  C   UNL     1     -10.179  15.501  65.725  1.00  0.00    -0.390 A  
HETATM   13  C   UNL     1     -10.352  14.762  66.902  1.00  0.00    -0.267 A  
HETATM   14  C   UNL     1      -9.341  14.827  68.019  1.00  0.00    -0.196 C  
HETATM   15  C   UNL     1      -9.918  15.544  69.243  1.00  0.00    -0.264 C  
HETATM   16  C   UNL     1     -11.037  14.886  70.035  1.00  0.00    -0.263 A  
HETATM   17  C   UNL     1     -11.347  15.494  71.273  1.00  0.00    -0.449 A  
HETATM   18  C   UNL     1     -12.370  15.011  72.088  1.00  0.00    -0.433 A  
HETATM   19  C   UNL     1     -13.109  13.909  71.682  1.00  0.00    -0.446 A  
HETATM   20  C   UNL     1     -12.831  13.301  70.456  1.00  0.00    -0.059 A  
HETATM   21  C   UNL     1     -11.799  13.770  69.617  1.00  0.00    -0.393 A  
ENDBRANCH   5   6
ENDBRANCH   4   5
ENDBRANCH   2   4
TORSDOF 3
ENDMDL
MODEL       30
REMARK 921   NORMALIZED FREE ENERGY PREDICTED BY IDOCK:   -5.48 KCAL/MOL
REMARK 922        TOTAL FREE ENERGY PREDICTED BY IDOCK:   -6.94 KCAL/MOL
REMARK 923 INTER-LIGAND FREE ENERGY PREDICTED BY IDOCK:   -6.84 KCAL/MOL
REMARK 924 INTRA-LIGAND FREE ENERGY PREDICTED BY IDOCK:   -0.10 KCAL/MOL
REMARK 927      BINDING AFFINITY PREDICTED BY RF-SCORE:    0.00 PKD
ROOT
HETATM    1  C   UNL     1     -13.166  13.057  71.468  1.00  0.00    -0.272 C  
HETATM    2  N   UNL     1     -12.050  12.388  70.801  1.00  0.00    -0.264 NA 
HETATM    3  C   UNL     1     -12.457  11.046  70.376  1.00  0.00    -0.313 C  
ENDROOT
BRANCH   2   4
HETATM    4  C   UNL     1     -11.545  13.214  69.681  1.00  0.00    -0.253 C  
BRANCH   4   5
HETATM    5  C   UNL     1     -12.374  14.493  69.464  1.00  0.00    -0.247 C  
BRANCH   5   6
HETATM    6  C   UNL     1     -11.584  15.701  69.008  1.00  0.00    -0.396 C  
HETATM    7  C   UNL     1     -11.041  15.867  67.779  1.00  0.00    -0.288 C  
HETATM    8  C   UNL     1     -11.140  14.759  66.803  1.00  0.00    -0.338 A  
HETATM    9  C   UNL     1     -12.368  14.400  66.229  1.00  0.00    -0.325 A  
HETATM   10  C   UNL     1     -12.445  13.314  65.360  1.00  0.00    -0.543 A  
HETATM   11  C   UNL     1     -11.296  12.589  65.048  1.00  0.00    -0.353 A  
HETATM   12  C   UNL     1     -10.064  12.959  65.593  1.00  0.00    -0.282 A  
HETATM   13  C   UNL     1      -9.977  14.048  66.469  1.00  0.00    -0.289 A  
HETATM   14  C   UNL     1      -8.651  14.491  67.034  1.00  0.00    -0.241 C  
HETATM   15  C   UNL     1      -8.232  15.847  66.457  1.00  0.00    -0.307 C  
HETATM   16  C   UNL     1      -9.023  17.092  66.828  1.00  0.00    -0.263 A  
HETATM   17  C   UNL     1      -8.435  18.321  66.450  1.00  0.00    -0.266 A  
HETATM   18  C   UNL     1      -9.066  19.539  66.702  1.00  0.00    -0.406 A  
HETATM   19  C   UNL     1     -10.300  19.556  67.335  1.00  0.00    -0.572 A  
HETATM   20  C   UNL     1     -10.906  18.353  67.704  1.00  0.00    -0.295 A  
HETATM   21  C   UNL     1     -10.286  17.109  67.462  1.00  0.00    -0.323 A  
ENDBRANCH   5   6
ENDBRANCH   4   5
ENDBRANCH   2   4
TORSDOF 3
ENDMDL
MODEL       31
REMARK 921   NORMALIZED FREE ENERGY PREDICTED BY IDOCK:   -5.45 KCAL/MOL
REMARK 922        TOTAL FREE ENERGY PREDICTED BY IDOCK:   -6.91 KCAL/MOL
REMARK 923 INTER-LIGAND FREE ENERGY PREDICTED BY IDOCK:   -6.43 KCAL/MOL
REMARK 924 INTRA-LIGAND FREE ENERGY PREDICTED BY IDOCK:   -0.47 KCAL/MOL
REMARK 927      BINDING AFFINITY PREDICTED BY RF-SCORE:    0.00 PKD
ROOT
HETATM    1  C   UNL     1      -7.481  18.844  68.329  1.00  0.00    -0.286 C  
HETATM    2  N   UNL     1      -8.857  18.488  67.980  1.00  0.00    -0.291 NA 
HETATM    3  C   UNL     1      -9.784  19.466  68.556  1.00  0.00    -0.421 C  
ENDROOT
BRANCH   2   4
HETATM    4  C   UNL     1      -9.002  18.359  66.513  1.00  0.00    -0.286 C  
BRANCH   4   5
HETATM    5  C   UNL     1     -10.443  18.031  66.084  1.00  0.00    -0.336 C  
BRANCH   5   6
HETATM    6  C   UNL     1     -10.623  16.690  65.405  1.00  0.00    -0.254 C  
HETATM    7  C   UNL     1     -10.794  15.505  66.038  1.00  0.00    -0.301 C  
HETATM    8  C   UNL     1     -10.725  15.473  67.516  1.00  0.00    -0.300 A  
HETATM    9  C   UNL     1     -11.724  16.058  68.306  1.00  0.00    -0.136 A  
HETATM   10  C   UNL     1     -11.604  16.068  69.695  1.00  0.00    -0.299 A  
HETATM   11  C   UNL     1     -10.494  15.482  70.302  1.00  0.00    -0.282 A  
HETATM   12  C   UNL     1      -9.509  14.871  69.521  1.00  0.00    -0.004 A  
HETATM   13  C   UNL     1      -9.621  14.858  68.126  1.00  0.00    -0.210 A  
HETATM   14  C   UNL     1      -8.591  14.167  67.268  1.00  0.00    -0.231 C  
HETATM   15  C   UNL     1      -9.177  12.916  66.604  1.00  0.00    -0.222 C  
HETATM   16  C   UNL     1     -10.245  13.071  65.533  1.00  0.00    -0.296 A  
HETATM   17  C   UNL     1     -10.558  11.897  64.810  1.00  0.00    -0.346 A  
HETATM   18  C   UNL     1     -11.539  11.890  63.819  1.00  0.00    -0.555 A  
HETATM   19  C   UNL     1     -12.232  13.056  63.530  1.00  0.00    -0.580 A  
HETATM   20  C   UNL     1     -11.950  14.225  64.241  1.00  0.00    -0.449 A  
HETATM   21  C   UNL     1     -10.960  14.256  65.246  1.00  0.00    -0.347 A  
ENDBRANCH   5   6
ENDBRANCH   4   5
ENDBRANCH   2   4
TORSDOF 3
ENDMDL
MODEL       32
REMARK 921   NORMALIZED FREE ENERGY PREDICTED BY IDOCK:   -5.36 KCAL/MOL
REMARK 922        TOTAL FREE ENERGY PREDICTED BY IDOCK:   -6.80 KCAL/MOL
REMARK 923 INTER-LIGAND FREE ENERGY PREDICTED BY IDOCK:   -6.51 KCAL/MOL
REMARK 924 INTRA-LIGAND FREE ENERGY PREDICTED BY IDOCK:   -0.29 KCAL/MOL
REMARK 927      BINDING AFFINITY PREDICTED BY RF-SCORE:    0.00 PKD
ROOT
HETATM    1  C   UNL     1     -11.832  15.343  64.209  1.00  0.00    -0.199 C  
HETATM    2  N   UNL     1     -12.609  14.128  64.454  1.00  0.00    -0.678 NA 
HETATM    3  C   UNL     1     -12.225  13.091  63.494  1.00  0.00    -0.501 C  
ENDROOT
BRANCH   2   4
HETATM    4  C   UNL     1     -12.457  13.691  65.860  1.00  0.00    -0.452 C  
BRANCH   4   5
HETATM    5  C   UNL     1     -11.459  12.529  66.017  1.00  0.00    -0.423 C  
BRANCH   5   6
HETATM    6  C   UNL     1     -11.642  11.689  67.263  1.00  0.00    -0.316 C  
HETATM    7  C   UNL     1     -10.778  11.628  68.304  1.00  0.00    -0.246 C  
HETATM    8  C   UNL     1      -9.501  12.372  68.212  1.00  0.00    -0.203 A  
HETATM    9  C   UNL     1      -9.470  13.773  68.246  1.00  0.00    -0.214 A  
HETATM   10  C   UNL     1      -8.261  14.451  68.096  1.00  0.00    -0.149 A  
HETATM   11  C   UNL     1      -7.078  13.734  67.926  1.00  0.00    -0.161 A  
HETATM   12  C   UNL     1      -7.099  12.336  67.920  1.00  0.00    -0.105 A  
HETATM   13  C   UNL     1      -8.308  11.648  68.069  1.00  0.00    -0.148 A  
HETATM   14  C   UNL     1      -8.347  10.141  68.109  1.00  0.00    -0.117 C  
HETATM   15  C   UNL     1      -8.722   9.636  69.507  1.00  0.00    -0.191 C  
HETATM   16  C   UNL     1     -10.128   9.879  70.035  1.00  0.00    -0.308 A  
HETATM   17  C   UNL     1     -10.462   9.183  71.219  1.00  0.00    -0.398 A  
HETATM   18  C   UNL     1     -11.707   9.335  71.828  1.00  0.00    -0.456 A  
HETATM   19  C   UNL     1     -12.646  10.187  71.268  1.00  0.00    -0.508 A  
HETATM   20  C   UNL     1     -12.334  10.896  70.106  1.00  0.00    -0.399 A  
HETATM   21  C   UNL     1     -11.082  10.757  69.471  1.00  0.00    -0.334 A  
ENDBRANCH   5   6
ENDBRANCH   4   5
ENDBRANCH   2   4
TORSDOF 3
ENDMDL
MODEL       33
REMARK 921   NORMALIZED FREE ENERGY PREDICTED BY IDOCK:   -5.27 KCAL/MOL
REMARK 922        TOTAL FREE ENERGY PREDICTED BY IDOCK:   -6.69 KCAL/MOL
REMARK 923 INTER-LIGAND FREE ENERGY PREDICTED BY IDOCK:   -6.46 KCAL/MOL
REMARK 924 INTRA-LIGAND FREE ENERGY PREDICTED BY IDOCK:   -0.23 KCAL/MOL
REMARK 927      BINDING AFFINITY PREDICTED BY RF-SCORE:    0.00 PKD
ROOT
HETATM    1  C   UNL     1     -11.406  15.149  64.603  1.00  0.00    -0.356 C  
HETATM    2  N   UNL     1     -12.422  14.098  64.542  1.00  0.00    -0.655 NA 
HETATM    3  C   UNL     1     -11.978  13.032  63.641  1.00  0.00    -0.539 C  
ENDROOT
BRANCH   2   4
HETATM    4  C   UNL     1     -12.739  13.604  65.900  1.00  0.00    -0.372 C  
BRANCH   4   5
HETATM    5  C   UNL     1     -11.635  12.699  66.477  1.00  0.00    -0.441 C  
BRANCH   5   6
HETATM    6  C   UNL     1     -12.019  11.930  67.723  1.00  0.00    -0.149 C  
HETATM    7  C   UNL     1     -11.155  11.313  68.564  1.00  0.00    -0.288 C  
HETATM    8  C   UNL     1      -9.715  11.303  68.222  1.00  0.00    -0.199 A  
HETATM    9  C   UNL     1      -8.948  12.475  68.267  1.00  0.00    -0.178 A  
HETATM   10  C   UNL     1      -7.608  12.451  67.881  1.00  0.00    -0.130 A  
HETATM   11  C   UNL     1      -7.026  11.256  67.462  1.00  0.00    -0.091 A  
HETATM   12  C   UNL     1      -7.778  10.078  67.443  1.00  0.00    -0.095 A  
HETATM   13  C   UNL     1      -9.124  10.093  67.828  1.00  0.00    -0.135 A  
HETATM   14  C   UNL     1      -9.941   8.826  67.856  1.00  0.00    -0.231 C  
HETATM   15  C   UNL     1     -10.284   8.424  69.294  1.00  0.00    -0.211 C  
HETATM   16  C   UNL     1     -11.241   9.286  70.102  1.00  0.00    -0.237 A  
HETATM   17  C   UNL     1     -11.686   8.725  71.321  1.00  0.00    -0.356 A  
HETATM   18  C   UNL     1     -12.543   9.419  72.174  1.00  0.00    -0.423 A  
HETATM   19  C   UNL     1     -12.973  10.692  71.829  1.00  0.00    -0.577 A  
HETATM   20  C   UNL     1     -12.535  11.273  70.637  1.00  0.00    -0.439 A  
HETATM   21  C   UNL     1     -11.670  10.589  69.758  1.00  0.00    -0.354 A  
ENDBRANCH   5   6
ENDBRANCH   4   5
ENDBRANCH   2   4
TORSDOF 3
ENDMDL
MODEL       34
REMARK 921   NORMALIZED FREE ENERGY PREDICTED BY IDOCK:   -5.26 KCAL/MOL
REMARK 922        TOTAL FREE ENERGY PREDICTED BY IDOCK:   -6.68 KCAL/MOL
REMARK 923 INTER-LIGAND FREE ENERGY PREDICTED BY IDOCK:   -6.46 KCAL/MOL
REMARK 924 INTRA-LIGAND FREE ENERGY PREDICTED BY IDOCK:   -0.23 KCAL/MOL
REMARK 927      BINDING AFFINITY PREDICTED BY RF-SCORE:    0.00 PKD
ROOT
HETATM    1  C   UNL     1     -11.788  10.278  70.932  1.00  0.00    -0.377 C  
HETATM    2  N   UNL     1     -10.543   9.556  71.195  1.00  0.00    -0.332 NA 
HETATM    3  C   UNL     1     -10.809   8.409  72.065  1.00  0.00    -0.320 C  
ENDROOT
BRANCH   2   4
HETATM    4  C   UNL     1      -9.889   9.171  69.924  1.00  0.00    -0.190 C  
BRANCH   4   5
HETATM    5  C   UNL     1      -9.336  10.381  69.149  1.00  0.00    -0.211 C  
BRANCH   5   6
HETATM    6  C   UNL     1     -10.050  10.694  67.852  1.00  0.00    -0.194 C  
HETATM    7  C   UNL     1     -10.127  11.916  67.271  1.00  0.00    -0.213 C  
HETATM    8  C   UNL     1      -9.541  13.076  67.979  1.00  0.00    -0.224 A  
HETATM    9  C   UNL     1      -8.154  13.216  68.128  1.00  0.00    -0.155 A  
HETATM   10  C   UNL     1      -7.631  14.286  68.852  1.00  0.00    -0.113 A  
HETATM   11  C   UNL     1      -8.488  15.229  69.418  1.00  0.00    -0.231 A  
HETATM   12  C   UNL     1      -9.870  15.111  69.248  1.00  0.00    -0.231 A  
HETATM   13  C   UNL     1     -10.404  14.039  68.523  1.00  0.00    -0.247 A  
HETATM   14  C   UNL     1     -11.890  13.918  68.292  1.00  0.00    -0.412 C  
HETATM   15  C   UNL     1     -12.237  14.146  66.817  1.00  0.00    -0.429 C  
HETATM   16  C   UNL     1     -11.797  13.125  65.779  1.00  0.00    -0.442 A  
HETATM   17  C   UNL     1     -12.356  13.286  64.491  1.00  0.00    -0.428 A  
HETATM   18  C   UNL     1     -12.017  12.437  63.438  1.00  0.00    -0.595 A  
HETATM   19  C   UNL     1     -11.111  11.409  63.648  1.00  0.00    -0.411 A  
HETATM   20  C   UNL     1     -10.535  11.240  64.909  1.00  0.00    -0.375 A  
HETATM   21  C   UNL     1     -10.863  12.084  65.990  1.00  0.00    -0.329 A  
ENDBRANCH   5   6
ENDBRANCH   4   5
ENDBRANCH   2   4
TORSDOF 3
ENDMDL
MODEL       35
REMARK 921   NORMALIZED FREE ENERGY PREDICTED BY IDOCK:   -5.24 KCAL/MOL
REMARK 922        TOTAL FREE ENERGY PREDICTED BY IDOCK:   -6.66 KCAL/MOL
REMARK 923 INTER-LIGAND FREE ENERGY PREDICTED BY IDOCK:   -6.22 KCAL/MOL
REMARK 924 INTRA-LIGAND FREE ENERGY PREDICTED BY IDOCK:   -0.44 KCAL/MOL
REMARK 927      BINDING AFFINITY PREDICTED BY RF-SCORE:    0.00 PKD
ROOT
HETATM    1  C   UNL     1      -8.195  17.545  68.231  1.00  0.00    -0.263 C  
HETATM    2  N   UNL     1      -9.282  17.454  67.256  1.00  0.00    -0.232 NA 
HETATM    3  C   UNL     1      -8.874  16.603  66.136  1.00  0.00    -0.288 C  
ENDROOT
BRANCH   2   4
HETATM    4  C   UNL     1     -10.525  16.983  67.908  1.00  0.00    -0.354 C  
BRANCH   4   5
HETATM    5  C   UNL     1     -11.045  15.661  67.314  1.00  0.00    -0.238 C  
BRANCH   5   6
HETATM    6  C   UNL     1     -11.702  14.725  68.306  1.00  0.00    -0.340 C  
HETATM    7  C   UNL     1     -11.152  13.589  68.798  1.00  0.00    -0.298 C  
HETATM    8  C   UNL     1      -9.833  13.157  68.282  1.00  0.00    -0.227 A  
HETATM    9  C   UNL     1      -8.664  13.871  68.580  1.00  0.00    -0.134 A  
HETATM   10  C   UNL     1      -7.444  13.479  68.032  1.00  0.00    -0.140 A  
HETATM   11  C   UNL     1      -7.383  12.365  67.196  1.00  0.00    -0.081 A  
HETATM   12  C   UNL     1      -8.540  11.631  66.919  1.00  0.00    -0.174 A  
HETATM   13  C   UNL     1      -9.769  12.019  67.464  1.00  0.00    -0.188 A  
HETATM   14  C   UNL     1     -11.021  11.216  67.213  1.00  0.00    -0.354 C  
HETATM   15  C   UNL     1     -11.494  10.519  68.492  1.00  0.00    -0.284 C  
HETATM   16  C   UNL     1     -12.031  11.355  69.644  1.00  0.00    -0.416 A  
HETATM   17  C   UNL     1     -12.661  10.630  70.681  1.00  0.00    -0.445 A  
HETATM   18  C   UNL     1     -13.173  11.268  71.810  1.00  0.00    -0.480 A  
HETATM   19  C   UNL     1     -13.065  12.646  71.929  1.00  0.00    -0.470 A  
HETATM   20  C   UNL     1     -12.433  13.381  70.923  1.00  0.00    -0.439 A  
HETATM   21  C   UNL     1     -11.910  12.758  69.771  1.00  0.00    -0.380 A  
ENDBRANCH   5   6
ENDBRANCH   4   5
ENDBRANCH   2   4
TORSDOF 3
ENDMDL
MODEL       36
REMARK 921   NORMALIZED FREE ENERGY PREDICTED BY IDOCK:   -5.21 KCAL/MOL
REMARK 922        TOTAL FREE ENERGY PREDICTED BY IDOCK:   -6.62 KCAL/MOL
REMARK 923 INTER-LIGAND FREE ENERGY PREDICTED BY IDOCK:   -6.28 KCAL/MOL
REMARK 924 INTRA-LIGAND FREE ENERGY PREDICTED BY IDOCK:   -0.34 KCAL/MOL
REMARK 927      BINDING AFFINITY PREDICTED BY RF-SCORE:    0.00 PKD
ROOT
HETATM    1  C   UNL     1      -9.602   8.207  71.125  1.00  0.00    -0.160 C  
HETATM    2  N   UNL     1     -10.984   8.640  70.915  1.00  0.00    -0.244 NA 
HETATM    3  C   UNL     1     -11.738   8.514  72.165  1.00  0.00    -0.378 C  
ENDROOT
BRANCH   2   4
HETATM    4  C   UNL     1     -11.019  10.012  70.362  1.00  0.00    -0.320 C  
BRANCH   4   5
HETATM    5  C   UNL     1      -9.850  10.296  69.401  1.00  0.00    -0.247 C  
BRANCH   5   6
HETATM    6  C   UNL     1     -10.228  11.015  68.123  1.00  0.00    -0.201 C  
HETATM    7  C   UNL     1     -10.380  10.433  66.909  1.00  0.00    -0.297 C  
HETATM    8  C   UNL     1     -10.081   8.990  66.770  1.00  0.00    -0.344 A  
HETATM    9  C   UNL     1     -10.901   8.016  67.358  1.00  0.00    -0.146 A  
HETATM   10  C   UNL     1     -10.563   6.667  67.264  1.00  0.00    -0.387 A  
HETATM   11  C   UNL     1      -9.416   6.283  66.572  1.00  0.00    -0.181 A  
HETATM   12  C   UNL     1      -8.610   7.247  65.960  1.00  0.00    -0.160 A  
HETATM   13  C   UNL     1      -8.941   8.604  66.050  1.00  0.00    -0.227 A  
HETATM   14  C   UNL     1      -8.110   9.656  65.359  1.00  0.00    -0.127 C  
HETATM   15  C   UNL     1      -8.879  10.290  64.195  1.00  0.00    -0.239 C  
HETATM   16  C   UNL     1     -10.090  11.163  64.488  1.00  0.00    -0.364 A  
HETATM   17  C   UNL     1     -10.593  11.894  63.388  1.00  0.00    -0.485 A  
HETATM   18  C   UNL     1     -11.716  12.712  63.508  1.00  0.00    -0.604 A  
HETATM   19  C   UNL     1     -12.362  12.816  64.731  1.00  0.00    -0.540 A  
HETATM   20  C   UNL     1     -11.891  12.092  65.829  1.00  0.00    -0.342 A  
HETATM   21  C   UNL     1     -10.756  11.260  65.731  1.00  0.00    -0.284 A  
ENDBRANCH   5   6
ENDBRANCH   4   5
ENDBRANCH   2   4
TORSDOF 3
ENDMDL
MODEL       37
REMARK 921   NORMALIZED FREE ENERGY PREDICTED BY IDOCK:   -5.20 KCAL/MOL
REMARK 922        TOTAL FREE ENERGY PREDICTED BY IDOCK:   -6.61 KCAL/MOL
REMARK 923 INTER-LIGAND FREE ENERGY PREDICTED BY IDOCK:   -6.29 KCAL/MOL
REMARK 924 INTRA-LIGAND FREE ENERGY PREDICTED BY IDOCK:   -0.32 KCAL/MOL
REMARK 927      BINDING AFFINITY PREDICTED BY RF-SCORE:    0.00 PKD
ROOT
HETATM    1  C   UNL     1     -13.671  13.479  72.127  1.00  0.00    -0.559 C  
HETATM    2  N   UNL     1     -13.585  14.934  71.996  1.00  0.00    -0.367 NA 
HETATM    3  C   UNL     1     -12.693  15.473  73.026  1.00  0.00    -0.454 C  
ENDROOT
BRANCH   2   4
HETATM    4  C   UNL     1     -13.168  15.307  70.626  1.00  0.00    -0.323 C  
BRANCH   4   5
HETATM    5  C   UNL     1     -12.171  14.306  70.015  1.00  0.00    -0.417 C  
BRANCH   5   6
HETATM    6  C   UNL     1     -10.791  14.862  69.735  1.00  0.00    -0.255 C  
HETATM    7  C   UNL     1     -10.143  14.796  68.547  1.00  0.00    -0.230 C  
HETATM    8  C   UNL     1     -10.776  14.056  67.432  1.00  0.00    -0.285 A  
HETATM    9  C   UNL     1     -11.927  14.540  66.796  1.00  0.00    -0.364 A  
HETATM   10  C   UNL     1     -12.539  13.794  65.790  1.00  0.00    -0.525 A  
HETATM   11  C   UNL     1     -11.997  12.569  65.405  1.00  0.00    -0.492 A  
HETATM   12  C   UNL     1     -10.833  12.094  66.015  1.00  0.00    -0.318 A  
HETATM   13  C   UNL     1     -10.213  12.836  67.027  1.00  0.00    -0.245 A  
HETATM   14  C   UNL     1      -8.932  12.363  67.668  1.00  0.00    -0.183 C  
HETATM   15  C   UNL     1      -7.756  13.266  67.282  1.00  0.00    -0.100 C  
HETATM   16  C   UNL     1      -7.712  14.696  67.799  1.00  0.00    -0.169 A  
HETATM   17  C   UNL     1      -6.492  15.379  67.596  1.00  0.00    -0.190 A  
HETATM   18  C   UNL     1      -6.323  16.705  67.995  1.00  0.00    -0.146 A  
HETATM   19  C   UNL     1      -7.371  17.378  68.604  1.00  0.00    -0.244 A  
HETATM   20  C   UNL     1      -8.591  16.728  68.802  1.00  0.00    -0.255 A  
HETATM   21  C   UNL     1      -8.784  15.387  68.408  1.00  0.00    -0.171 A  
ENDBRANCH   5   6
ENDBRANCH   4   5
ENDBRANCH   2   4
TORSDOF 3
ENDMDL
MODEL       38
REMARK 921   NORMALIZED FREE ENERGY PREDICTED BY IDOCK:   -5.16 KCAL/MOL
REMARK 922        TOTAL FREE ENERGY PREDICTED BY IDOCK:   -6.56 KCAL/MOL
REMARK 923 INTER-LIGAND FREE ENERGY PREDICTED BY IDOCK:   -6.40 KCAL/MOL
REMARK 924 INTRA-LIGAND FREE ENERGY PREDICTED BY IDOCK:   -0.16 KCAL/MOL
REMARK 927      BINDING AFFINITY PREDICTED BY RF-SCORE:    0.00 PKD
ROOT
HETATM    1  C   UNL     1     -11.986  15.222  64.153  1.00  0.00    -0.130 C  
HETATM    2  N   UNL     1     -12.657  13.925  64.240  1.00  0.00    -0.684 NA 
HETATM    3  C   UNL     1     -11.959  12.947  63.402  1.00  0.00    -0.537 C  
ENDROOT
BRANCH   2   4
HETATM    4  C   UNL     1     -12.768  13.492  65.651  1.00  0.00    -0.421 C  
BRANCH   4   5
HETATM    5  C   UNL     1     -11.568  12.646  66.110  1.00  0.00    -0.445 C  
BRANCH   5   6
HETATM    6  C   UNL     1     -10.346  13.436  66.529  1.00  0.00    -0.284 C  
HETATM    7  C   UNL     1     -10.000  13.731  67.805  1.00  0.00    -0.242 C  
HETATM    8  C   UNL     1     -10.913  13.331  68.899  1.00  0.00    -0.278 A  
HETATM    9  C   UNL     1     -11.093  11.984  69.242  1.00  0.00    -0.246 A  
HETATM   10  C   UNL     1     -12.005  11.629  70.236  1.00  0.00    -0.445 A  
HETATM   11  C   UNL     1     -12.729  12.618  70.900  1.00  0.00    -0.274 A  
HETATM   12  C   UNL     1     -12.533  13.964  70.583  1.00  0.00    -0.436 A  
HETATM   13  C   UNL     1     -11.620  14.329  69.586  1.00  0.00    -0.351 A  
HETATM   14  C   UNL     1     -11.361  15.778  69.259  1.00  0.00    -0.350 C  
HETATM   15  C   UNL     1      -9.952  16.197  69.690  1.00  0.00    -0.179 C  
HETATM   16  C   UNL     1      -8.747  15.619  68.964  1.00  0.00    -0.240 A  
HETATM   17  C   UNL     1      -7.507  16.230  69.260  1.00  0.00    -0.217 A  
HETATM   18  C   UNL     1      -6.317  15.781  68.688  1.00  0.00    -0.107 A  
HETATM   19  C   UNL     1      -6.340  14.709  67.808  1.00  0.00    -0.170 A  
HETATM   20  C   UNL     1      -7.551  14.081  67.512  1.00  0.00    -0.195 A  
HETATM   21  C   UNL     1      -8.767  14.519  68.077  1.00  0.00    -0.167 A  
ENDBRANCH   5   6
ENDBRANCH   4   5
ENDBRANCH   2   4
TORSDOF 3
ENDMDL
MODEL       39
REMARK 921   NORMALIZED FREE ENERGY PREDICTED BY IDOCK:   -5.15 KCAL/MOL
REMARK 922        TOTAL FREE ENERGY PREDICTED BY IDOCK:   -6.55 KCAL/MOL
REMARK 923 INTER-LIGAND FREE ENERGY PREDICTED BY IDOCK:   -6.21 KCAL/MOL
REMARK 924 INTRA-LIGAND FREE ENERGY PREDICTED BY IDOCK:   -0.34 KCAL/MOL
REMARK 927      BINDING AFFINITY PREDICTED BY RF-SCORE:    0.00 PKD
ROOT
HETATM    1  C   UNL     1      -8.327  17.451  67.890  1.00  0.00    -0.230 C  
HETATM    2  N   UNL     1      -8.219  16.001  68.051  1.00  0.00    -0.148 NA 
HETATM    3  C   UNL     1      -6.827  15.583  67.870  1.00  0.00    -0.148 C  
ENDROOT
BRANCH   2   4
HETATM    4  C   UNL     1      -8.776  15.582  69.357  1.00  0.00    -0.258 C  
BRANCH   4   5
HETATM    5  C   UNL     1     -10.140  14.881  69.225  1.00  0.00    -0.201 C  
BRANCH   5   6
HETATM    6  C   UNL     1     -10.516  14.467  67.818  1.00  0.00    -0.245 C  
HETATM    7  C   UNL     1     -10.976  13.246  67.454  1.00  0.00    -0.287 C  
HETATM    8  C   UNL     1     -11.053  12.181  68.479  1.00  0.00    -0.295 A  
HETATM    9  C   UNL     1     -11.987  12.240  69.523  1.00  0.00    -0.333 A  
HETATM   10  C   UNL     1     -11.998  11.256  70.510  1.00  0.00    -0.467 A  
HETATM   11  C   UNL     1     -11.088  10.202  70.453  1.00  0.00    -0.393 A  
HETATM   12  C   UNL     1     -10.173  10.122  69.399  1.00  0.00    -0.246 A  
HETATM   13  C   UNL     1     -10.154  11.107  68.404  1.00  0.00    -0.193 A  
HETATM   14  C   UNL     1      -9.205  11.015  67.235  1.00  0.00    -0.156 C  
HETATM   15  C   UNL     1      -9.961  10.738  65.932  1.00  0.00    -0.304 C  
HETATM   16  C   UNL     1     -10.873  11.810  65.355  1.00  0.00    -0.347 A  
HETATM   17  C   UNL     1     -11.342  11.569  64.043  1.00  0.00    -0.380 A  
HETATM   18  C   UNL     1     -12.208  12.455  63.404  1.00  0.00    -0.623 A  
HETATM   19  C   UNL     1     -12.627  13.602  64.062  1.00  0.00    -0.147 A  
HETATM   20  C   UNL     1     -12.188  13.853  65.364  1.00  0.00    -0.463 A  
HETATM   21  C   UNL     1     -11.310  12.972  66.030  1.00  0.00    -0.343 A  
ENDBRANCH   5   6
ENDBRANCH   4   5
ENDBRANCH   2   4
TORSDOF 3
ENDMDL
MODEL       40
REMARK 921   NORMALIZED FREE ENERGY PREDICTED BY IDOCK:   -5.13 KCAL/MOL
REMARK 922        TOTAL FREE ENERGY PREDICTED BY IDOCK:   -6.52 KCAL/MOL
REMARK 923 INTER-LIGAND FREE ENERGY PREDICTED BY IDOCK:   -6.34 KCAL/MOL
REMARK 924 INTRA-LIGAND FREE ENERGY PREDICTED BY IDOCK:   -0.19 KCAL/MOL
REMARK 927      BINDING AFFINITY PREDICTED BY RF-SCORE:    0.00 PKD
ROOT
HETATM    1  C   UNL     1      -9.740  20.619  67.429  1.00  0.00    -0.411 C  
HETATM    2  N   UNL     1     -10.557  19.407  67.384  1.00  0.00    -0.465 NA 
HETATM    3  C   UNL     1     -10.529  18.838  66.034  1.00  0.00    -0.432 C  
ENDROOT
BRANCH   2   4
HETATM    4  C   UNL     1     -10.115  18.445  68.419  1.00  0.00    -0.390 C  
BRANCH   4   5
HETATM    5  C   UNL     1     -10.823  17.083  68.307  1.00  0.00    -0.341 C  
BRANCH   5   6
HETATM    6  C   UNL     1      -9.953  15.880  68.602  1.00  0.00    -0.214 C  
HETATM    7  C   UNL     1      -9.841  14.779  67.820  1.00  0.00    -0.214 C  
HETATM    8  C   UNL     1     -10.687  14.679  66.609  1.00  0.00    -0.305 A  
HETATM    9  C   UNL     1     -10.474  15.509  65.500  1.00  0.00    -0.407 A  
HETATM   10  C   UNL     1     -11.323  15.437  64.397  1.00  0.00    -0.246 A  
HETATM   11  C   UNL     1     -12.379  14.526  64.390  1.00  0.00    -0.437 A  
HETATM   12  C   UNL     1     -12.579  13.676  65.481  1.00  0.00    -0.541 A  
HETATM   13  C   UNL     1     -11.732  13.743  66.593  1.00  0.00    -0.421 A  
HETATM   14  C   UNL     1     -11.903  12.804  67.761  1.00  0.00    -0.387 C  
HETATM   15  C   UNL     1     -10.741  11.808  67.843  1.00  0.00    -0.241 C  
HETATM   16  C   UNL     1      -9.352  12.311  68.204  1.00  0.00    -0.205 A  
HETATM   17  C   UNL     1      -8.397  11.309  68.489  1.00  0.00    -0.155 A  
HETATM   18  C   UNL     1      -7.077  11.628  68.806  1.00  0.00    -0.106 A  
HETATM   19  C   UNL     1      -6.681  12.956  68.844  1.00  0.00    -0.097 A  
HETATM   20  C   UNL     1      -7.604  13.963  68.551  1.00  0.00    -0.134 A  
HETATM   21  C   UNL     1      -8.945  13.665  68.230  1.00  0.00    -0.187 A  
ENDBRANCH   5   6
ENDBRANCH   4   5
ENDBRANCH   2   4
TORSDOF 3
ENDMDL
MODEL       41
REMARK 921   NORMALIZED FREE ENERGY PREDICTED BY IDOCK:   -5.06 KCAL/MOL
REMARK 922        TOTAL FREE ENERGY PREDICTED BY IDOCK:   -6.44 KCAL/MOL
REMARK 923 INTER-LIGAND FREE ENERGY PREDICTED BY IDOCK:   -6.17 KCAL/MOL
REMARK 924 INTRA-LIGAND FREE ENERGY PREDICTED BY IDOCK:   -0.27 KCAL/MOL
REMARK 927      BINDING AFFINITY PREDICTED BY RF-SCORE:    0.00 PKD
ROOT
HETATM    1  C   UNL     1     -10.666  17.619  68.087  1.00  0.00    -0.307 C  
HETATM    2  N   UNL     1     -10.318  17.656  66.667  1.00  0.00    -0.343 NA 
HETATM    3  C   UNL     1     -10.382  19.035  66.176  1.00  0.00    -0.468 C  
ENDROOT
BRANCH   2   4
HETATM    4  C   UNL     1      -8.996  17.029  66.441  1.00  0.00    -0.275 C  
BRANCH   4   5
HETATM    5  C   UNL     1      -9.103  15.609  65.856  1.00  0.00    -0.277 C  
BRANCH   5   6
HETATM    6  C   UNL     1      -8.868  14.487  66.844  1.00  0.00    -0.257 C  
HETATM    7  C   UNL     1      -9.441  13.261  66.793  1.00  0.00    -0.257 C  
HETATM    8  C   UNL     1     -10.446  12.990  65.740  1.00  0.00    -0.292 A  
HETATM    9  C   UNL     1     -10.081  12.894  64.390  1.00  0.00    -0.265 A  
HETATM   10  C   UNL     1     -11.055  12.700  63.412  1.00  0.00    -0.354 A  
HETATM   11  C   UNL     1     -12.395  12.586  63.778  1.00  0.00    -0.595 A  
HETATM   12  C   UNL     1     -12.762  12.651  65.125  1.00  0.00    -0.329 A  
HETATM   13  C   UNL     1     -11.791  12.847  66.114  1.00  0.00    -0.487 A  
HETATM   14  C   UNL     1     -12.161  12.877  67.575  1.00  0.00    -0.251 C  
HETATM   15  C   UNL     1     -11.617  11.645  68.306  1.00  0.00    -0.378 C  
HETATM   16  C   UNL     1     -10.115  11.489  68.492  1.00  0.00    -0.211 A  
HETATM   17  C   UNL     1      -9.714  10.460  69.373  1.00  0.00    -0.222 A  
HETATM   18  C   UNL     1      -8.368  10.189  69.613  1.00  0.00    -0.174 A  
HETATM   19  C   UNL     1      -7.391  10.940  68.976  1.00  0.00    -0.113 A  
HETATM   20  C   UNL     1      -7.764  11.952  68.089  1.00  0.00    -0.126 A  
HETATM   21  C   UNL     1      -9.120  12.246  67.833  1.00  0.00    -0.190 A  
ENDBRANCH   5   6
ENDBRANCH   4   5
ENDBRANCH   2   4
TORSDOF 3
ENDMDL
MODEL       42
REMARK 921   NORMALIZED FREE ENERGY PREDICTED BY IDOCK:   -5.05 KCAL/MOL
REMARK 922        TOTAL FREE ENERGY PREDICTED BY IDOCK:   -6.44 KCAL/MOL
REMARK 923 INTER-LIGAND FREE ENERGY PREDICTED BY IDOCK:   -5.97 KCAL/MOL
REMARK 924 INTRA-LIGAND FREE ENERGY PREDICTED BY IDOCK:   -0.47 KCAL/MOL
REMARK 927      BINDING AFFINITY PREDICTED BY RF-SCORE:    0.00 PKD
ROOT
HETATM    1  C   UNL     1      -8.122  11.735  67.288  1.00  0.00    -0.164 C  
HETATM    2  N   UNL     1      -6.716  12.041  67.551  1.00  0.00    -0.106 NA 
HETATM    3  C   UNL     1      -5.870  11.392  66.546  1.00  0.00    -0.138 C  
ENDROOT
BRANCH   2   4
HETATM    4  C   UNL     1      -6.507  13.505  67.615  1.00  0.00    -0.160 C  
BRANCH   4   5
HETATM    5  C   UNL     1      -7.437  14.194  68.630  1.00  0.00    -0.125 C  
BRANCH   5   6
HETATM    6  C   UNL     1      -7.918  15.573  68.228  1.00  0.00    -0.132 C  
HETATM    7  C   UNL     1      -9.182  15.889  67.859  1.00  0.00    -0.198 C  
HETATM    8  C   UNL     1     -10.183  14.803  67.752  1.00  0.00    -0.232 A  
HETATM    9  C   UNL     1     -10.663  14.139  68.889  1.00  0.00    -0.270 A  
HETATM   10  C   UNL     1     -11.559  13.080  68.757  1.00  0.00    -0.350 A  
HETATM   11  C   UNL     1     -11.990  12.687  67.491  1.00  0.00    -0.314 A  
HETATM   12  C   UNL     1     -11.537  13.364  66.355  1.00  0.00    -0.381 A  
HETATM   13  C   UNL     1     -10.637  14.428  66.478  1.00  0.00    -0.296 A  
HETATM   14  C   UNL     1     -10.170  15.199  65.269  1.00  0.00    -0.400 C  
HETATM   15  C   UNL     1     -10.734  16.624  65.273  1.00  0.00    -0.219 C  
HETATM   16  C   UNL     1     -10.257  17.613  66.326  1.00  0.00    -0.362 A  
HETATM   17  C   UNL     1     -10.641  18.957  66.117  1.00  0.00    -0.476 A  
HETATM   18  C   UNL     1     -10.297  19.962  67.020  1.00  0.00    -0.592 A  
HETATM   19  C   UNL     1      -9.563  19.646  68.153  1.00  0.00    -0.474 A  
HETATM   20  C   UNL     1      -9.185  18.323  68.388  1.00  0.00    -0.332 A  
HETATM   21  C   UNL     1      -9.519  17.289  67.488  1.00  0.00    -0.245 A  
ENDBRANCH   5   6
ENDBRANCH   4   5
ENDBRANCH   2   4
TORSDOF 3
ENDMDL
MODEL       43
REMARK 921   NORMALIZED FREE ENERGY PREDICTED BY IDOCK:   -4.94 KCAL/MOL
REMARK 922        TOTAL FREE ENERGY PREDICTED BY IDOCK:   -6.31 KCAL/MOL
REMARK 923 INTER-LIGAND FREE ENERGY PREDICTED BY IDOCK:   -5.99 KCAL/MOL
REMARK 924 INTRA-LIGAND FREE ENERGY PREDICTED BY IDOCK:   -0.32 KCAL/MOL
REMARK 927      BINDING AFFINITY PREDICTED BY RF-SCORE:    0.00 PKD
ROOT
HETATM    1  C   UNL     1     -10.966  11.903  63.572  1.00  0.00    -0.432 C  
HETATM    2  N   UNL     1     -10.746  13.137  64.326  1.00  0.00    -0.406 NA 
HETATM    3  C   UNL     1     -11.979  13.927  64.355  1.00  0.00    -0.450 C  
ENDROOT
BRANCH   2   4
HETATM    4  C   UNL     1     -10.231  12.831  65.680  1.00  0.00    -0.279 C  
BRANCH   4   5
HETATM    5  C   UNL     1     -10.474  11.369  66.093  1.00  0.00    -0.303 C  
BRANCH   5   6
HETATM    6  C   UNL     1     -11.206  11.184  67.406  1.00  0.00    -0.363 C  
HETATM    7  C   UNL     1     -10.689  10.613  68.520  1.00  0.00    -0.252 C  
HETATM    8  C   UNL     1      -9.326  10.038  68.457  1.00  0.00    -0.145 A  
HETATM    9  C   UNL     1      -8.195  10.857  68.333  1.00  0.00    -0.133 A  
HETATM   10  C   UNL     1      -6.928  10.289  68.215  1.00  0.00    -0.073 A  
HETATM   11  C   UNL     1      -6.782   8.902  68.234  1.00  0.00    -0.065 A  
HETATM   12  C   UNL     1      -7.903   8.082  68.386  1.00  0.00    -0.122 A  
HETATM   13  C   UNL     1      -9.180   8.644  68.505  1.00  0.00    -0.138 A  
HETATM   14  C   UNL     1     -10.396   7.778  68.714  1.00  0.00    -0.219 C  
HETATM   15  C   UNL     1     -10.972   7.968  70.121  1.00  0.00    -0.226 C  
HETATM   16  C   UNL     1     -11.616   9.296  70.491  1.00  0.00    -0.266 A  
HETATM   17  C   UNL     1     -12.327   9.308  71.713  1.00  0.00    -0.454 A  
HETATM   18  C   UNL     1     -12.942  10.467  72.187  1.00  0.00    -0.393 A  
HETATM   19  C   UNL     1     -12.858  11.639  71.451  1.00  0.00    -0.461 A  
HETATM   20  C   UNL     1     -12.149  11.654  70.248  1.00  0.00    -0.443 A  
HETATM   21  C   UNL     1     -11.521  10.495  69.748  1.00  0.00    -0.365 A  
ENDBRANCH   5   6
ENDBRANCH   4   5
ENDBRANCH   2   4
TORSDOF 3
ENDMDL
MODEL       44
REMARK 921   NORMALIZED FREE ENERGY PREDICTED BY IDOCK:   -4.92 KCAL/MOL
REMARK 922        TOTAL FREE ENERGY PREDICTED BY IDOCK:   -6.28 KCAL/MOL
REMARK 923 INTER-LIGAND FREE ENERGY PREDICTED BY IDOCK:   -5.91 KCAL/MOL
REMARK 924 INTRA-LIGAND FREE ENERGY PREDICTED BY IDOCK:   -0.37 KCAL/MOL
REMARK 927      BINDING AFFINITY PREDICTED BY RF-SCORE:    0.00 PKD
ROOT
HETATM    1  C   UNL     1     -10.655  18.990  67.139  1.00  0.00    -0.462 C  
HETATM    2  N   UNL     1      -9.621  18.264  67.876  1.00  0.00    -0.281 NA 
HETATM    3  C   UNL     1      -8.540  19.180  68.247  1.00  0.00    -0.335 C  
ENDROOT
BRANCH   2   4
HETATM    4  C   UNL     1     -10.209  17.570  69.044  1.00  0.00    -0.314 C  
BRANCH   4   5
HETATM    5  C   UNL     1     -10.740  16.167  68.698  1.00  0.00    -0.295 C  
BRANCH   5   6
HETATM    6  C   UNL     1      -9.682  15.090  68.579  1.00  0.00    -0.217 C  
HETATM    7  C   UNL     1      -9.549  14.232  67.540  1.00  0.00    -0.216 C  
HETATM    8  C   UNL     1     -10.552  14.270  66.452  1.00  0.00    -0.286 A  
HETATM    9  C   UNL     1     -10.627  15.355  65.567  1.00  0.00    -0.400 A  
HETATM   10  C   UNL     1     -11.620  15.395  64.590  1.00  0.00    -0.311 A  
HETATM   11  C   UNL     1     -12.534  14.348  64.483  1.00  0.00    -0.362 A  
HETATM   12  C   UNL     1     -12.447  13.251  65.344  1.00  0.00    -0.543 A  
HETATM   13  C   UNL     1     -11.453  13.202  66.328  1.00  0.00    -0.372 A  
HETATM   14  C   UNL     1     -11.315  12.007  67.238  1.00  0.00    -0.394 C  
HETATM   15  C   UNL     1     -10.033  11.226  66.931  1.00  0.00    -0.238 C  
HETATM   16  C   UNL     1      -8.683  11.857  67.237  1.00  0.00    -0.171 A  
HETATM   17  C   UNL     1      -7.571  10.989  67.147  1.00  0.00    -0.117 A  
HETATM   18  C   UNL     1      -6.272  11.442  67.374  1.00  0.00    -0.078 A  
HETATM   19  C   UNL     1      -6.055  12.774  67.694  1.00  0.00    -0.152 A  
HETATM   20  C   UNL     1      -7.137  13.654  67.773  1.00  0.00    -0.167 A  
HETATM   21  C   UNL     1      -8.460  13.217  67.550  1.00  0.00    -0.202 A  
ENDBRANCH   5   6
ENDBRANCH   4   5
ENDBRANCH   2   4
TORSDOF 3
ENDMDL
MODEL       45
REMARK 921   NORMALIZED FREE ENERGY PREDICTED BY IDOCK:   -4.92 KCAL/MOL
REMARK 922        TOTAL FREE ENERGY PREDICTED BY IDOCK:   -6.28 KCAL/MOL
REMARK 923 INTER-LIGAND FREE ENERGY PREDICTED BY IDOCK:   -6.05 KCAL/MOL
REMARK 924 INTRA-LIGAND FREE ENERGY PREDICTED BY IDOCK:   -0.23 KCAL/MOL
REMARK 927      BINDING AFFINITY PREDICTED BY RF-SCORE:    0.00 PKD
ROOT
HETATM    1  C   UNL     1      -6.583   8.217  63.802  1.00  0.00    -0.075 C  
HETATM    2  N   UNL     1      -7.260   9.506  63.945  1.00  0.00    -0.107 NA 
HETATM    3  C   UNL     1      -8.109   9.753  62.777  1.00  0.00    -0.132 C  
ENDROOT
BRANCH   2   4
HETATM    4  C   UNL     1      -8.012   9.558  65.219  1.00  0.00    -0.112 C  
BRANCH   4   5
HETATM    5  C   UNL     1      -8.636  10.939  65.486  1.00  0.00    -0.149 C  
BRANCH   5   6
HETATM    6  C   UNL     1      -9.357  11.074  66.810  1.00  0.00    -0.199 C  
HETATM    7  C   UNL     1     -10.568  11.654  66.991  1.00  0.00    -0.272 C  
HETATM    8  C   UNL     1     -11.232  12.289  65.830  1.00  0.00    -0.378 A  
HETATM    9  C   UNL     1     -11.738  11.523  64.771  1.00  0.00    -0.013 A  
HETATM   10  C   UNL     1     -12.304  12.149  63.661  1.00  0.00    -0.673 A  
HETATM   11  C   UNL     1     -12.380  13.540  63.609  1.00  0.00    -0.377 A  
HETATM   12  C   UNL     1     -11.903  14.308  64.675  1.00  0.00    -0.459 A  
HETATM   13  C   UNL     1     -11.333  13.688  65.793  1.00  0.00    -0.315 A  
HETATM   14  C   UNL     1     -10.853  14.496  66.972  1.00  0.00    -0.297 C  
HETATM   15  C   UNL     1     -11.741  14.262  68.199  1.00  0.00    -0.385 C  
HETATM   16  C   UNL     1     -11.729  12.903  68.881  1.00  0.00    -0.370 A  
HETATM   17  C   UNL     1     -12.386  12.843  70.131  1.00  0.00    -0.249 A  
HETATM   18  C   UNL     1     -12.476  11.652  70.851  1.00  0.00    -0.440 A  
HETATM   19  C   UNL     1     -11.912  10.494  70.338  1.00  0.00    -0.425 A  
HETATM   20  C   UNL     1     -11.270  10.526  69.098  1.00  0.00    -0.314 A  
HETATM   21  C   UNL     1     -11.165  11.719  68.352  1.00  0.00    -0.307 A  
ENDBRANCH   5   6
ENDBRANCH   4   5
ENDBRANCH   2   4
TORSDOF 3
ENDMDL
MODEL       46
REMARK 921   NORMALIZED FREE ENERGY PREDICTED BY IDOCK:   -4.89 KCAL/MOL
REMARK 922        TOTAL FREE ENERGY PREDICTED BY IDOCK:   -6.25 KCAL/MOL
REMARK 923 INTER-LIGAND FREE ENERGY PREDICTED BY IDOCK:   -5.79 KCAL/MOL
REMARK 924 INTRA-LIGAND FREE ENERGY PREDICTED BY IDOCK:   -0.46 KCAL/MOL
REMARK 927      BINDING AFFINITY PREDICTED BY RF-SCORE:    0.00 PKD
ROOT
HETATM    1  C   UNL     1      -7.471   4.781  73.149  1.00  0.00    -0.087 C  
HETATM    2  N   UNL     1      -8.125   5.223  71.918  1.00  0.00    -0.112 NA 
HETATM    3  C   UNL     1      -7.170   5.961  71.087  1.00  0.00    -0.074 C  
ENDROOT
BRANCH   2   4
HETATM    4  C   UNL     1      -8.729   4.072  71.210  1.00  0.00    -0.090 C  
BRANCH   4   5
HETATM    5  C   UNL     1      -9.922   4.477  70.326  1.00  0.00    -0.288 C  
BRANCH   5   6
HETATM    6  C   UNL     1     -10.869   5.483  70.945  1.00  0.00    -0.246 C  
HETATM    7  C   UNL     1     -11.237   6.662  70.389  1.00  0.00    -0.398 C  
HETATM    8  C   UNL     1     -10.619   7.066  69.106  1.00  0.00    -0.235 A  
HETATM    9  C   UNL     1     -10.911   6.393  67.912  1.00  0.00    -0.404 A  
HETATM   10  C   UNL     1     -10.269   6.754  66.728  1.00  0.00    -0.273 A  
HETATM   11  C   UNL     1      -9.344   7.797  66.729  1.00  0.00    -0.227 A  
HETATM   12  C   UNL     1      -9.070   8.492  67.910  1.00  0.00    -0.145 A  
HETATM   13  C   UNL     1      -9.710   8.135  69.103  1.00  0.00    -0.163 A  
HETATM   14  C   UNL     1      -9.461   8.900  70.379  1.00  0.00    -0.227 C  
HETATM   15  C   UNL     1     -10.704   9.693  70.796  1.00  0.00    -0.401 C  
HETATM   16  C   UNL     1     -11.946   8.947  71.259  1.00  0.00    -0.365 A  
HETATM   17  C   UNL     1     -12.953   9.746  71.846  1.00  0.00    -0.535 A  
HETATM   18  C   UNL     1     -14.156   9.196  72.287  1.00  0.00    -0.439 A  
HETATM   19  C   UNL     1     -14.380   7.834  72.151  1.00  0.00    -0.376 A  
HETATM   20  C   UNL     1     -13.405   7.027  71.561  1.00  0.00    -0.370 A  
HETATM   21  C   UNL     1     -12.180   7.561  71.109  1.00  0.00    -0.330 A  
ENDBRANCH   5   6
ENDBRANCH   4   5
ENDBRANCH   2   4
TORSDOF 3
ENDMDL
MODEL       47
REMARK 921   NORMALIZED FREE ENERGY PREDICTED BY IDOCK:   -4.87 KCAL/MOL
REMARK 922        TOTAL FREE ENERGY PREDICTED BY IDOCK:   -6.22 KCAL/MOL
REMARK 923 INTER-LIGAND FREE ENERGY PREDICTED BY IDOCK:   -5.65 KCAL/MOL
REMARK 924 INTRA-LIGAND FREE ENERGY PREDICTED BY IDOCK:   -0.58 KCAL/MOL
REMARK 927      BINDING AFFINITY PREDICTED BY RF-SCORE:    0.00 PKD
ROOT
HETATM    1  C   UNL     1      -8.788  15.863  68.799  1.00  0.00    -0.213 C  
HETATM    2  N   UNL     1      -8.812  14.727  67.878  1.00  0.00    -0.163 NA 
HETATM    3  C   UNL     1      -9.090  15.195  66.519  1.00  0.00    -0.294 C  
ENDROOT
BRANCH   2   4
HETATM    4  C   UNL     1      -7.551  13.958  67.972  1.00  0.00    -0.144 C  
BRANCH   4   5
HETATM    5  C   UNL     1      -7.680  12.533  67.404  1.00  0.00    -0.167 C  
BRANCH   5   6
HETATM    6  C   UNL     1      -8.296  11.519  68.344  1.00  0.00    -0.154 C  
HETATM    7  C   UNL     1      -9.585  11.103  68.317  1.00  0.00    -0.185 C  
HETATM    8  C   UNL     1     -10.514  11.731  67.351  1.00  0.00    -0.238 A  
HETATM    9  C   UNL     1     -10.395  11.506  65.973  1.00  0.00    -0.290 A  
HETATM   10  C   UNL     1     -11.244  12.158  65.080  1.00  0.00    -0.378 A  
HETATM   11  C   UNL     1     -12.224  13.027  65.560  1.00  0.00    -0.521 A  
HETATM   12  C   UNL     1     -12.366  13.233  66.934  1.00  0.00    -0.220 A  
HETATM   13  C   UNL     1     -11.517  12.583  67.838  1.00  0.00    -0.369 A  
HETATM   14  C   UNL     1     -11.683  12.758  69.327  1.00  0.00    -0.376 C  
HETATM   15  C   UNL     1     -12.180  11.465  69.981  1.00  0.00    -0.377 C  
HETATM   16  C   UNL     1     -11.263  10.253  70.032  1.00  0.00    -0.376 A  
HETATM   17  C   UNL     1     -11.703   9.190  70.853  1.00  0.00    -0.341 A  
HETATM   18  C   UNL     1     -10.974   8.007  70.968  1.00  0.00    -0.263 A  
HETATM   19  C   UNL     1      -9.789   7.859  70.263  1.00  0.00    -0.184 A  
HETATM   20  C   UNL     1      -9.342   8.890  69.434  1.00  0.00    -0.153 A  
HETATM   21  C   UNL     1     -10.061  10.096  69.304  1.00  0.00    -0.237 A  
ENDBRANCH   5   6
ENDBRANCH   4   5
ENDBRANCH   2   4
TORSDOF 3
ENDMDL
MODEL       48
REMARK 921   NORMALIZED FREE ENERGY PREDICTED BY IDOCK:   -4.84 KCAL/MOL
REMARK 922        TOTAL FREE ENERGY PREDICTED BY IDOCK:   -6.19 KCAL/MOL
REMARK 923 INTER-LIGAND FREE ENERGY PREDICTED BY IDOCK:   -5.92 KCAL/MOL
REMARK 924 INTRA-LIGAND FREE ENERGY PREDICTED BY IDOCK:   -0.27 KCAL/MOL
REMARK 927      BINDING AFFINITY PREDICTED BY RF-SCORE:    0.00 PKD
ROOT
HETATM    1  C   UNL     1     -11.492  15.572  67.966  1.00  0.00    -0.308 C  
HETATM    2  N   UNL     1     -12.022  14.238  67.682  1.00  0.00    -0.385 NA 
HETATM    3  C   UNL     1     -11.955  13.973  66.243  1.00  0.00    -0.432 C  
ENDROOT
BRANCH   2   4
HETATM    4  C   UNL     1     -11.313  13.217  68.485  1.00  0.00    -0.284 C  
BRANCH   4   5
HETATM    5  C   UNL     1     -11.481  11.795  67.922  1.00  0.00    -0.387 C  
BRANCH   5   6
HETATM    6  C   UNL     1     -11.587  10.700  68.962  1.00  0.00    -0.332 C  
HETATM    7  C   UNL     1     -10.752   9.639  69.075  1.00  0.00    -0.232 C  
HETATM    8  C   UNL     1      -9.685   9.464  68.064  1.00  0.00    -0.167 A  
HETATM    9  C   UNL     1      -8.592  10.339  68.000  1.00  0.00    -0.118 A  
HETATM   10  C   UNL     1      -7.632  10.189  67.000  1.00  0.00    -0.092 A  
HETATM   11  C   UNL     1      -7.751   9.158  66.069  1.00  0.00    -0.095 A  
HETATM   12  C   UNL     1      -8.824   8.265  66.146  1.00  0.00    -0.200 A  
HETATM   13  C   UNL     1      -9.793   8.409  67.146  1.00  0.00    -0.279 A  
HETATM   14  C   UNL     1     -10.933   7.430  67.273  1.00  0.00    -0.234 C  
HETATM   15  C   UNL     1     -10.792   6.581  68.541  1.00  0.00    -0.353 C  
HETATM   16  C   UNL     1     -10.953   7.240  69.902  1.00  0.00    -0.262 A  
HETATM   17  C   UNL     1     -11.044   6.355  71.000  1.00  0.00    -0.349 A  
HETATM   18  C   UNL     1     -11.165   6.824  72.307  1.00  0.00    -0.295 A  
HETATM   19  C   UNL     1     -11.196   8.190  72.547  1.00  0.00    -0.459 A  
HETATM   20  C   UNL     1     -11.092   9.084  71.479  1.00  0.00    -0.419 A  
HETATM   21  C   UNL     1     -10.971   8.632  70.148  1.00  0.00    -0.234 A  
ENDBRANCH   5   6
ENDBRANCH   4   5
ENDBRANCH   2   4
TORSDOF 3
ENDMDL
MODEL       49
REMARK 921   NORMALIZED FREE ENERGY PREDICTED BY IDOCK:   -4.79 KCAL/MOL
REMARK 922        TOTAL FREE ENERGY PREDICTED BY IDOCK:   -6.13 KCAL/MOL
REMARK 923 INTER-LIGAND FREE ENERGY PREDICTED BY IDOCK:   -5.91 KCAL/MOL
REMARK 924 INTRA-LIGAND FREE ENERGY PREDICTED BY IDOCK:   -0.22 KCAL/MOL
REMARK 927      BINDING AFFINITY PREDICTED BY RF-SCORE:    0.00 PKD
ROOT
HETATM    1  C   UNL     1     -13.088   8.616  72.154  1.00  0.00    -0.383 C  
HETATM    2  N   UNL     1     -12.324   9.484  71.258  1.00  0.00    -0.326 NA 
HETATM    3  C   UNL     1     -12.678  10.884  71.503  1.00  0.00    -0.428 C  
ENDROOT
BRANCH   2   4
HETATM    4  C   UNL     1     -10.873   9.228  71.402  1.00  0.00    -0.364 C  
BRANCH   4   5
HETATM    5  C   UNL     1     -10.180   8.956  70.055  1.00  0.00    -0.214 C  
BRANCH   5   6
HETATM    6  C   UNL     1     -10.397  10.015  68.995  1.00  0.00    -0.223 C  
HETATM    7  C   UNL     1     -10.418   9.797  67.658  1.00  0.00    -0.305 C  
HETATM    8  C   UNL     1     -10.130   8.435  67.156  1.00  0.00    -0.335 A  
HETATM    9  C   UNL     1     -11.027   7.378  67.359  1.00  0.00    -0.214 A  
HETATM   10  C   UNL     1     -10.704   6.091  66.930  1.00  0.00    -0.407 A  
HETATM   11  C   UNL     1      -9.491   5.857  66.284  1.00  0.00    -0.161 A  
HETATM   12  C   UNL     1      -8.605   6.913  66.052  1.00  0.00    -0.150 A  
HETATM   13  C   UNL     1      -8.921   8.207  66.481  1.00  0.00    -0.191 A  
HETATM   14  C   UNL     1      -7.998   9.367  66.203  1.00  0.00    -0.110 C  
HETATM   15  C   UNL     1      -8.618  10.332  65.186  1.00  0.00    -0.181 C  
HETATM   16  C   UNL     1      -9.839  11.149  65.581  1.00  0.00    -0.280 A  
HETATM   17  C   UNL     1     -10.200  12.177  64.680  1.00  0.00    -0.312 A  
HETATM   18  C   UNL     1     -11.316  12.983  64.904  1.00  0.00    -0.332 A  
HETATM   19  C   UNL     1     -12.096  12.779  66.032  1.00  0.00    -0.458 A  
HETATM   20  C   UNL     1     -11.766  11.760  66.928  1.00  0.00    -0.221 A  
HETATM   21  C   UNL     1     -10.642  10.933  66.724  1.00  0.00    -0.313 A  
ENDBRANCH   5   6
ENDBRANCH   4   5
ENDBRANCH   2   4
TORSDOF 3
ENDMDL
MODEL       50
REMARK 921   NORMALIZED FREE ENERGY PREDICTED BY IDOCK:   -4.78 KCAL/MOL
REMARK 922        TOTAL FREE ENERGY PREDICTED BY IDOCK:   -6.11 KCAL/MOL
REMARK 923 INTER-LIGAND FREE ENERGY PREDICTED BY IDOCK:   -5.82 KCAL/MOL
REMARK 924 INTRA-LIGAND FREE ENERGY PREDICTED BY IDOCK:   -0.29 KCAL/MOL
REMARK 927      BINDING AFFINITY PREDICTED BY RF-SCORE:    0.00 PKD
ROOT
HETATM    1  C   UNL     1     -10.362   8.745  71.200  1.00  0.00    -0.246 C  
HETATM    2  N   UNL     1     -11.376   9.592  70.572  1.00  0.00    -0.277 NA 
HETATM    3  C   UNL     1     -12.297  10.102  71.591  1.00  0.00    -0.377 C  
ENDROOT
BRANCH   2   4
HETATM    4  C   UNL     1     -10.735  10.672  69.789  1.00  0.00    -0.230 C  
BRANCH   4   5
HETATM    5  C   UNL     1     -11.285  10.773  68.354  1.00  0.00    -0.345 C  
BRANCH   5   6
HETATM    6  C   UNL     1     -10.522   9.976  67.317  1.00  0.00    -0.313 C  
HETATM    7  C   UNL     1      -9.788  10.500  66.306  1.00  0.00    -0.269 C  
HETATM    8  C   UNL     1      -9.774  11.969  66.126  1.00  0.00    -0.254 A  
HETATM    9  C   UNL     1      -9.136  12.811  67.048  1.00  0.00    -0.220 A  
HETATM   10  C   UNL     1      -9.190  14.195  66.888  1.00  0.00    -0.270 A  
HETATM   11  C   UNL     1      -9.868  14.744  65.801  1.00  0.00    -0.373 A  
HETATM   12  C   UNL     1     -10.481  13.909  64.863  1.00  0.00    -0.446 A  
HETATM   13  C   UNL     1     -10.433  12.519  65.016  1.00  0.00    -0.323 A  
HETATM   14  C   UNL     1     -11.050  11.600  63.992  1.00  0.00    -0.458 C  
HETATM   15  C   UNL     1      -9.972  10.827  63.224  1.00  0.00    -0.369 C  
HETATM   16  C   UNL     1      -9.147   9.776  63.952  1.00  0.00    -0.275 A  
HETATM   17  C   UNL     1      -8.348   8.952  63.127  1.00  0.00    -0.185 A  
HETATM   18  C   UNL     1      -7.520   7.966  63.664  1.00  0.00    -0.118 A  
HETATM   19  C   UNL     1      -7.471   7.785  65.038  1.00  0.00    -0.089 A  
HETATM   20  C   UNL     1      -8.240   8.598  65.873  1.00  0.00    -0.123 A  
HETATM   21  C   UNL     1      -9.086   9.599  65.353  1.00  0.00    -0.265 A  
ENDBRANCH   5   6
ENDBRANCH   4   5
ENDBRANCH   2   4
TORSDOF 3
ENDMDL
MODEL       51
REMARK 921   NORMALIZED FREE ENERGY PREDICTED BY IDOCK:   -4.76 KCAL/MOL
REMARK 922        TOTAL FREE ENERGY PREDICTED BY IDOCK:   -6.09 KCAL/MOL
REMARK 923 INTER-LIGAND FREE ENERGY PREDICTED BY IDOCK:   -5.77 KCAL/MOL
REMARK 924 INTRA-LIGAND FREE ENERGY PREDICTED BY IDOCK:   -0.33 KCAL/MOL
REMARK 927      BINDING AFFINITY PREDICTED BY RF-SCORE:    0.00 PKD
ROOT
HETATM    1  C   UNL     1     -11.111   9.133  71.487  1.00  0.00    -0.365 C  
HETATM    2  N   UNL     1     -12.542   9.192  71.190  1.00  0.00    -0.274 NA 
HETATM    3  C   UNL     1     -13.312   9.030  72.425  1.00  0.00    -0.460 C  
ENDROOT
BRANCH   2   4
HETATM    4  C   UNL     1     -12.870  10.445  70.472  1.00  0.00    -0.254 C  
BRANCH   4   5
HETATM    5  C   UNL     1     -11.638  11.338  70.241  1.00  0.00    -0.366 C  
BRANCH   5   6
HETATM    6  C   UNL     1     -11.750  12.298  69.075  1.00  0.00    -0.376 C  
HETATM    7  C   UNL     1     -10.906  12.351  68.017  1.00  0.00    -0.251 C  
HETATM    8  C   UNL     1      -9.721  11.464  68.008  1.00  0.00    -0.190 A  
HETATM    9  C   UNL     1      -9.850  10.077  67.856  1.00  0.00    -0.171 A  
HETATM   10  C   UNL     1      -8.723   9.258  67.912  1.00  0.00    -0.124 A  
HETATM   11  C   UNL     1      -7.463   9.820  68.106  1.00  0.00    -0.081 A  
HETATM   12  C   UNL     1      -7.324  11.205  68.229  1.00  0.00    -0.090 A  
HETATM   13  C   UNL     1      -8.451  12.036  68.174  1.00  0.00    -0.171 A  
HETATM   14  C   UNL     1      -8.318  13.535  68.261  1.00  0.00    -0.165 C  
HETATM   15  C   UNL     1      -8.663  14.197  66.922  1.00  0.00    -0.187 C  
HETATM   16  C   UNL     1     -10.097  14.160  66.418  1.00  0.00    -0.299 A  
HETATM   17  C   UNL     1     -10.374  14.988  65.307  1.00  0.00    -0.424 A  
HETATM   18  C   UNL     1     -11.641  15.029  64.725  1.00  0.00    -0.395 A  
HETATM   19  C   UNL     1     -12.660  14.242  65.241  1.00  0.00    -0.405 A  
HETATM   20  C   UNL     1     -12.406  13.405  66.330  1.00  0.00    -0.410 A  
HETATM   21  C   UNL     1     -11.133  13.348  66.936  1.00  0.00    -0.309 A  
ENDBRANCH   5   6
ENDBRANCH   4   5
ENDBRANCH   2   4
TORSDOF 3
ENDMDL
MODEL       52
REMARK 921   NORMALIZED FREE ENERGY PREDICTED BY IDOCK:   -4.66 KCAL/MOL
REMARK 922        TOTAL FREE ENERGY PREDICTED BY IDOCK:   -5.97 KCAL/MOL
REMARK 923 INTER-LIGAND FREE ENERGY PREDICTED BY IDOCK:   -5.57 KCAL/MOL
REMARK 924 INTRA-LIGAND FREE ENERGY PREDICTED BY IDOCK:   -0.40 KCAL/MOL
REMARK 927      BINDING AFFINITY PREDICTED BY RF-SCORE:    0.00 PKD
ROOT
HETATM    1  C   UNL     1      -6.298   6.603  67.944  1.00  0.00    -0.047 C  
HETATM    2  N   UNL     1      -6.921   7.105  69.169  1.00  0.00    -0.072 NA 
HETATM    3  C   UNL     1      -6.817   6.097  70.227  1.00  0.00    -0.054 C  
ENDROOT
BRANCH   2   4
HETATM    4  C   UNL     1      -6.326   8.404  69.557  1.00  0.00    -0.037 C  
BRANCH   4   5
HETATM    5  C   UNL     1      -7.294   9.584  69.355  1.00  0.00    -0.084 C  
BRANCH   5   6
HETATM    6  C   UNL     1      -8.552   9.535  70.195  1.00  0.00    -0.250 C  
HETATM    7  C   UNL     1      -9.818   9.627  69.721  1.00  0.00    -0.253 C  
HETATM    8  C   UNL     1     -10.019   9.875  68.276  1.00  0.00    -0.172 A  
HETATM    9  C   UNL     1      -9.713   8.898  67.318  1.00  0.00    -0.235 A  
HETATM   10  C   UNL     1      -9.854   9.179  65.960  1.00  0.00    -0.342 A  
HETATM   11  C   UNL     1     -10.313  10.430  65.552  1.00  0.00    -0.265 A  
HETATM   12  C   UNL     1     -10.647  11.399  66.502  1.00  0.00    -0.309 A  
HETATM   13  C   UNL     1     -10.508  11.126  67.869  1.00  0.00    -0.220 A  
HETATM   14  C   UNL     1     -10.904  12.141  68.911  1.00  0.00    -0.241 C  
HETATM   15  C   UNL     1     -12.145  11.682  69.684  1.00  0.00    -0.345 C  
HETATM   16  C   UNL     1     -12.043  10.482  70.614  1.00  0.00    -0.452 A  
HETATM   17  C   UNL     1     -13.155  10.272  71.461  1.00  0.00    -0.534 A  
HETATM   18  C   UNL     1     -13.206   9.193  72.343  1.00  0.00    -0.512 A  
HETATM   19  C   UNL     1     -12.148   8.299  72.397  1.00  0.00    -0.430 A  
HETATM   20  C   UNL     1     -11.045   8.478  71.559  1.00  0.00    -0.343 A  
HETATM   21  C   UNL     1     -10.969   9.563  70.661  1.00  0.00    -0.370 A  
ENDBRANCH   5   6
ENDBRANCH   4   5
ENDBRANCH   2   4
TORSDOF 3
ENDMDL
MODEL       53
REMARK 921   NORMALIZED FREE ENERGY PREDICTED BY IDOCK:   -4.65 KCAL/MOL
REMARK 922        TOTAL FREE ENERGY PREDICTED BY IDOCK:   -5.96 KCAL/MOL
REMARK 923 INTER-LIGAND FREE ENERGY PREDICTED BY IDOCK:   -5.52 KCAL/MOL
REMARK 924 INTRA-LIGAND FREE ENERGY PREDICTED BY IDOCK:   -0.45 KCAL/MOL
REMARK 927      BINDING AFFINITY PREDICTED BY RF-SCORE:    0.00 PKD
ROOT
HETATM    1  C   UNL     1      -9.708   5.233  66.746  1.00  0.00    -0.160 C  
HETATM    2  N   UNL     1     -10.662   5.962  67.582  1.00  0.00    -0.270 NA 
HETATM    3  C   UNL     1     -10.159   6.041  68.955  1.00  0.00    -0.176 C  
ENDROOT
BRANCH   2   4
HETATM    4  C   UNL     1     -10.949   7.293  67.001  1.00  0.00    -0.173 C  
BRANCH   4   5
HETATM    5  C   UNL     1      -9.688   8.164  66.857  1.00  0.00    -0.291 C  
BRANCH   5   6
HETATM    6  C   UNL     1      -9.941   9.655  66.790  1.00  0.00    -0.289 C  
HETATM    7  C   UNL     1      -9.929  10.503  67.846  1.00  0.00    -0.193 C  
HETATM    8  C   UNL     1      -9.735   9.945  69.203  1.00  0.00    -0.204 A  
HETATM    9  C   UNL     1      -8.504   9.406  69.601  1.00  0.00    -0.166 A  
HETATM   10  C   UNL     1      -8.365   8.831  70.863  1.00  0.00    -0.196 A  
HETATM   11  C   UNL     1      -9.450   8.804  71.738  1.00  0.00    -0.363 A  
HETATM   12  C   UNL     1     -10.672   9.365  71.358  1.00  0.00    -0.407 A  
HETATM   13  C   UNL     1     -10.821   9.944  70.092  1.00  0.00    -0.356 A  
HETATM   14  C   UNL     1     -12.117  10.593  69.679  1.00  0.00    -0.312 C  
HETATM   15  C   UNL     1     -11.958  12.112  69.557  1.00  0.00    -0.338 C  
HETATM   16  C   UNL     1     -11.094  12.685  68.445  1.00  0.00    -0.297 A  
HETATM   17  C   UNL     1     -11.190  14.083  68.258  1.00  0.00    -0.293 A  
HETATM   18  C   UNL     1     -10.431  14.744  67.292  1.00  0.00    -0.264 A  
HETATM   19  C   UNL     1      -9.558  14.022  66.492  1.00  0.00    -0.307 A  
HETATM   20  C   UNL     1      -9.436  12.642  66.669  1.00  0.00    -0.244 A  
HETATM   21  C   UNL     1     -10.194  11.952  67.637  1.00  0.00    -0.215 A  
ENDBRANCH   5   6
ENDBRANCH   4   5
ENDBRANCH   2   4
TORSDOF 3
ENDMDL
MODEL       54
REMARK 921   NORMALIZED FREE ENERGY PREDICTED BY IDOCK:   -4.63 KCAL/MOL
REMARK 922        TOTAL FREE ENERGY PREDICTED BY IDOCK:   -5.95 KCAL/MOL
REMARK 923 INTER-LIGAND FREE ENERGY PREDICTED BY IDOCK:   -5.63 KCAL/MOL
REMARK 924 INTRA-LIGAND FREE ENERGY PREDICTED BY IDOCK:   -0.32 KCAL/MOL
REMARK 927      BINDING AFFINITY PREDICTED BY RF-SCORE:    0.00 PKD
ROOT
HETATM    1  C   UNL     1     -12.592  14.570  71.539  1.00  0.00    -0.348 C  
HETATM    2  N   UNL     1     -11.734  13.982  70.511  1.00  0.00    -0.242 NA 
HETATM    3  C   UNL     1     -12.083  12.573  70.319  1.00  0.00    -0.294 C  
ENDROOT
BRANCH   2   4
HETATM    4  C   UNL     1     -11.815  14.767  69.258  1.00  0.00    -0.318 C  
BRANCH   4   5
HETATM    5  C   UNL     1     -10.442  15.274  68.783  1.00  0.00    -0.237 C  
BRANCH   5   6
HETATM    6  C   UNL     1      -9.450  14.192  68.410  1.00  0.00    -0.214 C  
HETATM    7  C   UNL     1      -9.368  13.584  67.202  1.00  0.00    -0.240 C  
HETATM    8  C   UNL     1     -10.367  13.926  66.165  1.00  0.00    -0.303 A  
HETATM    9  C   UNL     1     -10.376  15.185  65.549  1.00  0.00    -0.399 A  
HETATM   10  C   UNL     1     -11.366  15.503  64.619  1.00  0.00    -0.363 A  
HETATM   11  C   UNL     1     -12.340  14.563  64.291  1.00  0.00    -0.396 A  
HETATM   12  C   UNL     1     -12.319  13.296  64.880  1.00  0.00    -0.476 A  
HETATM   13  C   UNL     1     -11.330  12.968  65.815  1.00  0.00    -0.331 A  
HETATM   14  C   UNL     1     -11.264  11.592  66.430  1.00  0.00    -0.349 C  
HETATM   15  C   UNL     1     -10.031  10.828  65.937  1.00  0.00    -0.304 C  
HETATM   16  C   UNL     1      -8.646  11.293  66.360  1.00  0.00    -0.174 A  
HETATM   17  C   UNL     1      -7.588  10.405  66.062  1.00  0.00    -0.137 A  
HETATM   18  C   UNL     1      -6.264  10.718  66.368  1.00  0.00    -0.119 A  
HETATM   19  C   UNL     1      -5.968  11.929  66.977  1.00  0.00    -0.153 A  
HETATM   20  C   UNL     1      -6.995  12.829  67.267  1.00  0.00    -0.087 A  
HETATM   21  C   UNL     1      -8.342  12.532  66.969  1.00  0.00    -0.144 A  
ENDBRANCH   5   6
ENDBRANCH   4   5
ENDBRANCH   2   4
TORSDOF 3
ENDMDL
MODEL       55
REMARK 921   NORMALIZED FREE ENERGY PREDICTED BY IDOCK:   -4.63 KCAL/MOL
REMARK 922        TOTAL FREE ENERGY PREDICTED BY IDOCK:   -5.94 KCAL/MOL
REMARK 923 INTER-LIGAND FREE ENERGY PREDICTED BY IDOCK:   -5.54 KCAL/MOL
REMARK 924 INTRA-LIGAND FREE ENERGY PREDICTED BY IDOCK:   -0.39 KCAL/MOL
REMARK 927      BINDING AFFINITY PREDICTED BY RF-SCORE:    0.00 PKD
ROOT
HETATM    1  C   UNL     1     -11.624  12.474  67.837  1.00  0.00    -0.347 C  
HETATM    2  N   UNL     1     -11.349  12.994  69.176  1.00  0.00    -0.273 NA 
HETATM    3  C   UNL     1     -11.800  14.384  69.271  1.00  0.00    -0.325 C  
ENDROOT
BRANCH   2   4
HETATM    4  C   UNL     1     -11.961  12.123  70.205  1.00  0.00    -0.305 C  
BRANCH   4   5
HETATM    5  C   UNL     1     -12.292  10.717  69.674  1.00  0.00    -0.209 C  
BRANCH   5   6
HETATM    6  C   UNL     1     -11.935   9.577  70.605  1.00  0.00    -0.266 C  
HETATM    7  C   UNL     1     -10.935   8.685  70.408  1.00  0.00    -0.256 C  
HETATM    8  C   UNL     1     -10.160   8.754  69.149  1.00  0.00    -0.203 A  
HETATM    9  C   UNL     1      -9.284   9.817  68.889  1.00  0.00    -0.155 A  
HETATM   10  C   UNL     1      -8.612   9.890  67.669  1.00  0.00    -0.122 A  
HETATM   11  C   UNL     1      -8.800   8.896  66.711  1.00  0.00    -0.142 A  
HETATM   12  C   UNL     1      -9.649   7.818  66.976  1.00  0.00    -0.238 A  
HETATM   13  C   UNL     1     -10.329   7.737  68.197  1.00  0.00    -0.248 A  
HETATM   14  C   UNL     1     -11.215   6.560  68.520  1.00  0.00    -0.287 C  
HETATM   15  C   UNL     1     -10.603   5.698  69.630  1.00  0.00    -0.401 C  
HETATM   16  C   UNL     1     -10.506   6.258  71.041  1.00  0.00    -0.274 A  
HETATM   17  C   UNL     1     -10.154   5.325  72.043  1.00  0.00    -0.247 A  
HETATM   18  C   UNL     1     -10.001   5.707  73.375  1.00  0.00    -0.186 A  
HETATM   19  C   UNL     1     -10.195   7.032  73.736  1.00  0.00    -0.401 A  
HETATM   20  C   UNL     1     -10.529   7.975  72.761  1.00  0.00    -0.415 A  
HETATM   21  C   UNL     1     -10.691   7.610  71.407  1.00  0.00    -0.247 A  
ENDBRANCH   5   6
ENDBRANCH   4   5
ENDBRANCH   2   4
TORSDOF 3
ENDMDL
MODEL       56
REMARK 921   NORMALIZED FREE ENERGY PREDICTED BY IDOCK:   -4.59 KCAL/MOL
REMARK 922        TOTAL FREE ENERGY PREDICTED BY IDOCK:   -5.89 KCAL/MOL
REMARK 923 INTER-LIGAND FREE ENERGY PREDICTED BY IDOCK:   -5.62 KCAL/MOL
REMARK 924 INTRA-LIGAND FREE ENERGY PREDICTED BY IDOCK:   -0.27 KCAL/MOL
REMARK 927      BINDING AFFINITY PREDICTED BY RF-SCORE:    0.00 PKD
ROOT
HETATM    1  C   UNL     1     -10.611  11.381  63.949  1.00  0.00    -0.392 C  
HETATM    2  N   UNL     1     -11.329  12.583  63.525  1.00  0.00    -0.481 NA 
HETATM    3  C   UNL     1     -12.767  12.309  63.474  1.00  0.00    -0.393 C  
ENDROOT
BRANCH   2   4
HETATM    4  C   UNL     1     -10.996  13.724  64.407  1.00  0.00    -0.343 C  
BRANCH   4   5
HETATM    5  C   UNL     1     -10.262  13.290  65.689  1.00  0.00    -0.295 C  
BRANCH   5   6
HETATM    6  C   UNL     1      -9.201  14.252  66.180  1.00  0.00    -0.120 C  
HETATM    7  C   UNL     1      -9.166  14.824  67.408  1.00  0.00    -0.200 C  
HETATM    8  C   UNL     1     -10.285  14.570  68.343  1.00  0.00    -0.239 A  
HETATM    9  C   UNL     1     -10.481  13.307  68.918  1.00  0.00    -0.123 A  
HETATM   10  C   UNL     1     -11.578  13.077  69.748  1.00  0.00    -0.286 A  
HETATM   11  C   UNL     1     -12.475  14.110  70.017  1.00  0.00    -0.352 A  
HETATM   12  C   UNL     1     -12.269  15.379  69.469  1.00  0.00    -0.277 A  
HETATM   13  C   UNL     1     -11.170  15.618  68.634  1.00  0.00    -0.338 A  
HETATM   14  C   UNL     1     -10.906  16.990  68.069  1.00  0.00    -0.330 C  
HETATM   15  C   UNL     1      -9.649  17.609  68.690  1.00  0.00    -0.307 C  
HETATM   16  C   UNL     1      -8.288  17.007  68.378  1.00  0.00    -0.241 A  
HETATM   17  C   UNL     1      -7.174  17.772  68.793  1.00  0.00    -0.271 A  
HETATM   18  C   UNL     1      -5.868  17.325  68.596  1.00  0.00    -0.157 A  
HETATM   19  C   UNL     1      -5.646  16.102  67.980  1.00  0.00    -0.124 A  
HETATM   20  C   UNL     1      -6.731  15.323  67.574  1.00  0.00    -0.197 A  
HETATM   21  C   UNL     1      -8.061  15.755  67.761  1.00  0.00    -0.156 A  
ENDBRANCH   5   6
ENDBRANCH   4   5
ENDBRANCH   2   4
TORSDOF 3
ENDMDL
MODEL       57
REMARK 921   NORMALIZED FREE ENERGY PREDICTED BY IDOCK:   -4.58 KCAL/MOL
REMARK 922        TOTAL FREE ENERGY PREDICTED BY IDOCK:   -5.88 KCAL/MOL
REMARK 923 INTER-LIGAND FREE ENERGY PREDICTED BY IDOCK:   -5.58 KCAL/MOL
REMARK 924 INTRA-LIGAND FREE ENERGY PREDICTED BY IDOCK:   -0.30 KCAL/MOL
REMARK 927      BINDING AFFINITY PREDICTED BY RF-SCORE:    0.00 PKD
ROOT
HETATM    1  C   UNL     1     -10.824   8.798  72.063  1.00  0.00    -0.358 C  
HETATM    2  N   UNL     1     -11.795   9.170  71.034  1.00  0.00    -0.287 NA 
HETATM    3  C   UNL     1     -12.909   9.900  71.643  1.00  0.00    -0.436 C  
ENDROOT
BRANCH   2   4
HETATM    4  C   UNL     1     -11.135   9.934  69.951  1.00  0.00    -0.275 C  
BRANCH   4   5
HETATM    5  C   UNL     1     -12.053  11.002  69.332  1.00  0.00    -0.389 C  
BRANCH   5   6
HETATM    6  C   UNL     1     -11.533  12.422  69.411  1.00  0.00    -0.336 C  
HETATM    7  C   UNL     1     -10.815  13.051  68.451  1.00  0.00    -0.280 C  
HETATM    8  C   UNL     1     -10.421  12.289  67.244  1.00  0.00    -0.236 A  
HETATM    9  C   UNL     1     -11.370  11.887  66.294  1.00  0.00    -0.394 A  
HETATM   10  C   UNL     1     -10.982  11.117  65.198  1.00  0.00    -0.156 A  
HETATM   11  C   UNL     1      -9.645  10.759  65.038  1.00  0.00    -0.305 A  
HETATM   12  C   UNL     1      -8.689  11.182  65.966  1.00  0.00    -0.185 A  
HETATM   13  C   UNL     1      -9.070  11.954  67.070  1.00  0.00    -0.191 A  
HETATM   14  C   UNL     1      -8.049  12.457  68.059  1.00  0.00    -0.162 C  
HETATM   15  C   UNL     1      -7.892  13.978  67.964  1.00  0.00    -0.152 C  
HETATM   16  C   UNL     1      -9.040  14.875  68.401  1.00  0.00    -0.185 A  
HETATM   17  C   UNL     1      -8.732  16.251  68.505  1.00  0.00    -0.211 A  
HETATM   18  C   UNL     1      -9.698  17.189  68.868  1.00  0.00    -0.256 A  
HETATM   19  C   UNL     1     -10.994  16.774  69.133  1.00  0.00    -0.223 A  
HETATM   20  C   UNL     1     -11.325  15.421  69.022  1.00  0.00    -0.324 A  
HETATM   21  C   UNL     1     -10.365  14.454  68.659  1.00  0.00    -0.245 A  
ENDBRANCH   5   6
ENDBRANCH   4   5
ENDBRANCH   2   4
TORSDOF 3
ENDMDL
MODEL       58
REMARK 921   NORMALIZED FREE ENERGY PREDICTED BY IDOCK:   -4.58 KCAL/MOL
REMARK 922        TOTAL FREE ENERGY PREDICTED BY IDOCK:   -5.88 KCAL/MOL
REMARK 923 INTER-LIGAND FREE ENERGY PREDICTED BY IDOCK:   -5.56 KCAL/MOL
REMARK 924 INTRA-LIGAND FREE ENERGY PREDICTED BY IDOCK:   -0.32 KCAL/MOL
REMARK 927      BINDING AFFINITY PREDICTED BY RF-SCORE:    0.00 PKD
ROOT
HETATM    1  C   UNL     1      -7.922   8.153  66.054  1.00  0.00    -0.100 C  
HETATM    2  N   UNL     1      -8.841   7.140  66.574  1.00  0.00    -0.136 NA 
HETATM    3  C   UNL     1      -8.916   6.013  65.642  1.00  0.00    -0.064 C  
ENDROOT
BRANCH   2   4
HETATM    4  C   UNL     1      -8.440   6.728  67.938  1.00  0.00    -0.119 C  
BRANCH   4   5
HETATM    5  C   UNL     1      -9.596   6.819  68.951  1.00  0.00    -0.137 C  
BRANCH   5   6
HETATM    6  C   UNL     1     -10.263   8.175  69.047  1.00  0.00    -0.228 C  
HETATM    7  C   UNL     1     -10.452   8.879  70.188  1.00  0.00    -0.236 C  
HETATM    8  C   UNL     1     -10.057   8.265  71.476  1.00  0.00    -0.270 A  
HETATM    9  C   UNL     1      -8.709   8.063  71.804  1.00  0.00    -0.178 A  
HETATM   10  C   UNL     1      -8.366   7.426  72.996  1.00  0.00    -0.147 A  
HETATM   11  C   UNL     1      -9.364   7.002  73.871  1.00  0.00    -0.264 A  
HETATM   12  C   UNL     1     -10.709   7.226  73.563  1.00  0.00    -0.367 A  
HETATM   13  C   UNL     1     -11.063   7.864  72.368  1.00  0.00    -0.392 A  
HETATM   14  C   UNL     1     -12.505   8.154  72.037  1.00  0.00    -0.375 C  
HETATM   15  C   UNL     1     -12.787   9.660  72.079  1.00  0.00    -0.497 C  
HETATM   16  C   UNL     1     -12.163  10.566  71.028  1.00  0.00    -0.505 A  
HETATM   17  C   UNL     1     -12.658  11.889  70.994  1.00  0.00    -0.381 A  
HETATM   18  C   UNL     1     -12.154  12.833  70.100  1.00  0.00    -0.370 A  
HETATM   19  C   UNL     1     -11.143  12.476  69.220  1.00  0.00    -0.203 A  
HETATM   20  C   UNL     1     -10.629  11.178  69.245  1.00  0.00    -0.212 A  
HETATM   21  C   UNL     1     -11.124  10.205  70.140  1.00  0.00    -0.378 A  
ENDBRANCH   5   6
ENDBRANCH   4   5
ENDBRANCH   2   4
TORSDOF 3
ENDMDL
MODEL       59
REMARK 921   NORMALIZED FREE ENERGY PREDICTED BY IDOCK:   -4.58 KCAL/MOL
REMARK 922        TOTAL FREE ENERGY PREDICTED BY IDOCK:   -5.88 KCAL/MOL
REMARK 923 INTER-LIGAND FREE ENERGY PREDICTED BY IDOCK:   -5.56 KCAL/MOL
REMARK 924 INTRA-LIGAND FREE ENERGY PREDICTED BY IDOCK:   -0.32 KCAL/MOL
REMARK 927      BINDING AFFINITY PREDICTED BY RF-SCORE:    0.00 PKD
ROOT
HETATM    1  C   UNL     1      -9.945   3.731  71.654  1.00  0.00    -0.141 C  
HETATM    2  N   UNL     1     -10.623   4.323  72.807  1.00  0.00    -0.182 NA 
HETATM    3  C   UNL     1     -10.733   3.332  73.880  1.00  0.00    -0.210 C  
ENDROOT
BRANCH   2   4
HETATM    4  C   UNL     1      -9.929   5.557  73.238  1.00  0.00    -0.172 C  
BRANCH   4   5
HETATM    5  C   UNL     1      -9.508   6.448  72.055  1.00  0.00    -0.154 C  
BRANCH   5   6
HETATM    6  C   UNL     1     -10.214   7.785  71.973  1.00  0.00    -0.253 C  
HETATM    7  C   UNL     1     -10.695   8.352  70.841  1.00  0.00    -0.260 C  
HETATM    8  C   UNL     1     -10.456   7.671  69.549  1.00  0.00    -0.227 A  
HETATM    9  C   UNL     1     -11.093   6.463  69.233  1.00  0.00    -0.437 A  
HETATM   10  C   UNL     1     -10.804   5.810  68.035  1.00  0.00    -0.251 A  
HETATM   11  C   UNL     1      -9.891   6.368  67.142  1.00  0.00    -0.182 A  
HETATM   12  C   UNL     1      -9.275   7.587  67.437  1.00  0.00    -0.149 A  
HETATM   13  C   UNL     1      -9.558   8.248  68.638  1.00  0.00    -0.152 A  
HETATM   14  C   UNL     1      -8.938   9.586  68.957  1.00  0.00    -0.144 C  
HETATM   15  C   UNL     1      -9.990  10.700  68.936  1.00  0.00    -0.213 C  
HETATM   16  C   UNL     1     -11.068  10.728  70.009  1.00  0.00    -0.327 A  
HETATM   17  C   UNL     1     -11.846  11.907  70.058  1.00  0.00    -0.407 A  
HETATM   18  C   UNL     1     -12.888  12.056  70.974  1.00  0.00    -0.279 A  
HETATM   19  C   UNL     1     -13.176  11.028  71.859  1.00  0.00    -0.503 A  
HETATM   20  C   UNL     1     -12.430   9.848  71.819  1.00  0.00    -0.487 A  
HETATM   21  C   UNL     1     -11.370   9.676  70.903  1.00  0.00    -0.431 A  
ENDBRANCH   5   6
ENDBRANCH   4   5
ENDBRANCH   2   4
TORSDOF 3
ENDMDL
MODEL       60
REMARK 921   NORMALIZED FREE ENERGY PREDICTED BY IDOCK:   -4.49 KCAL/MOL
REMARK 922        TOTAL FREE ENERGY PREDICTED BY IDOCK:   -5.78 KCAL/MOL
REMARK 923 INTER-LIGAND FREE ENERGY PREDICTED BY IDOCK:   -5.49 KCAL/MOL
REMARK 924 INTRA-LIGAND FREE ENERGY PREDICTED BY IDOCK:   -0.29 KCAL/MOL
REMARK 927      BINDING AFFINITY PREDICTED BY RF-SCORE:    0.00 PKD
ROOT
HETATM    1  C   UNL     1      -8.377   5.977  66.002  1.00  0.00    -0.134 C  
HETATM    2  N   UNL     1      -9.784   5.578  65.975  1.00  0.00    -0.123 NA 
HETATM    3  C   UNL     1      -9.891   4.127  66.146  1.00  0.00    -0.194 C  
ENDROOT
BRANCH   2   4
HETATM    4  C   UNL     1     -10.555   6.332  66.989  1.00  0.00    -0.318 C  
BRANCH   4   5
HETATM    5  C   UNL     1      -9.718   7.419  67.687  1.00  0.00    -0.178 C  
BRANCH   5   6
HETATM    6  C   UNL     1     -10.518   8.513  68.361  1.00  0.00    -0.215 C  
HETATM    7  C   UNL     1     -10.735   8.621  69.694  1.00  0.00    -0.204 C  
HETATM    8  C   UNL     1     -10.227   7.554  70.585  1.00  0.00    -0.202 A  
HETATM    9  C   UNL     1      -8.854   7.379  70.805  1.00  0.00    -0.149 A  
HETATM   10  C   UNL     1      -8.400   6.328  71.600  1.00  0.00    -0.129 A  
HETATM   11  C   UNL     1      -9.313   5.456  72.190  1.00  0.00    -0.161 A  
HETATM   12  C   UNL     1     -10.685   5.642  71.997  1.00  0.00    -0.291 A  
HETATM   13  C   UNL     1     -11.150   6.694  71.200  1.00  0.00    -0.326 A  
HETATM   14  C   UNL     1     -12.627   6.938  71.015  1.00  0.00    -0.319 C  
HETATM   15  C   UNL     1     -13.062   8.232  71.711  1.00  0.00    -0.366 C  
HETATM   16  C   UNL     1     -12.578   9.569  71.171  1.00  0.00    -0.383 A  
HETATM   17  C   UNL     1     -13.209  10.710  71.716  1.00  0.00    -0.526 A  
HETATM   18  C   UNL     1     -12.842  12.000  71.333  1.00  0.00    -0.391 A  
HETATM   19  C   UNL     1     -11.835  12.178  70.396  1.00  0.00    -0.277 A  
HETATM   20  C   UNL     1     -11.188  11.065  69.854  1.00  0.00    -0.327 A  
HETATM   21  C   UNL     1     -11.543   9.752  70.226  1.00  0.00    -0.283 A  
ENDBRANCH   5   6
ENDBRANCH   4   5
ENDBRANCH   2   4
TORSDOF 3
ENDMDL
MODEL       61
REMARK 921   NORMALIZED FREE ENERGY PREDICTED BY IDOCK:   -4.49 KCAL/MOL
REMARK 922        TOTAL FREE ENERGY PREDICTED BY IDOCK:   -5.77 KCAL/MOL
REMARK 923 INTER-LIGAND FREE ENERGY PREDICTED BY IDOCK:   -5.53 KCAL/MOL
REMARK 924 INTRA-LIGAND FREE ENERGY PREDICTED BY IDOCK:   -0.24 KCAL/MOL
REMARK 927      BINDING AFFINITY PREDICTED BY RF-SCORE:    0.00 PKD
ROOT
HETATM    1  C   UNL     1      -6.761   8.410  70.450  1.00  0.00    -0.036 C  
HETATM    2  N   UNL     1      -7.092   9.019  69.162  1.00  0.00    -0.062 NA 
HETATM    3  C   UNL     1      -7.856   8.070  68.347  1.00  0.00    -0.122 C  
ENDROOT
BRANCH   2   4
HETATM    4  C   UNL     1      -7.803  10.301  69.363  1.00  0.00    -0.157 C  
BRANCH   4   5
HETATM    5  C   UNL     1      -7.559  11.303  68.219  1.00  0.00    -0.114 C  
BRANCH   5   6
HETATM    6  C   UNL     1      -8.666  11.387  67.190  1.00  0.00    -0.155 C  
HETATM    7  C   UNL     1      -9.335  12.513  66.846  1.00  0.00    -0.219 C  
HETATM    8  C   UNL     1      -9.037  13.768  67.574  1.00  0.00    -0.209 A  
HETATM    9  C   UNL     1      -7.810  14.428  67.417  1.00  0.00    -0.211 A  
HETATM   10  C   UNL     1      -7.530  15.573  68.160  1.00  0.00    -0.119 A  
HETATM   11  C   UNL     1      -8.478  16.073  69.052  1.00  0.00    -0.244 A  
HETATM   12  C   UNL     1      -9.714  15.436  69.192  1.00  0.00    -0.252 A  
HETATM   13  C   UNL     1     -10.003  14.284  68.450  1.00  0.00    -0.240 A  
HETATM   14  C   UNL     1     -11.347  13.607  68.554  1.00  0.00    -0.325 C  
HETATM   15  C   UNL     1     -12.145  13.767  67.256  1.00  0.00    -0.393 C  
HETATM   16  C   UNL     1     -11.671  13.060  65.995  1.00  0.00    -0.442 A  
HETATM   17  C   UNL     1     -12.582  13.064  64.915  1.00  0.00    -0.490 A  
HETATM   18  C   UNL     1     -12.265  12.478  63.691  1.00  0.00    -0.642 A  
HETATM   19  C   UNL     1     -11.028  11.874  63.518  1.00  0.00    -0.505 A  
HETATM   20  C   UNL     1     -10.106  11.870  64.567  1.00  0.00    -0.302 A  
HETATM   21  C   UNL     1     -10.406  12.455  65.815  1.00  0.00    -0.289 A  
ENDBRANCH   5   6
ENDBRANCH   4   5
ENDBRANCH   2   4
TORSDOF 3
ENDMDL
MODEL       62
REMARK 921   NORMALIZED FREE ENERGY PREDICTED BY IDOCK:   -4.47 KCAL/MOL
REMARK 922        TOTAL FREE ENERGY PREDICTED BY IDOCK:   -5.76 KCAL/MOL
REMARK 923 INTER-LIGAND FREE ENERGY PREDICTED BY IDOCK:   -5.51 KCAL/MOL
REMARK 924 INTRA-LIGAND FREE ENERGY PREDICTED BY IDOCK:   -0.25 KCAL/MOL
REMARK 927      BINDING AFFINITY PREDICTED BY RF-SCORE:    0.00 PKD
ROOT
HETATM    1  C   UNL     1     -13.129  10.834  71.833  1.00  0.00    -0.451 C  
HETATM    2  N   UNL     1     -12.676   9.446  71.915  1.00  0.00    -0.376 NA 
HETATM    3  C   UNL     1     -13.832   8.550  71.988  1.00  0.00    -0.419 C  
ENDROOT
BRANCH   2   4
HETATM    4  C   UNL     1     -11.776   9.126  70.784  1.00  0.00    -0.256 C  
BRANCH   4   5
HETATM    5  C   UNL     1     -11.398  10.368  69.956  1.00  0.00    -0.384 C  
BRANCH   5   6
HETATM    6  C   UNL     1     -10.001  10.350  69.372  1.00  0.00    -0.240 C  
HETATM    7  C   UNL     1      -9.566  11.127  68.351  1.00  0.00    -0.192 C  
HETATM    8  C   UNL     1     -10.533  12.020  67.676  1.00  0.00    -0.226 A  
HETATM    9  C   UNL     1     -11.065  13.143  68.325  1.00  0.00    -0.295 A  
HETATM   10  C   UNL     1     -12.021  13.934  67.689  1.00  0.00    -0.403 A  
HETATM   11  C   UNL     1     -12.440  13.616  66.398  1.00  0.00    -0.377 A  
HETATM   12  C   UNL     1     -11.892  12.514  65.735  1.00  0.00    -0.494 A  
HETATM   13  C   UNL     1     -10.933  11.714  66.366  1.00  0.00    -0.345 A  
HETATM   14  C   UNL     1     -10.298  10.548  65.652  1.00  0.00    -0.274 C  
HETATM   15  C   UNL     1      -8.820  10.823  65.353  1.00  0.00    -0.202 C  
HETATM   16  C   UNL     1      -7.829  10.905  66.504  1.00  0.00    -0.152 A  
HETATM   17  C   UNL     1      -6.465  10.924  66.132  1.00  0.00    -0.114 A  
HETATM   18  C   UNL     1      -5.451  11.026  67.084  1.00  0.00    -0.053 A  
HETATM   19  C   UNL     1      -5.778  11.114  68.429  1.00  0.00    -0.042 A  
HETATM   20  C   UNL     1      -7.119  11.112  68.819  1.00  0.00    -0.093 A  
HETATM   21  C   UNL     1      -8.162  11.008  67.874  1.00  0.00    -0.119 A  
ENDBRANCH   5   6
ENDBRANCH   4   5
ENDBRANCH   2   4
TORSDOF 3
ENDMDL
MODEL       63
REMARK 921   NORMALIZED FREE ENERGY PREDICTED BY IDOCK:   -4.47 KCAL/MOL
REMARK 922        TOTAL FREE ENERGY PREDICTED BY IDOCK:   -5.75 KCAL/MOL
REMARK 923 INTER-LIGAND FREE ENERGY PREDICTED BY IDOCK:   -5.34 KCAL/MOL
REMARK 924 INTRA-LIGAND FREE ENERGY PREDICTED BY IDOCK:   -0.42 KCAL/MOL
REMARK 927      BINDING AFFINITY PREDICTED BY RF-SCORE:    0.00 PKD
ROOT
HETATM    1  C   UNL     1     -13.553   7.201  71.480  1.00  0.00    -0.319 C  
HETATM    2  N   UNL     1     -12.798   8.412  71.800  1.00  0.00    -0.333 NA 
HETATM    3  C   UNL     1     -13.678   9.391  72.443  1.00  0.00    -0.400 C  
ENDROOT
BRANCH   2   4
HETATM    4  C   UNL     1     -11.612   8.082  72.622  1.00  0.00    -0.387 C  
BRANCH   4   5
HETATM    5  C   UNL     1     -10.286   8.374  71.898  1.00  0.00    -0.340 C  
BRANCH   5   6
HETATM    6  C   UNL     1     -10.388   9.333  70.730  1.00  0.00    -0.348 C  
HETATM    7  C   UNL     1     -10.267   8.996  69.424  1.00  0.00    -0.206 C  
HETATM    8  C   UNL     1      -9.927   7.597  69.079  1.00  0.00    -0.181 A  
HETATM    9  C   UNL     1     -10.841   6.554  69.280  1.00  0.00    -0.361 A  
HETATM   10  C   UNL     1     -10.475   5.238  69.004  1.00  0.00    -0.206 A  
HETATM   11  C   UNL     1      -9.200   4.958  68.514  1.00  0.00    -0.157 A  
HETATM   12  C   UNL     1      -8.294   5.997  68.284  1.00  0.00    -0.113 A  
HETATM   13  C   UNL     1      -8.653   7.322  68.559  1.00  0.00    -0.124 A  
HETATM   14  C   UNL     1      -7.706   8.461  68.277  1.00  0.00    -0.106 C  
HETATM   15  C   UNL     1      -8.214   9.326  67.118  1.00  0.00    -0.117 C  
HETATM   16  C   UNL     1      -9.470  10.163  67.306  1.00  0.00    -0.178 A  
HETATM   17  C   UNL     1      -9.734  11.103  66.284  1.00  0.00    -0.244 A  
HETATM   18  C   UNL     1     -10.867  11.915  66.315  1.00  0.00    -0.323 A  
HETATM   19  C   UNL     1     -11.763  11.805  67.368  1.00  0.00    -0.304 A  
HETATM   20  C   UNL     1     -11.531  10.873  68.382  1.00  0.00    -0.374 A  
HETATM   21  C   UNL     1     -10.391  10.042  68.373  1.00  0.00    -0.218 A  
ENDBRANCH   5   6
ENDBRANCH   4   5
ENDBRANCH   2   4
TORSDOF 3
ENDMDL
MODEL       64
REMARK 921   NORMALIZED FREE ENERGY PREDICTED BY IDOCK:   -4.46 KCAL/MOL
REMARK 922        TOTAL FREE ENERGY PREDICTED BY IDOCK:   -5.75 KCAL/MOL
REMARK 923 INTER-LIGAND FREE ENERGY PREDICTED BY IDOCK:   -5.58 KCAL/MOL
REMARK 924 INTRA-LIGAND FREE ENERGY PREDICTED BY IDOCK:   -0.17 KCAL/MOL
REMARK 927      BINDING AFFINITY PREDICTED BY RF-SCORE:    0.00 PKD
ROOT
HETATM    1  C   UNL     1      -6.522   7.411  67.509  1.00  0.00    -0.060 C  
HETATM    2  N   UNL     1      -7.205   8.053  68.632  1.00  0.00    -0.079 NA 
HETATM    3  C   UNL     1      -6.331   8.060  69.807  1.00  0.00    -0.036 C  
ENDROOT
BRANCH   2   4
HETATM    4  C   UNL     1      -7.664   9.408  68.252  1.00  0.00    -0.083 C  
BRANCH   4   5
HETATM    5  C   UNL     1      -8.309  10.168  69.425  1.00  0.00    -0.174 C  
BRANCH   5   6
HETATM    6  C   UNL     1      -9.433   9.436  70.126  1.00  0.00    -0.276 C  
HETATM    7  C   UNL     1     -10.756   9.653  69.930  1.00  0.00    -0.283 C  
HETATM    8  C   UNL     1     -11.169  10.746  69.020  1.00  0.00    -0.322 A  
HETATM    9  C   UNL     1     -10.961  10.660  67.637  1.00  0.00    -0.370 A  
HETATM   10  C   UNL     1     -11.303  11.729  66.809  1.00  0.00    -0.385 A  
HETATM   11  C   UNL     1     -11.867  12.880  67.356  1.00  0.00    -0.418 A  
HETATM   12  C   UNL     1     -12.104  12.960  68.731  1.00  0.00    -0.175 A  
HETATM   13  C   UNL     1     -11.762  11.892  69.570  1.00  0.00    -0.410 A  
HETATM   14  C   UNL     1     -12.049  11.940  71.050  1.00  0.00    -0.119 C  
HETATM   15  C   UNL     1     -13.148  10.942  71.430  1.00  0.00    -0.457 C  
HETATM   16  C   UNL     1     -12.866   9.450  71.339  1.00  0.00    -0.423 A  
HETATM   17  C   UNL     1     -13.838   8.610  71.927  1.00  0.00    -0.481 A  
HETATM   18  C   UNL     1     -13.719   7.221  71.890  1.00  0.00    -0.317 A  
HETATM   19  C   UNL     1     -12.627   6.641  71.262  1.00  0.00    -0.229 A  
HETATM   20  C   UNL     1     -11.662   7.451  70.661  1.00  0.00    -0.270 A  
HETATM   21  C   UNL     1     -11.759   8.858  70.687  1.00  0.00    -0.212 A  
ENDBRANCH   5   6
ENDBRANCH   4   5
ENDBRANCH   2   4
TORSDOF 3
ENDMDL
MODEL       65
REMARK 921   NORMALIZED FREE ENERGY PREDICTED BY IDOCK:   -4.46 KCAL/MOL
REMARK 922        TOTAL FREE ENERGY PREDICTED BY IDOCK:   -5.74 KCAL/MOL
REMARK 923 INTER-LIGAND FREE ENERGY PREDICTED BY IDOCK:   -5.40 KCAL/MOL
REMARK 924 INTRA-LIGAND FREE ENERGY PREDICTED BY IDOCK:   -0.34 KCAL/MOL
REMARK 927      BINDING AFFINITY PREDICTED BY RF-SCORE:    0.00 PKD
ROOT
HETATM    1  C   UNL     1     -11.465   8.358  70.830  1.00  0.00    -0.267 C  
HETATM    2  N   UNL     1     -11.365   9.381  69.789  1.00  0.00    -0.114 NA 
HETATM    3  C   UNL     1     -12.005  10.618  70.245  1.00  0.00    -0.339 C  
ENDROOT
BRANCH   2   4
HETATM    4  C   UNL     1      -9.953   9.581  69.393  1.00  0.00    -0.191 C  
BRANCH   4   5
HETATM    5  C   UNL     1      -9.705   9.288  67.903  1.00  0.00    -0.180 C  
BRANCH   5   6
HETATM    6  C   UNL     1     -10.458  10.180  66.938  1.00  0.00    -0.286 C  
HETATM    7  C   UNL     1      -9.999  11.346  66.424  1.00  0.00    -0.247 C  
HETATM    8  C   UNL     1      -8.689  11.858  66.885  1.00  0.00    -0.191 A  
HETATM    9  C   UNL     1      -7.492  11.216  66.539  1.00  0.00    -0.131 A  
HETATM   10  C   UNL     1      -6.276  11.683  67.037  1.00  0.00    -0.144 A  
HETATM   11  C   UNL     1      -6.248  12.801  67.869  1.00  0.00    -0.115 A  
HETATM   12  C   UNL     1      -7.435  13.464  68.193  1.00  0.00    -0.133 A  
HETATM   13  C   UNL     1      -8.661  13.001  67.699  1.00  0.00    -0.190 A  
HETATM   14  C   UNL     1      -9.948  13.726  68.002  1.00  0.00    -0.246 C  
HETATM   15  C   UNL     1     -10.515  14.390  66.742  1.00  0.00    -0.273 C  
HETATM   16  C   UNL     1     -11.046  13.520  65.614  1.00  0.00    -0.299 A  
HETATM   17  C   UNL     1     -11.761  14.202  64.604  1.00  0.00    -0.427 A  
HETATM   18  C   UNL     1     -12.279  13.530  63.497  1.00  0.00    -0.410 A  
HETATM   19  C   UNL     1     -12.092  12.162  63.374  1.00  0.00    -0.608 A  
HETATM   20  C   UNL     1     -11.376  11.469  64.353  1.00  0.00    -0.283 A  
HETATM   21  C   UNL     1     -10.845  12.126  65.482  1.00  0.00    -0.324 A  
ENDBRANCH   5   6
ENDBRANCH   4   5
ENDBRANCH   2   4
TORSDOF 3
ENDMDL
MODEL       66
REMARK 921   NORMALIZED FREE ENERGY PREDICTED BY IDOCK:   -4.45 KCAL/MOL
REMARK 922        TOTAL FREE ENERGY PREDICTED BY IDOCK:   -5.73 KCAL/MOL
REMARK 923 INTER-LIGAND FREE ENERGY PREDICTED BY IDOCK:   -5.33 KCAL/MOL
REMARK 924 INTRA-LIGAND FREE ENERGY PREDICTED BY IDOCK:   -0.39 KCAL/MOL
REMARK 927      BINDING AFFINITY PREDICTED BY RF-SCORE:    0.00 PKD
ROOT
HETATM    1  C   UNL     1      -9.094  10.719  62.393  1.00  0.00    -0.292 C  
HETATM    2  N   UNL     1      -8.694   9.576  63.214  1.00  0.00    -0.222 NA 
HETATM    3  C   UNL     1      -8.408   8.424  62.355  1.00  0.00    -0.180 C  
ENDROOT
BRANCH   2   4
HETATM    4  C   UNL     1      -7.553   9.938  64.084  1.00  0.00    -0.139 C  
BRANCH   4   5
HETATM    5  C   UNL     1      -7.998  10.497  65.448  1.00  0.00    -0.129 C  
BRANCH   5   6
HETATM    6  C   UNL     1      -8.600   9.479  66.394  1.00  0.00    -0.143 C  
HETATM    7  C   UNL     1      -9.784   9.608  67.038  1.00  0.00    -0.232 C  
HETATM    8  C   UNL     1     -10.541  10.872  66.888  1.00  0.00    -0.312 A  
HETATM    9  C   UNL     1     -11.145  11.219  65.672  1.00  0.00    -0.141 A  
HETATM   10  C   UNL     1     -11.800  12.443  65.539  1.00  0.00    -0.469 A  
HETATM   11  C   UNL     1     -11.866  13.318  66.622  1.00  0.00    -0.447 A  
HETATM   12  C   UNL     1     -11.290  12.965  67.845  1.00  0.00    -0.336 A  
HETATM   13  C   UNL     1     -10.630  11.738  67.987  1.00  0.00    -0.235 A  
HETATM   14  C   UNL     1     -10.041  11.320  69.311  1.00  0.00    -0.018 C  
HETATM   15  C   UNL     1     -10.820  10.147  69.915  1.00  0.00    -0.347 C  
HETATM   16  C   UNL     1     -10.762   8.785  69.240  1.00  0.00    -0.166 A  
HETATM   17  C   UNL     1     -11.308   7.714  69.982  1.00  0.00    -0.081 A  
HETATM   18  C   UNL     1     -11.346   6.417  69.471  1.00  0.00    -0.460 A  
HETATM   19  C   UNL     1     -10.841   6.162  68.205  1.00  0.00    -0.387 A  
HETATM   20  C   UNL     1     -10.310   7.208  67.447  1.00  0.00    -0.324 A  
HETATM   21  C   UNL     1     -10.259   8.527  67.944  1.00  0.00    -0.273 A  
ENDBRANCH   5   6
ENDBRANCH   4   5
ENDBRANCH   2   4
TORSDOF 3
ENDMDL
MODEL       67
REMARK 921   NORMALIZED FREE ENERGY PREDICTED BY IDOCK:   -4.42 KCAL/MOL
REMARK 922        TOTAL FREE ENERGY PREDICTED BY IDOCK:   -5.70 KCAL/MOL
REMARK 923 INTER-LIGAND FREE ENERGY PREDICTED BY IDOCK:   -5.47 KCAL/MOL
REMARK 924 INTRA-LIGAND FREE ENERGY PREDICTED BY IDOCK:   -0.22 KCAL/MOL
REMARK 927      BINDING AFFINITY PREDICTED BY RF-SCORE:    0.00 PKD
ROOT
HETATM    1  C   UNL     1     -11.979  13.470  67.695  1.00  0.00    -0.336 C  
HETATM    2  N   UNL     1     -11.869  12.237  66.914  1.00  0.00    -0.581 NA 
HETATM    3  C   UNL     1     -11.952  12.547  65.484  1.00  0.00    -0.442 C  
ENDROOT
BRANCH   2   4
HETATM    4  C   UNL     1     -10.631  11.508  67.270  1.00  0.00    -0.228 C  
BRANCH   4   5
HETATM    5  C   UNL     1     -10.893  10.316  68.208  1.00  0.00    -0.300 C  
BRANCH   5   6
HETATM    6  C   UNL     1     -10.518   8.960  67.646  1.00  0.00    -0.320 C  
HETATM    7  C   UNL     1     -10.200   7.866  68.377  1.00  0.00    -0.232 C  
HETATM    8  C   UNL     1     -10.126   7.993  69.850  1.00  0.00    -0.198 A  
HETATM    9  C   UNL     1     -11.278   8.196  70.623  1.00  0.00    -0.268 A  
HETATM   10  C   UNL     1     -11.174   8.374  72.002  1.00  0.00    -0.404 A  
HETATM   11  C   UNL     1      -9.924   8.336  72.617  1.00  0.00    -0.357 A  
HETATM   12  C   UNL     1      -8.775   8.105  71.856  1.00  0.00    -0.206 A  
HETATM   13  C   UNL     1      -8.869   7.927  70.470  1.00  0.00    -0.141 A  
HETATM   14  C   UNL     1      -7.647   7.633  69.637  1.00  0.00    -0.093 C  
HETATM   15  C   UNL     1      -7.682   6.200  69.095  1.00  0.00    -0.100 C  
HETATM   16  C   UNL     1      -8.721   5.821  68.052  1.00  0.00    -0.103 A  
HETATM   17  C   UNL     1      -8.535   4.562  67.437  1.00  0.00    -0.104 A  
HETATM   18  C   UNL     1      -9.429   4.077  66.483  1.00  0.00    -0.208 A  
HETATM   19  C   UNL     1     -10.531   4.839  66.124  1.00  0.00    -0.332 A  
HETATM   20  C   UNL     1     -10.743   6.079  66.729  1.00  0.00    -0.374 A  
HETATM   21  C   UNL     1      -9.851   6.591  67.694  1.00  0.00    -0.146 A  
ENDBRANCH   5   6
ENDBRANCH   4   5
ENDBRANCH   2   4
TORSDOF 3
ENDMDL
MODEL       68
REMARK 921   NORMALIZED FREE ENERGY PREDICTED BY IDOCK:   -4.38 KCAL/MOL
REMARK 922        TOTAL FREE ENERGY PREDICTED BY IDOCK:   -5.65 KCAL/MOL
REMARK 923 INTER-LIGAND FREE ENERGY PREDICTED BY IDOCK:   -5.38 KCAL/MOL
REMARK 924 INTRA-LIGAND FREE ENERGY PREDICTED BY IDOCK:   -0.27 KCAL/MOL
REMARK 927      BINDING AFFINITY PREDICTED BY RF-SCORE:    0.00 PKD
ROOT
HETATM    1  C   UNL     1     -10.689  19.778  66.521  1.00  0.00    -0.396 C  
HETATM    2  N   UNL     1      -9.960  18.683  67.161  1.00  0.00    -0.316 NA 
HETATM    3  C   UNL     1      -9.376  19.146  68.423  1.00  0.00    -0.363 C  
ENDROOT
BRANCH   2   4
HETATM    4  C   UNL     1     -10.841  17.507  67.337  1.00  0.00    -0.170 C  
BRANCH   4   5
HETATM    5  C   UNL     1     -11.129  17.194  68.816  1.00  0.00     0.001 C  
BRANCH   5   6
HETATM    6  C   UNL     1     -11.608  15.785  69.095  1.00  0.00    -0.399 C  
HETATM    7  C   UNL     1     -10.817  14.688  69.176  1.00  0.00    -0.269 C  
HETATM    8  C   UNL     1      -9.371  14.832  68.894  1.00  0.00    -0.184 A  
HETATM    9  C   UNL     1      -8.524  15.527  69.768  1.00  0.00     0.020 A  
HETATM   10  C   UNL     1      -7.178  15.701  69.450  1.00  0.00    -0.212 A  
HETATM   11  C   UNL     1      -6.669  15.171  68.265  1.00  0.00    -0.122 A  
HETATM   12  C   UNL     1      -7.502  14.452  67.404  1.00  0.00    -0.183 A  
HETATM   13  C   UNL     1      -8.855  14.273  67.715  1.00  0.00    -0.185 A  
HETATM   14  C   UNL     1      -9.760  13.464  66.821  1.00  0.00    -0.262 C  
HETATM   15  C   UNL     1     -10.177  12.155  67.499  1.00  0.00    -0.209 C  
HETATM   16  C   UNL     1     -11.096  12.201  68.711  1.00  0.00    -0.297 A  
HETATM   17  C   UNL     1     -11.619  10.956  69.126  1.00  0.00    -0.389 A  
HETATM   18  C   UNL     1     -12.451  10.849  70.240  1.00  0.00    -0.383 A  
HETATM   19  C   UNL     1     -12.779  11.985  70.964  1.00  0.00    -0.337 A  
HETATM   20  C   UNL     1     -12.262  13.225  70.581  1.00  0.00    -0.417 A  
HETATM   21  C   UNL     1     -11.420  13.357  69.457  1.00  0.00    -0.308 A  
ENDBRANCH   5   6
ENDBRANCH   4   5
ENDBRANCH   2   4
TORSDOF 3
ENDMDL
MODEL       69
REMARK 921   NORMALIZED FREE ENERGY PREDICTED BY IDOCK:   -4.38 KCAL/MOL
REMARK 922        TOTAL FREE ENERGY PREDICTED BY IDOCK:   -5.65 KCAL/MOL
REMARK 923 INTER-LIGAND FREE ENERGY PREDICTED BY IDOCK:   -5.33 KCAL/MOL
REMARK 924 INTRA-LIGAND FREE ENERGY PREDICTED BY IDOCK:   -0.32 KCAL/MOL
REMARK 927      BINDING AFFINITY PREDICTED BY RF-SCORE:    0.00 PKD
ROOT
HETATM    1  C   UNL     1      -9.354   9.958  64.333  1.00  0.00    -0.265 C  
HETATM    2  N   UNL     1      -9.385  11.217  65.078  1.00  0.00    -0.208 NA 
HETATM    3  C   UNL     1     -10.734  11.786  65.037  1.00  0.00    -0.292 C  
ENDROOT
BRANCH   2   4
HETATM    4  C   UNL     1      -8.891  11.015  66.459  1.00  0.00    -0.169 C  
BRANCH   4   5
HETATM    5  C   UNL     1      -9.255   9.630  67.023  1.00  0.00    -0.167 C  
BRANCH   5   6
HETATM    6  C   UNL     1     -10.325   9.633  68.095  1.00  0.00    -0.250 C  
HETATM    7  C   UNL     1     -10.264   8.960  69.269  1.00  0.00    -0.214 C  
HETATM    8  C   UNL     1      -9.103   8.077  69.522  1.00  0.00    -0.152 A  
HETATM    9  C   UNL     1      -7.821   8.601  69.736  1.00  0.00    -0.093 A  
HETATM   10  C   UNL     1      -6.734   7.746  69.911  1.00  0.00    -0.042 A  
HETATM   11  C   UNL     1      -6.924   6.365  69.888  1.00  0.00    -0.066 A  
HETATM   12  C   UNL     1      -8.205   5.837  69.704  1.00  0.00    -0.108 A  
HETATM   13  C   UNL     1      -9.302   6.688  69.526  1.00  0.00    -0.145 A  
HETATM   14  C   UNL     1     -10.697   6.139  69.370  1.00  0.00    -0.385 C  
HETATM   15  C   UNL     1     -11.559   6.469  70.593  1.00  0.00    -0.442 C  
HETATM   16  C   UNL     1     -11.951   7.914  70.862  1.00  0.00    -0.211 A  
HETATM   17  C   UNL     1     -12.932   8.103  71.862  1.00  0.00    -0.356 A  
HETATM   18  C   UNL     1     -13.363   9.377  72.229  1.00  0.00    -0.539 A  
HETATM   19  C   UNL     1     -12.821  10.492  71.607  1.00  0.00    -0.581 A  
HETATM   20  C   UNL     1     -11.840  10.330  70.626  1.00  0.00    -0.439 A  
HETATM   21  C   UNL     1     -11.390   9.051  70.237  1.00  0.00    -0.202 A  
ENDBRANCH   5   6
ENDBRANCH   4   5
ENDBRANCH   2   4
TORSDOF 3
ENDMDL
MODEL       70
REMARK 921   NORMALIZED FREE ENERGY PREDICTED BY IDOCK:   -4.37 KCAL/MOL
REMARK 922        TOTAL FREE ENERGY PREDICTED BY IDOCK:   -5.64 KCAL/MOL
REMARK 923 INTER-LIGAND FREE ENERGY PREDICTED BY IDOCK:   -5.14 KCAL/MOL
REMARK 924 INTRA-LIGAND FREE ENERGY PREDICTED BY IDOCK:   -0.49 KCAL/MOL
REMARK 927      BINDING AFFINITY PREDICTED BY RF-SCORE:    0.00 PKD
ROOT
HETATM    1  C   UNL     1      -7.739  18.229  68.254  1.00  0.00    -0.291 C  
HETATM    2  N   UNL     1      -8.700  17.222  67.804  1.00  0.00    -0.223 NA 
HETATM    3  C   UNL     1      -9.954  17.366  68.546  1.00  0.00    -0.331 C  
ENDROOT
BRANCH   2   4
HETATM    4  C   UNL     1      -8.890  17.306  66.338  1.00  0.00    -0.246 C  
BRANCH   4   5
HETATM    5  C   UNL     1     -10.156  16.572  65.860  1.00  0.00    -0.359 C  
BRANCH   5   6
HETATM    6  C   UNL     1      -9.922  15.183  65.303  1.00  0.00    -0.325 C  
HETATM    7  C   UNL     1     -10.200  14.023  65.944  1.00  0.00    -0.332 C  
HETATM    8  C   UNL     1     -10.699  14.081  67.336  1.00  0.00    -0.285 A  
HETATM    9  C   UNL     1     -11.980  14.570  67.631  1.00  0.00    -0.355 A  
HETATM   10  C   UNL     1     -12.403  14.672  68.956  1.00  0.00    -0.102 A  
HETATM   11  C   UNL     1     -11.556  14.275  69.989  1.00  0.00    -0.325 A  
HETATM   12  C   UNL     1     -10.290  13.760  69.700  1.00  0.00     0.487 A  
HETATM   13  C   UNL     1      -9.856  13.655  68.373  1.00  0.00    -0.223 A  
HETATM   14  C   UNL     1      -8.511  13.062  68.038  1.00  0.00    -0.181 C  
HETATM   15  C   UNL     1      -8.665  11.709  67.334  1.00  0.00    -0.155 C  
HETATM   16  C   UNL     1      -9.252  11.660  65.931  1.00  0.00    -0.206 A  
HETATM   17  C   UNL     1      -9.140  10.417  65.268  1.00  0.00    -0.227 A  
HETATM   18  C   UNL     1      -9.661  10.224  63.989  1.00  0.00    -0.365 A  
HETATM   19  C   UNL     1     -10.305  11.269  63.344  1.00  0.00    -0.449 A  
HETATM   20  C   UNL     1     -10.440  12.502  63.986  1.00  0.00    -0.449 A  
HETATM   21  C   UNL     1      -9.920  12.721  65.279  1.00  0.00    -0.202 A  
ENDBRANCH   5   6
ENDBRANCH   4   5
ENDBRANCH   2   4
TORSDOF 3
ENDMDL
MODEL       71
REMARK 921   NORMALIZED FREE ENERGY PREDICTED BY IDOCK:   -4.35 KCAL/MOL
REMARK 922        TOTAL FREE ENERGY PREDICTED BY IDOCK:   -5.61 KCAL/MOL
REMARK 923 INTER-LIGAND FREE ENERGY PREDICTED BY IDOCK:   -5.02 KCAL/MOL
REMARK 924 INTRA-LIGAND FREE ENERGY PREDICTED BY IDOCK:   -0.59 KCAL/MOL
REMARK 927      BINDING AFFINITY PREDICTED BY RF-SCORE:    0.00 PKD
ROOT
HETATM    1  C   UNL     1      -7.310   7.274  67.339  1.00  0.00    -0.092 C  
HETATM    2  N   UNL     1      -7.365   7.806  68.701  1.00  0.00    -0.085 NA 
HETATM    3  C   UNL     1      -6.195   7.354  69.458  1.00  0.00    -0.031 C  
ENDROOT
BRANCH   2   4
HETATM    4  C   UNL     1      -7.496   9.280  68.677  1.00  0.00    -0.080 C  
BRANCH   4   5
HETATM    5  C   UNL     1      -8.040   9.851  69.998  1.00  0.00    -0.193 C  
BRANCH   5   6
HETATM    6  C   UNL     1      -9.515   9.612  70.244  1.00  0.00    -0.300 C  
HETATM    7  C   UNL     1     -10.031   8.714  71.117  1.00  0.00    -0.289 C  
HETATM    8  C   UNL     1      -9.105   7.823  71.850  1.00  0.00    -0.173 A  
HETATM    9  C   UNL     1      -8.247   8.319  72.842  1.00  0.00    -0.227 A  
HETATM   10  C   UNL     1      -7.341   7.469  73.474  1.00  0.00    -0.118 A  
HETATM   11  C   UNL     1      -7.296   6.119  73.131  1.00  0.00    -0.092 A  
HETATM   12  C   UNL     1      -8.169   5.612  72.164  1.00  0.00    -0.112 A  
HETATM   13  C   UNL     1      -9.081   6.459  71.523  1.00  0.00    -0.144 A  
HETATM   14  C   UNL     1     -10.061   5.924  70.509  1.00  0.00    -0.254 C  
HETATM   15  C   UNL     1     -11.495   5.978  71.046  1.00  0.00    -0.236 C  
HETATM   16  C   UNL     1     -12.161   7.328  71.262  1.00  0.00    -0.373 A  
HETATM   17  C   UNL     1     -13.548   7.287  71.530  1.00  0.00    -0.442 A  
HETATM   18  C   UNL     1     -14.278   8.449  71.776  1.00  0.00    -0.536 A  
HETATM   19  C   UNL     1     -13.638   9.679  71.761  1.00  0.00    -0.424 A  
HETATM   20  C   UNL     1     -12.265   9.743  71.513  1.00  0.00    -0.493 A  
HETATM   21  C   UNL     1     -11.506   8.581  71.260  1.00  0.00    -0.329 A  
ENDBRANCH   5   6
ENDBRANCH   4   5
ENDBRANCH   2   4
TORSDOF 3
ENDMDL
MODEL       72
REMARK 921   NORMALIZED FREE ENERGY PREDICTED BY IDOCK:   -4.30 KCAL/MOL
REMARK 922        TOTAL FREE ENERGY PREDICTED BY IDOCK:   -5.56 KCAL/MOL
REMARK 923 INTER-LIGAND FREE ENERGY PREDICTED BY IDOCK:   -5.20 KCAL/MOL
REMARK 924 INTRA-LIGAND FREE ENERGY PREDICTED BY IDOCK:   -0.35 KCAL/MOL
REMARK 927      BINDING AFFINITY PREDICTED BY RF-SCORE:    0.00 PKD
ROOT
HETATM    1  C   UNL     1      -9.702  11.426  63.008  1.00  0.00    -0.371 C  
HETATM    2  N   UNL     1      -9.752  10.157  63.735  1.00  0.00    -0.241 NA 
HETATM    3  C   UNL     1      -8.477   9.452  63.591  1.00  0.00    -0.200 C  
ENDROOT
BRANCH   2   4
HETATM    4  C   UNL     1     -10.122  10.386  65.150  1.00  0.00    -0.308 C  
BRANCH   4   5
HETATM    5  C   UNL     1      -8.900  10.640  66.051  1.00  0.00    -0.187 C  
BRANCH   5   6
HETATM    6  C   UNL     1      -8.718  12.075  66.499  1.00  0.00    -0.138 C  
HETATM    7  C   UNL     1      -9.111  12.582  67.692  1.00  0.00    -0.187 C  
HETATM    8  C   UNL     1      -9.855  11.706  68.626  1.00  0.00    -0.173 A  
HETATM    9  C   UNL     1      -9.230  10.631  69.271  1.00  0.00    -0.121 A  
HETATM   10  C   UNL     1      -9.967   9.784  70.098  1.00  0.00    -0.315 A  
HETATM   11  C   UNL     1     -11.327  10.017  70.296  1.00  0.00    -0.376 A  
HETATM   12  C   UNL     1     -11.950  11.105  69.679  1.00  0.00    -0.429 A  
HETATM   13  C   UNL     1     -11.217  11.959  68.846  1.00  0.00    -0.310 A  
HETATM   14  C   UNL     1     -11.860  13.163  68.205  1.00  0.00    -0.384 C  
HETATM   15  C   UNL     1     -11.315  14.463  68.806  1.00  0.00    -0.299 C  
HETATM   16  C   UNL     1      -9.869  14.857  68.546  1.00  0.00    -0.217 A  
HETATM   17  C   UNL     1      -9.517  16.170  68.930  1.00  0.00    -0.244 A  
HETATM   18  C   UNL     1      -8.218  16.652  68.776  1.00  0.00    -0.249 A  
HETATM   19  C   UNL     1      -7.240  15.831  68.234  1.00  0.00    -0.118 A  
HETATM   20  C   UNL     1      -7.562  14.524  67.860  1.00  0.00    -0.153 A  
HETATM   21  C   UNL     1      -8.869  14.016  68.005  1.00  0.00    -0.181 A  
ENDBRANCH   5   6
ENDBRANCH   4   5
ENDBRANCH   2   4
TORSDOF 3
ENDMDL
MODEL       73
REMARK 921   NORMALIZED FREE ENERGY PREDICTED BY IDOCK:   -4.29 KCAL/MOL
REMARK 922        TOTAL FREE ENERGY PREDICTED BY IDOCK:   -5.54 KCAL/MOL
REMARK 923 INTER-LIGAND FREE ENERGY PREDICTED BY IDOCK:   -5.08 KCAL/MOL
REMARK 924 INTRA-LIGAND FREE ENERGY PREDICTED BY IDOCK:   -0.46 KCAL/MOL
REMARK 927      BINDING AFFINITY PREDICTED BY RF-SCORE:    0.00 PKD
ROOT
HETATM    1  C   UNL     1      -9.231   7.112  72.338  1.00  0.00    -0.134 C  
HETATM    2  N   UNL     1      -9.912   7.772  71.224  1.00  0.00    -0.175 NA 
HETATM    3  C   UNL     1     -10.991   6.917  70.725  1.00  0.00    -0.259 C  
ENDROOT
BRANCH   2   4
HETATM    4  C   UNL     1     -10.388   9.114  71.630  1.00  0.00    -0.318 C  
BRANCH   4   5
HETATM    5  C   UNL     1     -11.595   9.593  70.804  1.00  0.00    -0.395 C  
BRANCH   5   6
HETATM    6  C   UNL     1     -11.427  10.945  70.144  1.00  0.00    -0.405 C  
HETATM    7  C   UNL     1     -10.802  11.172  68.964  1.00  0.00    -0.276 C  
HETATM    8  C   UNL     1     -10.148  10.035  68.277  1.00  0.00    -0.182 A  
HETATM    9  C   UNL     1     -10.899   9.003  67.699  1.00  0.00    -0.133 A  
HETATM   10  C   UNL     1     -10.258   7.913  67.111  1.00  0.00    -0.360 A  
HETATM   11  C   UNL     1      -8.865   7.856  67.085  1.00  0.00    -0.137 A  
HETATM   12  C   UNL     1      -8.111   8.897  67.634  1.00  0.00    -0.106 A  
HETATM   13  C   UNL     1      -8.746   9.994  68.227  1.00  0.00    -0.119 A  
HETATM   14  C   UNL     1      -7.951  11.147  68.786  1.00  0.00    -0.144 C  
HETATM   15  C   UNL     1      -8.145  12.411  67.941  1.00  0.00    -0.161 C  
HETATM   16  C   UNL     1      -9.501  13.100  67.931  1.00  0.00    -0.218 A  
HETATM   17  C   UNL     1      -9.530  14.376  67.324  1.00  0.00    -0.215 A  
HETATM   18  C   UNL     1     -10.713  15.108  67.220  1.00  0.00    -0.305 A  
HETATM   19  C   UNL     1     -11.894  14.579  67.719  1.00  0.00    -0.390 A  
HETATM   20  C   UNL     1     -11.892  13.313  68.309  1.00  0.00    -0.389 A  
HETATM   21  C   UNL     1     -10.708  12.556  68.428  1.00  0.00    -0.259 A  
ENDBRANCH   5   6
ENDBRANCH   4   5
ENDBRANCH   2   4
TORSDOF 3
ENDMDL
MODEL       74
REMARK 921   NORMALIZED FREE ENERGY PREDICTED BY IDOCK:   -4.25 KCAL/MOL
REMARK 922        TOTAL FREE ENERGY PREDICTED BY IDOCK:   -5.50 KCAL/MOL
REMARK 923 INTER-LIGAND FREE ENERGY PREDICTED BY IDOCK:   -5.21 KCAL/MOL
REMARK 924 INTRA-LIGAND FREE ENERGY PREDICTED BY IDOCK:   -0.28 KCAL/MOL
REMARK 927      BINDING AFFINITY PREDICTED BY RF-SCORE:    0.00 PKD
ROOT
HETATM    1  C   UNL     1     -10.542   5.054  66.176  1.00  0.00    -0.265 C  
HETATM    2  N   UNL     1     -10.874   5.819  67.378  1.00  0.00    -0.249 NA 
HETATM    3  C   UNL     1     -10.088   5.327  68.512  1.00  0.00    -0.165 C  
ENDROOT
BRANCH   2   4
HETATM    4  C   UNL     1     -10.687   7.267  67.138  1.00  0.00    -0.343 C  
BRANCH   4   5
HETATM    5  C   UNL     1      -9.317   7.778  67.619  1.00  0.00    -0.160 C  
BRANCH   5   6
HETATM    6  C   UNL     1      -9.087   9.264  67.443  1.00  0.00    -0.141 C  
HETATM    7  C   UNL     1      -9.361  10.217  68.367  1.00  0.00    -0.137 C  
HETATM    8  C   UNL     1     -10.013   9.813  69.633  1.00  0.00    -0.244 A  
HETATM    9  C   UNL     1      -9.332   9.053  70.594  1.00  0.00    -0.283 A  
HETATM   10  C   UNL     1      -9.988   8.634  71.750  1.00  0.00    -0.371 A  
HETATM   11  C   UNL     1     -11.322   8.982  71.958  1.00  0.00    -0.395 A  
HETATM   12  C   UNL     1     -11.998   9.764  71.017  1.00  0.00    -0.440 A  
HETATM   13  C   UNL     1     -11.347  10.188  69.853  1.00  0.00    -0.335 A  
HETATM   14  C   UNL     1     -12.045  11.069  68.847  1.00  0.00    -0.239 C  
HETATM   15  C   UNL     1     -11.439  12.476  68.832  1.00  0.00    -0.355 C  
HETATM   16  C   UNL     1     -10.023  12.674  68.311  1.00  0.00    -0.229 A  
HETATM   17  C   UNL     1      -9.631  14.017  68.111  1.00  0.00    -0.220 A  
HETATM   18  C   UNL     1      -8.351  14.344  67.664  1.00  0.00    -0.186 A  
HETATM   19  C   UNL     1      -7.434  13.335  67.409  1.00  0.00    -0.134 A  
HETATM   20  C   UNL     1      -7.795  12.002  67.614  1.00  0.00    -0.149 A  
HETATM   21  C   UNL     1      -9.084  11.647  68.063  1.00  0.00    -0.177 A  
ENDBRANCH   5   6
ENDBRANCH   4   5
ENDBRANCH   2   4
TORSDOF 3
ENDMDL
MODEL       75
REMARK 921   NORMALIZED FREE ENERGY PREDICTED BY IDOCK:   -4.25 KCAL/MOL
REMARK 922        TOTAL FREE ENERGY PREDICTED BY IDOCK:   -5.49 KCAL/MOL
REMARK 923 INTER-LIGAND FREE ENERGY PREDICTED BY IDOCK:   -5.22 KCAL/MOL
REMARK 924 INTRA-LIGAND FREE ENERGY PREDICTED BY IDOCK:   -0.27 KCAL/MOL
REMARK 927      BINDING AFFINITY PREDICTED BY RF-SCORE:    0.00 PKD
ROOT
HETATM    1  C   UNL     1     -11.963  10.730  70.144  1.00  0.00    -0.349 C  
HETATM    2  N   UNL     1     -12.029  11.044  68.716  1.00  0.00    -0.511 NA 
HETATM    3  C   UNL     1     -11.859  12.486  68.517  1.00  0.00    -0.295 C  
ENDROOT
BRANCH   2   4
HETATM    4  C   UNL     1     -11.040  10.242  67.963  1.00  0.00    -0.274 C  
BRANCH   4   5
HETATM    5  C   UNL     1     -10.462   9.080  68.791  1.00  0.00    -0.230 C  
BRANCH   5   6
HETATM    6  C   UNL     1     -10.169   7.817  68.010  1.00  0.00    -0.249 C  
HETATM    7  C   UNL     1     -10.299   6.553  68.480  1.00  0.00    -0.219 C  
HETATM    8  C   UNL     1     -10.682   6.358  69.897  1.00  0.00    -0.332 A  
HETATM    9  C   UNL     1     -11.967   6.680  70.356  1.00  0.00    -0.342 A  
HETATM   10  C   UNL     1     -12.282   6.545  71.707  1.00  0.00    -0.374 A  
HETATM   11  C   UNL     1     -11.322   6.075  72.602  1.00  0.00    -0.320 A  
HETATM   12  C   UNL     1     -10.049   5.726  72.146  1.00  0.00    -0.219 A  
HETATM   13  C   UNL     1      -9.723   5.859  70.791  1.00  0.00    -0.212 A  
HETATM   14  C   UNL     1      -8.369   5.447  70.271  1.00  0.00    -0.112 C  
HETATM   15  C   UNL     1      -8.477   4.206  69.378  1.00  0.00    -0.096 C  
HETATM   16  C   UNL     1      -9.174   4.315  68.030  1.00  0.00    -0.182 A  
HETATM   17  C   UNL     1      -9.024   3.200  67.175  1.00  0.00    -0.181 A  
HETATM   18  C   UNL     1      -9.634   3.153  65.922  1.00  0.00     0.020 A  
HETATM   19  C   UNL     1     -10.411   4.221  65.497  1.00  0.00    -0.210 A  
HETATM   20  C   UNL     1     -10.586   5.327  66.331  1.00  0.00    -0.338 A  
HETATM   21  C   UNL     1      -9.977   5.397  67.601  1.00  0.00    -0.195 A  
ENDBRANCH   5   6
ENDBRANCH   4   5
ENDBRANCH   2   4
TORSDOF 3
ENDMDL
MODEL       76
REMARK 921   NORMALIZED FREE ENERGY PREDICTED BY IDOCK:   -4.22 KCAL/MOL
REMARK 922        TOTAL FREE ENERGY PREDICTED BY IDOCK:   -5.46 KCAL/MOL
REMARK 923 INTER-LIGAND FREE ENERGY PREDICTED BY IDOCK:   -5.03 KCAL/MOL
REMARK 924 INTRA-LIGAND FREE ENERGY PREDICTED BY IDOCK:   -0.43 KCAL/MOL
REMARK 927      BINDING AFFINITY PREDICTED BY RF-SCORE:    0.00 PKD
ROOT
HETATM    1  C   UNL     1     -10.713  11.309  63.490  1.00  0.00    -0.335 C  
HETATM    2  N   UNL     1     -11.835  12.174  63.125  1.00  0.00    -0.316 NA 
HETATM    3  C   UNL     1     -13.089  11.593  63.612  1.00  0.00     0.210 C  
ENDROOT
BRANCH   2   4
HETATM    4  C   UNL     1     -11.611  13.550  63.621  1.00  0.00    -0.151 C  
BRANCH   4   5
HETATM    5  C   UNL     1     -10.450  13.637  64.629  1.00  0.00    -0.442 C  
BRANCH   5   6
HETATM    6  C   UNL     1     -10.830  14.142  66.005  1.00  0.00    -0.297 C  
HETATM    7  C   UNL     1     -10.569  13.509  67.174  1.00  0.00    -0.264 C  
HETATM    8  C   UNL     1      -9.930  12.174  67.132  1.00  0.00    -0.210 A  
HETATM    9  C   UNL     1      -8.597  12.016  66.729  1.00  0.00    -0.177 A  
HETATM   10  C   UNL     1      -8.039  10.742  66.640  1.00  0.00    -0.142 A  
HETATM   11  C   UNL     1      -8.803   9.622  66.966  1.00  0.00    -0.142 A  
HETATM   12  C   UNL     1     -10.124   9.776  67.396  1.00  0.00    -0.259 A  
HETATM   13  C   UNL     1     -10.693  11.052  67.488  1.00  0.00    -0.289 A  
HETATM   14  C   UNL     1     -12.102  11.242  67.992  1.00  0.00     0.053 C  
HETATM   15  C   UNL     1     -12.109  11.932  69.360  1.00  0.00    -0.277 C  
HETATM   16  C   UNL     1     -11.669  13.384  69.466  1.00  0.00    -0.385 A  
HETATM   17  C   UNL     1     -11.928  14.010  70.706  1.00  0.00    -0.364 A  
HETATM   18  C   UNL     1     -11.552  15.330  70.950  1.00  0.00    -0.382 A  
HETATM   19  C   UNL     1     -10.906  16.055  69.960  1.00  0.00    -0.353 A  
HETATM   20  C   UNL     1     -10.626  15.453  68.731  1.00  0.00    -0.235 A  
HETATM   21  C   UNL     1     -10.999  14.119  68.461  1.00  0.00    -0.271 A  
ENDBRANCH   5   6
ENDBRANCH   4   5
ENDBRANCH   2   4
TORSDOF 3
ENDMDL
MODEL       77
REMARK 921   NORMALIZED FREE ENERGY PREDICTED BY IDOCK:   -4.17 KCAL/MOL
REMARK 922        TOTAL FREE ENERGY PREDICTED BY IDOCK:   -5.40 KCAL/MOL
REMARK 923 INTER-LIGAND FREE ENERGY PREDICTED BY IDOCK:   -4.94 KCAL/MOL
REMARK 924 INTRA-LIGAND FREE ENERGY PREDICTED BY IDOCK:   -0.46 KCAL/MOL
REMARK 927      BINDING AFFINITY PREDICTED BY RF-SCORE:    0.00 PKD
ROOT
HETATM    1  C   UNL     1      -9.183  12.521  67.901  1.00  0.00    -0.200 C  
HETATM    2  N   UNL     1      -7.768  12.151  67.899  1.00  0.00    -0.122 NA 
HETATM    3  C   UNL     1      -7.510  11.180  66.833  1.00  0.00    -0.138 C  
ENDROOT
BRANCH   2   4
HETATM    4  C   UNL     1      -6.918  13.358  67.791  1.00  0.00    -0.156 C  
BRANCH   4   5
HETATM    5  C   UNL     1      -6.889  14.183  69.091  1.00  0.00    -0.113 C  
BRANCH   5   6
HETATM    6  C   UNL     1      -6.624  15.663  68.907  1.00  0.00    -0.116 C  
HETATM    7  C   UNL     1      -7.572  16.617  68.746  1.00  0.00    -0.227 C  
HETATM    8  C   UNL     1      -8.991  16.202  68.659  1.00  0.00    -0.221 A  
HETATM    9  C   UNL     1      -9.671  15.690  69.773  1.00  0.00    -0.231 A  
HETATM   10  C   UNL     1     -10.987  15.249  69.649  1.00  0.00    -0.291 A  
HETATM   11  C   UNL     1     -11.635  15.330  68.417  1.00  0.00    -0.365 A  
HETATM   12  C   UNL     1     -10.972  15.866  67.310  1.00  0.00    -0.234 A  
HETATM   13  C   UNL     1      -9.649  16.310  67.425  1.00  0.00    -0.230 A  
HETATM   14  C   UNL     1      -8.931  16.931  66.254  1.00  0.00    -0.305 C  
HETATM   15  C   UNL     1      -8.690  18.427  66.486  1.00  0.00    -0.291 C  
HETATM   16  C   UNL     1      -7.713  18.867  67.565  1.00  0.00    -0.251 A  
HETATM   17  C   UNL     1      -7.372  20.238  67.555  1.00  0.00    -0.340 A  
HETATM   18  C   UNL     1      -6.510  20.783  68.505  1.00  0.00    -0.223 A  
HETATM   19  C   UNL     1      -5.969  19.968  69.489  1.00  0.00    -0.351 A  
HETATM   20  C   UNL     1      -6.304  18.613  69.528  1.00  0.00    -0.268 A  
HETATM   21  C   UNL     1      -7.173  18.040  68.576  1.00  0.00    -0.265 A  
ENDBRANCH   5   6
ENDBRANCH   4   5
ENDBRANCH   2   4
TORSDOF 3
ENDMDL
MODEL       78
REMARK 921   NORMALIZED FREE ENERGY PREDICTED BY IDOCK:   -4.16 KCAL/MOL
REMARK 922        TOTAL FREE ENERGY PREDICTED BY IDOCK:   -5.39 KCAL/MOL
REMARK 923 INTER-LIGAND FREE ENERGY PREDICTED BY IDOCK:   -5.14 KCAL/MOL
REMARK 924 INTRA-LIGAND FREE ENERGY PREDICTED BY IDOCK:   -0.25 KCAL/MOL
REMARK 927      BINDING AFFINITY PREDICTED BY RF-SCORE:    0.00 PKD
ROOT
HETATM    1  C   UNL     1     -12.069  11.933  63.299  1.00  0.00    -0.357 C  
HETATM    2  N   UNL     1     -11.737  12.135  64.709  1.00  0.00    -0.346 NA 
HETATM    3  C   UNL     1     -10.311  12.440  64.844  1.00  0.00    -0.293 C  
ENDROOT
BRANCH   2   4
HETATM    4  C   UNL     1     -12.603  13.178  65.302  1.00  0.00    -0.472 C  
BRANCH   4   5
HETATM    5  C   UNL     1     -11.806  14.251  66.065  1.00  0.00    -0.399 C  
BRANCH   5   6
HETATM    6  C   UNL     1     -12.115  14.350  67.544  1.00  0.00    -0.327 C  
HETATM    7  C   UNL     1     -11.621  15.287  68.389  1.00  0.00    -0.365 C  
HETATM    8  C   UNL     1     -10.633  16.260  67.872  1.00  0.00    -0.318 A  
HETATM    9  C   UNL     1     -11.001  17.256  66.957  1.00  0.00     0.091 A  
HETATM   10  C   UNL     1     -10.039  18.122  66.438  1.00  0.00    -0.392 A  
HETATM   11  C   UNL     1      -8.710  18.007  66.841  1.00  0.00    -0.261 A  
HETATM   12  C   UNL     1      -8.342  17.035  67.775  1.00  0.00    -0.199 A  
HETATM   13  C   UNL     1      -9.301  16.160  68.301  1.00  0.00    -0.205 A  
HETATM   14  C   UNL     1      -8.933  15.134  69.342  1.00  0.00    -0.176 C  
HETATM   15  C   UNL     1      -9.555  15.478  70.699  1.00  0.00     1.056 C  
HETATM   16  C   UNL     1     -11.064  15.392  70.871  1.00  0.00    -0.374 A  
HETATM   17  C   UNL     1     -11.532  15.493  72.201  1.00  0.00    -0.512 A  
HETATM   18  C   UNL     1     -12.894  15.459  72.500  1.00  0.00    -0.491 A  
HETATM   19  C   UNL     1     -13.819  15.326  71.475  1.00  0.00    -0.617 A  
HETATM   20  C   UNL     1     -13.381  15.240  70.152  1.00  0.00     0.195 A  
HETATM   21  C   UNL     1     -12.008  15.269  69.826  1.00  0.00    -0.374 A  
ENDBRANCH   5   6
ENDBRANCH   4   5
ENDBRANCH   2   4
TORSDOF 3
ENDMDL
MODEL       79
REMARK 921   NORMALIZED FREE ENERGY PREDICTED BY IDOCK:   -4.14 KCAL/MOL
REMARK 922        TOTAL FREE ENERGY PREDICTED BY IDOCK:   -5.37 KCAL/MOL
REMARK 923 INTER-LIGAND FREE ENERGY PREDICTED BY IDOCK:   -5.10 KCAL/MOL
REMARK 924 INTRA-LIGAND FREE ENERGY PREDICTED BY IDOCK:   -0.27 KCAL/MOL
REMARK 927      BINDING AFFINITY PREDICTED BY RF-SCORE:    0.00 PKD
ROOT
HETATM    1  C   UNL     1     -11.486   7.784  71.110  1.00  0.00    -0.274 C  
HETATM    2  N   UNL     1     -10.184   8.440  70.988  1.00  0.00    -0.193 NA 
HETATM    3  C   UNL     1      -9.257   7.891  71.981  1.00  0.00    -0.155 C  
ENDROOT
BRANCH   2   4
HETATM    4  C   UNL     1      -9.673   8.323  69.604  1.00  0.00    -0.173 C  
BRANCH   4   5
HETATM    5  C   UNL     1     -10.528   9.100  68.587  1.00  0.00    -0.235 C  
BRANCH   5   6
HETATM    6  C   UNL     1     -10.101   8.953  67.142  1.00  0.00    -0.316 C  
HETATM    7  C   UNL     1      -9.646   9.954  66.351  1.00  0.00    -0.255 C  
HETATM    8  C   UNL     1      -9.627  11.333  66.889  1.00  0.00    -0.210 A  
HETATM    9  C   UNL     1      -8.735  11.707  67.904  1.00  0.00    -0.154 A  
HETATM   10  C   UNL     1      -8.780  12.995  68.436  1.00  0.00    -0.115 A  
HETATM   11  C   UNL     1      -9.703  13.918  67.949  1.00  0.00    -0.231 A  
HETATM   12  C   UNL     1     -10.575  13.560  66.917  1.00  0.00    -0.270 A  
HETATM   13  C   UNL     1     -10.538  12.268  66.377  1.00  0.00    -0.272 A  
HETATM   14  C   UNL     1     -11.440  11.875  65.234  1.00  0.00    -0.313 C  
HETATM   15  C   UNL     1     -10.636  11.654  63.949  1.00  0.00    -0.446 C  
HETATM   16  C   UNL     1      -9.685  10.470  63.858  1.00  0.00    -0.384 A  
HETATM   17  C   UNL     1      -9.167  10.202  62.571  1.00  0.00    -0.321 A  
HETATM   18  C   UNL     1      -8.262   9.165  62.350  1.00  0.00    -0.163 A  
HETATM   19  C   UNL     1      -7.853   8.372  63.412  1.00  0.00    -0.152 A  
HETATM   20  C   UNL     1      -8.340   8.627  64.695  1.00  0.00    -0.165 A  
HETATM   21  C   UNL     1      -9.258   9.670  64.943  1.00  0.00    -0.306 A  
ENDBRANCH   5   6
ENDBRANCH   4   5
ENDBRANCH   2   4
TORSDOF 3
ENDMDL
MODEL       80
REMARK 921   NORMALIZED FREE ENERGY PREDICTED BY IDOCK:   -4.13 KCAL/MOL
REMARK 922        TOTAL FREE ENERGY PREDICTED BY IDOCK:   -5.35 KCAL/MOL
REMARK 923 INTER-LIGAND FREE ENERGY PREDICTED BY IDOCK:   -5.13 KCAL/MOL
REMARK 924 INTRA-LIGAND FREE ENERGY PREDICTED BY IDOCK:   -0.22 KCAL/MOL
REMARK 927      BINDING AFFINITY PREDICTED BY RF-SCORE:    0.00 PKD
ROOT
HETATM    1  C   UNL     1     -12.948  15.506  70.138  1.00  0.00     0.007 C  
HETATM    2  N   UNL     1     -12.033  14.498  69.603  1.00  0.00    -0.311 NA 
HETATM    3  C   UNL     1     -10.659  15.005  69.641  1.00  0.00    -0.238 C  
ENDROOT
BRANCH   2   4
HETATM    4  C   UNL     1     -12.190  13.218  70.330  1.00  0.00    -0.332 C  
BRANCH   4   5
HETATM    5  C   UNL     1     -11.715  12.005  69.510  1.00  0.00    -0.408 C  
BRANCH   5   6
HETATM    6  C   UNL     1     -11.732  10.683  70.247  1.00  0.00    -0.433 C  
HETATM    7  C   UNL     1     -10.831   9.684  70.092  1.00  0.00    -0.325 C  
HETATM    8  C   UNL     1      -9.773   9.834  69.067  1.00  0.00    -0.177 A  
HETATM    9  C   UNL     1      -8.739  10.767  69.218  1.00  0.00    -0.044 A  
HETATM   10  C   UNL     1      -7.790  10.932  68.210  1.00  0.00    -0.118 A  
HETATM   11  C   UNL     1      -7.862  10.157  67.053  1.00  0.00    -0.102 A  
HETATM   12  C   UNL     1      -8.874   9.204  66.910  1.00  0.00    -0.137 A  
HETATM   13  C   UNL     1      -9.832   9.033  67.917  1.00  0.00    -0.207 A  
HETATM   14  C   UNL     1     -10.906   7.981  67.800  1.00  0.00    -0.081 C  
HETATM   15  C   UNL     1     -10.688   6.857  68.819  1.00  0.00    -0.255 C  
HETATM   16  C   UNL     1     -10.865   7.148  70.301  1.00  0.00    -0.271 A  
HETATM   17  C   UNL     1     -10.880   6.015  71.146  1.00  0.00    -0.338 A  
HETATM   18  C   UNL     1     -11.006   6.139  72.529  1.00  0.00    -0.296 A  
HETATM   19  C   UNL     1     -11.118   7.398  73.099  1.00  0.00    -0.357 A  
HETATM   20  C   UNL     1     -11.091   8.532  72.285  1.00  0.00    -0.430 A  
HETATM   21  C   UNL     1     -10.966   8.432  70.884  1.00  0.00    -0.279 A  
ENDBRANCH   5   6
ENDBRANCH   4   5
ENDBRANCH   2   4
TORSDOF 3
ENDMDL
MODEL       81
REMARK 921   NORMALIZED FREE ENERGY PREDICTED BY IDOCK:   -4.12 KCAL/MOL
REMARK 922        TOTAL FREE ENERGY PREDICTED BY IDOCK:   -5.34 KCAL/MOL
REMARK 923 INTER-LIGAND FREE ENERGY PREDICTED BY IDOCK:   -4.99 KCAL/MOL
REMARK 924 INTRA-LIGAND FREE ENERGY PREDICTED BY IDOCK:   -0.35 KCAL/MOL
REMARK 927      BINDING AFFINITY PREDICTED BY RF-SCORE:    0.00 PKD
ROOT
HETATM    1  C   UNL     1      -8.096  13.640  67.330  1.00  0.00    -0.175 C  
HETATM    2  N   UNL     1      -8.662  12.293  67.398  1.00  0.00    -0.171 NA 
HETATM    3  C   UNL     1      -9.289  11.953  66.119  1.00  0.00    -0.219 C  
ENDROOT
BRANCH   2   4
HETATM    4  C   UNL     1      -7.626  11.316  67.805  1.00  0.00    -0.104 C  
BRANCH   4   5
HETATM    5  C   UNL     1      -7.902  10.698  69.187  1.00  0.00    -0.142 C  
BRANCH   5   6
HETATM    6  C   UNL     1      -8.116   9.199  69.191  1.00  0.00    -0.105 C  
HETATM    7  C   UNL     1      -9.290   8.573  69.441  1.00  0.00    -0.154 C  
HETATM    8  C   UNL     1     -10.463   9.391  69.825  1.00  0.00    -0.243 A  
HETATM    9  C   UNL     1     -11.093  10.240  68.904  1.00  0.00    -0.278 A  
HETATM   10  C   UNL     1     -12.157  11.045  69.308  1.00  0.00    -0.363 A  
HETATM   11  C   UNL     1     -12.606  10.996  70.626  1.00  0.00    -0.427 A  
HETATM   12  C   UNL     1     -12.002  10.130  71.541  1.00  0.00    -0.404 A  
HETATM   13  C   UNL     1     -10.932   9.319  71.145  1.00  0.00    -0.409 A  
HETATM   14  C   UNL     1     -10.294   8.346  72.106  1.00  0.00    -0.397 C  
HETATM   15  C   UNL     1     -10.597   6.898  71.705  1.00  0.00    -0.235 C  
HETATM   16  C   UNL     1      -9.990   6.334  70.430  1.00  0.00    -0.214 A  
HETATM   17  C   UNL     1     -10.122   4.938  70.258  1.00  0.00    -0.322 A  
HETATM   18  C   UNL     1      -9.637   4.293  69.121  1.00  0.00    -0.249 A  
HETATM   19  C   UNL     1      -9.010   5.031  68.128  1.00  0.00    -0.119 A  
HETATM   20  C   UNL     1      -8.881   6.414  68.269  1.00  0.00    -0.115 A  
HETATM   21  C   UNL     1      -9.362   7.087  69.411  1.00  0.00    -0.146 A  
ENDBRANCH   5   6
ENDBRANCH   4   5
ENDBRANCH   2   4
TORSDOF 3
ENDMDL
MODEL       82
REMARK 921   NORMALIZED FREE ENERGY PREDICTED BY IDOCK:   -4.09 KCAL/MOL
REMARK 922        TOTAL FREE ENERGY PREDICTED BY IDOCK:   -5.31 KCAL/MOL
REMARK 923 INTER-LIGAND FREE ENERGY PREDICTED BY IDOCK:   -5.00 KCAL/MOL
REMARK 924 INTRA-LIGAND FREE ENERGY PREDICTED BY IDOCK:   -0.31 KCAL/MOL
REMARK 927      BINDING AFFINITY PREDICTED BY RF-SCORE:    0.00 PKD
ROOT
HETATM    1  C   UNL     1     -11.900  15.673  69.417  1.00  0.00    -0.375 C  
HETATM    2  N   UNL     1     -11.662  14.958  68.163  1.00  0.00    -0.332 NA 
HETATM    3  C   UNL     1     -10.783  15.749  67.299  1.00  0.00    -0.313 C  
ENDROOT
BRANCH   2   4
HETATM    4  C   UNL     1     -11.130  13.603  68.433  1.00  0.00    -0.264 C  
BRANCH   4   5
HETATM    5  C   UNL     1     -11.735  12.531  67.508  1.00  0.00    -0.439 C  
BRANCH   5   6
HETATM    6  C   UNL     1     -10.821  12.043  66.405  1.00  0.00    -0.314 C  
HETATM    7  C   UNL     1      -9.925  11.033  66.515  1.00  0.00    -0.253 C  
HETATM    8  C   UNL     1      -9.745  10.384  67.833  1.00  0.00    -0.168 A  
HETATM    9  C   UNL     1     -10.746   9.579  68.393  1.00  0.00    -0.230 A  
HETATM   10  C   UNL     1     -10.577   9.029  69.663  1.00  0.00    -0.230 A  
HETATM   11  C   UNL     1      -9.401   9.269  70.373  1.00  0.00    -0.295 A  
HETATM   12  C   UNL     1      -8.387  10.047  69.808  1.00  0.00    -0.187 A  
HETATM   13  C   UNL     1      -8.549  10.604  68.534  1.00  0.00    -0.137 A  
HETATM   14  C   UNL     1      -7.450  11.409  67.889  1.00  0.00    -0.095 C  
HETATM   15  C   UNL     1      -6.848  10.662  66.694  1.00  0.00    -0.114 C  
HETATM   16  C   UNL     1      -7.690  10.453  65.444  1.00  0.00    -0.136 A  
HETATM   17  C   UNL     1      -6.992   9.971  64.314  1.00  0.00    -0.128 A  
HETATM   18  C   UNL     1      -7.645   9.707  63.111  1.00  0.00    -0.117 A  
HETATM   19  C   UNL     1      -9.013   9.917  63.011  1.00  0.00    -0.273 A  
HETATM   20  C   UNL     1      -9.726  10.378  64.120  1.00  0.00    -0.387 A  
HETATM   21  C   UNL     1      -9.086  10.654  65.346  1.00  0.00    -0.214 A  
ENDBRANCH   5   6
ENDBRANCH   4   5
ENDBRANCH   2   4
TORSDOF 3
ENDMDL
MODEL       83
REMARK 921   NORMALIZED FREE ENERGY PREDICTED BY IDOCK:   -4.08 KCAL/MOL
REMARK 922        TOTAL FREE ENERGY PREDICTED BY IDOCK:   -5.29 KCAL/MOL
REMARK 923 INTER-LIGAND FREE ENERGY PREDICTED BY IDOCK:   -4.99 KCAL/MOL
REMARK 924 INTRA-LIGAND FREE ENERGY PREDICTED BY IDOCK:   -0.30 KCAL/MOL
REMARK 927      BINDING AFFINITY PREDICTED BY RF-SCORE:    0.00 PKD
ROOT
HETATM    1  C   UNL     1     -10.772   8.252  72.240  1.00  0.00    -0.329 C  
HETATM    2  N   UNL     1     -11.502   8.952  71.182  1.00  0.00    -0.284 NA 
HETATM    3  C   UNL     1     -12.518   9.826  71.774  1.00  0.00    -0.398 C  
ENDROOT
BRANCH   2   4
HETATM    4  C   UNL     1     -10.563   9.682  70.301  1.00  0.00    -0.278 C  
BRANCH   4   5
HETATM    5  C   UNL     1     -10.613   9.194  68.842  1.00  0.00    -0.214 C  
BRANCH   5   6
HETATM    6  C   UNL     1     -11.022  10.240  67.827  1.00  0.00    -0.360 C  
HETATM    7  C   UNL     1     -10.174  10.967  67.062  1.00  0.00    -0.250 C  
HETATM    8  C   UNL     1      -8.717  10.806  67.267  1.00  0.00    -0.130 A  
HETATM    9  C   UNL     1      -8.056   9.624  66.906  1.00  0.00    -0.113 A  
HETATM   10  C   UNL     1      -6.694   9.474  67.167  1.00  0.00    -0.072 A  
HETATM   11  C   UNL     1      -5.984  10.508  67.775  1.00  0.00    -0.044 A  
HETATM   12  C   UNL     1      -6.631  11.700  68.111  1.00  0.00    -0.061 A  
HETATM   13  C   UNL     1      -7.999  11.859  67.854  1.00  0.00    -0.144 A  
HETATM   14  C   UNL     1      -8.706  13.153  68.169  1.00  0.00    -0.193 C  
HETATM   15  C   UNL     1      -9.119  13.881  66.886  1.00  0.00    -0.257 C  
HETATM   16  C   UNL     1     -10.202  13.281  66.002  1.00  0.00    -0.291 A  
HETATM   17  C   UNL     1     -10.686  14.123  64.976  1.00  0.00    -0.429 A  
HETATM   18  C   UNL     1     -11.658  13.690  64.075  1.00  0.00    -0.353 A  
HETATM   19  C   UNL     1     -12.168  12.405  64.179  1.00  0.00    -0.558 A  
HETATM   20  C   UNL     1     -11.694  11.550  65.177  1.00  0.00     0.081 A  
HETATM   21  C   UNL     1     -10.712  11.966  66.100  1.00  0.00    -0.318 A  
ENDBRANCH   5   6
ENDBRANCH   4   5
ENDBRANCH   2   4
TORSDOF 3
ENDMDL
MODEL       84
REMARK 921   NORMALIZED FREE ENERGY PREDICTED BY IDOCK:   -4.07 KCAL/MOL
REMARK 922        TOTAL FREE ENERGY PREDICTED BY IDOCK:   -5.28 KCAL/MOL
REMARK 923 INTER-LIGAND FREE ENERGY PREDICTED BY IDOCK:   -5.02 KCAL/MOL
REMARK 924 INTRA-LIGAND FREE ENERGY PREDICTED BY IDOCK:   -0.26 KCAL/MOL
REMARK 927      BINDING AFFINITY PREDICTED BY RF-SCORE:    0.00 PKD
ROOT
HETATM    1  C   UNL     1      -9.629  19.693  66.427  1.00  0.00    -0.401 C  
HETATM    2  N   UNL     1      -9.008  18.454  65.960  1.00  0.00    -0.494 NA 
HETATM    3  C   UNL     1      -7.568  18.489  66.227  1.00  0.00    -0.255 C  
ENDROOT
BRANCH   2   4
HETATM    4  C   UNL     1      -9.674  17.280  66.569  1.00  0.00    -0.288 C  
BRANCH   4   5
HETATM    5  C   UNL     1      -9.073  15.944  66.096  1.00  0.00    -0.385 C  
BRANCH   5   6
HETATM    6  C   UNL     1      -9.693  14.707  66.711  1.00  0.00    -0.267 C  
HETATM    7  C   UNL     1      -9.186  14.010  67.756  1.00  0.00    -0.195 C  
HETATM    8  C   UNL     1      -7.878  14.419  68.315  1.00  0.00    -0.138 A  
HETATM    9  C   UNL     1      -7.731  15.619  69.024  1.00  0.00    -0.199 A  
HETATM   10  C   UNL     1      -6.476  16.011  69.487  1.00  0.00    -0.187 A  
HETATM   11  C   UNL     1      -5.365  15.200  69.258  1.00  0.00    -0.095 A  
HETATM   12  C   UNL     1      -5.510  13.988  68.578  1.00  0.00    -0.096 A  
HETATM   13  C   UNL     1      -6.767  13.587  68.108  1.00  0.00    -0.120 A  
HETATM   14  C   UNL     1      -6.953  12.263  67.411  1.00  0.00    -0.151 C  
HETATM   15  C   UNL     1      -7.770  11.296  68.274  1.00  0.00    -0.122 C  
HETATM   16  C   UNL     1      -9.242  11.586  68.530  1.00  0.00    -0.167 A  
HETATM   17  C   UNL     1      -9.973  10.535  69.129  1.00  0.00    -0.236 A  
HETATM   18  C   UNL     1     -11.324  10.675  69.446  1.00  0.00    -0.348 A  
HETATM   19  C   UNL     1     -11.973  11.870  69.173  1.00  0.00    -0.336 A  
HETATM   20  C   UNL     1     -11.267  12.927  68.595  1.00  0.00    -0.321 A  
HETATM   21  C   UNL     1      -9.901  12.807  68.264  1.00  0.00    -0.224 A  
ENDBRANCH   5   6
ENDBRANCH   4   5
ENDBRANCH   2   4
TORSDOF 3
ENDMDL
MODEL       85
REMARK 921   NORMALIZED FREE ENERGY PREDICTED BY IDOCK:   -4.07 KCAL/MOL
REMARK 922        TOTAL FREE ENERGY PREDICTED BY IDOCK:   -5.28 KCAL/MOL
REMARK 923 INTER-LIGAND FREE ENERGY PREDICTED BY IDOCK:   -4.97 KCAL/MOL
REMARK 924 INTRA-LIGAND FREE ENERGY PREDICTED BY IDOCK:   -0.31 KCAL/MOL
REMARK 927      BINDING AFFINITY PREDICTED BY RF-SCORE:    0.00 PKD
ROOT
HETATM    1  C   UNL     1     -10.885  15.662  67.173  1.00  0.00    -0.297 C  
HETATM    2  N   UNL     1     -11.301  14.797  66.068  1.00  0.00    -0.343 NA 
HETATM    3  C   UNL     1     -11.073  15.477  64.792  1.00  0.00    -0.407 C  
ENDROOT
BRANCH   2   4
HETATM    4  C   UNL     1     -10.616  13.488  66.149  1.00  0.00    -0.290 C  
BRANCH   4   5
HETATM    5  C   UNL     1      -9.976  13.235  67.526  1.00  0.00    -0.223 C  
BRANCH   5   6
HETATM    6  C   UNL     1     -10.400  11.951  68.207  1.00  0.00    -0.211 C  
HETATM    7  C   UNL     1      -9.722  10.779  68.168  1.00  0.00    -0.169 C  
HETATM    8  C   UNL     1      -8.501  10.692  67.335  1.00  0.00    -0.122 A  
HETATM    9  C   UNL     1      -7.330  11.378  67.683  1.00  0.00    -0.102 A  
HETATM   10  C   UNL     1      -6.214  11.329  66.850  1.00  0.00    -0.123 A  
HETATM   11  C   UNL     1      -6.257  10.584  65.672  1.00  0.00    -0.129 A  
HETATM   12  C   UNL     1      -7.412   9.874  65.333  1.00  0.00    -0.132 A  
HETATM   13  C   UNL     1      -8.538   9.919  66.165  1.00  0.00    -0.138 A  
HETATM   14  C   UNL     1      -9.779   9.126  65.840  1.00  0.00    -0.336 C  
HETATM   15  C   UNL     1      -9.981   7.984  66.842  1.00  0.00    -0.338 C  
HETATM   16  C   UNL     1     -10.335   8.311  68.284  1.00  0.00    -0.242 A  
HETATM   17  C   UNL     1     -10.734   7.212  69.078  1.00  0.00    -0.204 A  
HETATM   18  C   UNL     1     -11.059   7.364  70.425  1.00  0.00    -0.284 A  
HETATM   19  C   UNL     1     -10.991   8.620  71.011  1.00  0.00    -0.314 A  
HETATM   20  C   UNL     1     -10.585   9.719  70.250  1.00  0.00    -0.348 A  
HETATM   21  C   UNL     1     -10.254   9.589  68.885  1.00  0.00    -0.213 A  
ENDBRANCH   5   6
ENDBRANCH   4   5
ENDBRANCH   2   4
TORSDOF 3
ENDMDL
MODEL       86
REMARK 921   NORMALIZED FREE ENERGY PREDICTED BY IDOCK:   -4.06 KCAL/MOL
REMARK 922        TOTAL FREE ENERGY PREDICTED BY IDOCK:   -5.27 KCAL/MOL
REMARK 923 INTER-LIGAND FREE ENERGY PREDICTED BY IDOCK:   -5.27 KCAL/MOL
REMARK 924 INTRA-LIGAND FREE ENERGY PREDICTED BY IDOCK:    0.01 KCAL/MOL
REMARK 927      BINDING AFFINITY PREDICTED BY RF-SCORE:    0.00 PKD
ROOT
HETATM    1  C   UNL     1      -8.373  16.668  68.560  1.00  0.00    -0.228 C  
HETATM    2  N   UNL     1      -8.508  15.212  68.510  1.00  0.00    -0.153 NA 
HETATM    3  C   UNL     1      -7.227  14.583  68.842  1.00  0.00    -0.125 C  
ENDROOT
BRANCH   2   4
HETATM    4  C   UNL     1      -9.610  14.764  69.390  1.00  0.00    -0.003 C  
BRANCH   4   5
HETATM    5  C   UNL     1     -10.701  13.988  68.630  1.00  0.00    -0.269 C  
BRANCH   5   6
HETATM    6  C   UNL     1     -10.199  12.851  67.767  1.00  0.00    -0.224 C  
HETATM    7  C   UNL     1     -10.092  12.876  66.417  1.00  0.00    -0.272 C  
HETATM    8  C   UNL     1     -10.572  14.072  65.688  1.00  0.00    -0.313 A  
HETATM    9  C   UNL     1      -9.903  15.300  65.781  1.00  0.00    -0.395 A  
HETATM   10  C   UNL     1     -10.411  16.426  65.135  1.00  0.00    -0.218 A  
HETATM   11  C   UNL     1     -11.580  16.328  64.382  1.00  0.00    -0.056 A  
HETATM   12  C   UNL     1     -12.236  15.100  64.262  1.00  0.00    -0.257 A  
HETATM   13  C   UNL     1     -11.734  13.964  64.909  1.00  0.00    -0.378 A  
HETATM   14  C   UNL     1     -12.402  12.621  64.756  1.00  0.00    -0.556 C  
HETATM   15  C   UNL     1     -11.526  11.659  63.947  1.00  0.00    -0.433 C  
HETATM   16  C   UNL     1     -10.220  11.157  64.544  1.00  0.00    -0.383 A  
HETATM   17  C   UNL     1      -9.596  10.101  63.843  1.00  0.00    -0.302 A  
HETATM   18  C   UNL     1      -8.379   9.564  64.263  1.00  0.00    -0.172 A  
HETATM   19  C   UNL     1      -7.758  10.073  65.394  1.00  0.00    -0.137 A  
HETATM   20  C   UNL     1      -8.349  11.126  66.095  1.00  0.00    -0.144 A  
HETATM   21  C   UNL     1      -9.580  11.684  65.689  1.00  0.00    -0.252 A  
ENDBRANCH   5   6
ENDBRANCH   4   5
ENDBRANCH   2   4
TORSDOF 3
ENDMDL
MODEL       87
REMARK 921   NORMALIZED FREE ENERGY PREDICTED BY IDOCK:   -4.05 KCAL/MOL
REMARK 922        TOTAL FREE ENERGY PREDICTED BY IDOCK:   -5.26 KCAL/MOL
REMARK 923 INTER-LIGAND FREE ENERGY PREDICTED BY IDOCK:   -4.77 KCAL/MOL
REMARK 924 INTRA-LIGAND FREE ENERGY PREDICTED BY IDOCK:   -0.49 KCAL/MOL
REMARK 927      BINDING AFFINITY PREDICTED BY RF-SCORE:    0.00 PKD
ROOT
HETATM    1  C   UNL     1      -7.047  14.248  69.132  1.00  0.00    -0.117 C  
HETATM    2  N   UNL     1      -7.895  13.350  68.347  1.00  0.00    -0.136 NA 
HETATM    3  C   UNL     1      -8.371  14.042  67.146  1.00  0.00    -0.156 C  
ENDROOT
BRANCH   2   4
HETATM    4  C   UNL     1      -7.173  12.096  68.036  1.00  0.00    -0.099 C  
BRANCH   4   5
HETATM    5  C   UNL     1      -7.735  11.378  66.796  1.00  0.00    -0.150 C  
BRANCH   5   6
HETATM    6  C   UNL     1      -8.219   9.963  67.036  1.00  0.00    -0.117 C  
HETATM    7  C   UNL     1      -9.462   9.617  67.449  1.00  0.00    -0.170 C  
HETATM    8  C   UNL     1     -10.426  10.691  67.778  1.00  0.00    -0.258 A  
HETATM    9  C   UNL     1     -10.969  11.514  66.782  1.00  0.00    -0.347 A  
HETATM   10  C   UNL     1     -11.827  12.557  67.125  1.00  0.00    -0.386 A  
HETATM   11  C   UNL     1     -12.159  12.775  68.462  1.00  0.00    -0.142 A  
HETATM   12  C   UNL     1     -11.644  11.940  69.457  1.00  0.00    -0.394 A  
HETATM   13  C   UNL     1     -10.780  10.890  69.121  1.00  0.00    -0.265 A  
HETATM   14  C   UNL     1     -10.249   9.951  70.175  1.00  0.00    -0.326 C  
HETATM   15  C   UNL     1     -10.846   8.549  70.014  1.00  0.00    -0.225 C  
HETATM   16  C   UNL     1     -10.469   7.711  68.803  1.00  0.00    -0.208 A  
HETATM   17  C   UNL     1     -10.870   6.356  68.850  1.00  0.00    -0.382 A  
HETATM   18  C   UNL     1     -10.614   5.482  67.794  1.00  0.00    -0.229 A  
HETATM   19  C   UNL     1      -9.953   5.943  66.666  1.00  0.00    -0.214 A  
HETATM   20  C   UNL     1      -9.561   7.281  66.590  1.00  0.00    -0.236 A  
HETATM   21  C   UNL     1      -9.807   8.183  67.646  1.00  0.00    -0.216 A  
ENDBRANCH   5   6
ENDBRANCH   4   5
ENDBRANCH   2   4
TORSDOF 3
ENDMDL
MODEL       88
REMARK 921   NORMALIZED FREE ENERGY PREDICTED BY IDOCK:   -4.05 KCAL/MOL
REMARK 922        TOTAL FREE ENERGY PREDICTED BY IDOCK:   -5.26 KCAL/MOL
REMARK 923 INTER-LIGAND FREE ENERGY PREDICTED BY IDOCK:   -5.02 KCAL/MOL
REMARK 924 INTRA-LIGAND FREE ENERGY PREDICTED BY IDOCK:   -0.25 KCAL/MOL
REMARK 927      BINDING AFFINITY PREDICTED BY RF-SCORE:    0.00 PKD
ROOT
HETATM    1  C   UNL     1     -13.044  11.200  72.000  1.00  0.00    -0.328 C  
HETATM    2  N   UNL     1     -12.758  10.682  70.662  1.00  0.00    -0.364 NA 
HETATM    3  C   UNL     1     -11.917  11.632  69.931  1.00  0.00    -0.340 C  
ENDROOT
BRANCH   2   4
HETATM    4  C   UNL     1     -12.155   9.332  70.747  1.00  0.00    -0.171 C  
BRANCH   4   5
HETATM    5  C   UNL     1     -11.704   8.971  72.174  1.00  0.00    -0.366 C  
BRANCH   5   6
HETATM    6  C   UNL     1     -11.548   7.489  72.443  1.00  0.00    -0.356 C  
HETATM    7  C   UNL     1     -10.451   6.749  72.157  1.00  0.00    -0.231 C  
HETATM    8  C   UNL     1      -9.322   7.396  71.449  1.00  0.00    -0.149 A  
HETATM    9  C   UNL     1      -8.527   8.364  72.078  1.00  0.00    -0.245 A  
HETATM   10  C   UNL     1      -7.509   9.002  71.370  1.00  0.00    -0.071 A  
HETATM   11  C   UNL     1      -7.272   8.668  70.038  1.00  0.00    -0.051 A  
HETATM   12  C   UNL     1      -8.043   7.683  69.414  1.00  0.00    -0.127 A  
HETATM   13  C   UNL     1      -9.068   7.038  70.117  1.00  0.00    -0.149 A  
HETATM   14  C   UNL     1      -9.882   5.942  69.476  1.00  0.00    -0.216 C  
HETATM   15  C   UNL     1      -9.574   4.583  70.113  1.00  0.00    -0.264 C  
HETATM   16  C   UNL     1      -9.996   4.319  71.550  1.00  0.00    -0.243 A  
HETATM   17  C   UNL     1      -9.890   2.977  71.980  1.00  0.00    -0.242 A  
HETATM   18  C   UNL     1     -10.216   2.599  73.282  1.00  0.00    -0.208 A  
HETATM   19  C   UNL     1     -10.653   3.556  74.185  1.00  0.00    -0.269 A  
HETATM   20  C   UNL     1     -10.752   4.891  73.788  1.00  0.00    -0.361 A  
HETATM   21  C   UNL     1     -10.430   5.296  72.475  1.00  0.00    -0.266 A  
ENDBRANCH   5   6
ENDBRANCH   4   5
ENDBRANCH   2   4
TORSDOF 3
ENDMDL
MODEL       89
REMARK 921   NORMALIZED FREE ENERGY PREDICTED BY IDOCK:   -4.03 KCAL/MOL
REMARK 922        TOTAL FREE ENERGY PREDICTED BY IDOCK:   -5.23 KCAL/MOL
REMARK 923 INTER-LIGAND FREE ENERGY PREDICTED BY IDOCK:   -5.29 KCAL/MOL
REMARK 924 INTRA-LIGAND FREE ENERGY PREDICTED BY IDOCK:    0.06 KCAL/MOL
REMARK 927      BINDING AFFINITY PREDICTED BY RF-SCORE:    0.00 PKD
ROOT
HETATM    1  C   UNL     1     -10.407   5.873  66.632  1.00  0.00    -0.226 C  
HETATM    2  N   UNL     1     -10.102   7.178  67.218  1.00  0.00    -0.192 NA 
HETATM    3  C   UNL     1      -9.064   7.033  68.241  1.00  0.00    -0.126 C  
ENDROOT
BRANCH   2   4
HETATM    4  C   UNL     1      -9.732   8.146  66.161  1.00  0.00    -0.084 C  
BRANCH   4   5
HETATM    5  C   UNL     1      -9.039   9.402  66.721  1.00  0.00    -0.168 C  
BRANCH   5   6
HETATM    6  C   UNL     1      -9.794  10.115  67.823  1.00  0.00    -0.190 C  
HETATM    7  C   UNL     1     -10.604  11.187  67.654  1.00  0.00    -0.250 C  
HETATM    8  C   UNL     1     -10.721  11.784  66.304  1.00  0.00    -0.312 A  
HETATM    9  C   UNL     1     -11.370  11.109  65.262  1.00  0.00     0.118 A  
HETATM   10  C   UNL     1     -11.413  11.665  63.985  1.00  0.00    -0.404 A  
HETATM   11  C   UNL     1     -10.820  12.904  63.746  1.00  0.00    -0.351 A  
HETATM   12  C   UNL     1     -10.197  13.597  64.788  1.00  0.00    -0.363 A  
HETATM   13  C   UNL     1     -10.149  13.044  66.073  1.00  0.00    -0.286 A  
HETATM   14  C   UNL     1      -9.519  13.794  67.220  1.00  0.00    -0.236 C  
HETATM   15  C   UNL     1     -10.578  14.237  68.236  1.00  0.00    -0.247 C  
HETATM   16  C   UNL     1     -11.301  13.187  69.066  1.00  0.00    -0.332 A  
HETATM   17  C   UNL     1     -12.080  13.687  70.134  1.00  0.00    -0.431 A  
HETATM   18  C   UNL     1     -12.818  12.838  70.958  1.00  0.00    -0.262 A  
HETATM   19  C   UNL     1     -12.795  11.470  70.732  1.00  0.00    -0.222 A  
HETATM   20  C   UNL     1     -12.044  10.955  69.673  1.00  0.00    -0.400 A  
HETATM   21  C   UNL     1     -11.288  11.794  68.828  1.00  0.00    -0.325 A  
ENDBRANCH   5   6
ENDBRANCH   4   5
ENDBRANCH   2   4
TORSDOF 3
ENDMDL
MODEL       90
REMARK 921   NORMALIZED FREE ENERGY PREDICTED BY IDOCK:   -4.02 KCAL/MOL
REMARK 922        TOTAL FREE ENERGY PREDICTED BY IDOCK:   -5.22 KCAL/MOL
REMARK 923 INTER-LIGAND FREE ENERGY PREDICTED BY IDOCK:   -5.00 KCAL/MOL
REMARK 924 INTRA-LIGAND FREE ENERGY PREDICTED BY IDOCK:   -0.22 KCAL/MOL
REMARK 927      BINDING AFFINITY PREDICTED BY RF-SCORE:    0.00 PKD
ROOT
HETATM    1  C   UNL     1     -13.399  12.415  71.959  1.00  0.00    -0.407 C  
HETATM    2  N   UNL     1     -12.470  11.660  71.117  1.00  0.00    -0.349 NA 
HETATM    3  C   UNL     1     -13.054  10.361  70.774  1.00  0.00    -0.286 C  
ENDROOT
BRANCH   2   4
HETATM    4  C   UNL     1     -12.095  12.451  69.923  1.00  0.00    -0.247 C  
BRANCH   4   5
HETATM    5  C   UNL     1     -11.649  11.570  68.742  1.00  0.00    -0.379 C  
BRANCH   5   6
HETATM    6  C   UNL     1     -10.210  11.103  68.796  1.00  0.00    -0.219 C  
HETATM    7  C   UNL     1      -9.341  11.113  67.757  1.00  0.00    -0.166 C  
HETATM    8  C   UNL     1      -9.830  11.536  66.426  1.00  0.00    -0.233 A  
HETATM    9  C   UNL     1     -10.180  12.868  66.167  1.00  0.00    -0.286 A  
HETATM   10  C   UNL     1     -10.696  13.229  64.923  1.00  0.00    -0.365 A  
HETATM   11  C   UNL     1     -10.851  12.265  63.928  1.00  0.00    -0.464 A  
HETATM   12  C   UNL     1     -10.476  10.941  64.170  1.00  0.00    -0.397 A  
HETATM   13  C   UNL     1      -9.958  10.570  65.417  1.00  0.00    -0.353 A  
HETATM   14  C   UNL     1      -9.507   9.156  65.684  1.00  0.00    -0.309 C  
HETATM   15  C   UNL     1      -7.985   9.083  65.840  1.00  0.00    -0.103 C  
HETATM   16  C   UNL     1      -7.327   9.726  67.051  1.00  0.00    -0.091 A  
HETATM   17  C   UNL     1      -5.962   9.413  67.240  1.00  0.00    -0.049 A  
HETATM   18  C   UNL     1      -5.228   9.956  68.294  1.00  0.00    -0.036 A  
HETATM   19  C   UNL     1      -5.842  10.826  69.182  1.00  0.00    -0.041 A  
HETATM   20  C   UNL     1      -7.186  11.162  69.006  1.00  0.00    -0.118 A  
HETATM   21  C   UNL     1      -7.949  10.623  67.949  1.00  0.00    -0.106 A  
ENDBRANCH   5   6
ENDBRANCH   4   5
ENDBRANCH   2   4
TORSDOF 3
ENDMDL
MODEL       91
REMARK 921   NORMALIZED FREE ENERGY PREDICTED BY IDOCK:   -4.02 KCAL/MOL
REMARK 922        TOTAL FREE ENERGY PREDICTED BY IDOCK:   -5.22 KCAL/MOL
REMARK 923 INTER-LIGAND FREE ENERGY PREDICTED BY IDOCK:   -4.82 KCAL/MOL
REMARK 924 INTRA-LIGAND FREE ENERGY PREDICTED BY IDOCK:   -0.40 KCAL/MOL
REMARK 927      BINDING AFFINITY PREDICTED BY RF-SCORE:    0.00 PKD
ROOT
HETATM    1  C   UNL     1     -10.570   8.987  67.653  1.00  0.00    -0.231 C  
HETATM    2  N   UNL     1      -9.326   9.113  66.894  1.00  0.00    -0.149 NA 
HETATM    3  C   UNL     1      -9.628   9.290  65.472  1.00  0.00    -0.220 C  
ENDROOT
BRANCH   2   4
HETATM    4  C   UNL     1      -8.493  10.207  67.442  1.00  0.00    -0.122 C  
BRANCH   4   5
HETATM    5  C   UNL     1      -8.628  11.516  66.642  1.00  0.00    -0.176 C  
BRANCH   5   6
HETATM    6  C   UNL     1      -8.992  12.736  67.462  1.00  0.00    -0.192 C  
HETATM    7  C   UNL     1     -10.024  13.575  67.207  1.00  0.00    -0.236 C  
HETATM    8  C   UNL     1     -10.835  13.354  65.988  1.00  0.00    -0.281 A  
HETATM    9  C   UNL     1     -11.685  12.246  65.868  1.00  0.00    -0.451 A  
HETATM   10  C   UNL     1     -12.391  12.029  64.686  1.00  0.00    -0.244 A  
HETATM   11  C   UNL     1     -12.262  12.923  63.624  1.00  0.00    -0.581 A  
HETATM   12  C   UNL     1     -11.439  14.045  63.748  1.00  0.00     0.183 A  
HETATM   13  C   UNL     1     -10.726  14.271  64.932  1.00  0.00    -0.448 A  
HETATM   14  C   UNL     1      -9.866  15.498  65.101  1.00  0.00    -0.086 C  
HETATM   15  C   UNL     1     -10.470  16.454  66.136  1.00  0.00    -0.321 C  
HETATM   16  C   UNL     1     -10.508  16.043  67.600  1.00  0.00    -0.292 A  
HETATM   17  C   UNL     1     -10.857  17.065  68.511  1.00  0.00    -0.310 A  
HETATM   18  C   UNL     1     -10.958  16.820  69.880  1.00  0.00    -0.063 A  
HETATM   19  C   UNL     1     -10.713  15.545  70.369  1.00  0.00    -0.342 A  
HETATM   20  C   UNL     1     -10.380  14.516  69.486  1.00  0.00    -0.028 A  
HETATM   21  C   UNL     1     -10.271  14.741  68.097  1.00  0.00    -0.228 A  
ENDBRANCH   5   6
ENDBRANCH   4   5
ENDBRANCH   2   4
TORSDOF 3
ENDMDL
MODEL       92
REMARK 921   NORMALIZED FREE ENERGY PREDICTED BY IDOCK:   -4.01 KCAL/MOL
REMARK 922        TOTAL FREE ENERGY PREDICTED BY IDOCK:   -5.21 KCAL/MOL
REMARK 923 INTER-LIGAND FREE ENERGY PREDICTED BY IDOCK:   -4.91 KCAL/MOL
REMARK 924 INTRA-LIGAND FREE ENERGY PREDICTED BY IDOCK:   -0.30 KCAL/MOL
REMARK 927      BINDING AFFINITY PREDICTED BY RF-SCORE:    0.00 PKD
ROOT
HETATM    1  C   UNL     1      -7.283  18.433  67.986  1.00  0.00    -0.241 C  
HETATM    2  N   UNL     1      -6.582  17.150  68.049  1.00  0.00    -0.150 NA 
HETATM    3  C   UNL     1      -6.554  16.667  69.431  1.00  0.00    -0.222 C  
ENDROOT
BRANCH   2   4
HETATM    4  C   UNL     1      -7.196  16.178  67.116  1.00  0.00    -0.220 C  
BRANCH   4   5
HETATM    5  C   UNL     1      -8.368  15.405  67.749  1.00  0.00    -0.156 C  
BRANCH   5   6
HETATM    6  C   UNL     1      -8.262  13.897  67.667  1.00  0.00    -0.181 C  
HETATM    7  C   UNL     1      -9.083  13.089  66.956  1.00  0.00    -0.230 C  
HETATM    8  C   UNL     1     -10.238  13.691  66.252  1.00  0.00    -0.296 A  
HETATM    9  C   UNL     1     -10.061  14.520  65.136  1.00  0.00    -0.361 A  
HETATM   10  C   UNL     1     -11.162  15.124  64.530  1.00  0.00    -0.283 A  
HETATM   11  C   UNL     1     -12.444  14.892  65.025  1.00  0.00    -0.052 A  
HETATM   12  C   UNL     1     -12.630  14.043  66.119  1.00  0.00    -0.407 A  
HETATM   13  C   UNL     1     -11.530  13.433  66.735  1.00  0.00    -0.376 A  
HETATM   14  C   UNL     1     -11.713  12.480  67.889  1.00  0.00    -0.416 C  
HETATM   15  C   UNL     1     -11.361  11.045  67.480  1.00  0.00    -0.332 C  
HETATM   16  C   UNL     1      -9.915  10.692  67.167  1.00  0.00    -0.234 A  
HETATM   17  C   UNL     1      -9.641   9.312  67.032  1.00  0.00    -0.223 A  
HETATM   18  C   UNL     1      -8.364   8.850  66.717  1.00  0.00    -0.111 A  
HETATM   19  C   UNL     1      -7.332   9.757  66.529  1.00  0.00    -0.095 A  
HETATM   20  C   UNL     1      -7.582  11.126  66.643  1.00  0.00    -0.147 A  
HETATM   21  C   UNL     1      -8.865  11.617  66.963  1.00  0.00    -0.177 A  
ENDBRANCH   5   6
ENDBRANCH   4   5
ENDBRANCH   2   4
TORSDOF 3
ENDMDL
MODEL       93
REMARK 921   NORMALIZED FREE ENERGY PREDICTED BY IDOCK:   -4.00 KCAL/MOL
REMARK 922        TOTAL FREE ENERGY PREDICTED BY IDOCK:   -5.20 KCAL/MOL
REMARK 923 INTER-LIGAND FREE ENERGY PREDICTED BY IDOCK:   -4.95 KCAL/MOL
REMARK 924 INTRA-LIGAND FREE ENERGY PREDICTED BY IDOCK:   -0.25 KCAL/MOL
REMARK 927      BINDING AFFINITY PREDICTED BY RF-SCORE:    0.00 PKD
ROOT
HETATM    1  C   UNL     1     -11.444  12.284  67.193  1.00  0.00    -0.352 C  
HETATM    2  N   UNL     1     -10.014  12.479  67.432  1.00  0.00    -0.205 NA 
HETATM    3  C   UNL     1      -9.737  13.900  67.653  1.00  0.00    -0.226 C  
ENDROOT
BRANCH   2   4
HETATM    4  C   UNL     1      -9.556  11.626  68.552  1.00  0.00    -0.178 C  
BRANCH   4   5
HETATM    5  C   UNL     1     -10.662  10.697  69.084  1.00  0.00    -0.264 C  
BRANCH   5   6
HETATM    6  C   UNL     1     -10.310   9.934  70.344  1.00  0.00    -0.322 C  
HETATM    7  C   UNL     1      -9.930   8.635  70.395  1.00  0.00    -0.212 C  
HETATM    8  C   UNL     1      -9.925   7.846  69.143  1.00  0.00    -0.184 A  
HETATM    9  C   UNL     1      -8.992   8.095  68.128  1.00  0.00    -0.135 A  
HETATM   10  C   UNL     1      -9.047   7.379  66.933  1.00  0.00    -0.164 A  
HETATM   11  C   UNL     1     -10.025   6.402  66.752  1.00  0.00    -0.225 A  
HETATM   12  C   UNL     1     -10.940   6.128  67.772  1.00  0.00    -0.400 A  
HETATM   13  C   UNL     1     -10.892   6.843  68.974  1.00  0.00    -0.247 A  
HETATM   14  C   UNL     1     -11.843   6.533  70.103  1.00  0.00    -0.331 C  
HETATM   15  C   UNL     1     -11.104   5.903  71.288  1.00  0.00    -0.307 C  
HETATM   16  C   UNL     1     -10.122   6.745  72.089  1.00  0.00    -0.198 A  
HETATM   17  C   UNL     1      -9.667   6.166  73.296  1.00  0.00    -0.159 A  
HETATM   18  C   UNL     1      -8.744   6.816  74.114  1.00  0.00    -0.180 A  
HETATM   19  C   UNL     1      -8.253   8.059  73.743  1.00  0.00    -0.297 A  
HETATM   20  C   UNL     1      -8.677   8.644  72.548  1.00  0.00    -0.133 A  
HETATM   21  C   UNL     1      -9.612   8.006  71.705  1.00  0.00    -0.231 A  
ENDBRANCH   5   6
ENDBRANCH   4   5
ENDBRANCH   2   4
TORSDOF 3
ENDMDL
MODEL       94
REMARK 921   NORMALIZED FREE ENERGY PREDICTED BY IDOCK:   -3.96 KCAL/MOL
REMARK 922        TOTAL FREE ENERGY PREDICTED BY IDOCK:   -5.16 KCAL/MOL
REMARK 923 INTER-LIGAND FREE ENERGY PREDICTED BY IDOCK:   -4.73 KCAL/MOL
REMARK 924 INTRA-LIGAND FREE ENERGY PREDICTED BY IDOCK:   -0.42 KCAL/MOL
REMARK 927      BINDING AFFINITY PREDICTED BY RF-SCORE:    0.00 PKD
ROOT
HETATM    1  C   UNL     1     -10.756  13.122  67.628  1.00  0.00    -0.238 C  
HETATM    2  N   UNL     1      -9.845  12.011  67.355  1.00  0.00    -0.184 NA 
HETATM    3  C   UNL     1      -9.474  12.010  65.938  1.00  0.00    -0.197 C  
ENDROOT
BRANCH   2   4
HETATM    4  C   UNL     1      -8.670  12.071  68.253  1.00  0.00    -0.178 C  
BRANCH   4   5
HETATM    5  C   UNL     1      -8.616  10.891  69.241  1.00  0.00     0.005 C  
BRANCH   5   6
HETATM    6  C   UNL     1      -8.854   9.527  68.628  1.00  0.00    -0.132 C  
HETATM    7  C   UNL     1      -9.907   8.718  68.895  1.00  0.00    -0.183 C  
HETATM    8  C   UNL     1     -10.882   9.138  69.927  1.00  0.00    -0.242 A  
HETATM    9  C   UNL     1     -11.747  10.221  69.715  1.00  0.00    -0.261 A  
HETATM   10  C   UNL     1     -12.613  10.634  70.725  1.00  0.00    -0.479 A  
HETATM   11  C   UNL     1     -12.630   9.961  71.946  1.00  0.00    -0.471 A  
HETATM   12  C   UNL     1     -11.791   8.863  72.153  1.00  0.00    -0.417 A  
HETATM   13  C   UNL     1     -10.917   8.441  71.144  1.00  0.00    -0.292 A  
HETATM   14  C   UNL     1     -10.035   7.233  71.331  1.00  0.00    -0.193 C  
HETATM   15  C   UNL     1     -10.482   6.080  70.426  1.00  0.00    -0.307 C  
HETATM   16  C   UNL     1     -10.316   6.206  68.919  1.00  0.00    -0.258 A  
HETATM   17  C   UNL     1     -10.528   5.019  68.182  1.00  0.00    -0.018 A  
HETATM   18  C   UNL     1     -10.437   4.999  66.791  1.00  0.00    -0.273 A  
HETATM   19  C   UNL     1     -10.133   6.166  66.105  1.00  0.00     0.066 A  
HETATM   20  C   UNL     1      -9.933   7.353  66.812  1.00  0.00    -0.300 A  
HETATM   21  C   UNL     1     -10.018   7.398  68.219  1.00  0.00    -0.182 A  
ENDBRANCH   5   6
ENDBRANCH   4   5
ENDBRANCH   2   4
TORSDOF 3
ENDMDL
MODEL       95
REMARK 921   NORMALIZED FREE ENERGY PREDICTED BY IDOCK:   -3.89 KCAL/MOL
REMARK 922        TOTAL FREE ENERGY PREDICTED BY IDOCK:   -5.08 KCAL/MOL
REMARK 923 INTER-LIGAND FREE ENERGY PREDICTED BY IDOCK:   -4.64 KCAL/MOL
REMARK 924 INTRA-LIGAND FREE ENERGY PREDICTED BY IDOCK:   -0.44 KCAL/MOL
REMARK 927      BINDING AFFINITY PREDICTED BY RF-SCORE:    0.00 PKD
ROOT
HETATM    1  C   UNL     1      -7.070  10.113  64.558  1.00  0.00    -0.119 C  
HETATM    2  N   UNL     1      -8.256  10.782  64.022  1.00  0.00     0.026 NA 
HETATM    3  C   UNL     1      -8.321  10.589  62.571  1.00  0.00    -0.197 C  
ENDROOT
BRANCH   2   4
HETATM    4  C   UNL     1      -9.475  10.310  64.717  1.00  0.00    -0.283 C  
BRANCH   4   5
HETATM    5  C   UNL     1     -10.188  11.431  65.493  1.00  0.00    -0.312 C  
BRANCH   5   6
HETATM    6  C   UNL     1     -10.803  11.010  66.812  1.00  0.00    -0.307 C  
HETATM    7  C   UNL     1     -10.153  10.951  67.999  1.00  0.00    -0.197 C  
HETATM    8  C   UNL     1      -8.702  11.239  68.029  1.00  0.00    -0.144 A  
HETATM    9  C   UNL     1      -8.210  12.533  67.806  1.00  0.00    -0.166 A  
HETATM   10  C   UNL     1      -6.836  12.766  67.779  1.00  0.00    -0.135 A  
HETATM   11  C   UNL     1      -5.947  11.713  67.989  1.00  0.00    -0.047 A  
HETATM   12  C   UNL     1      -6.431  10.426  68.241  1.00  0.00    -0.059 A  
HETATM   13  C   UNL     1      -7.810  10.183  68.269  1.00  0.00    -0.093 A  
HETATM   14  C   UNL     1      -8.353   8.811  68.582  1.00  0.00    -0.128 C  
HETATM   15  C   UNL     1      -9.055   8.795  69.944  1.00  0.00    -0.158 C  
HETATM   16  C   UNL     1     -10.357   9.562  70.122  1.00  0.00    -0.300 A  
HETATM   17  C   UNL     1     -11.056   9.304  71.323  1.00  0.00    -0.427 A  
HETATM   18  C   UNL     1     -12.248   9.959  71.628  1.00  0.00    -0.482 A  
HETATM   19  C   UNL     1     -12.768  10.889  70.740  1.00  0.00    -0.431 A  
HETATM   20  C   UNL     1     -12.087  11.171  69.553  1.00  0.00    -0.396 A  
HETATM   21  C   UNL     1     -10.880  10.519  69.223  1.00  0.00    -0.284 A  
ENDBRANCH   5   6
ENDBRANCH   4   5
ENDBRANCH   2   4
TORSDOF 3
ENDMDL
MODEL       96
REMARK 921   NORMALIZED FREE ENERGY PREDICTED BY IDOCK:   -3.87 KCAL/MOL
REMARK 922        TOTAL FREE ENERGY PREDICTED BY IDOCK:   -5.05 KCAL/MOL
REMARK 923 INTER-LIGAND FREE ENERGY PREDICTED BY IDOCK:   -4.74 KCAL/MOL
REMARK 924 INTRA-LIGAND FREE ENERGY PREDICTED BY IDOCK:   -0.31 KCAL/MOL
REMARK 927      BINDING AFFINITY PREDICTED BY RF-SCORE:    0.00 PKD
ROOT
HETATM    1  C   UNL     1      -9.703  15.897  66.619  1.00  0.00    -0.253 C  
HETATM    2  N   UNL     1      -9.907  14.698  67.432  1.00  0.00    -0.221 NA 
HETATM    3  C   UNL     1     -11.307  14.275  67.349  1.00  0.00    -0.332 C  
ENDROOT
BRANCH   2   4
HETATM    4  C   UNL     1      -8.963  13.632  67.028  1.00  0.00    -0.236 C  
BRANCH   4   5
HETATM    5  C   UNL     1      -8.780  12.557  68.115  1.00  0.00    -0.190 C  
BRANCH   5   6
HETATM    6  C   UNL     1      -8.486  11.164  67.599  1.00  0.00    -0.122 C  
HETATM    7  C   UNL     1      -9.154  10.039  67.950  1.00  0.00    -0.135 C  
HETATM    8  C   UNL     1     -10.211  10.133  68.982  1.00  0.00    -0.221 A  
HETATM    9  C   UNL     1     -11.422  10.791  68.727  1.00  0.00    -0.364 A  
HETATM   10  C   UNL     1     -12.376  10.919  69.736  1.00  0.00    -0.326 A  
HETATM   11  C   UNL     1     -12.132  10.378  70.997  1.00  0.00    -0.488 A  
HETATM   12  C   UNL     1     -10.939   9.695  71.249  1.00  0.00    -0.399 A  
HETATM   13  C   UNL     1      -9.975   9.563  70.242  1.00  0.00    -0.310 A  
HETATM   14  C   UNL     1      -8.701   8.792  70.480  1.00  0.00    -0.196 C  
HETATM   15  C   UNL     1      -8.681   7.495  69.665  1.00  0.00    -0.137 C  
HETATM   16  C   UNL     1      -8.582   7.567  68.149  1.00  0.00    -0.123 A  
HETATM   17  C   UNL     1      -8.332   6.338  67.497  1.00  0.00    -0.113 A  
HETATM   18  C   UNL     1      -8.246   6.254  66.107  1.00  0.00    -0.121 A  
HETATM   19  C   UNL     1      -8.409   7.397  65.339  1.00  0.00    -0.122 A  
HETATM   20  C   UNL     1      -8.671   8.620  65.961  1.00  0.00    -0.196 A  
HETATM   21  C   UNL     1      -8.760   8.729  67.365  1.00  0.00    -0.132 A  
ENDBRANCH   5   6
ENDBRANCH   4   5
ENDBRANCH   2   4
TORSDOF 3
ENDMDL
MODEL       97
REMARK 921   NORMALIZED FREE ENERGY PREDICTED BY IDOCK:   -3.86 KCAL/MOL
REMARK 922        TOTAL FREE ENERGY PREDICTED BY IDOCK:   -5.03 KCAL/MOL
REMARK 923 INTER-LIGAND FREE ENERGY PREDICTED BY IDOCK:   -4.83 KCAL/MOL
REMARK 924 INTRA-LIGAND FREE ENERGY PREDICTED BY IDOCK:   -0.20 KCAL/MOL
REMARK 927      BINDING AFFINITY PREDICTED BY RF-SCORE:    0.00 PKD
ROOT
HETATM    1  C   UNL     1     -13.249  12.094  71.949  1.00  0.00    -0.369 C  
HETATM    2  N   UNL     1     -12.392  11.064  71.361  1.00  0.00    -0.304 NA 
HETATM    3  C   UNL     1     -12.893   9.736  71.725  1.00  0.00    -0.434 C  
ENDROOT
BRANCH   2   4
HETATM    4  C   UNL     1     -12.284  11.253  69.897  1.00  0.00    -0.288 C  
BRANCH   4   5
HETATM    5  C   UNL     1     -10.866  11.652  69.452  1.00  0.00    -0.151 C  
BRANCH   5   6
HETATM    6  C   UNL     1     -10.669  11.764  67.955  1.00  0.00    -0.241 C  
HETATM    7  C   UNL     1     -10.163  10.795  67.154  1.00  0.00    -0.255 C  
HETATM    8  C   UNL     1      -9.679   9.541  67.775  1.00  0.00    -0.176 A  
HETATM    9  C   UNL     1     -10.567   8.623  68.352  1.00  0.00    -0.169 A  
HETATM   10  C   UNL     1     -10.081   7.480  68.984  1.00  0.00    -0.192 A  
HETATM   11  C   UNL     1      -8.708   7.241  69.031  1.00  0.00    -0.132 A  
HETATM   12  C   UNL     1      -7.820   8.138  68.432  1.00  0.00    -0.118 A  
HETATM   13  C   UNL     1      -8.299   9.289  67.796  1.00  0.00    -0.116 A  
HETATM   14  C   UNL     1      -7.361  10.246  67.105  1.00  0.00    -0.091 C  
HETATM   15  C   UNL     1      -7.551  10.204  65.585  1.00  0.00    -0.144 C  
HETATM   16  C   UNL     1      -8.842  10.732  64.980  1.00  0.00    -0.190 A  
HETATM   17  C   UNL     1      -8.841  10.876  63.574  1.00  0.00    -0.103 A  
HETATM   18  C   UNL     1      -9.968  11.322  62.885  1.00  0.00    -0.282 A  
HETATM   19  C   UNL     1     -11.124  11.633  63.587  1.00  0.00    -0.506 A  
HETATM   20  C   UNL     1     -11.153  11.485  64.975  1.00  0.00    -0.268 A  
HETATM   21  C   UNL     1     -10.024  11.037  65.693  1.00  0.00    -0.299 A  
ENDBRANCH   5   6
ENDBRANCH   4   5
ENDBRANCH   2   4
TORSDOF 3
ENDMDL
MODEL       98
REMARK 921   NORMALIZED FREE ENERGY PREDICTED BY IDOCK:   -3.85 KCAL/MOL
REMARK 922        TOTAL FREE ENERGY PREDICTED BY IDOCK:   -5.02 KCAL/MOL
REMARK 923 INTER-LIGAND FREE ENERGY PREDICTED BY IDOCK:   -4.80 KCAL/MOL
REMARK 924 INTRA-LIGAND FREE ENERGY PREDICTED BY IDOCK:   -0.22 KCAL/MOL
REMARK 927      BINDING AFFINITY PREDICTED BY RF-SCORE:    0.00 PKD
ROOT
HETATM    1  C   UNL     1     -11.890  15.603  69.279  1.00  0.00    -0.363 C  
HETATM    2  N   UNL     1     -11.711  14.260  69.833  1.00  0.00    -0.294 NA 
HETATM    3  C   UNL     1     -12.561  14.093  71.014  1.00  0.00    -0.369 C  
ENDROOT
BRANCH   2   4
HETATM    4  C   UNL     1     -11.964  13.235  68.797  1.00  0.00    -0.300 C  
BRANCH   4   5
HETATM    5  C   UNL     1     -11.512  11.828  69.228  1.00  0.00    -0.369 C  
BRANCH   5   6
HETATM    6  C   UNL     1     -10.525  11.156  68.297  1.00  0.00    -0.215 C  
HETATM    7  C   UNL     1      -9.921   9.964  68.520  1.00  0.00    -0.175 C  
HETATM    8  C   UNL     1     -10.162   9.274  69.807  1.00  0.00    -0.225 A  
HETATM    9  C   UNL     1     -11.411   8.716  70.112  1.00  0.00    -0.083 A  
HETATM   10  C   UNL     1     -11.630   8.126  71.356  1.00  0.00    -0.314 A  
HETATM   11  C   UNL     1     -10.601   8.078  72.295  1.00  0.00    -0.356 A  
HETATM   12  C   UNL     1      -9.345   8.607  71.986  1.00  0.00    -0.362 A  
HETATM   13  C   UNL     1      -9.116   9.202  70.739  1.00  0.00    -0.313 A  
HETATM   14  C   UNL     1      -7.756   9.739  70.370  1.00  0.00    -0.159 C  
HETATM   15  C   UNL     1      -7.107   8.889  69.273  1.00  0.00    -0.058 C  
HETATM   16  C   UNL     1      -7.703   8.896  67.873  1.00  0.00    -0.101 A  
HETATM   17  C   UNL     1      -6.915   8.280  66.874  1.00  0.00    -0.070 A  
HETATM   18  C   UNL     1      -7.353   8.190  65.553  1.00  0.00    -0.072 A  
HETATM   19  C   UNL     1      -8.589   8.712  65.202  1.00  0.00    -0.200 A  
HETATM   20  C   UNL     1      -9.391   9.311  66.175  1.00  0.00    -0.270 A  
HETATM   21  C   UNL     1      -8.968   9.416  67.517  1.00  0.00    -0.130 A  
ENDBRANCH   5   6
ENDBRANCH   4   5
ENDBRANCH   2   4
TORSDOF 3
ENDMDL
MODEL       99
REMARK 921   NORMALIZED FREE ENERGY PREDICTED BY IDOCK:   -3.84 KCAL/MOL
REMARK 922        TOTAL FREE ENERGY PREDICTED BY IDOCK:   -5.01 KCAL/MOL
REMARK 923 INTER-LIGAND FREE ENERGY PREDICTED BY IDOCK:   -4.88 KCAL/MOL
REMARK 924 INTRA-LIGAND FREE ENERGY PREDICTED BY IDOCK:   -0.12 KCAL/MOL
REMARK 927      BINDING AFFINITY PREDICTED BY RF-SCORE:    0.00 PKD
ROOT
HETATM    1  C   UNL     1     -12.528   6.614  71.604  1.00  0.00    -0.303 C  
HETATM    2  N   UNL     1     -11.113   6.260  71.498  1.00  0.00    -0.270 NA 
HETATM    3  C   UNL     1     -10.737   5.381  72.609  1.00  0.00    -0.240 C  
ENDROOT
BRANCH   2   4
HETATM    4  C   UNL     1     -10.826   5.663  70.175  1.00  0.00    -0.286 C  
BRANCH   4   5
HETATM    5  C   UNL     1     -11.126   6.624  69.011  1.00  0.00    -0.318 C  
BRANCH   5   6
HETATM    6  C   UNL     1      -9.914   7.297  68.404  1.00  0.00    -0.172 C  
HETATM    7  C   UNL     1      -9.579   8.601  68.557  1.00  0.00    -0.162 C  
HETATM    8  C   UNL     1     -10.497   9.486  69.309  1.00  0.00    -0.226 A  
HETATM    9  C   UNL     1     -10.670   9.351  70.693  1.00  0.00    -0.353 A  
HETATM   10  C   UNL     1     -11.586  10.156  71.367  1.00  0.00    -0.315 A  
HETATM   11  C   UNL     1     -12.323  11.109  70.666  1.00  0.00    -0.482 A  
HETATM   12  C   UNL     1     -12.134  11.269  69.291  1.00  0.00    -0.372 A  
HETATM   13  C   UNL     1     -11.217  10.464  68.605  1.00  0.00    -0.305 A  
HETATM   14  C   UNL     1     -10.967  10.650  67.130  1.00  0.00    -0.312 C  
HETATM   15  C   UNL     1      -9.564  11.211  66.875  1.00  0.00    -0.208 C  
HETATM   16  C   UNL     1      -8.349  10.344  67.168  1.00  0.00    -0.126 A  
HETATM   17  C   UNL     1      -7.116  10.841  66.688  1.00  0.00    -0.133 A  
HETATM   18  C   UNL     1      -5.919  10.162  66.911  1.00  0.00    -0.055 A  
HETATM   19  C   UNL     1      -5.927   8.970  67.621  1.00  0.00    -0.046 A  
HETATM   20  C   UNL     1      -7.131   8.467  68.117  1.00  0.00    -0.085 A  
HETATM   21  C   UNL     1      -8.355   9.136  67.903  1.00  0.00    -0.117 A  
ENDBRANCH   5   6
ENDBRANCH   4   5
ENDBRANCH   2   4
TORSDOF 3
ENDMDL
MODEL      100
REMARK 921   NORMALIZED FREE ENERGY PREDICTED BY IDOCK:   -3.83 KCAL/MOL
REMARK 922        TOTAL FREE ENERGY PREDICTED BY IDOCK:   -5.00 KCAL/MOL
REMARK 923 INTER-LIGAND FREE ENERGY PREDICTED BY IDOCK:   -4.76 KCAL/MOL
REMARK 924 INTRA-LIGAND FREE ENERGY PREDICTED BY IDOCK:   -0.24 KCAL/MOL
REMARK 927      BINDING AFFINITY PREDICTED BY RF-SCORE:    0.00 PKD
ROOT
HETATM    1  C   UNL     1     -14.213  14.762  72.301  1.00  0.00    -0.467 C  
HETATM    2  N   UNL     1     -13.275  15.647  71.611  1.00  0.00    -0.490 NA 
HETATM    3  C   UNL     1     -12.100  15.880  72.454  1.00  0.00    -0.506 C  
ENDROOT
BRANCH   2   4
HETATM    4  C   UNL     1     -12.925  15.096  70.282  1.00  0.00    -0.183 C  
BRANCH   4   5
HETATM    5  C   UNL     1     -11.588  15.640  69.746  1.00  0.00    -0.360 C  
BRANCH   5   6
HETATM    6  C   UNL     1     -10.530  14.592  69.474  1.00  0.00    -0.124 C  
HETATM    7  C   UNL     1      -9.889  14.410  68.295  1.00  0.00    -0.229 C  
HETATM    8  C   UNL     1     -10.290  15.236  67.133  1.00  0.00    -0.265 A  
HETATM    9  C   UNL     1     -10.018  16.610  67.087  1.00  0.00    -0.268 A  
HETATM   10  C   UNL     1     -10.460  17.376  66.010  1.00  0.00    -0.278 A  
HETATM   11  C   UNL     1     -11.162  16.773  64.968  1.00  0.00     0.032 A  
HETATM   12  C   UNL     1     -11.411  15.397  64.994  1.00  0.00    -0.334 A  
HETATM   13  C   UNL     1     -10.971  14.620  66.072  1.00  0.00    -0.325 A  
HETATM   14  C   UNL     1     -11.191  13.129  66.099  1.00  0.00    -0.320 C  
HETATM   15  C   UNL     1      -9.865  12.374  65.951  1.00  0.00    -0.265 C  
HETATM   16  C   UNL     1      -8.841  12.437  67.074  1.00  0.00    -0.210 A  
HETATM   17  C   UNL     1      -7.761  11.533  66.965  1.00  0.00    -0.158 A  
HETATM   18  C   UNL     1      -6.736  11.503  67.909  1.00  0.00    -0.065 A  
HETATM   19  C   UNL     1      -6.767  12.378  68.984  1.00  0.00    -0.100 A  
HETATM   20  C   UNL     1      -7.817  13.291  69.106  1.00  0.00     0.345 A  
HETATM   21  C   UNL     1      -8.866  13.338  68.164  1.00  0.00    -0.187 A  
ENDBRANCH   5   6
ENDBRANCH   4   5
ENDBRANCH   2   4
TORSDOF 3
ENDMDL
MODEL      101
REMARK 921   NORMALIZED FREE ENERGY PREDICTED BY IDOCK:   -3.82 KCAL/MOL
REMARK 922        TOTAL FREE ENERGY PREDICTED BY IDOCK:   -4.99 KCAL/MOL
REMARK 923 INTER-LIGAND FREE ENERGY PREDICTED BY IDOCK:   -4.65 KCAL/MOL
REMARK 924 INTRA-LIGAND FREE ENERGY PREDICTED BY IDOCK:   -0.34 KCAL/MOL
REMARK 927      BINDING AFFINITY PREDICTED BY RF-SCORE:    0.00 PKD
ROOT
HETATM    1  C   UNL     1     -13.993   7.486  71.646  1.00  0.00    -0.412 C  
HETATM    2  N   UNL     1     -12.832   8.374  71.590  1.00  0.00    -0.327 NA 
HETATM    3  C   UNL     1     -13.270   9.770  71.659  1.00  0.00    -0.420 C  
ENDROOT
BRANCH   2   4
HETATM    4  C   UNL     1     -11.862   8.026  72.653  1.00  0.00    -0.321 C  
BRANCH   4   5
HETATM    5  C   UNL     1     -10.466   7.689  72.097  1.00  0.00    -0.270 C  
BRANCH   5   6
HETATM    6  C   UNL     1     -10.453   6.727  70.929  1.00  0.00    -0.239 C  
HETATM    7  C   UNL     1      -9.821   6.931  69.749  1.00  0.00    -0.177 C  
HETATM    8  C   UNL     1      -9.144   8.228  69.521  1.00  0.00    -0.154 A  
HETATM    9  C   UNL     1      -7.982   8.576  70.223  1.00  0.00    -0.103 A  
HETATM   10  C   UNL     1      -7.398   9.828  70.035  1.00  0.00    -0.145 A  
HETATM   11  C   UNL     1      -7.963  10.732  69.136  1.00  0.00    -0.135 A  
HETATM   12  C   UNL     1      -9.105  10.379  68.411  1.00  0.00    -0.147 A  
HETATM   13  C   UNL     1      -9.698   9.124  68.595  1.00  0.00    -0.164 A  
HETATM   14  C   UNL     1     -10.904   8.708  67.791  1.00  0.00    -0.075 C  
HETATM   15  C   UNL     1     -10.550   7.591  66.804  1.00  0.00    -0.269 C  
HETATM   16  C   UNL     1     -10.188   6.212  67.334  1.00  0.00    -0.226 A  
HETATM   17  C   UNL     1     -10.108   5.188  66.364  1.00  0.00    -0.268 A  
HETATM   18  C   UNL     1      -9.757   3.883  66.707  1.00  0.00    -0.189 A  
HETATM   19  C   UNL     1      -9.477   3.573  68.030  1.00  0.00    -0.217 A  
HETATM   20  C   UNL     1      -9.536   4.572  69.004  1.00  0.00    -0.229 A  
HETATM   21  C   UNL     1      -9.890   5.898  68.680  1.00  0.00    -0.170 A  
ENDBRANCH   5   6
ENDBRANCH   4   5
ENDBRANCH   2   4
TORSDOF 3
ENDMDL
MODEL      102
REMARK 921   NORMALIZED FREE ENERGY PREDICTED BY IDOCK:   -3.81 KCAL/MOL
REMARK 922        TOTAL FREE ENERGY PREDICTED BY IDOCK:   -4.98 KCAL/MOL
REMARK 923 INTER-LIGAND FREE ENERGY PREDICTED BY IDOCK:   -4.73 KCAL/MOL
REMARK 924 INTRA-LIGAND FREE ENERGY PREDICTED BY IDOCK:   -0.25 KCAL/MOL
REMARK 927      BINDING AFFINITY PREDICTED BY RF-SCORE:    0.00 PKD
ROOT
HETATM    1  C   UNL     1     -11.724  12.449  63.738  1.00  0.00    -0.483 C  
HETATM    2  N   UNL     1     -11.371  13.280  64.889  1.00  0.00    -0.307 NA 
HETATM    3  C   UNL     1     -12.558  13.993  65.368  1.00  0.00    -0.505 C  
ENDROOT
BRANCH   2   4
HETATM    4  C   UNL     1     -10.732  12.461  65.943  1.00  0.00    -0.266 C  
BRANCH   4   5
HETATM    5  C   UNL     1     -11.253  11.012  65.968  1.00  0.00     0.050 C  
BRANCH   5   6
HETATM    6  C   UNL     1     -11.207  10.336  67.322  1.00  0.00    -0.090 C  
HETATM    7  C   UNL     1     -10.252   9.469  67.735  1.00  0.00    -0.265 C  
HETATM    8  C   UNL     1      -9.195   9.067  66.780  1.00  0.00    -0.198 A  
HETATM    9  C   UNL     1      -8.213   9.972  66.356  1.00  0.00    -0.119 A  
HETATM   10  C   UNL     1      -7.266   9.587  65.408  1.00  0.00    -0.095 A  
HETATM   11  C   UNL     1      -7.286   8.292  64.891  1.00  0.00    -0.087 A  
HETATM   12  C   UNL     1      -8.245   7.376  65.331  1.00  0.00    -0.135 A  
HETATM   13  C   UNL     1      -9.201   7.755  66.281  1.00  0.00    -0.217 A  
HETATM   14  C   UNL     1     -10.217   6.769  66.801  1.00  0.00    -0.273 C  
HETATM   15  C   UNL     1      -9.948   6.426  68.271  1.00  0.00    -0.147 C  
HETATM   16  C   UNL     1     -10.153   7.492  69.336  1.00  0.00    -0.190 A  
HETATM   17  C   UNL     1     -10.115   7.033  70.672  1.00  0.00    -0.201 A  
HETATM   18  C   UNL     1     -10.259   7.907  71.748  1.00  0.00    -0.247 A  
HETATM   19  C   UNL     1     -10.443   9.262  71.513  1.00  0.00    -0.385 A  
HETATM   20  C   UNL     1     -10.469   9.740  70.202  1.00  0.00    -0.338 A  
HETATM   21  C   UNL     1     -10.328   8.874  69.097  1.00  0.00    -0.230 A  
ENDBRANCH   5   6
ENDBRANCH   4   5
ENDBRANCH   2   4
TORSDOF 3
ENDMDL
MODEL      103
REMARK 921   NORMALIZED FREE ENERGY PREDICTED BY IDOCK:   -3.79 KCAL/MOL
REMARK 922        TOTAL FREE ENERGY PREDICTED BY IDOCK:   -4.95 KCAL/MOL
REMARK 923 INTER-LIGAND FREE ENERGY PREDICTED BY IDOCK:   -4.65 KCAL/MOL
REMARK 924 INTRA-LIGAND FREE ENERGY PREDICTED BY IDOCK:   -0.30 KCAL/MOL
REMARK 927      BINDING AFFINITY PREDICTED BY RF-SCORE:    0.00 PKD
ROOT
HETATM    1  C   UNL     1      -8.934   2.859  65.213  1.00  0.00    -0.143 C  
HETATM    2  N   UNL     1      -8.597   3.250  66.582  1.00  0.00    -0.111 NA 
HETATM    3  C   UNL     1      -7.306   2.669  66.960  1.00  0.00    -0.061 C  
ENDROOT
BRANCH   2   4
HETATM    4  C   UNL     1      -8.623   4.723  66.721  1.00  0.00    -0.108 C  
BRANCH   4   5
HETATM    5  C   UNL     1     -10.051   5.282  66.860  1.00  0.00    -0.250 C  
BRANCH   5   6
HETATM    6  C   UNL     1     -10.425   5.753  68.249  1.00  0.00    -0.281 C  
HETATM    7  C   UNL     1     -10.347   7.031  68.694  1.00  0.00    -0.200 C  
HETATM    8  C   UNL     1      -9.779   8.062  67.796  1.00  0.00    -0.191 A  
HETATM    9  C   UNL     1     -10.462   8.485  66.647  1.00  0.00    -0.235 A  
HETATM   10  C   UNL     1      -9.878   9.412  65.786  1.00  0.00    -0.345 A  
HETATM   11  C   UNL     1      -8.617   9.932  66.074  1.00  0.00    -0.147 A  
HETATM   12  C   UNL     1      -7.944   9.536  67.233  1.00  0.00    -0.106 A  
HETATM   13  C   UNL     1      -8.522   8.604  68.103  1.00  0.00    -0.131 A  
HETATM   14  C   UNL     1      -7.832   8.196  69.380  1.00  0.00    -0.105 C  
HETATM   15  C   UNL     1      -8.584   8.725  70.606  1.00  0.00    -0.203 C  
HETATM   16  C   UNL     1      -9.956   8.160  70.941  1.00  0.00    -0.214 A  
HETATM   17  C   UNL     1     -10.472   8.524  72.205  1.00  0.00    -0.412 A  
HETATM   18  C   UNL     1     -11.731   8.100  72.629  1.00  0.00    -0.419 A  
HETATM   19  C   UNL     1     -12.503   7.303  71.797  1.00  0.00    -0.378 A  
HETATM   20  C   UNL     1     -12.020   6.942  70.537  1.00  0.00    -0.358 A  
HETATM   21  C   UNL     1     -10.749   7.358  70.088  1.00  0.00    -0.254 A  
ENDBRANCH   5   6
ENDBRANCH   4   5
ENDBRANCH   2   4
TORSDOF 3
ENDMDL
MODEL      104
REMARK 921   NORMALIZED FREE ENERGY PREDICTED BY IDOCK:   -3.78 KCAL/MOL
REMARK 922        TOTAL FREE ENERGY PREDICTED BY IDOCK:   -4.94 KCAL/MOL
REMARK 923 INTER-LIGAND FREE ENERGY PREDICTED BY IDOCK:   -4.74 KCAL/MOL
REMARK 924 INTRA-LIGAND FREE ENERGY PREDICTED BY IDOCK:   -0.20 KCAL/MOL
REMARK 927      BINDING AFFINITY PREDICTED BY RF-SCORE:    0.00 PKD
ROOT
HETATM    1  C   UNL     1      -7.655  16.401  68.485  1.00  0.00    -0.188 C  
HETATM    2  N   UNL     1      -9.036  16.602  68.922  1.00  0.00    -0.250 NA 
HETATM    3  C   UNL     1      -9.801  17.261  67.861  1.00  0.00    -0.283 C  
ENDROOT
BRANCH   2   4
HETATM    4  C   UNL     1      -9.637  15.318  69.347  1.00  0.00    -0.244 C  
BRANCH   4   5
HETATM    5  C   UNL     1      -9.053  14.109  68.593  1.00  0.00    -0.138 C  
BRANCH   5   6
HETATM    6  C   UNL     1      -9.735  13.779  67.282  1.00  0.00    -0.242 C  
HETATM    7  C   UNL     1     -10.032  12.533  66.842  1.00  0.00    -0.229 C  
HETATM    8  C   UNL     1      -9.597  11.372  67.650  1.00  0.00    -0.176 A  
HETATM    9  C   UNL     1     -10.179  11.090  68.893  1.00  0.00    -0.218 A  
HETATM   10  C   UNL     1      -9.709  10.026  69.662  1.00  0.00    -0.255 A  
HETATM   11  C   UNL     1      -8.667   9.232  69.188  1.00  0.00    -0.139 A  
HETATM   12  C   UNL     1      -8.102   9.490  67.936  1.00  0.00    -0.106 A  
HETATM   13  C   UNL     1      -8.567  10.557  67.158  1.00  0.00    -0.127 A  
HETATM   14  C   UNL     1      -8.000  10.825  65.786  1.00  0.00    -0.122 C  
HETATM   15  C   UNL     1      -9.034  10.525  64.695  1.00  0.00    -0.229 C  
HETATM   16  C   UNL     1     -10.266  11.409  64.570  1.00  0.00    -0.352 A  
HETATM   17  C   UNL     1     -11.039  11.213  63.404  1.00  0.00    -0.026 A  
HETATM   18  C   UNL     1     -12.210  11.935  63.175  1.00  0.00    -0.340 A  
HETATM   19  C   UNL     1     -12.635  12.868  64.109  1.00  0.00    -0.343 A  
HETATM   20  C   UNL     1     -11.894  13.068  65.277  1.00  0.00    -0.413 A  
HETATM   21  C   UNL     1     -10.706  12.351  65.528  1.00  0.00    -0.315 A  
ENDBRANCH   5   6
ENDBRANCH   4   5
ENDBRANCH   2   4
TORSDOF 3
ENDMDL
MODEL      105
REMARK 921   NORMALIZED FREE ENERGY PREDICTED BY IDOCK:   -3.75 KCAL/MOL
REMARK 922        TOTAL FREE ENERGY PREDICTED BY IDOCK:   -4.90 KCAL/MOL
REMARK 923 INTER-LIGAND FREE ENERGY PREDICTED BY IDOCK:   -4.56 KCAL/MOL
REMARK 924 INTRA-LIGAND FREE ENERGY PREDICTED BY IDOCK:   -0.34 KCAL/MOL
REMARK 927      BINDING AFFINITY PREDICTED BY RF-SCORE:    0.00 PKD
ROOT
HETATM    1  C   UNL     1     -12.397  13.160  64.017  1.00  0.00    -0.352 C  
HETATM    2  N   UNL     1     -11.650  14.037  64.919  1.00  0.00    -0.350 NA 
HETATM    3  C   UNL     1     -11.669  15.409  64.405  1.00  0.00    -0.258 C  
ENDROOT
BRANCH   2   4
HETATM    4  C   UNL     1     -12.181  13.936  66.297  1.00  0.00    -0.461 C  
BRANCH   4   5
HETATM    5  C   UNL     1     -11.460  12.863  67.134  1.00  0.00    -0.388 C  
BRANCH   5   6
HETATM    6  C   UNL     1     -10.088  13.257  67.640  1.00  0.00    -0.229 C  
HETATM    7  C   UNL     1      -8.976  12.487  67.574  1.00  0.00    -0.185 C  
HETATM    8  C   UNL     1      -9.094  11.111  67.041  1.00  0.00    -0.158 A  
HETATM    9  C   UNL     1      -9.358  10.874  65.685  1.00  0.00    -0.236 A  
HETATM   10  C   UNL     1      -9.526   9.571  65.221  1.00  0.00    -0.326 A  
HETATM   11  C   UNL     1      -9.417   8.498  66.104  1.00  0.00    -0.286 A  
HETATM   12  C   UNL     1      -9.125   8.726  67.452  1.00  0.00    -0.147 A  
HETATM   13  C   UNL     1      -8.956  10.032  67.927  1.00  0.00    -0.131 A  
HETATM   14  C   UNL     1      -8.598  10.296  69.368  1.00  0.00    -0.167 C  
HETATM   15  C   UNL     1      -7.170  10.841  69.489  1.00  0.00    -0.132 C  
HETATM   16  C   UNL     1      -6.853  12.229  68.954  1.00  0.00    -0.096 A  
HETATM   17  C   UNL     1      -5.587  12.745  69.315  1.00  0.00    -0.076 A  
HETATM   18  C   UNL     1      -5.155  13.994  68.869  1.00  0.00    -0.076 A  
HETATM   19  C   UNL     1      -5.978  14.754  68.052  1.00  0.00    -0.158 A  
HETATM   20  C   UNL     1      -7.227  14.258  67.671  1.00  0.00    -0.200 A  
HETATM   21  C   UNL     1      -7.686  12.999  68.111  1.00  0.00    -0.143 A  
ENDBRANCH   5   6
ENDBRANCH   4   5
ENDBRANCH   2   4
TORSDOF 3
ENDMDL
MODEL      106
REMARK 921   NORMALIZED FREE ENERGY PREDICTED BY IDOCK:   -3.67 KCAL/MOL
REMARK 922        TOTAL FREE ENERGY PREDICTED BY IDOCK:   -4.81 KCAL/MOL
REMARK 923 INTER-LIGAND FREE ENERGY PREDICTED BY IDOCK:   -4.51 KCAL/MOL
REMARK 924 INTRA-LIGAND FREE ENERGY PREDICTED BY IDOCK:   -0.31 KCAL/MOL
REMARK 927      BINDING AFFINITY PREDICTED BY RF-SCORE:    0.00 PKD
ROOT
HETATM    1  C   UNL     1     -10.440   9.143  67.836  1.00  0.00    -0.237 C  
HETATM    2  N   UNL     1      -9.212   9.115  67.042  1.00  0.00    -0.132 NA 
HETATM    3  C   UNL     1      -9.533   9.300  65.624  1.00  0.00    -0.256 C  
ENDROOT
BRANCH   2   4
HETATM    4  C   UNL     1      -8.246  10.118  67.545  1.00  0.00    -0.114 C  
BRANCH   4   5
HETATM    5  C   UNL     1      -8.106  11.331  66.608  1.00  0.00    -0.160 C  
BRANCH   5   6
HETATM    6  C   UNL     1      -7.497  12.565  67.240  1.00  0.00    -0.125 C  
HETATM    7  C   UNL     1      -8.187  13.636  67.699  1.00  0.00    -0.178 C  
HETATM    8  C   UNL     1      -9.655  13.669  67.510  1.00  0.00    -0.220 A  
HETATM    9  C   UNL     1     -10.501  12.802  68.214  1.00  0.00    -0.250 A  
HETATM   10  C   UNL     1     -11.874  12.811  67.973  1.00  0.00    -0.386 A  
HETATM   11  C   UNL     1     -12.410  13.696  67.038  1.00  0.00    -0.277 A  
HETATM   12  C   UNL     1     -11.575  14.584  66.354  1.00  0.00    -0.370 A  
HETATM   13  C   UNL     1     -10.195  14.580  66.589  1.00  0.00    -0.276 A  
HETATM   14  C   UNL     1      -9.283  15.559  65.894  1.00  0.00    -0.305 C  
HETATM   15  C   UNL     1      -8.718  16.584  66.883  1.00  0.00    -0.233 C  
HETATM   16  C   UNL     1      -7.733  16.128  67.948  1.00  0.00    -0.148 A  
HETATM   17  C   UNL     1      -7.084  17.162  68.660  1.00  0.00    -0.217 A  
HETATM   18  C   UNL     1      -6.178  16.887  69.684  1.00  0.00    -0.225 A  
HETATM   19  C   UNL     1      -5.901  15.570  70.020  1.00  0.00    -0.144 A  
HETATM   20  C   UNL     1      -6.541  14.531  69.340  1.00  0.00    -0.138 A  
HETATM   21  C   UNL     1      -7.460  14.786  68.300  1.00  0.00    -0.115 A  
ENDBRANCH   5   6
ENDBRANCH   4   5
ENDBRANCH   2   4
TORSDOF 3
ENDMDL
MODEL      107
REMARK 921   NORMALIZED FREE ENERGY PREDICTED BY IDOCK:   -3.66 KCAL/MOL
REMARK 922        TOTAL FREE ENERGY PREDICTED BY IDOCK:   -4.80 KCAL/MOL
REMARK 923 INTER-LIGAND FREE ENERGY PREDICTED BY IDOCK:   -4.52 KCAL/MOL
REMARK 924 INTRA-LIGAND FREE ENERGY PREDICTED BY IDOCK:   -0.28 KCAL/MOL
REMARK 927      BINDING AFFINITY PREDICTED BY RF-SCORE:    0.00 PKD
ROOT
HETATM    1  C   UNL     1     -12.189  11.073  69.402  1.00  0.00    -0.259 C  
HETATM    2  N   UNL     1     -11.683  11.259  68.042  1.00  0.00    -0.567 NA 
HETATM    3  C   UNL     1     -11.537  12.689  67.758  1.00  0.00    -0.348 C  
ENDROOT
BRANCH   2   4
HETATM    4  C   UNL     1     -10.422  10.507  67.851  1.00  0.00    -0.210 C  
BRANCH   4   5
HETATM    5  C   UNL     1     -10.131   9.531  69.006  1.00  0.00    -0.201 C  
BRANCH   5   6
HETATM    6  C   UNL     1      -9.748   8.129  68.581  1.00  0.00    -0.158 C  
HETATM    7  C   UNL     1      -9.827   7.023  69.359  1.00  0.00    -0.160 C  
HETATM    8  C   UNL     1     -10.243   7.176  70.771  1.00  0.00    -0.208 A  
HETATM    9  C   UNL     1     -11.557   7.528  71.110  1.00  0.00    -0.304 A  
HETATM   10  C   UNL     1     -11.907   7.726  72.445  1.00  0.00    -0.371 A  
HETATM   11  C   UNL     1     -10.953   7.559  73.447  1.00  0.00    -0.259 A  
HETATM   12  C   UNL     1      -9.649   7.179  73.118  1.00  0.00    -0.213 A  
HETATM   13  C   UNL     1      -9.288   6.980  71.780  1.00  0.00    -0.150 A  
HETATM   14  C   UNL     1      -7.898   6.528  71.407  1.00  0.00    -0.100 C  
HETATM   15  C   UNL     1      -7.913   5.096  70.862  1.00  0.00    -0.097 C  
HETATM   16  C   UNL     1      -8.573   4.814  69.521  1.00  0.00    -0.103 A  
HETATM   17  C   UNL     1      -8.337   3.528  68.984  1.00  0.00    -0.081 A  
HETATM   18  C   UNL     1      -8.904   3.127  67.775  1.00  0.00    -0.161 A  
HETATM   19  C   UNL     1      -9.722   4.001  67.076  1.00  0.00    -0.214 A  
HETATM   20  C   UNL     1      -9.981   5.272  67.594  1.00  0.00    -0.202 A  
HETATM   21  C   UNL     1      -9.417   5.701  68.814  1.00  0.00    -0.155 A  
ENDBRANCH   5   6
ENDBRANCH   4   5
ENDBRANCH   2   4
TORSDOF 3
ENDMDL
MODEL      108
REMARK 921   NORMALIZED FREE ENERGY PREDICTED BY IDOCK:   -3.66 KCAL/MOL
REMARK 922        TOTAL FREE ENERGY PREDICTED BY IDOCK:   -4.80 KCAL/MOL
REMARK 923 INTER-LIGAND FREE ENERGY PREDICTED BY IDOCK:   -4.71 KCAL/MOL
REMARK 924 INTRA-LIGAND FREE ENERGY PREDICTED BY IDOCK:   -0.09 KCAL/MOL
REMARK 927      BINDING AFFINITY PREDICTED BY RF-SCORE:    0.00 PKD
ROOT
HETATM    1  C   UNL     1      -8.007   5.918  63.587  1.00  0.00    -0.114 C  
HETATM    2  N   UNL     1      -7.261   7.168  63.442  1.00  0.00    -0.069 NA 
HETATM    3  C   UNL     1      -7.941   8.044  62.485  1.00  0.00    -0.154 C  
ENDROOT
BRANCH   2   4
HETATM    4  C   UNL     1      -7.063   7.808  64.762  1.00  0.00    -0.060 C  
BRANCH   4   5
HETATM    5  C   UNL     1      -8.364   7.899  65.580  1.00  0.00    -0.146 C  
BRANCH   5   6
HETATM    6  C   UNL     1      -9.242   9.090  65.261  1.00  0.00    -0.205 C  
HETATM    7  C   UNL     1      -9.430  10.166  66.063  1.00  0.00    -0.248 C  
HETATM    8  C   UNL     1      -8.800  10.172  67.403  1.00  0.00    -0.135 A  
HETATM    9  C   UNL     1      -7.411  10.279  67.555  1.00  0.00    -0.090 A  
HETATM   10  C   UNL     1      -6.839  10.221  68.825  1.00  0.00    -0.058 A  
HETATM   11  C   UNL     1      -7.651  10.069  69.948  1.00  0.00    -0.177 A  
HETATM   12  C   UNL     1      -9.039   9.990  69.805  1.00  0.00    -0.219 A  
HETATM   13  C   UNL     1      -9.622  10.047  68.533  1.00  0.00    -0.157 A  
HETATM   14  C   UNL     1     -11.119  10.008  68.361  1.00  0.00    -0.236 C  
HETATM   15  C   UNL     1     -11.653  11.359  67.872  1.00  0.00    -0.337 C  
HETATM   16  C   UNL     1     -11.310  11.833  66.468  1.00  0.00    -0.370 A  
HETATM   17  C   UNL     1     -12.028  12.963  66.015  1.00  0.00    -0.505 A  
HETATM   18  C   UNL     1     -11.794  13.520  64.758  1.00  0.00    -0.412 A  
HETATM   19  C   UNL     1     -10.834  12.962  63.927  1.00  0.00    -0.402 A  
HETATM   20  C   UNL     1     -10.102  11.854  64.359  1.00  0.00    -0.310 A  
HETATM   21  C   UNL     1     -10.324  11.272  65.625  1.00  0.00    -0.310 A  
ENDBRANCH   5   6
ENDBRANCH   4   5
ENDBRANCH   2   4
TORSDOF 3
ENDMDL
MODEL      109
REMARK 921   NORMALIZED FREE ENERGY PREDICTED BY IDOCK:   -3.66 KCAL/MOL
REMARK 922        TOTAL FREE ENERGY PREDICTED BY IDOCK:   -4.80 KCAL/MOL
REMARK 923 INTER-LIGAND FREE ENERGY PREDICTED BY IDOCK:   -4.40 KCAL/MOL
REMARK 924 INTRA-LIGAND FREE ENERGY PREDICTED BY IDOCK:   -0.40 KCAL/MOL
REMARK 927      BINDING AFFINITY PREDICTED BY RF-SCORE:    0.00 PKD
ROOT
HETATM    1  C   UNL     1      -9.845  15.812  69.730  1.00  0.00    -0.218 C  
HETATM    2  N   UNL     1      -9.466  15.182  68.465  1.00  0.00    -0.197 NA 
HETATM    3  C   UNL     1      -9.267  16.208  67.439  1.00  0.00    -0.208 C  
ENDROOT
BRANCH   2   4
HETATM    4  C   UNL     1      -8.277  14.321  68.652  1.00  0.00    -0.139 C  
BRANCH   4   5
HETATM    5  C   UNL     1      -7.679  13.835  67.319  1.00  0.00    -0.095 C  
BRANCH   5   6
HETATM    6  C   UNL     1      -7.813  12.350  67.057  1.00  0.00    -0.086 C  
HETATM    7  C   UNL     1      -8.920  11.733  66.580  1.00  0.00    -0.195 C  
HETATM    8  C   UNL     1     -10.144  12.537  66.362  1.00  0.00    -0.255 A  
HETATM    9  C   UNL     1     -10.215  13.492  65.339  1.00  0.00    -0.316 A  
HETATM   10  C   UNL     1     -11.356  14.280  65.193  1.00  0.00    -0.345 A  
HETATM   11  C   UNL     1     -12.436  14.108  66.058  1.00  0.00    -0.454 A  
HETATM   12  C   UNL     1     -12.382  13.137  67.062  1.00  0.00    -0.119 A  
HETATM   13  C   UNL     1     -11.239  12.343  67.216  1.00  0.00    -0.357 A  
HETATM   14  C   UNL     1     -11.178  11.261  68.265  1.00  0.00    -0.331 C  
HETATM   15  C   UNL     1     -11.175   9.870  67.622  1.00  0.00    -0.032 C  
HETATM   16  C   UNL     1      -9.965   9.423  66.815  1.00  0.00    -0.305 A  
HETATM   17  C   UNL     1      -9.941   8.056  66.460  1.00  0.00    -0.283 A  
HETATM   18  C   UNL     1      -8.905   7.518  65.696  1.00  0.00    -0.072 A  
HETATM   19  C   UNL     1      -7.870   8.337  65.269  1.00  0.00    -0.120 A  
HETATM   20  C   UNL     1      -7.881   9.695  65.595  1.00  0.00    -0.107 A  
HETATM   21  C   UNL     1      -8.917  10.260  66.368  1.00  0.00    -0.166 A  
ENDBRANCH   5   6
ENDBRANCH   4   5
ENDBRANCH   2   4
TORSDOF 3
ENDMDL
MODEL      110
REMARK 921   NORMALIZED FREE ENERGY PREDICTED BY IDOCK:   -3.65 KCAL/MOL
REMARK 922        TOTAL FREE ENERGY PREDICTED BY IDOCK:   -4.79 KCAL/MOL
REMARK 923 INTER-LIGAND FREE ENERGY PREDICTED BY IDOCK:   -4.48 KCAL/MOL
REMARK 924 INTRA-LIGAND FREE ENERGY PREDICTED BY IDOCK:   -0.31 KCAL/MOL
REMARK 927      BINDING AFFINITY PREDICTED BY RF-SCORE:    0.00 PKD
ROOT
HETATM    1  C   UNL     1     -12.910   8.084  71.338  1.00  0.00    -0.269 C  
HETATM    2  N   UNL     1     -11.925   9.124  71.042  1.00  0.00    -0.291 NA 
HETATM    3  C   UNL     1     -12.529  10.446  71.226  1.00  0.00    -0.415 C  
ENDROOT
BRANCH   2   4
HETATM    4  C   UNL     1     -10.708   8.932  71.863  1.00  0.00    -0.356 C  
BRANCH   4   5
HETATM    5  C   UNL     1      -9.463   8.611  71.015  1.00  0.00    -0.261 C  
BRANCH   5   6
HETATM    6  C   UNL     1      -9.355   7.174  70.551  1.00  0.00    -0.158 C  
HETATM    7  C   UNL     1      -9.104   6.775  69.281  1.00  0.00    -0.139 C  
HETATM    8  C   UNL     1      -9.002   7.802  68.220  1.00  0.00    -0.131 A  
HETATM    9  C   UNL     1      -7.922   8.694  68.170  1.00  0.00    -0.107 A  
HETATM   10  C   UNL     1      -7.881   9.692  67.197  1.00  0.00    -0.091 A  
HETATM   11  C   UNL     1      -8.910   9.795  66.262  1.00  0.00    -0.165 A  
HETATM   12  C   UNL     1      -9.975   8.890  66.289  1.00  0.00    -0.337 A  
HETATM   13  C   UNL     1     -10.025   7.886  67.263  1.00  0.00    -0.280 A  
HETATM   14  C   UNL     1     -11.142   6.874  67.282  1.00  0.00    -0.355 C  
HETATM   15  C   UNL     1     -10.629   5.479  66.907  1.00  0.00    -0.348 C  
HETATM   16  C   UNL     1      -9.692   4.749  67.857  1.00  0.00    -0.200 A  
HETATM   17  C   UNL     1      -9.458   3.388  67.554  1.00  0.00    -0.227 A  
HETATM   18  C   UNL     1      -8.597   2.607  68.325  1.00  0.00    -0.109 A  
HETATM   19  C   UNL     1      -7.950   3.169  69.415  1.00  0.00    -0.058 A  
HETATM   20  C   UNL     1      -8.155   4.515  69.725  1.00  0.00    -0.060 A  
HETATM   21  C   UNL     1      -9.023   5.324  68.961  1.00  0.00    -0.126 A  
ENDBRANCH   5   6
ENDBRANCH   4   5
ENDBRANCH   2   4
TORSDOF 3
ENDMDL
MODEL      111
REMARK 921   NORMALIZED FREE ENERGY PREDICTED BY IDOCK:   -3.62 KCAL/MOL
REMARK 922        TOTAL FREE ENERGY PREDICTED BY IDOCK:   -4.75 KCAL/MOL
REMARK 923 INTER-LIGAND FREE ENERGY PREDICTED BY IDOCK:   -4.77 KCAL/MOL
REMARK 924 INTRA-LIGAND FREE ENERGY PREDICTED BY IDOCK:    0.02 KCAL/MOL
REMARK 927      BINDING AFFINITY PREDICTED BY RF-SCORE:    0.00 PKD
ROOT
HETATM    1  C   UNL     1      -8.992   3.925  66.278  1.00  0.00    -0.132 C  
HETATM    2  N   UNL     1      -9.785   3.790  67.500  1.00  0.00    -0.153 NA 
HETATM    3  C   UNL     1      -9.053   2.985  68.480  1.00  0.00    -0.158 C  
ENDROOT
BRANCH   2   4
HETATM    4  C   UNL     1     -10.163   5.122  68.022  1.00  0.00    -0.115 C  
BRANCH   4   5
HETATM    5  C   UNL     1      -9.942   6.248  66.995  1.00  0.00    -0.201 C  
BRANCH   5   6
HETATM    6  C   UNL     1     -10.548   7.585  67.367  1.00  0.00    -0.364 C  
HETATM    7  C   UNL     1     -10.148   8.371  68.395  1.00  0.00    -0.224 C  
HETATM    8  C   UNL     1      -9.086   7.873  69.298  1.00  0.00    -0.148 A  
HETATM    9  C   UNL     1      -7.761   7.742  68.861  1.00  0.00    -0.113 A  
HETATM   10  C   UNL     1      -6.791   7.213  69.712  1.00  0.00    -0.050 A  
HETATM   11  C   UNL     1      -7.137   6.827  71.006  1.00  0.00    -0.072 A  
HETATM   12  C   UNL     1      -8.450   6.983  71.457  1.00  0.00    -0.116 A  
HETATM   13  C   UNL     1      -9.431   7.512  70.609  1.00  0.00    -0.164 A  
HETATM   14  C   UNL     1     -10.843   7.728  71.090  1.00  0.00    -0.254 C  
HETATM   15  C   UNL     1     -11.164   9.223  71.202  1.00  0.00    -0.413 C  
HETATM   16  C   UNL     1     -11.261  10.062  69.938  1.00  0.00    -0.327 A  
HETATM   17  C   UNL     1     -11.789  11.362  70.109  1.00  0.00    -0.440 A  
HETATM   18  C   UNL     1     -11.907  12.248  69.039  1.00  0.00    -0.358 A  
HETATM   19  C   UNL     1     -11.499  11.855  67.773  1.00  0.00    -0.389 A  
HETATM   20  C   UNL     1     -10.961  10.581  67.583  1.00  0.00    -0.375 A  
HETATM   21  C   UNL     1     -10.834   9.667  68.650  1.00  0.00    -0.203 A  
ENDBRANCH   5   6
ENDBRANCH   4   5
ENDBRANCH   2   4
TORSDOF 3
ENDMDL
MODEL      112
REMARK 921   NORMALIZED FREE ENERGY PREDICTED BY IDOCK:   -3.59 KCAL/MOL
REMARK 922        TOTAL FREE ENERGY PREDICTED BY IDOCK:   -4.72 KCAL/MOL
REMARK 923 INTER-LIGAND FREE ENERGY PREDICTED BY IDOCK:   -4.45 KCAL/MOL
REMARK 924 INTRA-LIGAND FREE ENERGY PREDICTED BY IDOCK:   -0.27 KCAL/MOL
REMARK 927      BINDING AFFINITY PREDICTED BY RF-SCORE:    0.00 PKD
ROOT
HETATM    1  C   UNL     1      -7.730  16.145  67.029  1.00  0.00    -0.221 C  
HETATM    2  N   UNL     1      -9.164  15.860  67.078  1.00  0.00    -0.207 NA 
HETATM    3  C   UNL     1      -9.901  16.892  66.346  1.00  0.00    -0.305 C  
ENDROOT
BRANCH   2   4
HETATM    4  C   UNL     1      -9.438  14.495  66.573  1.00  0.00    -0.289 C  
BRANCH   4   5
HETATM    5  C   UNL     1      -8.912  13.396  67.513  1.00  0.00    -0.207 C  
BRANCH   5   6
HETATM    6  C   UNL     1      -8.559  12.087  66.838  1.00  0.00    -0.189 C  
HETATM    7  C   UNL     1      -9.081  10.877  67.149  1.00  0.00    -0.152 C  
HETATM    8  C   UNL     1     -10.018  10.779  68.291  1.00  0.00    -0.182 A  
HETATM    9  C   UNL     1     -11.303  11.335  68.230  1.00  0.00    -0.359 A  
HETATM   10  C   UNL     1     -12.143  11.283  69.342  1.00  0.00    -0.384 A  
HETATM   11  C   UNL     1     -11.710  10.663  70.513  1.00  0.00    -0.451 A  
HETATM   12  C   UNL     1     -10.441  10.080  70.570  1.00  0.00    -0.265 A  
HETATM   13  C   UNL     1      -9.590  10.129  69.459  1.00  0.00    -0.243 A  
HETATM   14  C   UNL     1      -8.234   9.469  69.486  1.00  0.00    -0.134 C  
HETATM   15  C   UNL     1      -8.195   8.254  68.554  1.00  0.00    -0.131 C  
HETATM   16  C   UNL     1      -8.276   8.464  67.050  1.00  0.00    -0.107 A  
HETATM   17  C   UNL     1      -7.996   7.326  66.260  1.00  0.00    -0.110 A  
HETATM   18  C   UNL     1      -8.062   7.369  64.868  1.00  0.00    -0.114 A  
HETATM   19  C   UNL     1      -8.411   8.552  64.234  1.00  0.00    -0.068 A  
HETATM   20  C   UNL     1      -8.706   9.686  64.994  1.00  0.00    -0.202 A  
HETATM   21  C   UNL     1      -8.644   9.666  66.403  1.00  0.00    -0.136 A  
ENDBRANCH   5   6
ENDBRANCH   4   5
ENDBRANCH   2   4
TORSDOF 3
ENDMDL
MODEL      113
REMARK 921   NORMALIZED FREE ENERGY PREDICTED BY IDOCK:   -3.59 KCAL/MOL
REMARK 922        TOTAL FREE ENERGY PREDICTED BY IDOCK:   -4.72 KCAL/MOL
REMARK 923 INTER-LIGAND FREE ENERGY PREDICTED BY IDOCK:   -4.45 KCAL/MOL
REMARK 924 INTRA-LIGAND FREE ENERGY PREDICTED BY IDOCK:   -0.27 KCAL/MOL
REMARK 927      BINDING AFFINITY PREDICTED BY RF-SCORE:    0.00 PKD
ROOT
HETATM    1  C   UNL     1     -11.835  13.365  69.090  1.00  0.00    -0.336 C  
HETATM    2  N   UNL     1     -12.012  13.379  67.638  1.00  0.00    -0.344 NA 
HETATM    3  C   UNL     1     -11.439  14.606  67.080  1.00  0.00    -0.368 C  
ENDROOT
BRANCH   2   4
HETATM    4  C   UNL     1     -11.439  12.155  67.034  1.00  0.00    -0.350 C  
BRANCH   4   5
HETATM    5  C   UNL     1     -11.192  11.041  68.068  1.00  0.00    -0.372 C  
BRANCH   5   6
HETATM    6  C   UNL     1     -10.982   9.659  67.487  1.00  0.00    -0.166 C  
HETATM    7  C   UNL     1      -9.813   8.974  67.492  1.00  0.00    -0.230 C  
HETATM    8  C   UNL     1      -8.604   9.635  68.031  1.00  0.00    -0.119 A  
HETATM    9  C   UNL     1      -8.470   9.905  69.400  1.00  0.00    -0.169 A  
HETATM   10  C   UNL     1      -7.349  10.584  69.875  1.00  0.00    -0.116 A  
HETATM   11  C   UNL     1      -6.350  10.984  68.988  1.00  0.00    -0.048 A  
HETATM   12  C   UNL     1      -6.464  10.692  67.626  1.00  0.00    -0.057 A  
HETATM   13  C   UNL     1      -7.587  10.011  67.141  1.00  0.00    -0.092 A  
HETATM   14  C   UNL     1      -7.708   9.648  65.682  1.00  0.00    -0.107 C  
HETATM   15  C   UNL     1      -7.602   8.133  65.481  1.00  0.00    -0.087 C  
HETATM   16  C   UNL     1      -8.715   7.232  65.996  1.00  0.00    -0.168 A  
HETATM   17  C   UNL     1      -8.657   5.887  65.565  1.00  0.00    -0.150 A  
HETATM   18  C   UNL     1      -9.597   4.946  65.985  1.00  0.00    -0.185 A  
HETATM   19  C   UNL     1     -10.615   5.328  66.846  1.00  0.00    -0.283 A  
HETATM   20  C   UNL     1     -10.683   6.648  67.296  1.00  0.00    -0.427 A  
HETATM   21  C   UNL     1      -9.745   7.618  66.883  1.00  0.00    -0.277 A  
ENDBRANCH   5   6
ENDBRANCH   4   5
ENDBRANCH   2   4
TORSDOF 3
ENDMDL
MODEL      114
REMARK 921   NORMALIZED FREE ENERGY PREDICTED BY IDOCK:   -3.57 KCAL/MOL
REMARK 922        TOTAL FREE ENERGY PREDICTED BY IDOCK:   -4.70 KCAL/MOL
REMARK 923 INTER-LIGAND FREE ENERGY PREDICTED BY IDOCK:   -4.42 KCAL/MOL
REMARK 924 INTRA-LIGAND FREE ENERGY PREDICTED BY IDOCK:   -0.28 KCAL/MOL
REMARK 927      BINDING AFFINITY PREDICTED BY RF-SCORE:    0.00 PKD
ROOT
HETATM    1  C   UNL     1      -8.779  10.185  64.233  1.00  0.00    -0.205 C  
HETATM    2  N   UNL     1      -8.773   8.727  64.351  1.00  0.00    -0.086 NA 
HETATM    3  C   UNL     1      -7.581   8.181  63.696  1.00  0.00    -0.132 C  
ENDROOT
BRANCH   2   4
HETATM    4  C   UNL     1      -8.881   8.322  65.771  1.00  0.00    -0.155 C  
BRANCH   4   5
HETATM    5  C   UNL     1     -10.122   8.911  66.465  1.00  0.00    -0.356 C  
BRANCH   5   6
HETATM    6  C   UNL     1     -10.334   8.460  67.894  1.00  0.00    -0.279 C  
HETATM    7  C   UNL     1      -9.954   9.145  68.999  1.00  0.00    -0.189 C  
HETATM    8  C   UNL     1      -9.194  10.404  68.828  1.00  0.00    -0.172 A  
HETATM    9  C   UNL     1      -9.799  11.555  68.303  1.00  0.00    -0.203 A  
HETATM   10  C   UNL     1      -9.046  12.710  68.095  1.00  0.00    -0.204 A  
HETATM   11  C   UNL     1      -7.691  12.726  68.423  1.00  0.00    -0.132 A  
HETATM   12  C   UNL     1      -7.090  11.591  68.974  1.00  0.00    -0.115 A  
HETATM   13  C   UNL     1      -7.838  10.427  69.186  1.00  0.00    -0.134 A  
HETATM   14  C   UNL     1      -7.218   9.206  69.819  1.00  0.00    -0.062 C  
HETATM   15  C   UNL     1      -7.791   8.962  71.219  1.00  0.00    -0.163 C  
HETATM   16  C   UNL     1      -9.244   8.538  71.367  1.00  0.00    -0.272 A  
HETATM   17  C   UNL     1      -9.624   8.106  72.658  1.00  0.00    -0.352 A  
HETATM   18  C   UNL     1     -10.933   7.717  72.942  1.00  0.00    -0.456 A  
HETATM   19  C   UNL     1     -11.892   7.751  71.941  1.00  0.00    -0.338 A  
HETATM   20  C   UNL     1     -11.543   8.188  70.661  1.00  0.00    -0.199 A  
HETATM   21  C   UNL     1     -10.226   8.585  70.350  1.00  0.00    -0.215 A  
ENDBRANCH   5   6
ENDBRANCH   4   5
ENDBRANCH   2   4
TORSDOF 3
ENDMDL
MODEL      115
REMARK 921   NORMALIZED FREE ENERGY PREDICTED BY IDOCK:   -3.57 KCAL/MOL
REMARK 922        TOTAL FREE ENERGY PREDICTED BY IDOCK:   -4.69 KCAL/MOL
REMARK 923 INTER-LIGAND FREE ENERGY PREDICTED BY IDOCK:   -4.44 KCAL/MOL
REMARK 924 INTRA-LIGAND FREE ENERGY PREDICTED BY IDOCK:   -0.25 KCAL/MOL
REMARK 927      BINDING AFFINITY PREDICTED BY RF-SCORE:    0.00 PKD
ROOT
HETATM    1  C   UNL     1      -7.944   7.746  65.018  1.00  0.00    -0.134 C  
HETATM    2  N   UNL     1      -7.907   9.205  64.914  1.00  0.00    -0.113 NA 
HETATM    3  C   UNL     1      -9.243   9.714  64.593  1.00  0.00    -0.234 C  
ENDROOT
BRANCH   2   4
HETATM    4  C   UNL     1      -7.350   9.798  66.150  1.00  0.00    -0.101 C  
BRANCH   4   5
HETATM    5  C   UNL     1      -7.654   8.956  67.403  1.00  0.00    -0.089 C  
BRANCH   5   6
HETATM    6  C   UNL     1      -8.942   9.306  68.116  1.00  0.00    -0.128 C  
HETATM    7  C   UNL     1      -9.057   9.602  69.433  1.00  0.00    -0.194 C  
HETATM    8  C   UNL     1      -7.854   9.507  70.290  1.00  0.00    -0.180 A  
HETATM    9  C   UNL     1      -6.794  10.415  70.161  1.00  0.00    -0.155 A  
HETATM   10  C   UNL     1      -5.645  10.267  70.938  1.00  0.00    -0.089 A  
HETATM   11  C   UNL     1      -5.556   9.222  71.855  1.00  0.00    -0.072 A  
HETATM   12  C   UNL     1      -6.621   8.330  72.009  1.00  0.00    -0.069 A  
HETATM   13  C   UNL     1      -7.778   8.471  71.233  1.00  0.00    -0.126 A  
HETATM   14  C   UNL     1      -8.955   7.547  71.414  1.00  0.00    -0.140 C  
HETATM   15  C   UNL     1     -10.149   8.289  72.025  1.00  0.00    -0.331 C  
HETATM   16  C   UNL     1     -10.865   9.353  71.208  1.00  0.00    -0.431 A  
HETATM   17  C   UNL     1     -12.086   9.816  71.747  1.00  0.00    -0.425 A  
HETATM   18  C   UNL     1     -12.832  10.811  71.116  1.00  0.00    -0.513 A  
HETATM   19  C   UNL     1     -12.372  11.367  69.931  1.00  0.00    -0.280 A  
HETATM   20  C   UNL     1     -11.160  10.936  69.388  1.00  0.00    -0.317 A  
HETATM   21  C   UNL     1     -10.390   9.930  70.007  1.00  0.00    -0.320 A  
ENDBRANCH   5   6
ENDBRANCH   4   5
ENDBRANCH   2   4
TORSDOF 3
ENDMDL
MODEL      116
REMARK 921   NORMALIZED FREE ENERGY PREDICTED BY IDOCK:   -3.53 KCAL/MOL
REMARK 922        TOTAL FREE ENERGY PREDICTED BY IDOCK:   -4.64 KCAL/MOL
REMARK 923 INTER-LIGAND FREE ENERGY PREDICTED BY IDOCK:   -4.29 KCAL/MOL
REMARK 924 INTRA-LIGAND FREE ENERGY PREDICTED BY IDOCK:   -0.35 KCAL/MOL
REMARK 927      BINDING AFFINITY PREDICTED BY RF-SCORE:    0.00 PKD
ROOT
HETATM    1  C   UNL     1     -11.428   7.363  70.578  1.00  0.00    -0.255 C  
HETATM    2  N   UNL     1     -10.379   6.519  70.007  1.00  0.00    -0.190 NA 
HETATM    3  C   UNL     1     -10.107   5.392  70.902  1.00  0.00    -0.219 C  
ENDROOT
BRANCH   2   4
HETATM    4  C   UNL     1     -10.747   6.088  68.640  1.00  0.00    -0.297 C  
BRANCH   4   5
HETATM    5  C   UNL     1     -10.827   7.261  67.647  1.00  0.00    -0.251 C  
BRANCH   5   6
HETATM    6  C   UNL     1      -9.512   7.649  67.003  1.00  0.00    -0.209 C  
HETATM    7  C   UNL     1      -9.064   8.915  66.832  1.00  0.00    -0.163 C  
HETATM    8  C   UNL     1      -9.943  10.039  67.225  1.00  0.00    -0.245 A  
HETATM    9  C   UNL     1     -10.230  10.305  68.571  1.00  0.00    -0.192 A  
HETATM   10  C   UNL     1     -11.110  11.332  68.910  1.00  0.00    -0.295 A  
HETATM   11  C   UNL     1     -11.696  12.106  67.910  1.00  0.00    -0.403 A  
HETATM   12  C   UNL     1     -11.391  11.865  66.568  1.00  0.00    -0.403 A  
HETATM   13  C   UNL     1     -10.509  10.835  66.217  1.00  0.00    -0.287 A  
HETATM   14  C   UNL     1     -10.134  10.587  64.778  1.00  0.00    -0.406 C  
HETATM   15  C   UNL     1      -8.667  10.950  64.521  1.00  0.00    -0.026 C  
HETATM   16  C   UNL     1      -7.568  10.110  65.154  1.00  0.00    -0.141 A  
HETATM   17  C   UNL     1      -6.261  10.362  64.681  1.00  0.00    -0.080 A  
HETATM   18  C   UNL     1      -5.156   9.684  65.195  1.00  0.00    -0.044 A  
HETATM   19  C   UNL     1      -5.333   8.739  66.194  1.00  0.00    -0.034 A  
HETATM   20  C   UNL     1      -6.615   8.484  66.687  1.00  0.00    -0.060 A  
HETATM   21  C   UNL     1      -7.747   9.156  66.182  1.00  0.00    -0.095 A  
ENDBRANCH   5   6
ENDBRANCH   4   5
ENDBRANCH   2   4
TORSDOF 3
ENDMDL
MODEL      117
REMARK 921   NORMALIZED FREE ENERGY PREDICTED BY IDOCK:   -3.52 KCAL/MOL
REMARK 922        TOTAL FREE ENERGY PREDICTED BY IDOCK:   -4.63 KCAL/MOL
REMARK 923 INTER-LIGAND FREE ENERGY PREDICTED BY IDOCK:   -4.34 KCAL/MOL
REMARK 924 INTRA-LIGAND FREE ENERGY PREDICTED BY IDOCK:   -0.29 KCAL/MOL
REMARK 927      BINDING AFFINITY PREDICTED BY RF-SCORE:    0.00 PKD
ROOT
HETATM    1  C   UNL     1      -7.002   6.333  74.348  1.00  0.00    -0.086 C  
HETATM    2  N   UNL     1      -6.962   5.302  73.311  1.00  0.00    -0.078 NA 
HETATM    3  C   UNL     1      -7.382   4.016  73.873  1.00  0.00    -0.067 C  
ENDROOT
BRANCH   2   4
HETATM    4  C   UNL     1      -7.777   5.709  72.144  1.00  0.00    -0.102 C  
BRANCH   4   5
HETATM    5  C   UNL     1      -7.882   7.238  71.996  1.00  0.00    -0.091 C  
BRANCH   5   6
HETATM    6  C   UNL     1      -7.907   7.746  70.570  1.00  0.00    -0.096 C  
HETATM    7  C   UNL     1      -9.019   8.082  69.874  1.00  0.00    -0.145 C  
HETATM    8  C   UNL     1     -10.342   7.871  70.505  1.00  0.00    -0.205 A  
HETATM    9  C   UNL     1     -10.765   8.652  71.590  1.00  0.00    -0.374 A  
HETATM   10  C   UNL     1     -11.989   8.393  72.205  1.00  0.00    -0.455 A  
HETATM   11  C   UNL     1     -12.802   7.364  71.731  1.00  0.00    -0.365 A  
HETATM   12  C   UNL     1     -12.399   6.602  70.631  1.00  0.00    -0.161 A  
HETATM   13  C   UNL     1     -11.171   6.854  70.008  1.00  0.00    -0.347 A  
HETATM   14  C   UNL     1     -10.738   6.072  68.794  1.00  0.00    -0.375 C  
HETATM   15  C   UNL     1     -10.732   6.957  67.543  1.00  0.00    -0.368 C  
HETATM   16  C   UNL     1      -9.710   8.076  67.424  1.00  0.00    -0.216 A  
HETATM   17  C   UNL     1      -9.617   8.685  66.152  1.00  0.00    -0.305 A  
HETATM   18  C   UNL     1      -8.742   9.743  65.911  1.00  0.00    -0.156 A  
HETATM   19  C   UNL     1      -7.939  10.218  66.938  1.00  0.00    -0.112 A  
HETATM   20  C   UNL     1      -8.024   9.642  68.207  1.00  0.00    -0.096 A  
HETATM   21  C   UNL     1      -8.901   8.569  68.474  1.00  0.00    -0.139 A  
ENDBRANCH   5   6
ENDBRANCH   4   5
ENDBRANCH   2   4
TORSDOF 3
ENDMDL
MODEL      118
REMARK 921   NORMALIZED FREE ENERGY PREDICTED BY IDOCK:   -3.51 KCAL/MOL
REMARK 922        TOTAL FREE ENERGY PREDICTED BY IDOCK:   -4.63 KCAL/MOL
REMARK 923 INTER-LIGAND FREE ENERGY PREDICTED BY IDOCK:   -4.41 KCAL/MOL
REMARK 924 INTRA-LIGAND FREE ENERGY PREDICTED BY IDOCK:   -0.22 KCAL/MOL
REMARK 927      BINDING AFFINITY PREDICTED BY RF-SCORE:    0.00 PKD
ROOT
HETATM    1  C   UNL     1     -11.094   9.344  71.358  1.00  0.00    -0.380 C  
HETATM    2  N   UNL     1     -12.080  10.219  70.725  1.00  0.00    -0.324 NA 
HETATM    3  C   UNL     1     -13.149  10.532  71.676  1.00  0.00    -0.446 C  
ENDROOT
BRANCH   2   4
HETATM    4  C   UNL     1     -11.425  11.430  70.182  1.00  0.00    -0.214 C  
BRANCH   4   5
HETATM    5  C   UNL     1     -11.318  11.412  68.646  1.00  0.00    -0.327 C  
BRANCH   5   6
HETATM    6  C   UNL     1     -11.154  10.039  68.030  1.00  0.00    -0.263 C  
HETATM    7  C   UNL     1      -9.974   9.454  67.713  1.00  0.00    -0.228 C  
HETATM    8  C   UNL     1      -8.726  10.228  67.900  1.00  0.00    -0.122 A  
HETATM    9  C   UNL     1      -8.246  10.542  69.179  1.00  0.00    -0.152 A  
HETATM   10  C   UNL     1      -7.102  11.324  69.327  1.00  0.00    -0.112 A  
HETATM   11  C   UNL     1      -6.423  11.785  68.199  1.00  0.00    -0.051 A  
HETATM   12  C   UNL     1      -6.880  11.451  66.921  1.00  0.00    -0.142 A  
HETATM   13  C   UNL     1      -8.029  10.667  66.764  1.00  0.00    -0.132 A  
HETATM   14  C   UNL     1      -8.512  10.259  65.395  1.00  0.00    -0.166 C  
HETATM   15  C   UNL     1      -8.333   8.754  65.173  1.00  0.00    -0.176 C  
HETATM   16  C   UNL     1      -9.178   7.775  65.974  1.00  0.00    -0.139 A  
HETATM   17  C   UNL     1      -9.123   6.430  65.544  1.00  0.00     0.111 A  
HETATM   18  C   UNL     1      -9.826   5.423  66.206  1.00  0.00    -0.186 A  
HETATM   19  C   UNL     1     -10.599   5.739  67.313  1.00  0.00    -0.353 A  
HETATM   20  C   UNL     1     -10.657   7.060  67.765  1.00  0.00    -0.298 A  
HETATM   21  C   UNL     1      -9.956   8.094  67.110  1.00  0.00    -0.304 A  
ENDBRANCH   5   6
ENDBRANCH   4   5
ENDBRANCH   2   4
TORSDOF 3
ENDMDL
MODEL      119
REMARK 921   NORMALIZED FREE ENERGY PREDICTED BY IDOCK:   -3.48 KCAL/MOL
REMARK 922        TOTAL FREE ENERGY PREDICTED BY IDOCK:   -4.59 KCAL/MOL
REMARK 923 INTER-LIGAND FREE ENERGY PREDICTED BY IDOCK:   -4.20 KCAL/MOL
REMARK 924 INTRA-LIGAND FREE ENERGY PREDICTED BY IDOCK:   -0.39 KCAL/MOL
REMARK 927      BINDING AFFINITY PREDICTED BY RF-SCORE:    0.00 PKD
ROOT
HETATM    1  C   UNL     1      -7.616   8.646  66.145  1.00  0.00    -0.093 C  
HETATM    2  N   UNL     1      -7.158   7.385  66.730  1.00  0.00    -0.077 NA 
HETATM    3  C   UNL     1      -6.053   6.843  65.935  1.00  0.00    -0.035 C  
ENDROOT
BRANCH   2   4
HETATM    4  C   UNL     1      -6.798   7.575  68.153  1.00  0.00    -0.063 C  
BRANCH   4   5
HETATM    5  C   UNL     1      -6.581   6.243  68.894  1.00  0.00    -0.048 C  
BRANCH   5   6
HETATM    6  C   UNL     1      -7.451   6.039  70.117  1.00  0.00    -0.090 C  
HETATM    7  C   UNL     1      -8.744   5.636  70.104  1.00  0.00    -0.140 C  
HETATM    8  C   UNL     1      -9.416   5.448  68.798  1.00  0.00    -0.168 A  
HETATM    9  C   UNL     1      -9.063   4.397  67.941  1.00  0.00    -0.154 A  
HETATM   10  C   UNL     1      -9.668   4.278  66.691  1.00  0.00    -0.239 A  
HETATM   11  C   UNL     1     -10.638   5.198  66.297  1.00  0.00    -0.325 A  
HETATM   12  C   UNL     1     -11.016   6.231  67.159  1.00  0.00    -0.453 A  
HETATM   13  C   UNL     1     -10.412   6.359  68.416  1.00  0.00    -0.266 A  
HETATM   14  C   UNL     1     -10.837   7.439  69.378  1.00  0.00    -0.184 C  
HETATM   15  C   UNL     1     -11.562   6.845  70.590  1.00  0.00    -0.402 C  
HETATM   16  C   UNL     1     -10.782   5.998  71.585  1.00  0.00    -0.303 A  
HETATM   17  C   UNL     1     -11.461   5.689  72.785  1.00  0.00    -0.328 A  
HETATM   18  C   UNL     1     -10.876   4.896  73.771  1.00  0.00    -0.376 A  
HETATM   19  C   UNL     1      -9.597   4.393  73.579  1.00  0.00    -0.135 A  
HETATM   20  C   UNL     1      -8.913   4.673  72.395  1.00  0.00    -0.138 A  
HETATM   21  C   UNL     1      -9.485   5.474  71.384  1.00  0.00    -0.182 A  
ENDBRANCH   5   6
ENDBRANCH   4   5
ENDBRANCH   2   4
TORSDOF 3
ENDMDL
MODEL      120
REMARK 921   NORMALIZED FREE ENERGY PREDICTED BY IDOCK:   -3.48 KCAL/MOL
REMARK 922        TOTAL FREE ENERGY PREDICTED BY IDOCK:   -4.59 KCAL/MOL
REMARK 923 INTER-LIGAND FREE ENERGY PREDICTED BY IDOCK:   -4.27 KCAL/MOL
REMARK 924 INTRA-LIGAND FREE ENERGY PREDICTED BY IDOCK:   -0.32 KCAL/MOL
REMARK 927      BINDING AFFINITY PREDICTED BY RF-SCORE:    0.00 PKD
ROOT
HETATM    1  C   UNL     1      -8.459  16.578  68.767  1.00  0.00    -0.248 C  
HETATM    2  N   UNL     1      -7.111  16.560  68.198  1.00  0.00    -0.141 NA 
HETATM    3  C   UNL     1      -6.130  16.883  69.237  1.00  0.00    -0.206 C  
ENDROOT
BRANCH   2   4
HETATM    4  C   UNL     1      -6.843  15.261  67.542  1.00  0.00    -0.189 C  
BRANCH   4   5
HETATM    5  C   UNL     1      -7.333  14.062  68.373  1.00  0.00    -0.113 C  
BRANCH   5   6
HETATM    6  C   UNL     1      -7.475  12.764  67.607  1.00  0.00    -0.144 C  
HETATM    7  C   UNL     1      -8.646  12.163  67.288  1.00  0.00    -0.180 C  
HETATM    8  C   UNL     1      -9.908  12.758  67.783  1.00  0.00    -0.220 A  
HETATM    9  C   UNL     1     -10.381  13.981  67.288  1.00  0.00    -0.264 A  
HETATM   10  C   UNL     1     -11.540  14.550  67.815  1.00  0.00    -0.390 A  
HETATM   11  C   UNL     1     -12.238  13.894  68.827  1.00  0.00    -0.232 A  
HETATM   12  C   UNL     1     -11.788  12.661  69.306  1.00  0.00    -0.358 A  
HETATM   13  C   UNL     1     -10.625  12.083  68.783  1.00  0.00    -0.237 A  
HETATM   14  C   UNL     1     -10.146  10.733  69.254  1.00  0.00    -0.200 C  
HETATM   15  C   UNL     1     -10.297   9.679  68.152  1.00  0.00    -0.250 C  
HETATM   16  C   UNL     1      -9.424   9.769  66.909  1.00  0.00    -0.202 A  
HETATM   17  C   UNL     1      -9.456   8.640  66.060  1.00  0.00    -0.278 A  
HETATM   18  C   UNL     1      -8.727   8.599  64.872  1.00  0.00    -0.126 A  
HETATM   19  C   UNL     1      -7.950   9.688  64.505  1.00  0.00    -0.140 A  
HETATM   20  C   UNL     1      -7.915  10.821  65.321  1.00  0.00     0.009 A  
HETATM   21  C   UNL     1      -8.642  10.884  66.528  1.00  0.00    -0.156 A  
ENDBRANCH   5   6
ENDBRANCH   4   5
ENDBRANCH   2   4
TORSDOF 3
ENDMDL
MODEL      121
REMARK 921   NORMALIZED FREE ENERGY PREDICTED BY IDOCK:   -3.47 KCAL/MOL
REMARK 922        TOTAL FREE ENERGY PREDICTED BY IDOCK:   -4.58 KCAL/MOL
REMARK 923 INTER-LIGAND FREE ENERGY PREDICTED BY IDOCK:   -4.27 KCAL/MOL
REMARK 924 INTRA-LIGAND FREE ENERGY PREDICTED BY IDOCK:   -0.31 KCAL/MOL
REMARK 927      BINDING AFFINITY PREDICTED BY RF-SCORE:    0.00 PKD
ROOT
HETATM    1  C   UNL     1     -13.347  10.662  71.810  1.00  0.00    -0.334 C  
HETATM    2  N   UNL     1     -13.101   9.282  72.230  1.00  0.00    -0.433 NA 
HETATM    3  C   UNL     1     -14.319   8.486  72.057  1.00  0.00    -0.447 C  
ENDROOT
BRANCH   2   4
HETATM    4  C   UNL     1     -11.942   8.718  71.503  1.00  0.00    -0.324 C  
BRANCH   4   5
HETATM    5  C   UNL     1     -11.611   9.494  70.216  1.00  0.00    -0.219 C  
BRANCH   5   6
HETATM    6  C   UNL     1     -10.167   9.925  70.077  1.00  0.00    -0.319 C  
HETATM    7  C   UNL     1      -9.217   9.275  69.363  1.00  0.00    -0.159 C  
HETATM    8  C   UNL     1      -9.569   7.991  68.716  1.00  0.00    -0.149 A  
HETATM    9  C   UNL     1     -10.448   7.941  67.626  1.00  0.00    -0.303 A  
HETATM   10  C   UNL     1     -10.812   6.713  67.074  1.00  0.00    -0.467 A  
HETATM   11  C   UNL     1     -10.289   5.532  67.599  1.00  0.00    -0.256 A  
HETATM   12  C   UNL     1      -9.389   5.578  68.668  1.00  0.00    -0.149 A  
HETATM   13  C   UNL     1      -9.020   6.806  69.228  1.00  0.00    -0.137 A  
HETATM   14  C   UNL     1      -8.018   6.880  70.353  1.00  0.00    -0.114 C  
HETATM   15  C   UNL     1      -6.708   7.522  69.882  1.00  0.00    -0.046 C  
HETATM   16  C   UNL     1      -6.691   8.998  69.514  1.00  0.00    -0.047 A  
HETATM   17  C   UNL     1      -5.410   9.563  69.321  1.00  0.00    -0.036 A  
HETATM   18  C   UNL     1      -5.249  10.898  68.952  1.00  0.00    -0.041 A  
HETATM   19  C   UNL     1      -6.367  11.698  68.765  1.00  0.00    -0.056 A  
HETATM   20  C   UNL     1      -7.643  11.158  68.935  1.00  0.00    -0.133 A  
HETATM   21  C   UNL     1      -7.830   9.811  69.310  1.00  0.00    -0.105 A  
ENDBRANCH   5   6
ENDBRANCH   4   5
ENDBRANCH   2   4
TORSDOF 3
ENDMDL
MODEL      122
REMARK 921   NORMALIZED FREE ENERGY PREDICTED BY IDOCK:   -3.46 KCAL/MOL
REMARK 922        TOTAL FREE ENERGY PREDICTED BY IDOCK:   -4.57 KCAL/MOL
REMARK 923 INTER-LIGAND FREE ENERGY PREDICTED BY IDOCK:   -4.61 KCAL/MOL
REMARK 924 INTRA-LIGAND FREE ENERGY PREDICTED BY IDOCK:    0.04 KCAL/MOL
REMARK 927      BINDING AFFINITY PREDICTED BY RF-SCORE:    0.00 PKD
ROOT
HETATM    1  C   UNL     1      -9.870  11.324  62.947  1.00  0.00    -0.285 C  
HETATM    2  N   UNL     1     -10.598  12.408  63.606  1.00  0.00    -0.445 NA 
HETATM    3  C   UNL     1     -12.039  12.149  63.542  1.00  0.00    -0.550 C  
ENDROOT
BRANCH   2   4
HETATM    4  C   UNL     1     -10.112  12.592  64.992  1.00  0.00    -0.236 C  
BRANCH   4   5
HETATM    5  C   UNL     1     -10.983  11.861  66.030  1.00  0.00    -0.355 C  
BRANCH   5   6
HETATM    6  C   UNL     1     -10.769  10.364  66.109  1.00  0.00    -0.076 C  
HETATM    7  C   UNL     1      -9.671   9.752  66.611  1.00  0.00    -0.257 C  
HETATM    8  C   UNL     1      -8.532  10.587  67.054  1.00  0.00    -0.128 A  
HETATM    9  C   UNL     1      -8.622  11.397  68.195  1.00  0.00    -0.153 A  
HETATM   10  C   UNL     1      -7.557  12.221  68.556  1.00  0.00    -0.118 A  
HETATM   11  C   UNL     1      -6.393  12.230  67.789  1.00  0.00    -0.101 A  
HETATM   12  C   UNL     1      -6.286  11.403  66.667  1.00  0.00    -0.137 A  
HETATM   13  C   UNL     1      -7.351  10.573  66.297  1.00  0.00    -0.133 A  
HETATM   14  C   UNL     1      -7.239   9.642  65.116  1.00  0.00    -0.115 C  
HETATM   15  C   UNL     1      -7.205   8.179  65.569  1.00  0.00    -0.071 C  
HETATM   16  C   UNL     1      -8.450   7.559  66.185  1.00  0.00    -0.147 A  
HETATM   17  C   UNL     1      -8.411   6.157  66.355  1.00  0.00    -0.123 A  
HETATM   18  C   UNL     1      -9.473   5.462  66.934  1.00  0.00    -0.138 A  
HETATM   19  C   UNL     1     -10.597   6.155  67.358  1.00  0.00    -0.352 A  
HETATM   20  C   UNL     1     -10.652   7.543  67.213  1.00  0.00    -0.394 A  
HETATM   21  C   UNL     1      -9.591   8.266  66.629  1.00  0.00    -0.299 A  
ENDBRANCH   5   6
ENDBRANCH   4   5
ENDBRANCH   2   4
TORSDOF 3
ENDMDL
MODEL      123
REMARK 921   NORMALIZED FREE ENERGY PREDICTED BY IDOCK:   -3.45 KCAL/MOL
REMARK 922        TOTAL FREE ENERGY PREDICTED BY IDOCK:   -4.56 KCAL/MOL
REMARK 923 INTER-LIGAND FREE ENERGY PREDICTED BY IDOCK:   -3.96 KCAL/MOL
REMARK 924 INTRA-LIGAND FREE ENERGY PREDICTED BY IDOCK:   -0.59 KCAL/MOL
REMARK 927      BINDING AFFINITY PREDICTED BY RF-SCORE:    0.00 PKD
ROOT
HETATM    1  C   UNL     1     -10.373  15.311  68.711  1.00  0.00    -0.232 C  
HETATM    2  N   UNL     1      -9.526  14.378  67.969  1.00  0.00    -0.203 NA 
HETATM    3  C   UNL     1      -9.898  14.389  66.552  1.00  0.00    -0.287 C  
ENDROOT
BRANCH   2   4
HETATM    4  C   UNL     1      -8.096  14.691  68.187  1.00  0.00    -0.137 C  
BRANCH   4   5
HETATM    5  C   UNL     1      -7.171  13.503  67.867  1.00  0.00    -0.139 C  
BRANCH   5   6
HETATM    6  C   UNL     1      -7.143  12.409  68.914  1.00  0.00    -0.078 C  
HETATM    7  C   UNL     1      -7.749  11.203  68.807  1.00  0.00    -0.136 C  
HETATM    8  C   UNL     1      -8.582  10.929  67.614  1.00  0.00    -0.124 A  
HETATM    9  C   UNL     1      -8.009  10.772  66.345  1.00  0.00    -0.151 A  
HETATM   10  C   UNL     1      -8.820  10.576  65.228  1.00  0.00    -0.205 A  
HETATM   11  C   UNL     1     -10.205  10.523  65.376  1.00  0.00    -0.340 A  
HETATM   12  C   UNL     1     -10.781  10.650  66.643  1.00  0.00    -0.246 A  
HETATM   13  C   UNL     1      -9.974  10.848  67.769  1.00  0.00    -0.198 A  
HETATM   14  C   UNL     1     -10.573  10.943  69.150  1.00  0.00    -0.253 C  
HETATM   15  C   UNL     1     -10.203   9.720  69.996  1.00  0.00    -0.308 C  
HETATM   16  C   UNL     1      -8.759   9.520  70.427  1.00  0.00    -0.265 A  
HETATM   17  C   UNL     1      -8.546   8.510  71.393  1.00  0.00    -0.224 A  
HETATM   18  C   UNL     1      -7.268   8.200  71.856  1.00  0.00    -0.094 A  
HETATM   19  C   UNL     1      -6.172   8.893  71.362  1.00  0.00    -0.064 A  
HETATM   20  C   UNL     1      -6.356   9.885  70.397  1.00  0.00    -0.106 A  
HETATM   21  C   UNL     1      -7.640  10.216  69.915  1.00  0.00    -0.174 A  
ENDBRANCH   5   6
ENDBRANCH   4   5
ENDBRANCH   2   4
TORSDOF 3
ENDMDL
MODEL      124
REMARK 921   NORMALIZED FREE ENERGY PREDICTED BY IDOCK:   -3.44 KCAL/MOL
REMARK 922        TOTAL FREE ENERGY PREDICTED BY IDOCK:   -4.54 KCAL/MOL
REMARK 923 INTER-LIGAND FREE ENERGY PREDICTED BY IDOCK:   -4.24 KCAL/MOL
REMARK 924 INTRA-LIGAND FREE ENERGY PREDICTED BY IDOCK:   -0.30 KCAL/MOL
REMARK 927      BINDING AFFINITY PREDICTED BY RF-SCORE:    0.00 PKD
ROOT
HETATM    1  C   UNL     1      -9.265   5.624  68.178  1.00  0.00    -0.110 C  
HETATM    2  N   UNL     1      -8.709   6.147  69.426  1.00  0.00    -0.122 NA 
HETATM    3  C   UNL     1      -7.319   6.559  69.216  1.00  0.00    -0.093 C  
ENDROOT
BRANCH   2   4
HETATM    4  C   UNL     1      -9.556   7.241  69.953  1.00  0.00    -0.163 C  
BRANCH   4   5
HETATM    5  C   UNL     1      -8.890   8.624  69.824  1.00  0.00    -0.137 C  
BRANCH   5   6
HETATM    6  C   UNL     1      -9.760   9.796  70.225  1.00  0.00    -0.279 C  
HETATM    7  C   UNL     1     -10.377  10.646  69.370  1.00  0.00    -0.234 C  
HETATM    8  C   UNL     1     -10.138  10.490  67.917  1.00  0.00    -0.204 A  
HETATM    9  C   UNL     1     -10.638   9.389  67.210  1.00  0.00    -0.314 A  
HETATM   10  C   UNL     1     -10.347   9.234  65.855  1.00  0.00     0.126 A  
HETATM   11  C   UNL     1      -9.567  10.186  65.198  1.00  0.00    -0.354 A  
HETATM   12  C   UNL     1      -9.090  11.301  65.891  1.00  0.00    -0.217 A  
HETATM   13  C   UNL     1      -9.377  11.464  67.252  1.00  0.00    -0.173 A  
HETATM   14  C   UNL     1      -8.909  12.682  68.007  1.00  0.00    -0.195 C  
HETATM   15  C   UNL     1     -10.090  13.579  68.393  1.00  0.00    -0.240 C  
HETATM   16  C   UNL     1     -11.094  13.088  69.425  1.00  0.00    -0.137 A  
HETATM   17  C   UNL     1     -12.008  14.058  69.895  1.00  0.00    -0.399 A  
HETATM   18  C   UNL     1     -13.000  13.738  70.821  1.00  0.00    -0.238 A  
HETATM   19  C   UNL     1     -13.102  12.439  71.297  1.00  0.00    -0.218 A  
HETATM   20  C   UNL     1     -12.219  11.460  70.835  1.00  0.00    -0.447 A  
HETATM   21  C   UNL     1     -11.207  11.761  69.901  1.00  0.00    -0.093 A  
ENDBRANCH   5   6
ENDBRANCH   4   5
ENDBRANCH   2   4
TORSDOF 3
ENDMDL
MODEL      125
REMARK 921   NORMALIZED FREE ENERGY PREDICTED BY IDOCK:   -3.42 KCAL/MOL
REMARK 922        TOTAL FREE ENERGY PREDICTED BY IDOCK:   -4.52 KCAL/MOL
REMARK 923 INTER-LIGAND FREE ENERGY PREDICTED BY IDOCK:   -4.29 KCAL/MOL
REMARK 924 INTRA-LIGAND FREE ENERGY PREDICTED BY IDOCK:   -0.23 KCAL/MOL
REMARK 927      BINDING AFFINITY PREDICTED BY RF-SCORE:    0.00 PKD
ROOT
HETATM    1  C   UNL     1      -6.336  20.385  65.551  1.00  0.00    -0.246 C  
HETATM    2  N   UNL     1      -5.594  19.152  65.818  1.00  0.00    -0.152 NA 
HETATM    3  C   UNL     1      -5.150  19.133  67.214  1.00  0.00    -0.160 C  
ENDROOT
BRANCH   2   4
HETATM    4  C   UNL     1      -6.409  17.970  65.461  1.00  0.00    -0.168 C  
BRANCH   4   5
HETATM    5  C   UNL     1      -6.802  17.125  66.687  1.00  0.00    -0.278 C  
BRANCH   5   6
HETATM    6  C   UNL     1      -7.977  16.194  66.477  1.00  0.00    -0.294 C  
HETATM    7  C   UNL     1      -8.302  15.146  67.271  1.00  0.00    -0.225 C  
HETATM    8  C   UNL     1      -7.408  14.808  68.402  1.00  0.00    -0.116 A  
HETATM    9  C   UNL     1      -7.300  15.644  69.521  1.00  0.00    -0.197 A  
HETATM   10  C   UNL     1      -6.405  15.334  70.544  1.00  0.00     0.079 A  
HETATM   11  C   UNL     1      -5.625  14.182  70.461  1.00  0.00    -0.145 A  
HETATM   12  C   UNL     1      -5.749  13.329  69.361  1.00  0.00    -0.088 A  
HETATM   13  C   UNL     1      -6.644  13.633  68.329  1.00  0.00    -0.108 A  
HETATM   14  C   UNL     1      -6.825  12.704  67.155  1.00  0.00    -0.028 C  
HETATM   15  C   UNL     1      -8.208  12.044  67.182  1.00  0.00    -0.181 C  
HETATM   16  C   UNL     1      -9.445  12.896  66.944  1.00  0.00    -0.237 A  
HETATM   17  C   UNL     1     -10.649  12.180  66.751  1.00  0.00    -0.256 A  
HETATM   18  C   UNL     1     -11.863  12.835  66.552  1.00  0.00    -0.471 A  
HETATM   19  C   UNL     1     -11.903  14.222  66.543  1.00  0.00    -0.433 A  
HETATM   20  C   UNL     1     -10.729  14.950  66.746  1.00  0.00    -0.312 A  
HETATM   21  C   UNL     1      -9.488  14.309  66.948  1.00  0.00    -0.272 A  
ENDBRANCH   5   6
ENDBRANCH   4   5
ENDBRANCH   2   4
TORSDOF 3
ENDMDL
MODEL      126
REMARK 921   NORMALIZED FREE ENERGY PREDICTED BY IDOCK:   -3.34 KCAL/MOL
REMARK 922        TOTAL FREE ENERGY PREDICTED BY IDOCK:   -4.42 KCAL/MOL
REMARK 923 INTER-LIGAND FREE ENERGY PREDICTED BY IDOCK:   -4.14 KCAL/MOL
REMARK 924 INTRA-LIGAND FREE ENERGY PREDICTED BY IDOCK:   -0.28 KCAL/MOL
REMARK 927      BINDING AFFINITY PREDICTED BY RF-SCORE:    0.00 PKD
ROOT
HETATM    1  C   UNL     1     -10.436  12.745  64.372  1.00  0.00    -0.386 C  
HETATM    2  N   UNL     1     -10.903  12.946  65.744  1.00  0.00    -0.266 NA 
HETATM    3  C   UNL     1     -12.104  13.785  65.742  1.00  0.00    -0.429 C  
ENDROOT
BRANCH   2   4
HETATM    4  C   UNL     1     -11.117  11.643  66.414  1.00  0.00    -0.291 C  
BRANCH   4   5
HETATM    5  C   UNL     1     -10.034  10.608  66.062  1.00  0.00    -0.295 C  
BRANCH   5   6
HETATM    6  C   UNL     1     -10.158   9.279  66.776  1.00  0.00    -0.331 C  
HETATM    7  C   UNL     1      -9.346   8.839  67.767  1.00  0.00    -0.157 C  
HETATM    8  C   UNL     1      -8.182   9.669  68.152  1.00  0.00    -0.106 A  
HETATM    9  C   UNL     1      -8.347  10.896  68.809  1.00  0.00    -0.151 A  
HETATM   10  C   UNL     1      -7.238  11.687  69.106  1.00  0.00    -0.064 A  
HETATM   11  C   UNL     1      -5.960  11.251  68.761  1.00  0.00    -0.043 A  
HETATM   12  C   UNL     1      -5.787  10.015  68.132  1.00  0.00    -0.042 A  
HETATM   13  C   UNL     1      -6.895   9.215  67.829  1.00  0.00    -0.076 A  
HETATM   14  C   UNL     1      -6.725   7.860  67.190  1.00  0.00    -0.068 C  
HETATM   15  C   UNL     1      -7.095   6.739  68.168  1.00  0.00    -0.086 C  
HETATM   16  C   UNL     1      -8.545   6.570  68.596  1.00  0.00    -0.124 A  
HETATM   17  C   UNL     1      -8.836   5.382  69.303  1.00  0.00    -0.112 A  
HETATM   18  C   UNL     1     -10.118   5.112  69.780  1.00  0.00    -0.336 A  
HETATM   19  C   UNL     1     -11.138   6.025  69.561  1.00  0.00    -0.468 A  
HETATM   20  C   UNL     1     -10.871   7.213  68.878  1.00  0.00    -0.160 A  
HETATM   21  C   UNL     1      -9.582   7.507  68.384  1.00  0.00    -0.152 A  
ENDBRANCH   5   6
ENDBRANCH   4   5
ENDBRANCH   2   4
TORSDOF 3
ENDMDL
MODEL      127
REMARK 921   NORMALIZED FREE ENERGY PREDICTED BY IDOCK:   -3.32 KCAL/MOL
REMARK 922        TOTAL FREE ENERGY PREDICTED BY IDOCK:   -4.40 KCAL/MOL
REMARK 923 INTER-LIGAND FREE ENERGY PREDICTED BY IDOCK:   -4.17 KCAL/MOL
REMARK 924 INTRA-LIGAND FREE ENERGY PREDICTED BY IDOCK:   -0.23 KCAL/MOL
REMARK 927      BINDING AFFINITY PREDICTED BY RF-SCORE:    0.00 PKD
ROOT
HETATM    1  C   UNL     1     -12.222  12.917  70.535  1.00  0.00    -0.314 C  
HETATM    2  N   UNL     1     -11.930  13.060  69.108  1.00  0.00    -0.296 NA 
HETATM    3  C   UNL     1     -10.876  14.060  68.915  1.00  0.00    -0.258 C  
ENDROOT
BRANCH   2   4
HETATM    4  C   UNL     1     -11.589  11.748  68.515  1.00  0.00    -0.321 C  
BRANCH   4   5
HETATM    5  C   UNL     1     -10.376  11.085  69.193  1.00  0.00    -0.210 C  
BRANCH   5   6
HETATM    6  C   UNL     1     -10.649   9.736  69.823  1.00  0.00    -0.285 C  
HETATM    7  C   UNL     1      -9.728   8.766  70.034  1.00  0.00    -0.182 C  
HETATM    8  C   UNL     1      -8.346   8.981  69.548  1.00  0.00    -0.117 A  
HETATM    9  C   UNL     1      -7.505   9.932  70.141  1.00  0.00    -0.178 A  
HETATM   10  C   UNL     1      -6.229  10.158  69.626  1.00  0.00    -0.052 A  
HETATM   11  C   UNL     1      -5.783   9.426  68.526  1.00  0.00    -0.040 A  
HETATM   12  C   UNL     1      -6.607   8.456  67.949  1.00  0.00    -0.061 A  
HETATM   13  C   UNL     1      -7.889   8.223  68.459  1.00  0.00    -0.121 A  
HETATM   14  C   UNL     1      -8.776   7.151  67.878  1.00  0.00    -0.126 C  
HETATM   15  C   UNL     1      -8.960   5.993  68.866  1.00  0.00    -0.123 C  
HETATM   16  C   UNL     1      -9.750   6.223  70.146  1.00  0.00    -0.187 A  
HETATM   17  C   UNL     1     -10.072   5.058  70.879  1.00  0.00    -0.302 A  
HETATM   18  C   UNL     1     -10.768   5.125  72.086  1.00  0.00    -0.252 A  
HETATM   19  C   UNL     1     -11.155   6.359  72.588  1.00  0.00    -0.294 A  
HETATM   20  C   UNL     1     -10.834   7.524  71.888  1.00  0.00    -0.264 A  
HETATM   21  C   UNL     1     -10.133   7.481  70.665  1.00  0.00    -0.187 A  
ENDBRANCH   5   6
ENDBRANCH   4   5
ENDBRANCH   2   4
TORSDOF 3
ENDMDL
MODEL      128
REMARK 921   NORMALIZED FREE ENERGY PREDICTED BY IDOCK:   -3.30 KCAL/MOL
REMARK 922        TOTAL FREE ENERGY PREDICTED BY IDOCK:   -4.38 KCAL/MOL
REMARK 923 INTER-LIGAND FREE ENERGY PREDICTED BY IDOCK:   -4.05 KCAL/MOL
REMARK 924 INTRA-LIGAND FREE ENERGY PREDICTED BY IDOCK:   -0.33 KCAL/MOL
REMARK 927      BINDING AFFINITY PREDICTED BY RF-SCORE:    0.00 PKD
ROOT
HETATM    1  C   UNL     1      -8.021  10.602  66.563  1.00  0.00    -0.138 C  
HETATM    2  N   UNL     1      -9.022  10.189  65.580  1.00  0.00    -0.162 NA 
HETATM    3  C   UNL     1      -8.388  10.003  64.273  1.00  0.00    -0.169 C  
ENDROOT
BRANCH   2   4
HETATM    4  C   UNL     1      -9.736   8.978  66.046  1.00  0.00    -0.269 C  
BRANCH   4   5
HETATM    5  C   UNL     1      -8.788   7.920  66.638  1.00  0.00    -0.166 C  
BRANCH   5   6
HETATM    6  C   UNL     1      -8.853   6.558  65.980  1.00  0.00    -0.154 C  
HETATM    7  C   UNL     1      -9.376   5.439  66.538  1.00  0.00    -0.150 C  
HETATM    8  C   UNL     1      -9.859   5.502  67.936  1.00  0.00    -0.169 A  
HETATM    9  C   UNL     1     -11.008   6.229  68.278  1.00  0.00    -0.408 A  
HETATM   10  C   UNL     1     -11.407   6.322  69.611  1.00  0.00    -0.492 A  
HETATM   11  C   UNL     1     -10.671   5.679  70.605  1.00  0.00    -0.333 A  
HETATM   12  C   UNL     1      -9.542   4.929  70.266  1.00  0.00    -0.265 A  
HETATM   13  C   UNL     1      -9.133   4.830  68.931  1.00  0.00    -0.156 A  
HETATM   14  C   UNL     1      -7.943   3.990  68.540  1.00  0.00    -0.072 C  
HETATM   15  C   UNL     1      -8.378   2.757  67.741  1.00  0.00    -0.094 C  
HETATM   16  C   UNL     1      -8.954   2.937  66.344  1.00  0.00    -0.158 A  
HETATM   17  C   UNL     1      -9.106   1.751  65.592  1.00  0.00    -0.067 A  
HETATM   18  C   UNL     1      -9.648   1.767  64.307  1.00  0.00    -0.119 A  
HETATM   19  C   UNL     1     -10.052   2.969  63.746  1.00  0.00    -0.173 A  
HETATM   20  C   UNL     1      -9.924   4.152  64.477  1.00  0.00    -0.170 A  
HETATM   21  C   UNL     1      -9.376   4.161  65.777  1.00  0.00    -0.162 A  
ENDBRANCH   5   6
ENDBRANCH   4   5
ENDBRANCH   2   4
TORSDOF 3
ENDMDL
MODEL      129
REMARK 921   NORMALIZED FREE ENERGY PREDICTED BY IDOCK:   -3.28 KCAL/MOL
REMARK 922        TOTAL FREE ENERGY PREDICTED BY IDOCK:   -4.36 KCAL/MOL
REMARK 923 INTER-LIGAND FREE ENERGY PREDICTED BY IDOCK:   -3.97 KCAL/MOL
REMARK 924 INTRA-LIGAND FREE ENERGY PREDICTED BY IDOCK:   -0.39 KCAL/MOL
REMARK 927      BINDING AFFINITY PREDICTED BY RF-SCORE:    0.00 PKD
ROOT
HETATM    1  C   UNL     1     -13.440   7.316  71.381  1.00  0.00    -0.321 C  
HETATM    2  N   UNL     1     -12.530   8.431  71.642  1.00  0.00    -0.316 NA 
HETATM    3  C   UNL     1     -13.299   9.631  71.978  1.00  0.00    -0.457 C  
ENDROOT
BRANCH   2   4
HETATM    4  C   UNL     1     -11.552   8.066  72.692  1.00  0.00    -0.387 C  
BRANCH   4   5
HETATM    5  C   UNL     1     -10.162   7.731  72.120  1.00  0.00    -0.269 C  
BRANCH   5   6
HETATM    6  C   UNL     1      -9.742   8.559  70.924  1.00  0.00    -0.231 C  
HETATM    7  C   UNL     1      -9.208   8.072  69.778  1.00  0.00    -0.149 C  
HETATM    8  C   UNL     1      -8.925   6.622  69.687  1.00  0.00    -0.142 A  
HETATM    9  C   UNL     1      -9.961   5.679  69.625  1.00  0.00    -0.267 A  
HETATM   10  C   UNL     1      -9.668   4.316  69.602  1.00  0.00    -0.284 A  
HETATM   11  C   UNL     1      -8.341   3.889  69.627  1.00  0.00    -0.078 A  
HETATM   12  C   UNL     1      -7.303   4.825  69.659  1.00  0.00    -0.055 A  
HETATM   13  C   UNL     1      -7.589   6.195  69.684  1.00  0.00    -0.093 A  
HETATM   14  C   UNL     1      -6.483   7.221  69.675  1.00  0.00    -0.036 C  
HETATM   15  C   UNL     1      -6.454   7.988  68.348  1.00  0.00    -0.058 C  
HETATM   16  C   UNL     1      -7.596   8.933  68.007  1.00  0.00    -0.093 A  
HETATM   17  C   UNL     1      -7.379   9.771  66.890  1.00  0.00    -0.091 A  
HETATM   18  C   UNL     1      -8.354  10.665  66.449  1.00  0.00    -0.151 A  
HETATM   19  C   UNL     1      -9.569  10.740  67.114  1.00  0.00    -0.185 A  
HETATM   20  C   UNL     1      -9.811   9.911  68.211  1.00  0.00    -0.165 A  
HETATM   21  C   UNL     1      -8.839   9.001  68.677  1.00  0.00    -0.137 A  
ENDBRANCH   5   6
ENDBRANCH   4   5
ENDBRANCH   2   4
TORSDOF 3
ENDMDL
MODEL      130
REMARK 921   NORMALIZED FREE ENERGY PREDICTED BY IDOCK:   -3.27 KCAL/MOL
REMARK 922        TOTAL FREE ENERGY PREDICTED BY IDOCK:   -4.34 KCAL/MOL
REMARK 923 INTER-LIGAND FREE ENERGY PREDICTED BY IDOCK:   -4.12 KCAL/MOL
REMARK 924 INTRA-LIGAND FREE ENERGY PREDICTED BY IDOCK:   -0.22 KCAL/MOL
REMARK 927      BINDING AFFINITY PREDICTED BY RF-SCORE:    0.00 PKD
ROOT
HETATM    1  C   UNL     1     -12.778  13.371  65.129  1.00  0.00    -0.399 C  
HETATM    2  N   UNL     1     -11.729  13.878  64.244  1.00  0.00    -0.396 NA 
HETATM    3  C   UNL     1     -11.124  15.078  64.828  1.00  0.00    -0.376 C  
ENDROOT
BRANCH   2   4
HETATM    4  C   UNL     1     -10.736  12.818  63.959  1.00  0.00    -0.426 C  
BRANCH   4   5
HETATM    5  C   UNL     1     -10.742  11.697  65.014  1.00  0.00    -0.351 C  
BRANCH   5   6
HETATM    6  C   UNL     1      -9.853  11.939  66.216  1.00  0.00    -0.246 C  
HETATM    7  C   UNL     1      -8.741  11.231  66.526  1.00  0.00    -0.178 C  
HETATM    8  C   UNL     1      -8.382  10.067  65.685  1.00  0.00    -0.148 A  
HETATM    9  C   UNL     1      -7.930  10.231  64.368  1.00  0.00    -0.135 A  
HETATM   10  C   UNL     1      -7.657   9.116  63.577  1.00  0.00    -0.109 A  
HETATM   11  C   UNL     1      -7.820   7.835  64.100  1.00  0.00    -0.133 A  
HETATM   12  C   UNL     1      -8.242   7.665  65.422  1.00  0.00    -0.137 A  
HETATM   13  C   UNL     1      -8.519   8.779  66.223  1.00  0.00    -0.130 A  
HETATM   14  C   UNL     1      -8.933   8.619  67.664  1.00  0.00    -0.141 C  
HETATM   15  C   UNL     1      -7.837   9.117  68.611  1.00  0.00    -0.097 C  
HETATM   16  C   UNL     1      -7.517  10.603  68.668  1.00  0.00    -0.098 A  
HETATM   17  C   UNL     1      -6.670  11.004  69.726  1.00  0.00    -0.136 A  
HETATM   18  C   UNL     1      -6.273  12.332  69.879  1.00  0.00    -0.110 A  
HETATM   19  C   UNL     1      -6.714  13.289  68.977  1.00  0.00    -0.107 A  
HETATM   20  C   UNL     1      -7.540  12.914  67.916  1.00  0.00    -0.138 A  
HETATM   21  C   UNL     1      -7.956  11.577  67.742  1.00  0.00    -0.128 A  
ENDBRANCH   5   6
ENDBRANCH   4   5
ENDBRANCH   2   4
TORSDOF 3
ENDMDL
MODEL      131
REMARK 921   NORMALIZED FREE ENERGY PREDICTED BY IDOCK:   -3.24 KCAL/MOL
REMARK 922        TOTAL FREE ENERGY PREDICTED BY IDOCK:   -4.31 KCAL/MOL
REMARK 923 INTER-LIGAND FREE ENERGY PREDICTED BY IDOCK:   -4.03 KCAL/MOL
REMARK 924 INTRA-LIGAND FREE ENERGY PREDICTED BY IDOCK:   -0.29 KCAL/MOL
REMARK 927      BINDING AFFINITY PREDICTED BY RF-SCORE:    0.00 PKD
ROOT
HETATM    1  C   UNL     1     -10.268  11.342  65.272  1.00  0.00    -0.270 C  
HETATM    2  N   UNL     1      -9.872   9.970  64.957  1.00  0.00    -0.323 NA 
HETATM    3  C   UNL     1      -8.565   9.970  64.295  1.00  0.00    -0.189 C  
ENDROOT
BRANCH   2   4
HETATM    4  C   UNL     1      -9.894   9.131  66.177  1.00  0.00    -0.293 C  
BRANCH   4   5
HETATM    5  C   UNL     1     -10.041   9.960  67.466  1.00  0.00    -0.244 C  
BRANCH   5   6
HETATM    6  C   UNL     1     -10.343   9.159  68.714  1.00  0.00    -0.235 C  
HETATM    7  C   UNL     1      -9.438   8.800  69.656  1.00  0.00    -0.170 C  
HETATM    8  C   UNL     1      -8.013   9.134  69.436  1.00  0.00    -0.097 A  
HETATM    9  C   UNL     1      -7.559  10.459  69.482  1.00  0.00    -0.158 A  
HETATM   10  C   UNL     1      -6.223  10.752  69.210  1.00  0.00    -0.052 A  
HETATM   11  C   UNL     1      -5.333   9.724  68.906  1.00  0.00    -0.036 A  
HETATM   12  C   UNL     1      -5.773   8.398  68.887  1.00  0.00    -0.039 A  
HETATM   13  C   UNL     1      -7.113   8.094  69.157  1.00  0.00    -0.061 A  
HETATM   14  C   UNL     1      -7.598   6.667  69.184  1.00  0.00    -0.100 C  
HETATM   15  C   UNL     1      -7.967   6.237  70.608  1.00  0.00    -0.112 C  
HETATM   16  C   UNL     1      -9.175   6.864  71.287  1.00  0.00    -0.157 A  
HETATM   17  C   UNL     1      -9.583   6.248  72.493  1.00  0.00    -0.146 A  
HETATM   18  C   UNL     1     -10.658   6.737  73.234  1.00  0.00    -0.335 A  
HETATM   19  C   UNL     1     -11.349   7.854  72.787  1.00  0.00    -0.453 A  
HETATM   20  C   UNL     1     -10.955   8.487  71.607  1.00  0.00    -0.362 A  
HETATM   21  C   UNL     1      -9.872   8.009  70.840  1.00  0.00    -0.195 A  
ENDBRANCH   5   6
ENDBRANCH   4   5
ENDBRANCH   2   4
TORSDOF 3
ENDMDL
MODEL      132
REMARK 921   NORMALIZED FREE ENERGY PREDICTED BY IDOCK:   -3.24 KCAL/MOL
REMARK 922        TOTAL FREE ENERGY PREDICTED BY IDOCK:   -4.30 KCAL/MOL
REMARK 923 INTER-LIGAND FREE ENERGY PREDICTED BY IDOCK:   -3.81 KCAL/MOL
REMARK 924 INTRA-LIGAND FREE ENERGY PREDICTED BY IDOCK:   -0.49 KCAL/MOL
REMARK 927      BINDING AFFINITY PREDICTED BY RF-SCORE:    0.00 PKD
ROOT
HETATM    1  C   UNL     1      -7.672  10.390  65.278  1.00  0.00    -0.124 C  
HETATM    2  N   UNL     1      -8.867  10.891  65.957  1.00  0.00    -0.183 NA 
HETATM    3  C   UNL     1      -9.965   9.934  65.801  1.00  0.00    -0.277 C  
ENDROOT
BRANCH   2   4
HETATM    4  C   UNL     1      -8.568  11.193  67.375  1.00  0.00    -0.137 C  
BRANCH   4   5
HETATM    5  C   UNL     1      -7.458  10.297  67.953  1.00  0.00    -0.088 C  
BRANCH   5   6
HETATM    6  C   UNL     1      -7.632   9.915  69.408  1.00  0.00    -0.113 C  
HETATM    7  C   UNL     1      -8.195   8.769  69.859  1.00  0.00    -0.118 C  
HETATM    8  C   UNL     1      -8.770   7.825  68.874  1.00  0.00    -0.135 A  
HETATM    9  C   UNL     1      -7.953   7.099  67.997  1.00  0.00    -0.119 A  
HETATM   10  C   UNL     1      -8.523   6.263  67.038  1.00  0.00    -0.108 A  
HETATM   11  C   UNL     1      -9.909   6.138  66.959  1.00  0.00    -0.180 A  
HETATM   12  C   UNL     1     -10.728   6.837  67.849  1.00  0.00    -0.320 A  
HETATM   13  C   UNL     1     -10.165   7.679  68.815  1.00  0.00    -0.210 A  
HETATM   14  C   UNL     1     -11.028   8.409  69.813  1.00  0.00    -0.130 C  
HETATM   15  C   UNL     1     -10.827   7.852  71.227  1.00  0.00    -0.263 C  
HETATM   16  C   UNL     1      -9.496   8.067  71.931  1.00  0.00    -0.240 A  
HETATM   17  C   UNL     1      -9.473   7.735  73.305  1.00  0.00    -0.344 A  
HETATM   18  C   UNL     1      -8.311   7.857  74.065  1.00  0.00    -0.310 A  
HETATM   19  C   UNL     1      -7.144   8.312  73.470  1.00  0.00    -0.158 A  
HETATM   20  C   UNL     1      -7.139   8.632  72.110  1.00  0.00    -0.063 A  
HETATM   21  C   UNL     1      -8.303   8.519  71.321  1.00  0.00    -0.193 A  
ENDBRANCH   5   6
ENDBRANCH   4   5
ENDBRANCH   2   4
TORSDOF 3
ENDMDL
MODEL      133
REMARK 921   NORMALIZED FREE ENERGY PREDICTED BY IDOCK:   -3.21 KCAL/MOL
REMARK 922        TOTAL FREE ENERGY PREDICTED BY IDOCK:   -4.28 KCAL/MOL
REMARK 923 INTER-LIGAND FREE ENERGY PREDICTED BY IDOCK:   -3.99 KCAL/MOL
REMARK 924 INTRA-LIGAND FREE ENERGY PREDICTED BY IDOCK:   -0.29 KCAL/MOL
REMARK 927      BINDING AFFINITY PREDICTED BY RF-SCORE:    0.00 PKD
ROOT
HETATM    1  C   UNL     1      -9.931   4.500  68.300  1.00  0.00    -0.028 C  
HETATM    2  N   UNL     1     -10.645   5.727  68.652  1.00  0.00    -0.236 NA 
HETATM    3  C   UNL     1     -10.120   6.262  69.911  1.00  0.00    -0.173 C  
ENDROOT
BRANCH   2   4
HETATM    4  C   UNL     1     -10.576   6.703  67.542  1.00  0.00    -0.281 C  
BRANCH   4   5
HETATM    5  C   UNL     1      -9.524   7.801  67.780  1.00  0.00    -0.163 C  
BRANCH   5   6
HETATM    6  C   UNL     1     -10.030   9.220  67.631  1.00  0.00    -0.245 C  
HETATM    7  C   UNL     1      -9.441  10.191  66.892  1.00  0.00    -0.203 C  
HETATM    8  C   UNL     1      -8.153   9.895  66.226  1.00  0.00    -0.114 A  
HETATM    9  C   UNL     1      -8.078   9.004  65.146  1.00  0.00    -0.130 A  
HETATM   10  C   UNL     1      -6.843   8.695  64.577  1.00  0.00    -0.069 A  
HETATM   11  C   UNL     1      -5.681   9.284  65.073  1.00  0.00    -0.058 A  
HETATM   12  C   UNL     1      -5.753  10.195  66.130  1.00  0.00    -0.065 A  
HETATM   13  C   UNL     1      -6.988  10.510  66.708  1.00  0.00    -0.104 A  
HETATM   14  C   UNL     1      -7.092  11.523  67.821  1.00  0.00    -0.079 C  
HETATM   15  C   UNL     1      -7.808  12.792  67.345  1.00  0.00    -0.172 C  
HETATM   16  C   UNL     1      -9.289  12.729  67.004  1.00  0.00    -0.229 A  
HETATM   17  C   UNL     1      -9.921  13.978  66.805  1.00  0.00    -0.268 A  
HETATM   18  C   UNL     1     -11.269  14.066  66.459  1.00  0.00    -0.326 A  
HETATM   19  C   UNL     1     -12.015  12.907  66.302  1.00  0.00    -0.472 A  
HETATM   20  C   UNL     1     -11.408  11.662  66.479  1.00  0.00    -0.331 A  
HETATM   21  C   UNL     1     -10.047  11.549  66.831  1.00  0.00    -0.241 A  
ENDBRANCH   5   6
ENDBRANCH   4   5
ENDBRANCH   2   4
TORSDOF 3
ENDMDL
MODEL      134
REMARK 921   NORMALIZED FREE ENERGY PREDICTED BY IDOCK:   -3.17 KCAL/MOL
REMARK 922        TOTAL FREE ENERGY PREDICTED BY IDOCK:   -4.23 KCAL/MOL
REMARK 923 INTER-LIGAND FREE ENERGY PREDICTED BY IDOCK:   -3.89 KCAL/MOL
REMARK 924 INTRA-LIGAND FREE ENERGY PREDICTED BY IDOCK:   -0.33 KCAL/MOL
REMARK 927      BINDING AFFINITY PREDICTED BY RF-SCORE:    0.00 PKD
ROOT
HETATM    1  C   UNL     1      -9.269   3.218  69.585  1.00  0.00    -0.151 C  
HETATM    2  N   UNL     1      -9.615   4.335  70.464  1.00  0.00    -0.181 NA 
HETATM    3  C   UNL     1      -9.900   3.836  71.812  1.00  0.00    -0.174 C  
ENDROOT
BRANCH   2   4
HETATM    4  C   UNL     1      -8.544   5.357  70.448  1.00  0.00    -0.124 C  
BRANCH   4   5
HETATM    5  C   UNL     1      -8.086   5.716  69.023  1.00  0.00    -0.097 C  
BRANCH   5   6
HETATM    6  C   UNL     1      -8.506   7.088  68.539  1.00  0.00    -0.121 C  
HETATM    7  C   UNL     1      -9.044   7.364  67.327  1.00  0.00    -0.135 C  
HETATM    8  C   UNL     1      -9.172   6.268  66.341  1.00  0.00    -0.173 A  
HETATM    9  C   UNL     1     -10.087   5.223  66.527  1.00  0.00    -0.260 A  
HETATM   10  C   UNL     1     -10.145   4.171  65.614  1.00  0.00    -0.189 A  
HETATM   11  C   UNL     1      -9.301   4.164  64.505  1.00  0.00    -0.162 A  
HETATM   12  C   UNL     1      -8.407   5.219  64.298  1.00  0.00    -0.134 A  
HETATM   13  C   UNL     1      -8.342   6.279  65.210  1.00  0.00    -0.138 A  
HETATM   14  C   UNL     1      -7.415   7.447  64.982  1.00  0.00    -0.085 C  
HETATM   15  C   UNL     1      -8.204   8.721  64.665  1.00  0.00    -0.166 C  
HETATM   16  C   UNL     1      -9.057   9.362  65.749  1.00  0.00    -0.249 A  
HETATM   17  C   UNL     1      -9.556  10.649  65.450  1.00  0.00    -0.282 A  
HETATM   18  C   UNL     1     -10.375  11.340  66.343  1.00  0.00    -0.291 A  
HETATM   19  C   UNL     1     -10.715  10.757  67.555  1.00  0.00    -0.312 A  
HETATM   20  C   UNL     1     -10.244   9.479  67.866  1.00  0.00    -0.251 A  
HETATM   21  C   UNL     1      -9.413   8.763  66.980  1.00  0.00    -0.218 A  
ENDBRANCH   5   6
ENDBRANCH   4   5
ENDBRANCH   2   4
TORSDOF 3
ENDMDL
MODEL      135
REMARK 921   NORMALIZED FREE ENERGY PREDICTED BY IDOCK:   -3.15 KCAL/MOL
REMARK 922        TOTAL FREE ENERGY PREDICTED BY IDOCK:   -4.20 KCAL/MOL
REMARK 923 INTER-LIGAND FREE ENERGY PREDICTED BY IDOCK:   -3.73 KCAL/MOL
REMARK 924 INTRA-LIGAND FREE ENERGY PREDICTED BY IDOCK:   -0.47 KCAL/MOL
REMARK 927      BINDING AFFINITY PREDICTED BY RF-SCORE:    0.00 PKD
ROOT
HETATM    1  C   UNL     1      -9.256   9.628  65.186  1.00  0.00    -0.246 C  
HETATM    2  N   UNL     1      -8.353   8.528  65.527  1.00  0.00    -0.147 NA 
HETATM    3  C   UNL     1      -7.673   8.051  64.321  1.00  0.00    -0.128 C  
ENDROOT
BRANCH   2   4
HETATM    4  C   UNL     1      -7.409   8.945  66.589  1.00  0.00    -0.085 C  
BRANCH   4   5
HETATM    5  C   UNL     1      -6.843   7.753  67.382  1.00  0.00    -0.069 C  
BRANCH   5   6
HETATM    6  C   UNL     1      -7.548   7.456  68.688  1.00  0.00    -0.110 C  
HETATM    7  C   UNL     1      -8.468   6.481  68.881  1.00  0.00    -0.122 C  
HETATM    8  C   UNL     1      -8.901   5.673  67.719  1.00  0.00    -0.105 A  
HETATM    9  C   UNL     1      -8.035   4.757  67.106  1.00  0.00    -0.102 A  
HETATM   10  C   UNL     1      -8.446   4.052  65.975  1.00  0.00    -0.109 A  
HETATM   11  C   UNL     1      -9.727   4.248  65.461  1.00  0.00    -0.205 A  
HETATM   12  C   UNL     1     -10.605   5.138  66.086  1.00  0.00    -0.293 A  
HETATM   13  C   UNL     1     -10.200   5.850  67.221  1.00  0.00    -0.242 A  
HETATM   14  C   UNL     1     -11.146   6.782  67.935  1.00  0.00    -0.262 C  
HETATM   15  C   UNL     1     -11.533   6.228  69.310  1.00  0.00    -0.288 C  
HETATM   16  C   UNL     1     -10.480   6.148  70.405  1.00  0.00    -0.288 A  
HETATM   17  C   UNL     1     -10.968   5.852  71.698  1.00  0.00    -0.327 A  
HETATM   18  C   UNL     1     -10.109   5.720  72.789  1.00  0.00    -0.202 A  
HETATM   19  C   UNL     1      -8.743   5.880  72.612  1.00  0.00    -0.122 A  
HETATM   20  C   UNL     1      -8.237   6.158  71.340  1.00  0.00    -0.123 A  
HETATM   21  C   UNL     1      -9.086   6.298  70.222  1.00  0.00    -0.156 A  
ENDBRANCH   5   6
ENDBRANCH   4   5
ENDBRANCH   2   4
TORSDOF 3
ENDMDL
MODEL      136
REMARK 921   NORMALIZED FREE ENERGY PREDICTED BY IDOCK:   -3.15 KCAL/MOL
REMARK 922        TOTAL FREE ENERGY PREDICTED BY IDOCK:   -4.20 KCAL/MOL
REMARK 923 INTER-LIGAND FREE ENERGY PREDICTED BY IDOCK:   -3.90 KCAL/MOL
REMARK 924 INTRA-LIGAND FREE ENERGY PREDICTED BY IDOCK:   -0.29 KCAL/MOL
REMARK 927      BINDING AFFINITY PREDICTED BY RF-SCORE:    0.00 PKD
ROOT
HETATM    1  C   UNL     1      -9.904  20.380  67.505  1.00  0.00    -0.424 C  
HETATM    2  N   UNL     1      -9.601  19.062  68.063  1.00  0.00    -0.314 NA 
HETATM    3  C   UNL     1      -8.667  19.200  69.183  1.00  0.00    -0.101 C  
ENDROOT
BRANCH   2   4
HETATM    4  C   UNL     1     -10.849  18.361  68.442  1.00  0.00     0.184 C  
BRANCH   4   5
HETATM    5  C   UNL     1     -10.601  17.182  69.400  1.00  0.00    -0.161 C  
BRANCH   5   6
HETATM    6  C   UNL     1     -10.879  15.811  68.819  1.00  0.00    -0.274 C  
HETATM    7  C   UNL     1     -10.037  15.108  68.026  1.00  0.00    -0.222 C  
HETATM    8  C   UNL     1      -8.764  15.736  67.608  1.00  0.00    -0.178 A  
HETATM    9  C   UNL     1      -7.730  15.970  68.525  1.00  0.00    -0.158 A  
HETATM   10  C   UNL     1      -6.565  16.619  68.119  1.00  0.00    -0.148 A  
HETATM   11  C   UNL     1      -6.421  17.024  66.793  1.00  0.00    -0.258 A  
HETATM   12  C   UNL     1      -7.435  16.768  65.867  1.00  0.00     0.342 A  
HETATM   13  C   UNL     1      -8.609  16.118  66.267  1.00  0.00    -0.373 A  
HETATM   14  C   UNL     1      -9.697  15.793  65.274  1.00  0.00    -0.005 C  
HETATM   15  C   UNL     1      -9.798  14.282  65.043  1.00  0.00    -0.058 C  
HETATM   16  C   UNL     1     -10.293  13.386  66.168  1.00  0.00    -0.295 A  
HETATM   17  C   UNL     1     -10.581  12.052  65.802  1.00  0.00    -0.301 A  
HETATM   18  C   UNL     1     -11.014  11.116  66.740  1.00  0.00    -0.309 A  
HETATM   19  C   UNL     1     -11.168  11.492  68.066  1.00  0.00    -0.335 A  
HETATM   20  C   UNL     1     -10.876  12.802  68.454  1.00  0.00    -0.272 A  
HETATM   21  C   UNL     1     -10.438  13.766  67.522  1.00  0.00    -0.245 A  
ENDBRANCH   5   6
ENDBRANCH   4   5
ENDBRANCH   2   4
TORSDOF 3
ENDMDL
MODEL      137
REMARK 921   NORMALIZED FREE ENERGY PREDICTED BY IDOCK:   -3.14 KCAL/MOL
REMARK 922        TOTAL FREE ENERGY PREDICTED BY IDOCK:   -4.19 KCAL/MOL
REMARK 923 INTER-LIGAND FREE ENERGY PREDICTED BY IDOCK:   -3.87 KCAL/MOL
REMARK 924 INTRA-LIGAND FREE ENERGY PREDICTED BY IDOCK:   -0.31 KCAL/MOL
REMARK 927      BINDING AFFINITY PREDICTED BY RF-SCORE:    0.00 PKD
ROOT
HETATM    1  C   UNL     1     -13.561   7.237  71.467  1.00  0.00    -0.356 C  
HETATM    2  N   UNL     1     -12.722   8.360  71.886  1.00  0.00    -0.339 NA 
HETATM    3  C   UNL     1     -13.558   9.411  72.473  1.00  0.00    -0.370 C  
ENDROOT
BRANCH   2   4
HETATM    4  C   UNL     1     -11.657   7.897  72.803  1.00  0.00    -0.329 C  
BRANCH   4   5
HETATM    5  C   UNL     1     -10.250   8.023  72.192  1.00  0.00    -0.308 C  
BRANCH   5   6
HETATM    6  C   UNL     1     -10.082   9.144  71.188  1.00  0.00    -0.384 C  
HETATM    7  C   UNL     1      -9.101   9.226  70.258  1.00  0.00    -0.271 C  
HETATM    8  C   UNL     1      -8.043   8.190  70.248  1.00  0.00    -0.109 A  
HETATM    9  C   UNL     1      -8.319   6.871  69.864  1.00  0.00    -0.139 A  
HETATM   10  C   UNL     1      -7.319   5.900  69.922  1.00  0.00    -0.075 A  
HETATM   11  C   UNL     1      -6.038   6.246  70.348  1.00  0.00    -0.034 A  
HETATM   12  C   UNL     1      -5.749   7.566  70.704  1.00  0.00    -0.027 A  
HETATM   13  C   UNL     1      -6.747   8.546  70.650  1.00  0.00    -0.040 A  
HETATM   14  C   UNL     1      -6.446   9.985  70.988  1.00  0.00     0.064 C  
HETATM   15  C   UNL     1      -6.520  10.871  69.740  1.00  0.00    -0.128 C  
HETATM   16  C   UNL     1      -7.865  11.109  69.072  1.00  0.00    -0.103 A  
HETATM   17  C   UNL     1      -7.883  12.116  68.081  1.00  0.00    -0.147 A  
HETATM   18  C   UNL     1      -9.043  12.419  67.369  1.00  0.00    -0.183 A  
HETATM   19  C   UNL     1     -10.212  11.719  67.631  1.00  0.00    -0.216 A  
HETATM   20  C   UNL     1     -10.214  10.709  68.595  1.00  0.00    -0.196 A  
HETATM   21  C   UNL     1      -9.053  10.387  69.329  1.00  0.00    -0.188 A  
ENDBRANCH   5   6
ENDBRANCH   4   5
ENDBRANCH   2   4
TORSDOF 3
ENDMDL
MODEL      138
REMARK 921   NORMALIZED FREE ENERGY PREDICTED BY IDOCK:   -3.12 KCAL/MOL
REMARK 922        TOTAL FREE ENERGY PREDICTED BY IDOCK:   -4.17 KCAL/MOL
REMARK 923 INTER-LIGAND FREE ENERGY PREDICTED BY IDOCK:   -4.15 KCAL/MOL
REMARK 924 INTRA-LIGAND FREE ENERGY PREDICTED BY IDOCK:   -0.02 KCAL/MOL
REMARK 927      BINDING AFFINITY PREDICTED BY RF-SCORE:    0.00 PKD
ROOT
HETATM    1  C   UNL     1     -11.150  12.110  69.004  1.00  0.00    -0.237 C  
HETATM    2  N   UNL     1     -10.674  12.445  67.662  1.00  0.00    -0.216 NA 
HETATM    3  C   UNL     1      -9.210  12.481  67.648  1.00  0.00    -0.190 C  
ENDROOT
BRANCH   2   4
HETATM    4  C   UNL     1     -11.233  11.504  66.665  1.00  0.00    -0.271 C  
BRANCH   4   5
HETATM    5  C   UNL     1     -10.419  10.202  66.555  1.00  0.00    -0.236 C  
BRANCH   5   6
HETATM    6  C   UNL     1     -10.646   9.206  67.673  1.00  0.00    -0.307 C  
HETATM    7  C   UNL     1      -9.843   8.155  67.964  1.00  0.00    -0.200 C  
HETATM    8  C   UNL     1      -8.682   7.883  67.087  1.00  0.00    -0.133 A  
HETATM    9  C   UNL     1      -7.574   8.742  67.056  1.00  0.00    -0.088 A  
HETATM   10  C   UNL     1      -6.521   8.497  66.177  1.00  0.00    -0.053 A  
HETATM   11  C   UNL     1      -6.562   7.387  65.334  1.00  0.00    -0.044 A  
HETATM   12  C   UNL     1      -7.649   6.511  65.381  1.00  0.00    -0.089 A  
HETATM   13  C   UNL     1      -8.712   6.750  66.260  1.00  0.00    -0.152 A  
HETATM   14  C   UNL     1      -9.874   5.793  66.357  1.00  0.00    -0.174 C  
HETATM   15  C   UNL     1      -9.874   5.061  67.703  1.00  0.00    -0.202 C  
HETATM   16  C   UNL     1     -10.162   5.841  68.977  1.00  0.00    -0.282 A  
HETATM   17  C   UNL     1     -10.376   5.059  70.134  1.00  0.00    -0.306 A  
HETATM   18  C   UNL     1     -10.622   5.646  71.376  1.00  0.00    -0.317 A  
HETATM   19  C   UNL     1     -10.656   7.027  71.488  1.00  0.00    -0.232 A  
HETATM   20  C   UNL     1     -10.432   7.821  70.361  1.00  0.00    -0.221 A  
HETATM   21  C   UNL     1     -10.184   7.250  69.095  1.00  0.00    -0.197 A  
ENDBRANCH   5   6
ENDBRANCH   4   5
ENDBRANCH   2   4
TORSDOF 3
ENDMDL
MODEL      139
REMARK 921   NORMALIZED FREE ENERGY PREDICTED BY IDOCK:   -3.11 KCAL/MOL
REMARK 922        TOTAL FREE ENERGY PREDICTED BY IDOCK:   -4.15 KCAL/MOL
REMARK 923 INTER-LIGAND FREE ENERGY PREDICTED BY IDOCK:   -3.83 KCAL/MOL
REMARK 924 INTRA-LIGAND FREE ENERGY PREDICTED BY IDOCK:   -0.32 KCAL/MOL
REMARK 927      BINDING AFFINITY PREDICTED BY RF-SCORE:    0.00 PKD
ROOT
HETATM    1  C   UNL     1     -10.481  11.032  66.149  1.00  0.00    -0.244 C  
HETATM    2  N   UNL     1      -9.796  11.078  67.441  1.00  0.00    -0.172 NA 
HETATM    3  C   UNL     1      -9.614  12.471  67.856  1.00  0.00    -0.206 C  
ENDROOT
BRANCH   2   4
HETATM    4  C   UNL     1     -10.529  10.274  68.445  1.00  0.00    -0.200 C  
BRANCH   4   5
HETATM    5  C   UNL     1     -10.706   8.806  68.016  1.00  0.00    -0.151 C  
BRANCH   5   6
HETATM    6  C   UNL     1      -9.505   7.916  68.257  1.00  0.00    -0.149 C  
HETATM    7  C   UNL     1      -9.270   7.201  69.382  1.00  0.00    -0.148 C  
HETATM    8  C   UNL     1     -10.204   7.341  70.522  1.00  0.00    -0.203 A  
HETATM    9  C   UNL     1     -11.512   6.841  70.458  1.00  0.00    -0.413 A  
HETATM   10  C   UNL     1     -12.392   7.040  71.521  1.00  0.00    -0.420 A  
HETATM   11  C   UNL     1     -11.966   7.726  72.657  1.00  0.00    -0.257 A  
HETATM   12  C   UNL     1     -10.654   8.202  72.739  1.00  0.00    -0.386 A  
HETATM   13  C   UNL     1      -9.765   8.007  71.676  1.00  0.00    -0.222 A  
HETATM   14  C   UNL     1      -8.333   8.474  71.762  1.00  0.00    -0.221 C  
HETATM   15  C   UNL     1      -7.370   7.285  71.836  1.00  0.00    -0.080 C  
HETATM   16  C   UNL     1      -7.204   6.382  70.624  1.00  0.00    -0.074 A  
HETATM   17  C   UNL     1      -6.133   5.462  70.692  1.00  0.00    -0.022 A  
HETATM   18  C   UNL     1      -5.884   4.555  69.662  1.00  0.00    -0.017 A  
HETATM   19  C   UNL     1      -6.702   4.545  68.542  1.00  0.00    -0.047 A  
HETATM   20  C   UNL     1      -7.775   5.435  68.459  1.00  0.00    -0.084 A  
HETATM   21  C   UNL     1      -8.045   6.363  69.487  1.00  0.00    -0.118 A  
ENDBRANCH   5   6
ENDBRANCH   4   5
ENDBRANCH   2   4
TORSDOF 3
ENDMDL
MODEL      140
REMARK 921   NORMALIZED FREE ENERGY PREDICTED BY IDOCK:   -3.10 KCAL/MOL
REMARK 922        TOTAL FREE ENERGY PREDICTED BY IDOCK:   -4.14 KCAL/MOL
REMARK 923 INTER-LIGAND FREE ENERGY PREDICTED BY IDOCK:   -3.87 KCAL/MOL
REMARK 924 INTRA-LIGAND FREE ENERGY PREDICTED BY IDOCK:   -0.26 KCAL/MOL
REMARK 927      BINDING AFFINITY PREDICTED BY RF-SCORE:    0.00 PKD
ROOT
HETATM    1  C   UNL     1      -9.864  11.611  67.131  1.00  0.00    -0.188 C  
HETATM    2  N   UNL     1     -10.416  11.077  68.377  1.00  0.00    -0.171 NA 
HETATM    3  C   UNL     1     -11.868  10.932  68.254  1.00  0.00    -0.081 C  
ENDROOT
BRANCH   2   4
HETATM    4  C   UNL     1      -9.743   9.809  68.739  1.00  0.00    -0.161 C  
BRANCH   4   5
HETATM    5  C   UNL     1     -10.704   8.606  68.742  1.00  0.00    -0.098 C  
BRANCH   5   6
HETATM    6  C   UNL     1     -10.204   7.386  69.487  1.00  0.00    -0.204 C  
HETATM    7  C   UNL     1     -10.790   6.836  70.577  1.00  0.00    -0.301 C  
HETATM    8  C   UNL     1     -11.974   7.506  71.161  1.00  0.00    -0.334 A  
HETATM    9  C   UNL     1     -13.204   7.528  70.491  1.00  0.00     0.573 A  
HETATM   10  C   UNL     1     -14.287   8.218  71.034  1.00  0.00    -0.112 A  
HETATM   11  C   UNL     1     -14.150   8.877  72.255  1.00  0.00    -0.512 A  
HETATM   12  C   UNL     1     -12.934   8.834  72.943  1.00  0.00     0.037 A  
HETATM   13  C   UNL     1     -11.841   8.144  72.404  1.00  0.00    -0.448 A  
HETATM   14  C   UNL     1     -10.534   8.050  73.150  1.00  0.00    -0.252 C  
HETATM   15  C   UNL     1     -10.277   6.618  73.631  1.00  0.00    -0.325 C  
HETATM   16  C   UNL     1      -9.994   5.527  72.610  1.00  0.00    -0.194 A  
HETATM   17  C   UNL     1      -9.538   4.299  73.141  1.00  0.00    -0.147 A  
HETATM   18  C   UNL     1      -9.268   3.205  72.320  1.00  0.00    -0.157 A  
HETATM   19  C   UNL     1      -9.450   3.312  70.949  1.00  0.00    -0.234 A  
HETATM   20  C   UNL     1      -9.914   4.511  70.403  1.00  0.00    -0.284 A  
HETATM   21  C   UNL     1     -10.192   5.632  71.214  1.00  0.00    -0.279 A  
ENDBRANCH   5   6
ENDBRANCH   4   5
ENDBRANCH   2   4
TORSDOF 3
ENDMDL
MODEL      141
REMARK 921   NORMALIZED FREE ENERGY PREDICTED BY IDOCK:   -3.09 KCAL/MOL
REMARK 922        TOTAL FREE ENERGY PREDICTED BY IDOCK:   -4.13 KCAL/MOL
REMARK 923 INTER-LIGAND FREE ENERGY PREDICTED BY IDOCK:   -3.85 KCAL/MOL
REMARK 924 INTRA-LIGAND FREE ENERGY PREDICTED BY IDOCK:   -0.28 KCAL/MOL
REMARK 927      BINDING AFFINITY PREDICTED BY RF-SCORE:    0.00 PKD
ROOT
HETATM    1  C   UNL     1     -12.854  10.661  71.527  1.00  0.00    -0.462 C  
HETATM    2  N   UNL     1     -12.134  10.089  70.389  1.00  0.00    -0.236 NA 
HETATM    3  C   UNL     1     -11.585  11.163  69.557  1.00  0.00    -0.321 C  
ENDROOT
BRANCH   2   4
HETATM    4  C   UNL     1     -11.097   9.142  70.856  1.00  0.00    -0.291 C  
BRANCH   4   5
HETATM    5  C   UNL     1     -11.405   7.684  70.471  1.00  0.00    -0.266 C  
BRANCH   5   6
HETATM    6  C   UNL     1     -10.272   6.944  69.792  1.00  0.00    -0.210 C  
HETATM    7  C   UNL     1      -9.490   6.002  70.370  1.00  0.00    -0.187 C  
HETATM    8  C   UNL     1      -9.682   5.704  71.808  1.00  0.00    -0.192 A  
HETATM    9  C   UNL     1     -10.834   5.055  72.271  1.00  0.00    -0.207 A  
HETATM   10  C   UNL     1     -11.018   4.842  73.636  1.00  0.00    -0.391 A  
HETATM   11  C   UNL     1     -10.047   5.262  74.543  1.00  0.00    -0.286 A  
HETATM   12  C   UNL     1      -8.882   5.883  74.086  1.00  0.00    -0.123 A  
HETATM   13  C   UNL     1      -8.689   6.103  72.716  1.00  0.00    -0.123 A  
HETATM   14  C   UNL     1      -7.420   6.732  72.198  1.00  0.00    -0.093 C  
HETATM   15  C   UNL     1      -6.581   5.716  71.416  1.00  0.00    -0.045 C  
HETATM   16  C   UNL     1      -7.094   5.193  70.083  1.00  0.00    -0.054 A  
HETATM   17  C   UNL     1      -6.163   4.451  69.321  1.00  0.00    -0.028 A  
HETATM   18  C   UNL     1      -6.508   3.889  68.093  1.00  0.00    -0.038 A  
HETATM   19  C   UNL     1      -7.793   4.054  67.599  1.00  0.00    -0.090 A  
HETATM   20  C   UNL     1      -8.735   4.771  68.341  1.00  0.00    -0.112 A  
HETATM   21  C   UNL     1      -8.407   5.350  69.585  1.00  0.00    -0.100 A  
ENDBRANCH   5   6
ENDBRANCH   4   5
ENDBRANCH   2   4
TORSDOF 3
ENDMDL
MODEL      142
REMARK 921   NORMALIZED FREE ENERGY PREDICTED BY IDOCK:   -3.07 KCAL/MOL
REMARK 922        TOTAL FREE ENERGY PREDICTED BY IDOCK:   -4.11 KCAL/MOL
REMARK 923 INTER-LIGAND FREE ENERGY PREDICTED BY IDOCK:   -3.84 KCAL/MOL
REMARK 924 INTRA-LIGAND FREE ENERGY PREDICTED BY IDOCK:   -0.27 KCAL/MOL
REMARK 927      BINDING AFFINITY PREDICTED BY RF-SCORE:    0.00 PKD
ROOT
HETATM    1  C   UNL     1      -8.816  11.512  67.235  1.00  0.00    -0.160 C  
HETATM    2  N   UNL     1     -10.266  11.324  67.182  1.00  0.00    -0.196 NA 
HETATM    3  C   UNL     1     -10.651  10.803  65.868  1.00  0.00    -0.147 C  
ENDROOT
BRANCH   2   4
HETATM    4  C   UNL     1     -10.717  10.459  68.295  1.00  0.00    -0.235 C  
BRANCH   4   5
HETATM    5  C   UNL     1     -10.366   8.976  68.076  1.00  0.00    -0.275 C  
BRANCH   5   6
HETATM    6  C   UNL     1     -10.601   8.076  69.270  1.00  0.00    -0.193 C  
HETATM    7  C   UNL     1      -9.733   7.148  69.738  1.00  0.00    -0.165 C  
HETATM    8  C   UNL     1      -8.474   6.915  68.996  1.00  0.00    -0.128 A  
HETATM    9  C   UNL     1      -7.455   7.877  68.966  1.00  0.00    -0.097 A  
HETATM   10  C   UNL     1      -6.305   7.659  68.209  1.00  0.00    -0.041 A  
HETATM   11  C   UNL     1      -6.161   6.473  67.490  1.00  0.00    -0.024 A  
HETATM   12  C   UNL     1      -7.159   5.497  67.538  1.00  0.00    -0.074 A  
HETATM   13  C   UNL     1      -8.318   5.709  68.295  1.00  0.00    -0.102 A  
HETATM   14  C   UNL     1      -9.387   4.650  68.396  1.00  0.00    -0.186 C  
HETATM   15  C   UNL     1      -9.445   4.058  69.808  1.00  0.00    -0.265 C  
HETATM   16  C   UNL     1      -9.924   4.924  70.962  1.00  0.00    -0.282 A  
HETATM   17  C   UNL     1     -10.171   4.241  72.174  1.00  0.00    -0.234 A  
HETATM   18  C   UNL     1     -10.586   4.917  73.321  1.00  0.00    -0.289 A  
HETATM   19  C   UNL     1     -10.763   6.292  73.282  1.00  0.00    -0.284 A  
HETATM   20  C   UNL     1     -10.510   6.990  72.099  1.00  0.00    -0.234 A  
HETATM   21  C   UNL     1     -10.091   6.328  70.927  1.00  0.00    -0.227 A  
ENDBRANCH   5   6
ENDBRANCH   4   5
ENDBRANCH   2   4
TORSDOF 3
ENDMDL
MODEL      143
REMARK 921   NORMALIZED FREE ENERGY PREDICTED BY IDOCK:   -3.07 KCAL/MOL
REMARK 922        TOTAL FREE ENERGY PREDICTED BY IDOCK:   -4.10 KCAL/MOL
REMARK 923 INTER-LIGAND FREE ENERGY PREDICTED BY IDOCK:   -3.84 KCAL/MOL
REMARK 924 INTRA-LIGAND FREE ENERGY PREDICTED BY IDOCK:   -0.26 KCAL/MOL
REMARK 927      BINDING AFFINITY PREDICTED BY RF-SCORE:    0.00 PKD
ROOT
HETATM    1  C   UNL     1     -12.351   7.352  71.205  1.00  0.00    -0.346 C  
HETATM    2  N   UNL     1     -11.122   6.562  71.269  1.00  0.00    -0.261 NA 
HETATM    3  C   UNL     1     -11.141   5.709  72.460  1.00  0.00    -0.276 C  
ENDROOT
BRANCH   2   4
HETATM    4  C   UNL     1     -10.935   5.793  70.018  1.00  0.00    -0.311 C  
BRANCH   4   5
HETATM    5  C   UNL     1     -11.363   6.579  68.766  1.00  0.00    -0.237 C  
BRANCH   5   6
HETATM    6  C   UNL     1     -10.539   6.312  67.525  1.00  0.00    -0.348 C  
HETATM    7  C   UNL     1      -9.506   7.072  67.088  1.00  0.00    -0.176 C  
HETATM    8  C   UNL     1      -9.184   8.319  67.818  1.00  0.00    -0.144 A  
HETATM    9  C   UNL     1      -8.636   8.288  69.107  1.00  0.00    -0.138 A  
HETATM   10  C   UNL     1      -8.398   9.476  69.797  1.00  0.00    -0.170 A  
HETATM   11  C   UNL     1      -8.693  10.700  69.198  1.00  0.00    -0.135 A  
HETATM   12  C   UNL     1      -9.212  10.738  67.900  1.00  0.00    -0.151 A  
HETATM   13  C   UNL     1      -9.454   9.550  67.201  1.00  0.00    -0.187 A  
HETATM   14  C   UNL     1      -9.973   9.571  65.785  1.00  0.00    -0.316 C  
HETATM   15  C   UNL     1      -8.905   9.083  64.800  1.00  0.00    -0.165 C  
HETATM   16  C   UNL     1      -8.477   7.624  64.826  1.00  0.00     0.037 A  
HETATM   17  C   UNL     1      -7.673   7.206  63.742  1.00  0.00    -0.119 A  
HETATM   18  C   UNL     1      -7.186   5.902  63.654  1.00  0.00    -0.059 A  
HETATM   19  C   UNL     1      -7.492   4.986  64.650  1.00  0.00    -0.075 A  
HETATM   20  C   UNL     1      -8.273   5.381  65.738  1.00  0.00    -0.121 A  
HETATM   21  C   UNL     1      -8.778   6.693  65.847  1.00  0.00    -0.147 A  
ENDBRANCH   5   6
ENDBRANCH   4   5
ENDBRANCH   2   4
TORSDOF 3
ENDMDL
MODEL      144
REMARK 921   NORMALIZED FREE ENERGY PREDICTED BY IDOCK:   -3.02 KCAL/MOL
REMARK 922        TOTAL FREE ENERGY PREDICTED BY IDOCK:   -4.05 KCAL/MOL
REMARK 923 INTER-LIGAND FREE ENERGY PREDICTED BY IDOCK:   -3.77 KCAL/MOL
REMARK 924 INTRA-LIGAND FREE ENERGY PREDICTED BY IDOCK:   -0.28 KCAL/MOL
REMARK 927      BINDING AFFINITY PREDICTED BY RF-SCORE:    0.00 PKD
ROOT
HETATM    1  C   UNL     1     -11.984  14.912  64.155  1.00  0.00    -0.235 C  
HETATM    2  N   UNL     1     -12.776  13.683  64.216  1.00  0.00    -0.650 NA 
HETATM    3  C   UNL     1     -12.637  12.940  62.962  1.00  0.00     0.278 C  
ENDROOT
BRANCH   2   4
HETATM    4  C   UNL     1     -12.397  12.882  65.401  1.00  0.00    -0.485 C  
BRANCH   4   5
HETATM    5  C   UNL     1     -10.895  12.975  65.727  1.00  0.00    -0.292 C  
BRANCH   5   6
HETATM    6  C   UNL     1     -10.283  11.716  66.303  1.00  0.00    -0.262 C  
HETATM    7  C   UNL     1      -9.528  11.652  67.426  1.00  0.00    -0.171 C  
HETATM    8  C   UNL     1      -9.190  12.910  68.128  1.00  0.00    -0.212 A  
HETATM    9  C   UNL     1     -10.166  13.652  68.807  1.00  0.00    -0.155 A  
HETATM   10  C   UNL     1      -9.834  14.865  69.407  1.00  0.00    -0.127 A  
HETATM   11  C   UNL     1      -8.523  15.336  69.345  1.00  0.00    -0.231 A  
HETATM   12  C   UNL     1      -7.539  14.587  68.695  1.00  0.00    -0.131 A  
HETATM   13  C   UNL     1      -7.864  13.368  68.088  1.00  0.00    -0.145 A  
HETATM   14  C   UNL     1      -6.809  12.524  67.420  1.00  0.00    -0.145 C  
HETATM   15  C   UNL     1      -6.553  11.235  68.208  1.00  0.00    -0.058 C  
HETATM   16  C   UNL     1      -7.638  10.171  68.271  1.00  0.00    -0.087 A  
HETATM   17  C   UNL     1      -7.240   8.927  68.811  1.00  0.00    -0.075 A  
HETATM   18  C   UNL     1      -8.140   7.872  68.954  1.00  0.00    -0.125 A  
HETATM   19  C   UNL     1      -9.460   8.038  68.561  1.00  0.00    -0.143 A  
HETATM   20  C   UNL     1      -9.880   9.263  68.039  1.00  0.00    -0.191 A  
HETATM   21  C   UNL     1      -8.986  10.343  67.883  1.00  0.00    -0.128 A  
ENDBRANCH   5   6
ENDBRANCH   4   5
ENDBRANCH   2   4
TORSDOF 3
ENDMDL
MODEL      145
REMARK 921   NORMALIZED FREE ENERGY PREDICTED BY IDOCK:   -3.02 KCAL/MOL
REMARK 922        TOTAL FREE ENERGY PREDICTED BY IDOCK:   -4.05 KCAL/MOL
REMARK 923 INTER-LIGAND FREE ENERGY PREDICTED BY IDOCK:   -3.83 KCAL/MOL
REMARK 924 INTRA-LIGAND FREE ENERGY PREDICTED BY IDOCK:   -0.22 KCAL/MOL
REMARK 927      BINDING AFFINITY PREDICTED BY RF-SCORE:    0.00 PKD
ROOT
HETATM    1  C   UNL     1     -13.405  10.964  71.944  1.00  0.00    -0.324 C  
HETATM    2  N   UNL     1     -12.894   9.610  71.726  1.00  0.00    -0.388 NA 
HETATM    3  C   UNL     1     -13.974   8.637  71.905  1.00  0.00    -0.442 C  
ENDROOT
BRANCH   2   4
HETATM    4  C   UNL     1     -12.248   9.508  70.398  1.00  0.00     0.060 C  
BRANCH   4   5
HETATM    5  C   UNL     1     -11.166  10.581  70.179  1.00  0.00    -0.389 C  
BRANCH   5   6
HETATM    6  C   UNL     1     -10.516  10.570  68.811  1.00  0.00    -0.216 C  
HETATM    7  C   UNL     1      -9.322  10.007  68.512  1.00  0.00    -0.145 C  
HETATM    8  C   UNL     1      -8.522   9.414  69.608  1.00  0.00    -0.166 A  
HETATM    9  C   UNL     1      -8.931   8.241  70.258  1.00  0.00    -0.142 A  
HETATM   10  C   UNL     1      -8.192   7.738  71.327  1.00  0.00    -0.105 A  
HETATM   11  C   UNL     1      -7.035   8.394  71.744  1.00  0.00    -0.093 A  
HETATM   12  C   UNL     1      -6.606   9.547  71.082  1.00  0.00    -0.027 A  
HETATM   13  C   UNL     1      -7.342  10.061  70.007  1.00  0.00    -0.172 A  
HETATM   14  C   UNL     1      -6.873  11.278  69.252  1.00  0.00    -0.116 C  
HETATM   15  C   UNL     1      -6.430  10.909  67.832  1.00  0.00    -0.062 C  
HETATM   16  C   UNL     1      -7.469  10.446  66.823  1.00  0.00    -0.110 A  
HETATM   17  C   UNL     1      -7.021  10.355  65.486  1.00  0.00    -0.134 A  
HETATM   18  C   UNL     1      -7.861   9.916  64.463  1.00  0.00    -0.142 A  
HETATM   19  C   UNL     1      -9.168   9.557  64.754  1.00  0.00    -0.267 A  
HETATM   20  C   UNL     1      -9.629   9.625  66.070  1.00  0.00    -0.305 A  
HETATM   21  C   UNL     1      -8.798  10.068  67.121  1.00  0.00    -0.142 A  
ENDBRANCH   5   6
ENDBRANCH   4   5
ENDBRANCH   2   4
TORSDOF 3
ENDMDL
MODEL      146
REMARK 921   NORMALIZED FREE ENERGY PREDICTED BY IDOCK:   -3.01 KCAL/MOL
REMARK 922        TOTAL FREE ENERGY PREDICTED BY IDOCK:   -4.04 KCAL/MOL
REMARK 923 INTER-LIGAND FREE ENERGY PREDICTED BY IDOCK:   -3.77 KCAL/MOL
REMARK 924 INTRA-LIGAND FREE ENERGY PREDICTED BY IDOCK:   -0.27 KCAL/MOL
REMARK 927      BINDING AFFINITY PREDICTED BY RF-SCORE:    0.00 PKD
ROOT
HETATM    1  C   UNL     1      -7.829  10.363  64.474  1.00  0.00    -0.066 C  
HETATM    2  N   UNL     1      -7.871   9.355  65.534  1.00  0.00    -0.102 NA 
HETATM    3  C   UNL     1      -7.376   9.931  66.787  1.00  0.00    -0.095 C  
ENDROOT
BRANCH   2   4
HETATM    4  C   UNL     1      -9.235   8.794  65.662  1.00  0.00    -0.180 C  
BRANCH   4   5
HETATM    5  C   UNL     1      -9.276   7.521  66.526  1.00  0.00    -0.217 C  
BRANCH   5   6
HETATM    6  C   UNL     1      -9.914   7.689  67.889  1.00  0.00    -0.208 C  
HETATM    7  C   UNL     1      -9.421   7.203  69.053  1.00  0.00    -0.143 C  
HETATM    8  C   UNL     1      -8.200   6.368  69.014  1.00  0.00    -0.115 A  
HETATM    9  C   UNL     1      -6.951   6.917  68.695  1.00  0.00    -0.076 A  
HETATM   10  C   UNL     1      -5.827   6.097  68.605  1.00  0.00    -0.016 A  
HETATM   11  C   UNL     1      -5.942   4.729  68.846  1.00  0.00    -0.025 A  
HETATM   12  C   UNL     1      -7.179   4.180  69.194  1.00  0.00    -0.051 A  
HETATM   13  C   UNL     1      -8.313   4.996  69.286  1.00  0.00    -0.082 A  
HETATM   14  C   UNL     1      -9.648   4.431  69.701  1.00  0.00    -0.275 C  
HETATM   15  C   UNL     1     -10.057   4.945  71.086  1.00  0.00    -0.277 C  
HETATM   16  C   UNL     1     -10.407   6.414  71.263  1.00  0.00    -0.244 A  
HETATM   17  C   UNL     1     -10.996   6.754  72.502  1.00  0.00    -0.281 A  
HETATM   18  C   UNL     1     -11.341   8.070  72.809  1.00  0.00    -0.439 A  
HETATM   19  C   UNL     1     -11.102   9.076  71.885  1.00  0.00    -0.433 A  
HETATM   20  C   UNL     1     -10.508   8.766  70.660  1.00  0.00    -0.253 A  
HETATM   21  C   UNL     1     -10.153   7.442  70.326  1.00  0.00    -0.197 A  
ENDBRANCH   5   6
ENDBRANCH   4   5
ENDBRANCH   2   4
TORSDOF 3
ENDMDL
MODEL      147
REMARK 921   NORMALIZED FREE ENERGY PREDICTED BY IDOCK:   -2.96 KCAL/MOL
REMARK 922        TOTAL FREE ENERGY PREDICTED BY IDOCK:   -3.98 KCAL/MOL
REMARK 923 INTER-LIGAND FREE ENERGY PREDICTED BY IDOCK:   -3.73 KCAL/MOL
REMARK 924 INTRA-LIGAND FREE ENERGY PREDICTED BY IDOCK:   -0.25 KCAL/MOL
REMARK 927      BINDING AFFINITY PREDICTED BY RF-SCORE:    0.00 PKD
ROOT
HETATM    1  C   UNL     1      -8.569  11.134  66.905  1.00  0.00    -0.148 C  
HETATM    2  N   UNL     1      -9.824  10.389  67.006  1.00  0.00    -0.184 NA 
HETATM    3  C   UNL     1     -10.400  10.204  65.672  1.00  0.00    -0.140 C  
ENDROOT
BRANCH   2   4
HETATM    4  C   UNL     1      -9.611   9.109  67.718  1.00  0.00    -0.146 C  
BRANCH   4   5
HETATM    5  C   UNL     1     -10.530   7.984  67.209  1.00  0.00    -0.384 C  
BRANCH   5   6
HETATM    6  C   UNL     1      -9.856   6.644  67.009  1.00  0.00    -0.207 C  
HETATM    7  C   UNL     1      -9.604   5.737  67.984  1.00  0.00    -0.131 C  
HETATM    8  C   UNL     1      -9.931   6.089  69.384  1.00  0.00    -0.220 A  
HETATM    9  C   UNL     1     -11.260   6.208  69.814  1.00  0.00    -0.494 A  
HETATM   10  C   UNL     1     -11.541   6.601  71.122  1.00  0.00    -0.384 A  
HETATM   11  C   UNL     1     -10.498   6.863  72.009  1.00  0.00    -0.229 A  
HETATM   12  C   UNL     1      -9.171   6.719  71.594  1.00  0.00    -0.144 A  
HETATM   13  C   UNL     1      -8.880   6.326  70.282  1.00  0.00    -0.153 A  
HETATM   14  C   UNL     1      -7.457   6.122  69.828  1.00  0.00    -0.081 C  
HETATM   15  C   UNL     1      -7.169   4.639  69.566  1.00  0.00    -0.051 C  
HETATM   16  C   UNL     1      -7.846   3.943  68.395  1.00  0.00    -0.068 A  
HETATM   17  C   UNL     1      -7.351   2.657  68.083  1.00  0.00    -0.049 A  
HETATM   18  C   UNL     1      -7.899   1.894  67.053  1.00  0.00    -0.066 A  
HETATM   19  C   UNL     1      -8.956   2.400  66.311  1.00  0.00    -0.120 A  
HETATM   20  C   UNL     1      -9.472   3.663  66.611  1.00  0.00    -0.197 A  
HETATM   21  C   UNL     1      -8.932   4.453  67.648  1.00  0.00    -0.134 A  
ENDBRANCH   5   6
ENDBRANCH   4   5
ENDBRANCH   2   4
TORSDOF 3
ENDMDL
MODEL      148
REMARK 921   NORMALIZED FREE ENERGY PREDICTED BY IDOCK:   -2.86 KCAL/MOL
REMARK 922        TOTAL FREE ENERGY PREDICTED BY IDOCK:   -3.86 KCAL/MOL
REMARK 923 INTER-LIGAND FREE ENERGY PREDICTED BY IDOCK:   -3.57 KCAL/MOL
REMARK 924 INTRA-LIGAND FREE ENERGY PREDICTED BY IDOCK:   -0.29 KCAL/MOL
REMARK 927      BINDING AFFINITY PREDICTED BY RF-SCORE:    0.00 PKD
ROOT
HETATM    1  C   UNL     1      -8.335   4.221  63.520  1.00  0.00    -0.100 C  
HETATM    2  N   UNL     1      -8.154   4.401  64.961  1.00  0.00    -0.097 NA 
HETATM    3  C   UNL     1      -7.381   5.618  65.216  1.00  0.00    -0.072 C  
ENDROOT
BRANCH   2   4
HETATM    4  C   UNL     1      -9.464   4.400  65.650  1.00  0.00    -0.175 C  
BRANCH   4   5
HETATM    5  C   UNL     1      -9.387   3.819  67.074  1.00  0.00    -0.219 C  
BRANCH   5   6
HETATM    6  C   UNL     1     -10.129   4.608  68.132  1.00  0.00    -0.072 C  
HETATM    7  C   UNL     1      -9.650   4.919  69.360  1.00  0.00    -0.239 C  
HETATM    8  C   UNL     1      -8.326   4.392  69.762  1.00  0.00    -0.075 A  
HETATM    9  C   UNL     1      -7.146   4.856  69.166  1.00  0.00    -0.052 A  
HETATM   10  C   UNL     1      -5.917   4.300  69.518  1.00  0.00    -0.022 A  
HETATM   11  C   UNL     1      -5.860   3.288  70.476  1.00  0.00    -0.018 A  
HETATM   12  C   UNL     1      -7.031   2.842  71.095  1.00  0.00    -0.032 A  
HETATM   13  C   UNL     1      -8.269   3.395  70.746  1.00  0.00    -0.074 A  
HETATM   14  C   UNL     1      -9.539   2.958  71.433  1.00  0.00    -0.223 C  
HETATM   15  C   UNL     1     -10.102   4.078  72.314  1.00  0.00    -0.240 C  
HETATM   16  C   UNL     1     -10.660   5.333  71.660  1.00  0.00    -0.261 A  
HETATM   17  C   UNL     1     -11.369   6.203  72.518  1.00  0.00    -0.328 A  
HETATM   18  C   UNL     1     -11.908   7.403  72.057  1.00  0.00    -0.335 A  
HETATM   19  C   UNL     1     -11.750   7.761  70.726  1.00  0.00    -0.242 A  
HETATM   20  C   UNL     1     -11.041   6.924  69.863  1.00  0.00    -0.333 A  
HETATM   21  C   UNL     1     -10.488   5.704  70.306  1.00  0.00    -0.363 A  
ENDBRANCH   5   6
ENDBRANCH   4   5
ENDBRANCH   2   4
TORSDOF 3
ENDMDL
MODEL      149
REMARK 921   NORMALIZED FREE ENERGY PREDICTED BY IDOCK:   -2.80 KCAL/MOL
REMARK 922        TOTAL FREE ENERGY PREDICTED BY IDOCK:   -3.79 KCAL/MOL
REMARK 923 INTER-LIGAND FREE ENERGY PREDICTED BY IDOCK:   -3.23 KCAL/MOL
REMARK 924 INTRA-LIGAND FREE ENERGY PREDICTED BY IDOCK:   -0.56 KCAL/MOL
REMARK 927      BINDING AFFINITY PREDICTED BY RF-SCORE:    0.00 PKD
ROOT
HETATM    1  C   UNL     1     -10.498  11.239  68.475  1.00  0.00    -0.197 C  
HETATM    2  N   UNL     1      -9.630  10.110  68.812  1.00  0.00    -0.162 NA 
HETATM    3  C   UNL     1      -8.678   9.874  67.725  1.00  0.00    -0.129 C  
ENDROOT
BRANCH   2   4
HETATM    4  C   UNL     1      -8.966  10.339  70.115  1.00  0.00     0.302 C  
BRANCH   4   5
HETATM    5  C   UNL     1      -8.013   9.195  70.505  1.00  0.00    -0.170 C  
BRANCH   5   6
HETATM    6  C   UNL     1      -8.544   8.247  71.561  1.00  0.00    -0.197 C  
HETATM    7  C   UNL     1      -9.114   7.042  71.320  1.00  0.00    -0.152 C  
HETATM    8  C   UNL     1      -9.322   6.622  69.916  1.00  0.00    -0.153 A  
HETATM    9  C   UNL     1      -8.241   6.295  69.086  1.00  0.00    -0.114 A  
HETATM   10  C   UNL     1      -8.459   5.961  67.750  1.00  0.00    -0.107 A  
HETATM   11  C   UNL     1      -9.757   5.939  67.241  1.00  0.00    -0.137 A  
HETATM   12  C   UNL     1     -10.841   6.235  68.072  1.00  0.00    -0.409 A  
HETATM   13  C   UNL     1     -10.631   6.573  69.414  1.00  0.00    -0.291 A  
HETATM   14  C   UNL     1     -11.789   6.853  70.338  1.00  0.00    -0.351 C  
HETATM   15  C   UNL     1     -11.935   5.748  71.390  1.00  0.00     0.423 C  
HETATM   16  C   UNL     1     -10.868   5.594  72.463  1.00  0.00    -0.299 A  
HETATM   17  C   UNL     1     -11.193   4.717  73.522  1.00  0.00    -0.392 A  
HETATM   18  C   UNL     1     -10.295   4.461  74.558  1.00  0.00    -0.300 A  
HETATM   19  C   UNL     1      -9.051   5.074  74.557  1.00  0.00    -0.114 A  
HETATM   20  C   UNL     1      -8.703   5.933  73.512  1.00  0.00    -0.122 A  
HETATM   21  C   UNL     1      -9.595   6.209  72.455  1.00  0.00    -0.159 A  
ENDBRANCH   5   6
ENDBRANCH   4   5
ENDBRANCH   2   4
TORSDOF 3
ENDMDL
MODEL      150
REMARK 921   NORMALIZED FREE ENERGY PREDICTED BY IDOCK:   -2.79 KCAL/MOL
REMARK 922        TOTAL FREE ENERGY PREDICTED BY IDOCK:   -3.78 KCAL/MOL
REMARK 923 INTER-LIGAND FREE ENERGY PREDICTED BY IDOCK:   -3.51 KCAL/MOL
REMARK 924 INTRA-LIGAND FREE ENERGY PREDICTED BY IDOCK:   -0.27 KCAL/MOL
REMARK 927      BINDING AFFINITY PREDICTED BY RF-SCORE:    0.00 PKD
ROOT
HETATM    1  C   UNL     1      -6.337  13.839  70.196  1.00  0.00    -0.060 C  
HETATM    2  N   UNL     1      -6.866  12.847  69.260  1.00  0.00    -0.064 NA 
HETATM    3  C   UNL     1      -6.575  13.258  67.884  1.00  0.00    -0.145 C  
ENDROOT
BRANCH   2   4
HETATM    4  C   UNL     1      -6.338  11.501  69.578  1.00  0.00    -0.116 C  
BRANCH   4   5
HETATM    5  C   UNL     1      -6.494  10.510  68.411  1.00  0.00    -0.055 C  
BRANCH   5   6
HETATM    6  C   UNL     1      -7.033   9.147  68.792  1.00  0.00    -0.062 C  
HETATM    7  C   UNL     1      -8.242   8.651  68.433  1.00  0.00    -0.122 C  
HETATM    8  C   UNL     1      -9.168   9.519  67.671  1.00  0.00    -0.138 A  
HETATM    9  C   UNL     1      -8.903   9.880  66.343  1.00  0.00    -0.159 A  
HETATM   10  C   UNL     1      -9.759  10.748  65.668  1.00  0.00    -0.287 A  
HETATM   11  C   UNL     1     -10.891  11.248  66.310  1.00  0.00    -0.296 A  
HETATM   12  C   UNL     1     -11.177  10.869  67.624  1.00  0.00    -0.379 A  
HETATM   13  C   UNL     1     -10.321   9.999  68.310  1.00  0.00    -0.224 A  
HETATM   14  C   UNL     1     -10.634   9.543  69.713  1.00  0.00    -0.257 C  
HETATM   15  C   UNL     1     -10.992   8.054  69.742  1.00  0.00    -0.138 C  
HETATM   16  C   UNL     1      -9.917   7.021  69.441  1.00  0.00    -0.165 A  
HETATM   17  C   UNL     1     -10.266   5.680  69.719  1.00  0.00    -0.321 A  
HETATM   18  C   UNL     1      -9.385   4.630  69.463  1.00  0.00    -0.208 A  
HETATM   19  C   UNL     1      -8.136   4.896  68.922  1.00  0.00    -0.083 A  
HETATM   20  C   UNL     1      -7.775   6.212  68.626  1.00  0.00    -0.100 A  
HETATM   21  C   UNL     1      -8.648   7.291  68.878  1.00  0.00    -0.129 A  
ENDBRANCH   5   6
ENDBRANCH   4   5
ENDBRANCH   2   4
TORSDOF 3
ENDMDL
MODEL      151
REMARK 921   NORMALIZED FREE ENERGY PREDICTED BY IDOCK:   -2.78 KCAL/MOL
REMARK 922        TOTAL FREE ENERGY PREDICTED BY IDOCK:   -3.76 KCAL/MOL
REMARK 923 INTER-LIGAND FREE ENERGY PREDICTED BY IDOCK:   -3.43 KCAL/MOL
REMARK 924 INTRA-LIGAND FREE ENERGY PREDICTED BY IDOCK:   -0.34 KCAL/MOL
REMARK 927      BINDING AFFINITY PREDICTED BY RF-SCORE:    0.00 PKD
ROOT
HETATM    1  C   UNL     1      -9.961   2.619  63.308  1.00  0.00    -0.116 C  
HETATM    2  N   UNL     1      -9.494   2.985  64.645  1.00  0.00    -0.150 NA 
HETATM    3  C   UNL     1      -8.130   2.491  64.847  1.00  0.00    -0.082 C  
ENDROOT
BRANCH   2   4
HETATM    4  C   UNL     1      -9.610   4.446  64.852  1.00  0.00    -0.154 C  
BRANCH   4   5
HETATM    5  C   UNL     1     -10.642   4.814  65.933  1.00  0.00    -0.290 C  
BRANCH   5   6
HETATM    6  C   UNL     1     -10.141   4.720  67.359  1.00  0.00    -0.177 C  
HETATM    7  C   UNL     1      -9.662   5.752  68.093  1.00  0.00    -0.146 C  
HETATM    8  C   UNL     1      -9.528   7.079  67.451  1.00  0.00    -0.155 A  
HETATM    9  C   UNL     1     -10.655   7.834  67.097  1.00  0.00    -0.401 A  
HETATM   10  C   UNL     1     -10.503   9.053  66.438  1.00  0.00    -0.110 A  
HETATM   11  C   UNL     1      -9.227   9.531  66.143  1.00  0.00    -0.226 A  
HETATM   12  C   UNL     1      -8.099   8.797  66.520  1.00  0.00    -0.103 A  
HETATM   13  C   UNL     1      -8.242   7.571  67.181  1.00  0.00    -0.114 A  
HETATM   14  C   UNL     1      -7.038   6.785  67.635  1.00  0.00    -0.085 C  
HETATM   15  C   UNL     1      -6.932   6.773  69.164  1.00  0.00    -0.078 C  
HETATM   16  C   UNL     1      -7.972   6.019  69.978  1.00  0.00    -0.109 A  
HETATM   17  C   UNL     1      -7.672   5.859  71.350  1.00  0.00    -0.107 A  
HETATM   18  C   UNL     1      -8.551   5.213  72.219  1.00  0.00    -0.125 A  
HETATM   19  C   UNL     1      -9.751   4.713  71.735  1.00  0.00    -0.230 A  
HETATM   20  C   UNL     1     -10.075   4.871  70.386  1.00  0.00    -0.316 A  
HETATM   21  C   UNL     1      -9.201   5.520  69.489  1.00  0.00    -0.151 A  
ENDBRANCH   5   6
ENDBRANCH   4   5
ENDBRANCH   2   4
TORSDOF 3
ENDMDL
MODEL      152
REMARK 921   NORMALIZED FREE ENERGY PREDICTED BY IDOCK:   -2.77 KCAL/MOL
REMARK 922        TOTAL FREE ENERGY PREDICTED BY IDOCK:   -3.76 KCAL/MOL
REMARK 923 INTER-LIGAND FREE ENERGY PREDICTED BY IDOCK:   -3.46 KCAL/MOL
REMARK 924 INTRA-LIGAND FREE ENERGY PREDICTED BY IDOCK:   -0.30 KCAL/MOL
REMARK 927      BINDING AFFINITY PREDICTED BY RF-SCORE:    0.00 PKD
ROOT
HETATM    1  C   UNL     1      -7.465   4.743  68.149  1.00  0.00    -0.074 C  
HETATM    2  N   UNL     1      -7.309   4.987  69.583  1.00  0.00    -0.056 NA 
HETATM    3  C   UNL     1      -5.887   5.106  69.915  1.00  0.00    -0.017 C  
ENDROOT
BRANCH   2   4
HETATM    4  C   UNL     1      -8.092   6.174  69.995  1.00  0.00    -0.119 C  
BRANCH   4   5
HETATM    5  C   UNL     1      -7.670   7.453  69.251  1.00  0.00    -0.107 C  
BRANCH   5   6
HETATM    6  C   UNL     1      -8.580   8.646  69.455  1.00  0.00    -0.127 C  
HETATM    7  C   UNL     1      -9.125   9.397  68.468  1.00  0.00    -0.131 C  
HETATM    8  C   UNL     1      -8.757   9.102  67.065  1.00  0.00    -0.131 A  
HETATM    9  C   UNL     1      -9.184   7.927  66.430  1.00  0.00    -0.241 A  
HETATM   10  C   UNL     1      -8.772   7.644  65.129  1.00  0.00     0.079 A  
HETATM   11  C   UNL     1      -7.945   8.538  64.451  1.00  0.00    -0.147 A  
HETATM   12  C   UNL     1      -7.539   9.724  65.068  1.00  0.00    -0.127 A  
HETATM   13  C   UNL     1      -7.947  10.016  66.375  1.00  0.00    -0.116 A  
HETATM   14  C   UNL     1      -7.556  11.311  67.042  1.00  0.00    -0.143 C  
HETATM   15  C   UNL     1      -8.773  12.222  67.231  1.00  0.00    -0.188 C  
HETATM   16  C   UNL     1      -9.861  11.820  68.215  1.00  0.00    -0.198 A  
HETATM   17  C   UNL     1     -10.820  12.818  68.503  1.00  0.00    -0.279 A  
HETATM   18  C   UNL     1     -11.888  12.575  69.366  1.00  0.00    -0.368 A  
HETATM   19  C   UNL     1     -12.023  11.328  69.959  1.00  0.00    -0.447 A  
HETATM   20  C   UNL     1     -11.096  10.323  69.677  1.00  0.00    -0.323 A  
HETATM   21  C   UNL     1     -10.007  10.546  68.809  1.00  0.00    -0.200 A  
ENDBRANCH   5   6
ENDBRANCH   4   5
ENDBRANCH   2   4
TORSDOF 3
ENDMDL
MODEL      153
REMARK 921   NORMALIZED FREE ENERGY PREDICTED BY IDOCK:   -2.76 KCAL/MOL
REMARK 922        TOTAL FREE ENERGY PREDICTED BY IDOCK:   -3.74 KCAL/MOL
REMARK 923 INTER-LIGAND FREE ENERGY PREDICTED BY IDOCK:   -3.54 KCAL/MOL
REMARK 924 INTRA-LIGAND FREE ENERGY PREDICTED BY IDOCK:   -0.20 KCAL/MOL
REMARK 927      BINDING AFFINITY PREDICTED BY RF-SCORE:    0.00 PKD
ROOT
HETATM    1  C   UNL     1     -10.413   4.566  65.584  1.00  0.00    -0.229 C  
HETATM    2  N   UNL     1      -9.740   4.100  66.797  1.00  0.00    -0.212 NA 
HETATM    3  C   UNL     1      -8.580   3.281  66.438  1.00  0.00    -0.121 C  
ENDROOT
BRANCH   2   4
HETATM    4  C   UNL     1      -9.386   5.245  67.665  1.00  0.00    -0.118 C  
BRANCH   4   5
HETATM    5  C   UNL     1     -10.423   5.493  68.775  1.00  0.00    -0.261 C  
BRANCH   5   6
HETATM    6  C   UNL     1      -9.844   5.830  70.133  1.00  0.00    -0.240 C  
HETATM    7  C   UNL     1      -9.395   7.049  70.516  1.00  0.00    -0.159 C  
HETATM    8  C   UNL     1      -9.383   8.146  69.522  1.00  0.00    -0.155 A  
HETATM    9  C   UNL     1     -10.573   8.715  69.049  1.00  0.00    -0.179 A  
HETATM   10  C   UNL     1     -10.536   9.704  68.067  1.00  0.00    -0.276 A  
HETATM   11  C   UNL     1      -9.311  10.140  67.564  1.00  0.00    -0.168 A  
HETATM   12  C   UNL     1      -8.119   9.598  68.053  1.00  0.00    -0.105 A  
HETATM   13  C   UNL     1      -8.147   8.603  69.038  1.00  0.00    -0.121 A  
HETATM   14  C   UNL     1      -6.872   8.036  69.610  1.00  0.00    -0.042 C  
HETATM   15  C   UNL     1      -6.687   8.462  71.070  1.00  0.00    -0.049 C  
HETATM   16  C   UNL     1      -7.631   7.919  72.132  1.00  0.00    -0.103 A  
HETATM   17  C   UNL     1      -7.250   8.168  73.470  1.00  0.00    -0.174 A  
HETATM   18  C   UNL     1      -8.039   7.751  74.542  1.00  0.00    -0.269 A  
HETATM   19  C   UNL     1      -9.226   7.077  74.300  1.00  0.00    -0.260 A  
HETATM   20  C   UNL     1      -9.630   6.833  72.986  1.00  0.00    -0.168 A  
HETATM   21  C   UNL     1      -8.848   7.243  71.886  1.00  0.00    -0.133 A  
ENDBRANCH   5   6
ENDBRANCH   4   5
ENDBRANCH   2   4
TORSDOF 3
ENDMDL
MODEL      154
REMARK 921   NORMALIZED FREE ENERGY PREDICTED BY IDOCK:   -2.70 KCAL/MOL
REMARK 922        TOTAL FREE ENERGY PREDICTED BY IDOCK:   -3.67 KCAL/MOL
REMARK 923 INTER-LIGAND FREE ENERGY PREDICTED BY IDOCK:   -3.21 KCAL/MOL
REMARK 924 INTRA-LIGAND FREE ENERGY PREDICTED BY IDOCK:   -0.46 KCAL/MOL
REMARK 927      BINDING AFFINITY PREDICTED BY RF-SCORE:    0.00 PKD
ROOT
HETATM    1  C   UNL     1     -11.287  10.243  68.895  1.00  0.00    -0.173 C  
HETATM    2  N   UNL     1     -10.082   9.620  69.442  1.00  0.00    -0.190 NA 
HETATM    3  C   UNL     1      -8.915  10.455  69.149  1.00  0.00    -0.179 C  
ENDROOT
BRANCH   2   4
HETATM    4  C   UNL     1     -10.247   9.356  70.889  1.00  0.00    -0.303 C  
BRANCH   4   5
HETATM    5  C   UNL     1      -9.206   8.362  71.435  1.00  0.00    -0.242 C  
BRANCH   5   6
HETATM    6  C   UNL     1      -9.438   6.915  71.055  1.00  0.00    -0.163 C  
HETATM    7  C   UNL     1      -8.784   6.244  70.077  1.00  0.00    -0.141 C  
HETATM    8  C   UNL     1      -7.813   6.981  69.238  1.00  0.00    -0.114 A  
HETATM    9  C   UNL     1      -6.595   7.437  69.761  1.00  0.00    -0.039 A  
HETATM   10  C   UNL     1      -5.725   8.181  68.966  1.00  0.00    -0.035 A  
HETATM   11  C   UNL     1      -6.059   8.462  67.643  1.00  0.00    -0.052 A  
HETATM   12  C   UNL     1      -7.258   7.986  67.106  1.00  0.00    -0.087 A  
HETATM   13  C   UNL     1      -8.139   7.238  67.897  1.00  0.00    -0.119 A  
HETATM   14  C   UNL     1      -9.417   6.678  67.325  1.00  0.00    -0.151 C  
HETATM   15  C   UNL     1      -9.353   5.150  67.228  1.00  0.00    -0.129 C  
HETATM   16  C   UNL     1      -9.335   4.321  68.503  1.00  0.00    -0.209 A  
HETATM   17  C   UNL     1      -9.515   2.930  68.327  1.00  0.00    -0.217 A  
HETATM   18  C   UNL     1      -9.490   2.049  69.408  1.00  0.00    -0.122 A  
HETATM   19  C   UNL     1      -9.284   2.539  70.689  1.00  0.00    -0.203 A  
HETATM   20  C   UNL     1      -9.089   3.908  70.885  1.00  0.00    -0.179 A  
HETATM   21  C   UNL     1      -9.112   4.818  69.807  1.00  0.00    -0.159 A  
ENDBRANCH   5   6
ENDBRANCH   4   5
ENDBRANCH   2   4
TORSDOF 3
ENDMDL
MODEL      155
REMARK 921   NORMALIZED FREE ENERGY PREDICTED BY IDOCK:   -2.70 KCAL/MOL
REMARK 922        TOTAL FREE ENERGY PREDICTED BY IDOCK:   -3.67 KCAL/MOL
REMARK 923 INTER-LIGAND FREE ENERGY PREDICTED BY IDOCK:   -3.56 KCAL/MOL
REMARK 924 INTRA-LIGAND FREE ENERGY PREDICTED BY IDOCK:   -0.11 KCAL/MOL
REMARK 927      BINDING AFFINITY PREDICTED BY RF-SCORE:    0.00 PKD
ROOT
HETATM    1  C   UNL     1      -9.907  16.156  65.616  1.00  0.00    -0.255 C  
HETATM    2  N   UNL     1      -8.628  16.509  66.233  1.00  0.00    -0.315 NA 
HETATM    3  C   UNL     1      -8.844  17.502  67.288  1.00  0.00    -0.231 C  
ENDROOT
BRANCH   2   4
HETATM    4  C   UNL     1      -7.937  15.295  66.724  1.00  0.00    -0.068 C  
BRANCH   4   5
HETATM    5  C   UNL     1      -8.483  14.806  68.078  1.00  0.00    -0.151 C  
BRANCH   5   6
HETATM    6  C   UNL     1      -7.891  13.505  68.578  1.00  0.00    -0.125 C  
HETATM    7  C   UNL     1      -8.338  12.266  68.264  1.00  0.00    -0.174 C  
HETATM    8  C   UNL     1      -9.554  12.139  67.430  1.00  0.00    -0.177 A  
HETATM    9  C   UNL     1      -9.549  12.498  66.075  1.00  0.00    -0.205 A  
HETATM   10  C   UNL     1     -10.723  12.427  65.327  1.00  0.00    -0.322 A  
HETATM   11  C   UNL     1     -11.903  11.985  65.923  1.00  0.00    -0.232 A  
HETATM   12  C   UNL     1     -11.908  11.599  67.266  1.00  0.00    -0.133 A  
HETATM   13  C   UNL     1     -10.734  11.668  68.025  1.00  0.00    -0.246 A  
HETATM   14  C   UNL     1     -10.708  11.214  69.463  1.00  0.00    -0.193 C  
HETATM   15  C   UNL     1      -9.876   9.937  69.623  1.00  0.00    -0.255 C  
HETATM   16  C   UNL     1      -8.371   9.994  69.413  1.00  0.00    -0.169 A  
HETATM   17  C   UNL     1      -7.657   8.841  69.807  1.00  0.00    -0.072 A  
HETATM   18  C   UNL     1      -6.275   8.747  69.644  1.00  0.00    -0.036 A  
HETATM   19  C   UNL     1      -5.576   9.805  69.082  1.00  0.00    -0.035 A  
HETATM   20  C   UNL     1      -6.263  10.949  68.671  1.00  0.00    -0.043 A  
HETATM   21  C   UNL     1      -7.660  11.067  68.827  1.00  0.00    -0.127 A  
ENDBRANCH   5   6
ENDBRANCH   4   5
ENDBRANCH   2   4
TORSDOF 3
ENDMDL
MODEL      156
REMARK 921   NORMALIZED FREE ENERGY PREDICTED BY IDOCK:   -2.69 KCAL/MOL
REMARK 922        TOTAL FREE ENERGY PREDICTED BY IDOCK:   -3.67 KCAL/MOL
REMARK 923 INTER-LIGAND FREE ENERGY PREDICTED BY IDOCK:   -3.47 KCAL/MOL
REMARK 924 INTRA-LIGAND FREE ENERGY PREDICTED BY IDOCK:   -0.20 KCAL/MOL
REMARK 927      BINDING AFFINITY PREDICTED BY RF-SCORE:    0.00 PKD
ROOT
HETATM    1  C   UNL     1      -9.074  12.702  68.075  1.00  0.00    -0.207 C  
HETATM    2  N   UNL     1      -9.998  11.634  68.456  1.00  0.00    -0.197 NA 
HETATM    3  C   UNL     1     -11.345  11.947  67.971  1.00  0.00    -0.288 C  
ENDROOT
BRANCH   2   4
HETATM    4  C   UNL     1      -9.506  10.325  67.973  1.00  0.00    -0.146 C  
BRANCH   4   5
HETATM    5  C   UNL     1     -10.646   9.362  67.598  1.00  0.00    -0.333 C  
BRANCH   5   6
HETATM    6  C   UNL     1     -10.214   8.107  66.869  1.00  0.00    -0.387 C  
HETATM    7  C   UNL     1      -9.662   7.013  67.446  1.00  0.00    -0.177 C  
HETATM    8  C   UNL     1      -9.370   7.047  68.897  1.00  0.00    -0.139 A  
HETATM    9  C   UNL     1     -10.399   7.049  69.848  1.00  0.00    -0.225 A  
HETATM   10  C   UNL     1     -10.099   7.143  71.206  1.00  0.00    -0.196 A  
HETATM   11  C   UNL     1      -8.770   7.221  71.621  1.00  0.00    -0.122 A  
HETATM   12  C   UNL     1      -7.738   7.189  70.680  1.00  0.00    -0.094 A  
HETATM   13  C   UNL     1      -8.031   7.096  69.314  1.00  0.00    -0.119 A  
HETATM   14  C   UNL     1      -6.931   7.017  68.285  1.00  0.00    -0.080 C  
HETATM   15  C   UNL     1      -6.888   5.632  67.631  1.00  0.00    -0.060 C  
HETATM   16  C   UNL     1      -8.030   5.198  66.725  1.00  0.00    -0.104 A  
HETATM   17  C   UNL     1      -7.802   4.018  65.981  1.00  0.00    -0.090 A  
HETATM   18  C   UNL     1      -8.776   3.491  65.133  1.00  0.00    -0.118 A  
HETATM   19  C   UNL     1     -10.000   4.131  65.010  1.00  0.00    -0.216 A  
HETATM   20  C   UNL     1     -10.253   5.291  65.747  1.00  0.00    -0.024 A  
HETATM   21  C   UNL     1      -9.282   5.843  66.609  1.00  0.00    -0.147 A  
ENDBRANCH   5   6
ENDBRANCH   4   5
ENDBRANCH   2   4
TORSDOF 3
ENDMDL
MODEL      157
REMARK 921   NORMALIZED FREE ENERGY PREDICTED BY IDOCK:   -2.69 KCAL/MOL
REMARK 922        TOTAL FREE ENERGY PREDICTED BY IDOCK:   -3.66 KCAL/MOL
REMARK 923 INTER-LIGAND FREE ENERGY PREDICTED BY IDOCK:   -3.40 KCAL/MOL
REMARK 924 INTRA-LIGAND FREE ENERGY PREDICTED BY IDOCK:   -0.26 KCAL/MOL
REMARK 927      BINDING AFFINITY PREDICTED BY RF-SCORE:    0.00 PKD
ROOT
HETATM    1  C   UNL     1     -13.403   7.855  71.613  1.00  0.00    -0.337 C  
HETATM    2  N   UNL     1     -12.507   8.843  71.013  1.00  0.00    -0.206 NA 
HETATM    3  C   UNL     1     -13.069  10.186  71.174  1.00  0.00    -0.392 C  
ENDROOT
BRANCH   2   4
HETATM    4  C   UNL     1     -11.146   8.721  71.582  1.00  0.00    -0.327 C  
BRANCH   4   5
HETATM    5  C   UNL     1     -10.062   8.556  70.502  1.00  0.00    -0.218 C  
BRANCH   5   6
HETATM    6  C   UNL     1      -9.529   9.850  69.923  1.00  0.00    -0.256 C  
HETATM    7  C   UNL     1      -8.755   9.957  68.816  1.00  0.00    -0.132 C  
HETATM    8  C   UNL     1      -8.309   8.718  68.139  1.00  0.00    -0.122 A  
HETATM    9  C   UNL     1      -9.213   7.899  67.449  1.00  0.00    -0.160 A  
HETATM   10  C   UNL     1      -8.778   6.706  66.872  1.00  0.00    -0.116 A  
HETATM   11  C   UNL     1      -7.439   6.333  66.970  1.00  0.00    -0.084 A  
HETATM   12  C   UNL     1      -6.527   7.160  67.633  1.00  0.00    -0.048 A  
HETATM   13  C   UNL     1      -6.955   8.359  68.215  1.00  0.00    -0.073 A  
HETATM   14  C   UNL     1      -5.980   9.286  68.896  1.00  0.00    -0.043 C  
HETATM   15  C   UNL     1      -5.801  10.581  68.097  1.00  0.00    -0.043 C  
HETATM   16  C   UNL     1      -6.958  11.562  67.995  1.00  0.00    -0.077 A  
HETATM   17  C   UNL     1      -6.640  12.825  67.448  1.00  0.00    -0.140 A  
HETATM   18  C   UNL     1      -7.611  13.809  67.270  1.00  0.00    -0.075 A  
HETATM   19  C   UNL     1      -8.924  13.552  67.635  1.00  0.00    -0.200 A  
HETATM   20  C   UNL     1      -9.266  12.306  68.164  1.00  0.00    -0.197 A  
HETATM   21  C   UNL     1      -8.300  11.295  68.355  1.00  0.00    -0.152 A  
ENDBRANCH   5   6
ENDBRANCH   4   5
ENDBRANCH   2   4
TORSDOF 3
ENDMDL
MODEL      158
REMARK 921   NORMALIZED FREE ENERGY PREDICTED BY IDOCK:   -2.67 KCAL/MOL
REMARK 922        TOTAL FREE ENERGY PREDICTED BY IDOCK:   -3.64 KCAL/MOL
REMARK 923 INTER-LIGAND FREE ENERGY PREDICTED BY IDOCK:   -3.26 KCAL/MOL
REMARK 924 INTRA-LIGAND FREE ENERGY PREDICTED BY IDOCK:   -0.38 KCAL/MOL
REMARK 927      BINDING AFFINITY PREDICTED BY RF-SCORE:    0.00 PKD
ROOT
HETATM    1  C   UNL     1      -8.503  12.546  68.015  1.00  0.00    -0.173 C  
HETATM    2  N   UNL     1      -8.206  11.114  67.995  1.00  0.00    -0.120 NA 
HETATM    3  C   UNL     1      -8.188  10.629  66.613  1.00  0.00    -0.134 C  
ENDROOT
BRANCH   2   4
HETATM    4  C   UNL     1      -6.943  10.837  68.715  1.00  0.00    -0.075 C  
BRANCH   4   5
HETATM    5  C   UNL     1      -7.139   9.904  69.924  1.00  0.00    -0.118 C  
BRANCH   5   6
HETATM    6  C   UNL     1      -7.112   8.424  69.606  1.00  0.00    -0.052 C  
HETATM    7  C   UNL     1      -8.099   7.541  69.887  1.00  0.00    -0.129 C  
HETATM    8  C   UNL     1      -9.283   8.014  70.639  1.00  0.00    -0.156 A  
HETATM    9  C   UNL     1     -10.211   8.892  70.061  1.00  0.00    -0.214 A  
HETATM   10  C   UNL     1     -11.284   9.372  70.811  1.00  0.00    -0.367 A  
HETATM   11  C   UNL     1     -11.444   8.966  72.135  1.00  0.00    -0.387 A  
HETATM   12  C   UNL     1     -10.539   8.069  72.708  1.00  0.00    -0.420 A  
HETATM   13  C   UNL     1      -9.458   7.583  71.963  1.00  0.00    -0.174 A  
HETATM   14  C   UNL     1      -8.496   6.580  72.548  1.00  0.00    -0.121 C  
HETATM   15  C   UNL     1      -8.643   5.214  71.869  1.00  0.00    -0.131 C  
HETATM   16  C   UNL     1      -8.226   5.054  70.415  1.00  0.00    -0.096 A  
HETATM   17  C   UNL     1      -8.171   3.724  69.941  1.00  0.00    -0.069 A  
HETATM   18  C   UNL     1      -7.831   3.434  68.620  1.00  0.00    -0.056 A  
HETATM   19  C   UNL     1      -7.540   4.468  67.743  1.00  0.00    -0.077 A  
HETATM   20  C   UNL     1      -7.603   5.791  68.185  1.00  0.00    -0.085 A  
HETATM   21  C   UNL     1      -7.942   6.108  69.517  1.00  0.00    -0.107 A  
ENDBRANCH   5   6
ENDBRANCH   4   5
ENDBRANCH   2   4
TORSDOF 3
ENDMDL
MODEL      159
REMARK 921   NORMALIZED FREE ENERGY PREDICTED BY IDOCK:   -2.67 KCAL/MOL
REMARK 922        TOTAL FREE ENERGY PREDICTED BY IDOCK:   -3.63 KCAL/MOL
REMARK 923 INTER-LIGAND FREE ENERGY PREDICTED BY IDOCK:   -3.37 KCAL/MOL
REMARK 924 INTRA-LIGAND FREE ENERGY PREDICTED BY IDOCK:   -0.27 KCAL/MOL
REMARK 927      BINDING AFFINITY PREDICTED BY RF-SCORE:    0.00 PKD
ROOT
HETATM    1  C   UNL     1      -9.839  12.089  65.581  1.00  0.00    -0.243 C  
HETATM    2  N   UNL     1     -10.543  12.024  66.862  1.00  0.00    -0.223 NA 
HETATM    3  C   UNL     1     -11.515  13.116  66.950  1.00  0.00    -0.341 C  
ENDROOT
BRANCH   2   4
HETATM    4  C   UNL     1     -11.161  10.692  67.046  1.00  0.00    -0.145 C  
BRANCH   4   5
HETATM    5  C   UNL     1     -10.460   9.592  66.227  1.00  0.00    -0.149 C  
BRANCH   5   6
HETATM    6  C   UNL     1     -10.400   8.234  66.893  1.00  0.00    -0.391 C  
HETATM    7  C   UNL     1      -9.327   7.408  66.898  1.00  0.00    -0.195 C  
HETATM    8  C   UNL     1      -8.124   7.801  66.131  1.00  0.00    -0.113 A  
HETATM    9  C   UNL     1      -7.319   8.875  66.535  1.00  0.00    -0.085 A  
HETATM   10  C   UNL     1      -6.227   9.263  65.761  1.00  0.00    -0.056 A  
HETATM   11  C   UNL     1      -5.925   8.573  64.588  1.00  0.00    -0.064 A  
HETATM   12  C   UNL     1      -6.706   7.483  64.195  1.00  0.00    -0.052 A  
HETATM   13  C   UNL     1      -7.805   7.087  64.965  1.00  0.00    -0.125 A  
HETATM   14  C   UNL     1      -8.634   5.887  64.582  1.00  0.00     0.036 C  
HETATM   15  C   UNL     1      -8.439   4.741  65.580  1.00  0.00    -0.127 C  
HETATM   16  C   UNL     1      -8.964   4.890  67.000  1.00  0.00    -0.109 A  
HETATM   17  C   UNL     1      -8.956   3.711  67.779  1.00  0.00    -0.165 A  
HETATM   18  C   UNL     1      -9.383   3.711  69.106  1.00  0.00    -0.244 A  
HETATM   19  C   UNL     1      -9.825   4.891  69.686  1.00  0.00    -0.288 A  
HETATM   20  C   UNL     1      -9.828   6.071  68.940  1.00  0.00    -0.173 A  
HETATM   21  C   UNL     1      -9.403   6.095  67.595  1.00  0.00    -0.112 A  
ENDBRANCH   5   6
ENDBRANCH   4   5
ENDBRANCH   2   4
TORSDOF 3
ENDMDL
MODEL      160
REMARK 921   NORMALIZED FREE ENERGY PREDICTED BY IDOCK:   -2.64 KCAL/MOL
REMARK 922        TOTAL FREE ENERGY PREDICTED BY IDOCK:   -3.60 KCAL/MOL
REMARK 923 INTER-LIGAND FREE ENERGY PREDICTED BY IDOCK:   -3.29 KCAL/MOL
REMARK 924 INTRA-LIGAND FREE ENERGY PREDICTED BY IDOCK:   -0.31 KCAL/MOL
REMARK 927      BINDING AFFINITY PREDICTED BY RF-SCORE:    0.00 PKD
ROOT
HETATM    1  C   UNL     1      -9.555  11.804  68.097  1.00  0.00    -0.193 C  
HETATM    2  N   UNL     1      -9.829  10.442  68.556  1.00  0.00    -0.161 NA 
HETATM    3  C   UNL     1     -10.346   9.639  67.445  1.00  0.00    -0.247 C  
ENDROOT
BRANCH   2   4
HETATM    4  C   UNL     1      -8.621   9.851  69.175  1.00  0.00    -0.157 C  
BRANCH   4   5
HETATM    5  C   UNL     1      -8.757   9.677  70.698  1.00  0.00    -0.073 C  
BRANCH   5   6
HETATM    6  C   UNL     1      -7.941   8.548  71.292  1.00  0.00    -0.158 C  
HETATM    7  C   UNL     1      -8.426   7.339  71.663  1.00  0.00    -0.114 C  
HETATM    8  C   UNL     1      -9.883   7.097  71.566  1.00  0.00    -0.176 A  
HETATM    9  C   UNL     1     -10.524   6.991  70.324  1.00  0.00    -0.227 A  
HETATM   10  C   UNL     1     -11.906   6.825  70.260  1.00  0.00    -0.359 A  
HETATM   11  C   UNL     1     -12.653   6.749  71.435  1.00  0.00    -0.348 A  
HETATM   12  C   UNL     1     -12.016   6.825  72.677  1.00  0.00     0.020 A  
HETATM   13  C   UNL     1     -10.628   6.993  72.750  1.00  0.00    -0.284 A  
HETATM   14  C   UNL     1      -9.917   7.033  74.079  1.00  0.00    -0.353 C  
HETATM   15  C   UNL     1      -9.049   5.786  74.278  1.00  0.00    -0.124 C  
HETATM   16  C   UNL     1      -7.818   5.588  73.407  1.00  0.00    -0.107 A  
HETATM   17  C   UNL     1      -6.949   4.548  73.809  1.00  0.00    -0.067 A  
HETATM   18  C   UNL     1      -5.798   4.238  73.085  1.00  0.00    -0.012 A  
HETATM   19  C   UNL     1      -5.490   4.961  71.942  1.00  0.00    -0.005 A  
HETATM   20  C   UNL     1      -6.341   5.984  71.518  1.00  0.00    -0.048 A  
HETATM   21  C   UNL     1      -7.510   6.316  72.235  1.00  0.00    -0.094 A  
ENDBRANCH   5   6
ENDBRANCH   4   5
ENDBRANCH   2   4
TORSDOF 3
ENDMDL
MODEL      161
REMARK 921   NORMALIZED FREE ENERGY PREDICTED BY IDOCK:   -2.63 KCAL/MOL
REMARK 922        TOTAL FREE ENERGY PREDICTED BY IDOCK:   -3.59 KCAL/MOL
REMARK 923 INTER-LIGAND FREE ENERGY PREDICTED BY IDOCK:   -3.31 KCAL/MOL
REMARK 924 INTRA-LIGAND FREE ENERGY PREDICTED BY IDOCK:   -0.28 KCAL/MOL
REMARK 927      BINDING AFFINITY PREDICTED BY RF-SCORE:    0.00 PKD
ROOT
HETATM    1  C   UNL     1     -13.382  12.126  71.974  1.00  0.00    -0.365 C  
HETATM    2  N   UNL     1     -12.785  10.914  71.413  1.00  0.00    -0.420 NA 
HETATM    3  C   UNL     1     -13.644   9.761  71.694  1.00  0.00    -0.291 C  
ENDROOT
BRANCH   2   4
HETATM    4  C   UNL     1     -12.518  11.089  69.967  1.00  0.00    -0.250 C  
BRANCH   4   5
HETATM    5  C   UNL     1     -11.067  10.747  69.584  1.00  0.00    -0.339 C  
BRANCH   5   6
HETATM    6  C   UNL     1     -10.119  11.927  69.539  1.00  0.00     0.651 C  
HETATM    7  C   UNL     1      -9.368  12.292  68.472  1.00  0.00    -0.101 C  
HETATM    8  C   UNL     1      -9.394  11.441  67.261  1.00  0.00    -0.173 A  
HETATM    9  C   UNL     1     -10.535  11.359  66.451  1.00  0.00    -0.299 A  
HETATM   10  C   UNL     1     -10.554  10.503  65.351  1.00  0.00    -0.143 A  
HETATM   11  C   UNL     1      -9.430   9.736  65.046  1.00  0.00    -0.337 A  
HETATM   12  C   UNL     1      -8.279   9.835  65.833  1.00  0.00    -0.117 A  
HETATM   13  C   UNL     1      -8.252  10.691  66.940  1.00  0.00    -0.123 A  
HETATM   14  C   UNL     1      -7.006  10.845  67.776  1.00  0.00    -0.077 C  
HETATM   15  C   UNL     1      -6.391  12.237  67.596  1.00  0.00    -0.122 C  
HETATM   16  C   UNL     1      -7.130  13.455  68.128  1.00  0.00    -0.116 A  
HETATM   17  C   UNL     1      -6.393  14.660  68.134  1.00  0.00    -0.144 A  
HETATM   18  C   UNL     1      -6.957  15.859  68.569  1.00  0.00    -0.122 A  
HETATM   19  C   UNL     1      -8.273  15.879  69.007  1.00  0.00    -0.234 A  
HETATM   20  C   UNL     1      -9.026  14.703  68.996  1.00  0.00    -0.093 A  
HETATM   21  C   UNL     1      -8.475  13.478  68.563  1.00  0.00    -0.092 A  
ENDBRANCH   5   6
ENDBRANCH   4   5
ENDBRANCH   2   4
TORSDOF 3
ENDMDL
MODEL      162
REMARK 921   NORMALIZED FREE ENERGY PREDICTED BY IDOCK:   -2.61 KCAL/MOL
REMARK 922        TOTAL FREE ENERGY PREDICTED BY IDOCK:   -3.56 KCAL/MOL
REMARK 923 INTER-LIGAND FREE ENERGY PREDICTED BY IDOCK:   -3.29 KCAL/MOL
REMARK 924 INTRA-LIGAND FREE ENERGY PREDICTED BY IDOCK:   -0.28 KCAL/MOL
REMARK 927      BINDING AFFINITY PREDICTED BY RF-SCORE:    0.00 PKD
ROOT
HETATM    1  C   UNL     1      -6.882   3.838  72.575  1.00  0.00    -0.041 C  
HETATM    2  N   UNL     1      -7.802   3.649  71.453  1.00  0.00    -0.059 NA 
HETATM    3  C   UNL     1      -8.866   2.717  71.836  1.00  0.00    -0.075 C  
ENDROOT
BRANCH   2   4
HETATM    4  C   UNL     1      -8.324   4.952  70.986  1.00  0.00    -0.108 C  
BRANCH   4   5
HETATM    5  C   UNL     1      -7.813   6.135  71.829  1.00  0.00    -0.102 C  
BRANCH   5   6
HETATM    6  C   UNL     1      -7.528   7.403  71.051  1.00  0.00    -0.074 C  
HETATM    7  C   UNL     1      -8.435   8.366  70.759  1.00  0.00    -0.151 C  
HETATM    8  C   UNL     1      -9.847   8.154  71.149  1.00  0.00    -0.207 A  
HETATM    9  C   UNL     1     -10.242   8.167  72.493  1.00  0.00    -0.383 A  
HETATM   10  C   UNL     1     -11.567   7.904  72.837  1.00  0.00    -0.303 A  
HETATM   11  C   UNL     1     -12.506   7.641  71.840  1.00  0.00    -0.338 A  
HETATM   12  C   UNL     1     -12.124   7.655  70.496  1.00  0.00     0.022 A  
HETATM   13  C   UNL     1     -10.795   7.917  70.142  1.00  0.00    -0.243 A  
HETATM   14  C   UNL     1     -10.372   7.981  68.696  1.00  0.00    -0.224 C  
HETATM   15  C   UNL     1     -10.002   9.412  68.292  1.00  0.00    -0.197 C  
HETATM   16  C   UNL     1      -8.759  10.057  68.884  1.00  0.00    -0.146 A  
HETATM   17  C   UNL     1      -8.361  11.274  68.287  1.00  0.00    -0.150 A  
HETATM   18  C   UNL     1      -7.255  11.987  68.749  1.00  0.00    -0.108 A  
HETATM   19  C   UNL     1      -6.523  11.499  69.821  1.00  0.00    -0.125 A  
HETATM   20  C   UNL     1      -6.906  10.306  70.437  1.00  0.00    -0.109 A  
HETATM   21  C   UNL     1      -8.019   9.567  69.985  1.00  0.00    -0.163 A  
ENDBRANCH   5   6
ENDBRANCH   4   5
ENDBRANCH   2   4
TORSDOF 3
ENDMDL
MODEL      163
REMARK 921   NORMALIZED FREE ENERGY PREDICTED BY IDOCK:   -2.58 KCAL/MOL
REMARK 922        TOTAL FREE ENERGY PREDICTED BY IDOCK:   -3.53 KCAL/MOL
REMARK 923 INTER-LIGAND FREE ENERGY PREDICTED BY IDOCK:   -3.26 KCAL/MOL
REMARK 924 INTRA-LIGAND FREE ENERGY PREDICTED BY IDOCK:   -0.26 KCAL/MOL
REMARK 927      BINDING AFFINITY PREDICTED BY RF-SCORE:    0.00 PKD
ROOT
HETATM    1  C   UNL     1     -12.990  10.744  71.494  1.00  0.00    -0.456 C  
HETATM    2  N   UNL     1     -12.610   9.357  71.760  1.00  0.00    -0.359 NA 
HETATM    3  C   UNL     1     -13.811   8.545  71.971  1.00  0.00    -0.419 C  
ENDROOT
BRANCH   2   4
HETATM    4  C   UNL     1     -11.753   8.837  70.670  1.00  0.00    -0.166 C  
BRANCH   4   5
HETATM    5  C   UNL     1     -10.257   8.846  71.035  1.00  0.00    -0.322 C  
BRANCH   5   6
HETATM    6  C   UNL     1      -9.741   7.569  71.664  1.00  0.00    -0.184 C  
HETATM    7  C   UNL     1      -8.688   6.843  71.218  1.00  0.00    -0.134 C  
HETATM    8  C   UNL     1      -8.013   7.262  69.969  1.00  0.00    -0.117 A  
HETATM    9  C   UNL     1      -7.250   8.436  69.912  1.00  0.00    -0.055 A  
HETATM   10  C   UNL     1      -6.676   8.841  68.707  1.00  0.00    -0.054 A  
HETATM   11  C   UNL     1      -6.849   8.069  67.560  1.00  0.00    -0.070 A  
HETATM   12  C   UNL     1      -7.585   6.883  67.617  1.00  0.00    -0.110 A  
HETATM   13  C   UNL     1      -8.166   6.469  68.822  1.00  0.00    -0.119 A  
HETATM   14  C   UNL     1      -8.927   5.170  68.915  1.00  0.00    -0.122 C  
HETATM   15  C   UNL     1      -8.169   4.148  69.767  1.00  0.00    -0.068 C  
HETATM   16  C   UNL     1      -8.016   4.388  71.262  1.00  0.00    -0.082 A  
HETATM   17  C   UNL     1      -7.517   3.295  72.006  1.00  0.00    -0.052 A  
HETATM   18  C   UNL     1      -7.301   3.387  73.380  1.00  0.00    -0.056 A  
HETATM   19  C   UNL     1      -7.577   4.574  74.042  1.00  0.00    -0.085 A  
HETATM   20  C   UNL     1      -8.056   5.672  73.324  1.00  0.00    -0.114 A  
HETATM   21  C   UNL     1      -8.285   5.602  71.934  1.00  0.00    -0.119 A  
ENDBRANCH   5   6
ENDBRANCH   4   5
ENDBRANCH   2   4
TORSDOF 3
ENDMDL
MODEL      164
REMARK 921   NORMALIZED FREE ENERGY PREDICTED BY IDOCK:   -2.54 KCAL/MOL
REMARK 922        TOTAL FREE ENERGY PREDICTED BY IDOCK:   -3.48 KCAL/MOL
REMARK 923 INTER-LIGAND FREE ENERGY PREDICTED BY IDOCK:   -3.20 KCAL/MOL
REMARK 924 INTRA-LIGAND FREE ENERGY PREDICTED BY IDOCK:   -0.28 KCAL/MOL
REMARK 927      BINDING AFFINITY PREDICTED BY RF-SCORE:    0.00 PKD
ROOT
HETATM    1  C   UNL     1     -12.477  12.292  69.942  1.00  0.00     0.084 C  
HETATM    2  N   UNL     1     -11.955  11.151  70.694  1.00  0.00    -0.362 NA 
HETATM    3  C   UNL     1     -12.959  10.689  71.656  1.00  0.00    -0.477 C  
ENDROOT
BRANCH   2   4
HETATM    4  C   UNL     1     -11.513  10.081  69.772  1.00  0.00    -0.184 C  
BRANCH   4   5
HETATM    5  C   UNL     1      -9.980   9.965  69.686  1.00  0.00    -0.255 C  
BRANCH   5   6
HETATM    6  C   UNL     1      -9.414   9.948  68.282  1.00  0.00    -0.147 C  
HETATM    7  C   UNL     1      -8.822   8.885  67.686  1.00  0.00    -0.137 C  
HETATM    8  C   UNL     1      -8.627   7.647  68.473  1.00  0.00    -0.129 A  
HETATM    9  C   UNL     1      -9.713   6.848  68.857  1.00  0.00    -0.142 A  
HETATM   10  C   UNL     1      -9.507   5.720  69.650  1.00  0.00    -0.174 A  
HETATM   11  C   UNL     1      -8.217   5.376  70.051  1.00  0.00    -0.095 A  
HETATM   12  C   UNL     1      -7.127   6.152  69.647  1.00  0.00    -0.073 A  
HETATM   13  C   UNL     1      -7.324   7.288  68.851  1.00  0.00    -0.095 A  
HETATM   14  C   UNL     1      -6.158   8.113  68.369  1.00  0.00    -0.045 C  
HETATM   15  C   UNL     1      -5.974   7.973  66.854  1.00  0.00    -0.052 C  
HETATM   16  C   UNL     1      -7.022   8.555  65.917  1.00  0.00    -0.071 A  
HETATM   17  C   UNL     1      -6.663   8.593  64.551  1.00  0.00    -0.066 A  
HETATM   18  C   UNL     1      -7.540   9.075  63.580  1.00  0.00    -0.111 A  
HETATM   19  C   UNL     1      -8.796   9.528  63.953  1.00  0.00    -0.240 A  
HETATM   20  C   UNL     1      -9.178   9.487  65.295  1.00  0.00    -0.307 A  
HETATM   21  C   UNL     1      -8.307   9.006  66.295  1.00  0.00    -0.122 A  
ENDBRANCH   5   6
ENDBRANCH   4   5
ENDBRANCH   2   4
TORSDOF 3
ENDMDL
MODEL      165
REMARK 921   NORMALIZED FREE ENERGY PREDICTED BY IDOCK:   -2.50 KCAL/MOL
REMARK 922        TOTAL FREE ENERGY PREDICTED BY IDOCK:   -3.43 KCAL/MOL
REMARK 923 INTER-LIGAND FREE ENERGY PREDICTED BY IDOCK:   -2.82 KCAL/MOL
REMARK 924 INTRA-LIGAND FREE ENERGY PREDICTED BY IDOCK:   -0.61 KCAL/MOL
REMARK 927      BINDING AFFINITY PREDICTED BY RF-SCORE:    0.00 PKD
ROOT
HETATM    1  C   UNL     1      -7.896   8.360  66.474  1.00  0.00    -0.092 C  
HETATM    2  N   UNL     1      -7.522   9.225  65.355  1.00  0.00    -0.096 NA 
HETATM    3  C   UNL     1      -8.635  10.118  65.023  1.00  0.00    -0.167 C  
ENDROOT
BRANCH   2   4
HETATM    4  C   UNL     1      -6.273   9.959  65.662  1.00  0.00    -0.078 C  
BRANCH   4   5
HETATM    5  C   UNL     1      -6.095  10.226  67.167  1.00  0.00    -0.055 C  
BRANCH   5   6
HETATM    6  C   UNL     1      -6.329  11.659  67.598  1.00  0.00    -0.072 C  
HETATM    7  C   UNL     1      -7.294  12.076  68.451  1.00  0.00    -0.096 C  
HETATM    8  C   UNL     1      -8.268  11.084  68.961  1.00  0.00    -0.101 A  
HETATM    9  C   UNL     1      -7.883  10.080  69.861  1.00  0.00    -0.185 A  
HETATM   10  C   UNL     1      -8.806   9.122  70.278  1.00  0.00    -0.238 A  
HETATM   11  C   UNL     1     -10.118   9.170  69.811  1.00  0.00    -0.211 A  
HETATM   12  C   UNL     1     -10.515  10.186  68.937  1.00  0.00    -0.230 A  
HETATM   13  C   UNL     1      -9.595  11.151  68.512  1.00  0.00    -0.193 A  
HETATM   14  C   UNL     1     -10.014  12.280  67.604  1.00  0.00    -0.199 C  
HETATM   15  C   UNL     1      -9.984  13.622  68.344  1.00  0.00    -0.235 C  
HETATM   16  C   UNL     1      -8.647  14.207  68.774  1.00  0.00    -0.067 A  
HETATM   17  C   UNL     1      -8.687  15.544  69.232  1.00  0.00    -0.260 A  
HETATM   18  C   UNL     1      -7.539  16.194  69.684  1.00  0.00     0.090 A  
HETATM   19  C   UNL     1      -6.326  15.523  69.689  1.00  0.00    -0.163 A  
HETATM   20  C   UNL     1      -6.265  14.197  69.254  1.00  0.00    -0.103 A  
HETATM   21  C   UNL     1      -7.412  13.519  68.791  1.00  0.00    -0.071 A  
ENDBRANCH   5   6
ENDBRANCH   4   5
ENDBRANCH   2   4
TORSDOF 3
ENDMDL
MODEL      166
REMARK 921   NORMALIZED FREE ENERGY PREDICTED BY IDOCK:   -2.48 KCAL/MOL
REMARK 922        TOTAL FREE ENERGY PREDICTED BY IDOCK:   -3.41 KCAL/MOL
REMARK 923 INTER-LIGAND FREE ENERGY PREDICTED BY IDOCK:   -3.14 KCAL/MOL
REMARK 924 INTRA-LIGAND FREE ENERGY PREDICTED BY IDOCK:   -0.27 KCAL/MOL
REMARK 927      BINDING AFFINITY PREDICTED BY RF-SCORE:    0.00 PKD
ROOT
HETATM    1  C   UNL     1      -7.042   6.286  74.339  1.00  0.00    -0.090 C  
HETATM    2  N   UNL     1      -7.209   5.153  73.429  1.00  0.00    -0.085 NA 
HETATM    3  C   UNL     1      -7.740   4.001  74.162  1.00  0.00    -0.079 C  
ENDROOT
BRANCH   2   4
HETATM    4  C   UNL     1      -8.055   5.535  72.276  1.00  0.00    -0.108 C  
BRANCH   4   5
HETATM    5  C   UNL     1      -7.230   5.951  71.045  1.00  0.00    -0.074 C  
BRANCH   5   6
HETATM    6  C   UNL     1      -7.687   5.352  69.731  1.00  0.00    -0.077 C  
HETATM    7  C   UNL     1      -8.363   6.010  68.760  1.00  0.00    -0.106 C  
HETATM    8  C   UNL     1      -8.774   7.411  69.004  1.00  0.00    -0.133 A  
HETATM    9  C   UNL     1      -7.832   8.446  69.073  1.00  0.00    -0.102 A  
HETATM   10  C   UNL     1      -8.239   9.747  69.365  1.00  0.00    -0.135 A  
HETATM   11  C   UNL     1      -9.589  10.023  69.577  1.00  0.00    -0.249 A  
HETATM   12  C   UNL     1     -10.537   9.000  69.481  1.00  0.00    -0.231 A  
HETATM   13  C   UNL     1     -10.136   7.691  69.189  1.00  0.00    -0.194 A  
HETATM   14  C   UNL     1     -11.147   6.582  69.038  1.00  0.00    -0.375 C  
HETATM   15  C   UNL     1     -11.234   6.109  67.583  1.00  0.00    -0.141 C  
HETATM   16  C   UNL     1     -10.053   5.377  66.965  1.00  0.00    -0.234 A  
HETATM   17  C   UNL     1     -10.300   4.772  65.711  1.00  0.00    -0.268 A  
HETATM   18  C   UNL     1      -9.298   4.093  65.019  1.00  0.00    -0.165 A  
HETATM   19  C   UNL     1      -8.025   4.005  65.563  1.00  0.00    -0.093 A  
HETATM   20  C   UNL     1      -7.754   4.608  66.793  1.00  0.00    -0.095 A  
HETATM   21  C   UNL     1      -8.752   5.298  67.513  1.00  0.00    -0.106 A  
ENDBRANCH   5   6
ENDBRANCH   4   5
ENDBRANCH   2   4
TORSDOF 3
ENDMDL
MODEL      167
REMARK 921   NORMALIZED FREE ENERGY PREDICTED BY IDOCK:   -2.44 KCAL/MOL
REMARK 922        TOTAL FREE ENERGY PREDICTED BY IDOCK:   -3.37 KCAL/MOL
REMARK 923 INTER-LIGAND FREE ENERGY PREDICTED BY IDOCK:   -3.19 KCAL/MOL
REMARK 924 INTRA-LIGAND FREE ENERGY PREDICTED BY IDOCK:   -0.18 KCAL/MOL
REMARK 927      BINDING AFFINITY PREDICTED BY RF-SCORE:    0.00 PKD
ROOT
HETATM    1  C   UNL     1      -9.272   9.366  70.325  1.00  0.00    -0.245 C  
HETATM    2  N   UNL     1     -10.061   8.157  70.088  1.00  0.00    -0.192 NA 
HETATM    3  C   UNL     1     -11.455   8.392  70.474  1.00  0.00    -0.179 C  
ENDROOT
BRANCH   2   4
HETATM    4  C   UNL     1      -9.924   7.715  68.683  1.00  0.00    -0.174 C  
BRANCH   4   5
HETATM    5  C   UNL     1     -10.854   6.539  68.335  1.00  0.00    -0.357 C  
BRANCH   5   6
HETATM    6  C   UNL     1     -10.677   5.968  66.944  1.00  0.00    -0.407 C  
HETATM    7  C   UNL     1      -9.682   5.133  66.558  1.00  0.00    -0.184 C  
HETATM    8  C   UNL     1      -8.620   4.795  67.532  1.00  0.00    -0.104 A  
HETATM    9  C   UNL     1      -8.884   3.991  68.649  1.00  0.00    -0.146 A  
HETATM   10  C   UNL     1      -7.881   3.738  69.584  1.00  0.00    -0.052 A  
HETATM   11  C   UNL     1      -6.608   4.275  69.401  1.00  0.00    -0.040 A  
HETATM   12  C   UNL     1      -6.330   5.054  68.274  1.00  0.00    -0.036 A  
HETATM   13  C   UNL     1      -7.332   5.313  67.331  1.00  0.00    -0.083 A  
HETATM   14  C   UNL     1      -7.041   6.115  66.087  1.00  0.00    -0.067 C  
HETATM   15  C   UNL     1      -7.101   5.231  64.836  1.00  0.00    -0.058 C  
HETATM   16  C   UNL     1      -8.437   4.660  64.389  1.00  0.00    -0.130 A  
HETATM   17  C   UNL     1      -8.445   4.060  63.109  1.00  0.00    -0.095 A  
HETATM   18  C   UNL     1      -9.596   3.472  62.586  1.00  0.00    -0.102 A  
HETATM   19  C   UNL     1     -10.765   3.467  63.332  1.00  0.00    -0.239 A  
HETATM   20  C   UNL     1     -10.777   4.041  64.605  1.00  0.00    -0.164 A  
HETATM   21  C   UNL     1      -9.626   4.644  65.154  1.00  0.00    -0.139 A  
ENDBRANCH   5   6
ENDBRANCH   4   5
ENDBRANCH   2   4
TORSDOF 3
ENDMDL
MODEL      168
REMARK 921   NORMALIZED FREE ENERGY PREDICTED BY IDOCK:   -2.29 KCAL/MOL
REMARK 922        TOTAL FREE ENERGY PREDICTED BY IDOCK:   -3.19 KCAL/MOL
REMARK 923 INTER-LIGAND FREE ENERGY PREDICTED BY IDOCK:   -2.97 KCAL/MOL
REMARK 924 INTRA-LIGAND FREE ENERGY PREDICTED BY IDOCK:   -0.22 KCAL/MOL
REMARK 927      BINDING AFFINITY PREDICTED BY RF-SCORE:    0.00 PKD
ROOT
HETATM    1  C   UNL     1      -8.695   5.974  69.628  1.00  0.00    -0.133 C  
HETATM    2  N   UNL     1      -9.947   6.559  70.109  1.00  0.00    -0.166 NA 
HETATM    3  C   UNL     1      -9.930   6.635  71.571  1.00  0.00    -0.175 C  
ENDROOT
BRANCH   2   4
HETATM    4  C   UNL     1     -10.183   7.873  69.470  1.00  0.00    -0.208 C  
BRANCH   4   5
HETATM    5  C   UNL     1      -8.907   8.473  68.853  1.00  0.00    -0.139 C  
BRANCH   5   6
HETATM    6  C   UNL     1      -8.967   8.717  67.360  1.00  0.00    -0.144 C  
HETATM    7  C   UNL     1      -8.704   9.894  66.744  1.00  0.00    -0.137 C  
HETATM    8  C   UNL     1      -8.408  11.081  67.578  1.00  0.00    -0.118 A  
HETATM    9  C   UNL     1      -7.216  11.179  68.309  1.00  0.00    -0.083 A  
HETATM   10  C   UNL     1      -6.988  12.279  69.135  1.00  0.00    -0.041 A  
HETATM   11  C   UNL     1      -7.942  13.293  69.222  1.00  0.00     0.545 A  
HETATM   12  C   UNL     1      -9.119  13.215  68.472  1.00  0.00    -0.053 A  
HETATM   13  C   UNL     1      -9.356  12.113  67.642  1.00  0.00    -0.187 A  
HETATM   14  C   UNL     1     -10.599  12.031  66.792  1.00  0.00    -0.260 C  
HETATM   15  C   UNL     1     -10.258  12.163  65.304  1.00  0.00    -0.304 C  
HETATM   16  C   UNL     1      -9.481  11.052  64.615  1.00  0.00    -0.270 A  
HETATM   17  C   UNL     1      -9.416  11.138  63.206  1.00  0.00    -0.346 A  
HETATM   18  C   UNL     1      -8.712  10.202  62.449  1.00  0.00    -0.238 A  
HETATM   19  C   UNL     1      -8.055   9.159  63.085  1.00  0.00    -0.164 A  
HETATM   20  C   UNL     1      -8.094   9.061  64.478  1.00  0.00    -0.143 A  
HETATM   21  C   UNL     1      -8.801   9.995  65.263  1.00  0.00    -0.205 A  
ENDBRANCH   5   6
ENDBRANCH   4   5
ENDBRANCH   2   4
TORSDOF 3
ENDMDL
MODEL      169
REMARK 921   NORMALIZED FREE ENERGY PREDICTED BY IDOCK:   -2.28 KCAL/MOL
REMARK 922        TOTAL FREE ENERGY PREDICTED BY IDOCK:   -3.18 KCAL/MOL
REMARK 923 INTER-LIGAND FREE ENERGY PREDICTED BY IDOCK:   -2.95 KCAL/MOL
REMARK 924 INTRA-LIGAND FREE ENERGY PREDICTED BY IDOCK:   -0.24 KCAL/MOL
REMARK 927      BINDING AFFINITY PREDICTED BY RF-SCORE:    0.00 PKD
ROOT
HETATM    1  C   UNL     1      -9.446  12.414  68.370  1.00  0.00    -0.169 C  
HETATM    2  N   UNL     1     -10.409  11.358  68.682  1.00  0.00    -0.198 NA 
HETATM    3  C   UNL     1     -11.397  11.253  67.606  1.00  0.00    -0.282 C  
ENDROOT
BRANCH   2   4
HETATM    4  C   UNL     1      -9.709  10.080  68.942  1.00  0.00    -0.181 C  
BRANCH   4   5
HETATM    5  C   UNL     1      -9.564   9.775  70.444  1.00  0.00    -0.223 C  
BRANCH   5   6
HETATM    6  C   UNL     1     -10.082   8.420  70.878  1.00  0.00    -0.234 C  
HETATM    7  C   UNL     1      -9.355   7.464  71.504  1.00  0.00    -0.154 C  
HETATM    8  C   UNL     1      -7.911   7.701  71.726  1.00  0.00    -0.092 A  
HETATM    9  C   UNL     1      -7.462   8.665  72.640  1.00  0.00     0.010 A  
HETATM   10  C   UNL     1      -6.097   8.911  72.785  1.00  0.00    -0.020 A  
HETATM   11  C   UNL     1      -5.175   8.188  72.030  1.00  0.00    -0.035 A  
HETATM   12  C   UNL     1      -5.615   7.206  71.139  1.00  0.00    -0.028 A  
HETATM   13  C   UNL     1      -6.984   6.953  70.986  1.00  0.00    -0.066 A  
HETATM   14  C   UNL     1      -7.477   5.868  70.062  1.00  0.00    -0.079 C  
HETATM   15  C   UNL     1      -8.088   4.706  70.853  1.00  0.00    -0.082 C  
HETATM   16  C   UNL     1      -9.391   4.921  71.608  1.00  0.00    -0.192 A  
HETATM   17  C   UNL     1     -10.004   3.751  72.110  1.00  0.00    -0.239 A  
HETATM   18  C   UNL     1     -11.187   3.806  72.846  1.00  0.00     0.026 A  
HETATM   19  C   UNL     1     -11.783   5.032  73.099  1.00  0.00    -0.211 A  
HETATM   20  C   UNL     1     -11.187   6.203  72.626  1.00  0.00    -0.312 A  
HETATM   21  C   UNL     1      -9.992   6.172  71.877  1.00  0.00    -0.187 A  
ENDBRANCH   5   6
ENDBRANCH   4   5
ENDBRANCH   2   4
TORSDOF 3
ENDMDL
MODEL      170
REMARK 921   NORMALIZED FREE ENERGY PREDICTED BY IDOCK:   -2.21 KCAL/MOL
REMARK 922        TOTAL FREE ENERGY PREDICTED BY IDOCK:   -3.09 KCAL/MOL
REMARK 923 INTER-LIGAND FREE ENERGY PREDICTED BY IDOCK:   -3.04 KCAL/MOL
REMARK 924 INTRA-LIGAND FREE ENERGY PREDICTED BY IDOCK:   -0.06 KCAL/MOL
REMARK 927      BINDING AFFINITY PREDICTED BY RF-SCORE:    0.00 PKD
ROOT
HETATM    1  C   UNL     1      -9.800  15.773  69.910  1.00  0.00    -0.147 C  
HETATM    2  N   UNL     1      -9.390  15.031  68.717  1.00  0.00    -0.194 NA 
HETATM    3  C   UNL     1      -9.505  15.889  67.535  1.00  0.00    -0.219 C  
ENDROOT
BRANCH   2   4
HETATM    4  C   UNL     1      -8.028  14.479  68.893  1.00  0.00    -0.126 C  
BRANCH   4   5
HETATM    5  C   UNL     1      -7.346  14.141  67.556  1.00  0.00    -0.193 C  
BRANCH   5   6
HETATM    6  C   UNL     1      -6.873  12.709  67.418  1.00  0.00    -0.141 C  
HETATM    7  C   UNL     1      -7.674  11.618  67.381  1.00  0.00    -0.147 C  
HETATM    8  C   UNL     1      -9.131  11.799  67.567  1.00  0.00    -0.175 A  
HETATM    9  C   UNL     1      -9.918  12.429  66.593  1.00  0.00    -0.236 A  
HETATM   10  C   UNL     1     -11.277  12.642  66.820  1.00  0.00    -0.347 A  
HETATM   11  C   UNL     1     -11.859  12.214  68.012  1.00  0.00    -0.351 A  
HETATM   12  C   UNL     1     -11.086  11.559  68.974  1.00  0.00    -0.302 A  
HETATM   13  C   UNL     1      -9.721  11.342  68.756  1.00  0.00    -0.184 A  
HETATM   14  C   UNL     1      -8.879  10.598  69.762  1.00  0.00     0.279 C  
HETATM   15  C   UNL     1      -8.444   9.234  69.215  1.00  0.00    -0.137 C  
HETATM   16  C   UNL     1      -7.458   9.173  68.058  1.00  0.00    -0.084 A  
HETATM   17  C   UNL     1      -6.932   7.893  67.774  1.00  0.00    -0.074 A  
HETATM   18  C   UNL     1      -6.040   7.688  66.722  1.00  0.00    -0.048 A  
HETATM   19  C   UNL     1      -5.656   8.759  65.928  1.00  0.00    -0.045 A  
HETATM   20  C   UNL     1      -6.175  10.031  66.182  1.00  0.00    -0.076 A  
HETATM   21  C   UNL     1      -7.076  10.262  67.242  1.00  0.00    -0.088 A  
ENDBRANCH   5   6
ENDBRANCH   4   5
ENDBRANCH   2   4
TORSDOF 3
ENDMDL
MODEL      171
REMARK 921   NORMALIZED FREE ENERGY PREDICTED BY IDOCK:   -2.19 KCAL/MOL
REMARK 922        TOTAL FREE ENERGY PREDICTED BY IDOCK:   -3.07 KCAL/MOL
REMARK 923 INTER-LIGAND FREE ENERGY PREDICTED BY IDOCK:   -2.87 KCAL/MOL
REMARK 924 INTRA-LIGAND FREE ENERGY PREDICTED BY IDOCK:   -0.20 KCAL/MOL
REMARK 927      BINDING AFFINITY PREDICTED BY RF-SCORE:    0.00 PKD
ROOT
HETATM    1  C   UNL     1      -9.995  11.020  68.781  1.00  0.00    -0.207 C  
HETATM    2  N   UNL     1     -10.117   9.594  69.080  1.00  0.00    -0.180 NA 
HETATM    3  C   UNL     1     -11.167   9.384  70.080  1.00  0.00    -0.219 C  
ENDROOT
BRANCH   2   4
HETATM    4  C   UNL     1     -10.348   8.822  67.839  1.00  0.00    -0.224 C  
BRANCH   4   5
HETATM    5  C   UNL     1     -10.484   7.310  68.095  1.00  0.00    -0.244 C  
BRANCH   5   6
HETATM    6  C   UNL     1     -10.304   6.432  66.874  1.00  0.00    -0.306 C  
HETATM    7  C   UNL     1      -9.115   6.068  66.336  1.00  0.00    -0.159 C  
HETATM    8  C   UNL     1      -7.872   6.623  66.919  1.00  0.00    -0.108 A  
HETATM    9  C   UNL     1      -7.431   6.242  68.193  1.00  0.00    -0.090 A  
HETATM   10  C   UNL     1      -6.291   6.825  68.744  1.00  0.00    -0.031 A  
HETATM   11  C   UNL     1      -5.578   7.780  68.020  1.00  0.00    -0.032 A  
HETATM   12  C   UNL     1      -5.997   8.143  66.737  1.00  0.00    -0.052 A  
HETATM   13  C   UNL     1      -7.141   7.563  66.177  1.00  0.00    -0.070 A  
HETATM   14  C   UNL     1      -7.584   7.909  64.778  1.00  0.00    -0.110 C  
HETATM   15  C   UNL     1      -7.400   6.718  63.831  1.00  0.00    -0.079 C  
HETATM   16  C   UNL     1      -8.270   5.482  64.008  1.00  0.00    -0.117 A  
HETATM   17  C   UNL     1      -8.203   4.536  62.961  1.00  0.00    -0.092 A  
HETATM   18  C   UNL     1      -8.926   3.345  63.007  1.00  0.00    -0.093 A  
HETATM   19  C   UNL     1      -9.731   3.072  64.102  1.00  0.00    -0.154 A  
HETATM   20  C   UNL     1      -9.801   3.985  65.156  1.00  0.00    -0.203 A  
HETATM   21  C   UNL     1      -9.081   5.198  65.131  1.00  0.00    -0.101 A  
ENDBRANCH   5   6
ENDBRANCH   4   5
ENDBRANCH   2   4
TORSDOF 3
ENDMDL
MODEL      172
REMARK 921   NORMALIZED FREE ENERGY PREDICTED BY IDOCK:   -2.10 KCAL/MOL
REMARK 922        TOTAL FREE ENERGY PREDICTED BY IDOCK:   -2.97 KCAL/MOL
REMARK 923 INTER-LIGAND FREE ENERGY PREDICTED BY IDOCK:   -2.70 KCAL/MOL
REMARK 924 INTRA-LIGAND FREE ENERGY PREDICTED BY IDOCK:   -0.27 KCAL/MOL
REMARK 927      BINDING AFFINITY PREDICTED BY RF-SCORE:    0.00 PKD
ROOT
HETATM    1  C   UNL     1      -7.723  14.087  68.295  1.00  0.00    -0.141 C  
HETATM    2  N   UNL     1      -8.173  12.698  68.205  1.00  0.00    -0.163 NA 
HETATM    3  C   UNL     1      -8.843  12.475  66.921  1.00  0.00    -0.203 C  
ENDROOT
BRANCH   2   4
HETATM    4  C   UNL     1      -7.040  11.772  68.427  1.00  0.00    -0.085 C  
BRANCH   4   5
HETATM    5  C   UNL     1      -6.927  10.697  67.330  1.00  0.00    -0.082 C  
BRANCH   5   6
HETATM    6  C   UNL     1      -6.570   9.311  67.823  1.00  0.00    -0.063 C  
HETATM    7  C   UNL     1      -7.400   8.477  68.493  1.00  0.00    -0.092 C  
HETATM    8  C   UNL     1      -8.749   8.961  68.860  1.00  0.00    -0.136 A  
HETATM    9  C   UNL     1      -9.733   9.185  67.887  1.00  0.00    -0.182 A  
HETATM   10  C   UNL     1     -10.976   9.700  68.252  1.00  0.00    -0.172 A  
HETATM   11  C   UNL     1     -11.248   9.980  69.591  1.00  0.00    -0.285 A  
HETATM   12  C   UNL     1     -10.281   9.732  70.569  1.00  0.00    -0.321 A  
HETATM   13  C   UNL     1      -9.030   9.216  70.211  1.00  0.00    -0.245 A  
HETATM   14  C   UNL     1      -7.989   8.900  71.256  1.00  0.00    -0.172 C  
HETATM   15  C   UNL     1      -7.771   7.388  71.377  1.00  0.00    -0.086 C  
HETATM   16  C   UNL     1      -7.123   6.633  70.227  1.00  0.00    -0.072 A  
HETATM   17  C   UNL     1      -6.745   5.301  70.509  1.00  0.00    -0.040 A  
HETATM   18  C   UNL     1      -6.167   4.485  69.537  1.00  0.00    -0.027 A  
HETATM   19  C   UNL     1      -5.955   4.982  68.260  1.00  0.00    -0.026 A  
HETATM   20  C   UNL     1      -6.334   6.291  67.954  1.00  0.00    -0.033 A  
HETATM   21  C   UNL     1      -6.918   7.135  68.921  1.00  0.00    -0.078 A  
ENDBRANCH   5   6
ENDBRANCH   4   5
ENDBRANCH   2   4
TORSDOF 3
ENDMDL
MODEL      173
REMARK 921   NORMALIZED FREE ENERGY PREDICTED BY IDOCK:   -2.00 KCAL/MOL
REMARK 922        TOTAL FREE ENERGY PREDICTED BY IDOCK:   -2.85 KCAL/MOL
REMARK 923 INTER-LIGAND FREE ENERGY PREDICTED BY IDOCK:   -2.62 KCAL/MOL
REMARK 924 INTRA-LIGAND FREE ENERGY PREDICTED BY IDOCK:   -0.23 KCAL/MOL
REMARK 927      BINDING AFFINITY PREDICTED BY RF-SCORE:    0.00 PKD
ROOT
HETATM    1  C   UNL     1      -7.619  10.246  65.379  1.00  0.00    -0.146 C  
HETATM    2  N   UNL     1      -8.744  10.153  66.310  1.00  0.00    -0.139 NA 
HETATM    3  C   UNL     1      -9.500  11.408  66.302  1.00  0.00    -0.209 C  
ENDROOT
BRANCH   2   4
HETATM    4  C   UNL     1      -9.585   8.977  65.992  1.00  0.00    -0.272 C  
BRANCH   4   5
HETATM    5  C   UNL     1      -8.802   7.653  66.050  1.00  0.00    -0.186 C  
BRANCH   5   6
HETATM    6  C   UNL     1      -8.948   6.877  67.342  1.00  0.00    -0.116 C  
HETATM    7  C   UNL     1      -8.301   5.726  67.645  1.00  0.00    -0.104 C  
HETATM    8  C   UNL     1      -7.432   5.108  66.618  1.00  0.00    -0.087 A  
HETATM    9  C   UNL     1      -6.224   5.704  66.229  1.00  0.00    -0.034 A  
HETATM   10  C   UNL     1      -5.455   5.134  65.216  1.00  0.00    -0.013 A  
HETATM   11  C   UNL     1      -5.880   3.959  64.597  1.00  0.00    -0.018 A  
HETATM   12  C   UNL     1      -7.068   3.344  65.000  1.00  0.00    -0.065 A  
HETATM   13  C   UNL     1      -7.848   3.911  66.016  1.00  0.00    -0.090 A  
HETATM   14  C   UNL     1      -9.110   3.240  66.495  1.00  0.00    -0.173 C  
HETATM   15  C   UNL     1      -8.941   2.701  67.920  1.00  0.00    -0.201 C  
HETATM   16  C   UNL     1      -8.793   3.679  69.075  1.00  0.00    -0.156 A  
HETATM   17  C   UNL     1      -8.880   3.113  70.367  1.00  0.00    -0.149 A  
HETATM   18  C   UNL     1      -8.733   3.889  71.516  1.00  0.00    -0.131 A  
HETATM   19  C   UNL     1      -8.495   5.251  71.398  1.00  0.00    -0.125 A  
HETATM   20  C   UNL     1      -8.390   5.830  70.132  1.00  0.00    -0.117 A  
HETATM   21  C   UNL     1      -8.537   5.064  68.956  1.00  0.00    -0.091 A  
ENDBRANCH   5   6
ENDBRANCH   4   5
ENDBRANCH   2   4
TORSDOF 3
ENDMDL
MODEL      174
REMARK 921   NORMALIZED FREE ENERGY PREDICTED BY IDOCK:   -1.91 KCAL/MOL
REMARK 922        TOTAL FREE ENERGY PREDICTED BY IDOCK:   -2.75 KCAL/MOL
REMARK 923 INTER-LIGAND FREE ENERGY PREDICTED BY IDOCK:   -3.53 KCAL/MOL
REMARK 924 INTRA-LIGAND FREE ENERGY PREDICTED BY IDOCK:    0.78 KCAL/MOL
REMARK 927      BINDING AFFINITY PREDICTED BY RF-SCORE:    0.00 PKD
ROOT
HETATM    1  C   UNL     1      -7.976   9.375  66.161  1.00  0.00    -0.110 C  
HETATM    2  N   UNL     1      -8.536   8.087  65.749  1.00  0.00    -0.140 NA 
HETATM    3  C   UNL     1      -7.634   7.004  66.148  1.00  0.00    -0.095 C  
ENDROOT
BRANCH   2   4
HETATM    4  C   UNL     1      -9.903   7.920  66.290  1.00  0.00    -0.069 C  
BRANCH   4   5
HETATM    5  C   UNL     1      -9.962   8.081  67.820  1.00  0.00    -0.224 C  
BRANCH   5   6
HETATM    6  C   UNL     1      -8.888   7.339  68.586  1.00  0.00    -0.129 C  
HETATM    7  C   UNL     1      -9.022   6.828  69.833  1.00  0.00    -0.144 C  
HETATM    8  C   UNL     1     -10.286   7.067  70.566  1.00  0.00    -0.218 A  
HETATM    9  C   UNL     1     -11.485   6.459  70.170  1.00  0.00    -0.484 A  
HETATM   10  C   UNL     1     -12.673   6.748  70.840  1.00  0.00    -0.127 A  
HETATM   11  C   UNL     1     -12.667   7.634  71.916  1.00  0.00    -0.320 A  
HETATM   12  C   UNL     1     -11.470   8.221  72.334  1.00  0.00    -0.463 A  
HETATM   13  C   UNL     1     -10.272   7.937  71.667  1.00  0.00    -0.239 A  
HETATM   14  C   UNL     1      -8.964   8.526  72.130  1.00  0.00    -0.300 C  
HETATM   15  C   UNL     1      -8.050   7.445  72.716  1.00  0.00    -0.124 C  
HETATM   16  C   UNL     1      -7.468   6.381  71.798  1.00  0.00    -0.093 A  
HETATM   17  C   UNL     1      -6.458   5.572  72.367  1.00  0.00    -0.053 A  
HETATM   18  C   UNL     1      -5.858   4.540  71.647  1.00  0.00    -0.013 A  
HETATM   19  C   UNL     1      -6.255   4.291  70.342  1.00  0.00    -0.019 A  
HETATM   20  C   UNL     1      -7.262   5.068  69.764  1.00  0.00    -0.055 A  
HETATM   21  C   UNL     1      -7.881   6.118  70.472  1.00  0.00    -0.106 A  
ENDBRANCH   5   6
ENDBRANCH   4   5
ENDBRANCH   2   4
TORSDOF 3
ENDMDL
MODEL      175
REMARK 921   NORMALIZED FREE ENERGY PREDICTED BY IDOCK:   -1.86 KCAL/MOL
REMARK 922        TOTAL FREE ENERGY PREDICTED BY IDOCK:   -2.68 KCAL/MOL
REMARK 923 INTER-LIGAND FREE ENERGY PREDICTED BY IDOCK:   -2.23 KCAL/MOL
REMARK 924 INTRA-LIGAND FREE ENERGY PREDICTED BY IDOCK:   -0.45 KCAL/MOL
REMARK 927      BINDING AFFINITY PREDICTED BY RF-SCORE:    0.00 PKD
ROOT
HETATM    1  C   UNL     1      -8.175   8.603  65.149  1.00  0.00    -0.151 C  
HETATM    2  N   UNL     1      -7.600   7.275  64.934  1.00  0.00    -0.095 NA 
HETATM    3  C   UNL     1      -7.337   7.074  63.507  1.00  0.00    -0.078 C  
ENDROOT
BRANCH   2   4
HETATM    4  C   UNL     1      -6.391   7.093  65.768  1.00  0.00    -0.044 C  
BRANCH   4   5
HETATM    5  C   UNL     1      -6.117   5.615  66.103  1.00  0.00    -0.033 C  
BRANCH   5   6
HETATM    6  C   UNL     1      -6.058   5.291  67.581  1.00  0.00    -0.030 C  
HETATM    7  C   UNL     1      -7.129   5.097  68.387  1.00  0.00    -0.062 C  
HETATM    8  C   UNL     1      -8.485   5.288  67.825  1.00  0.00    -0.105 A  
HETATM    9  C   UNL     1      -9.014   4.399  66.880  1.00  0.00    -0.122 A  
HETATM   10  C   UNL     1     -10.269   4.636  66.320  1.00  0.00    -0.306 A  
HETATM   11  C   UNL     1     -11.006   5.752  66.712  1.00  0.00    -0.239 A  
HETATM   12  C   UNL     1     -10.497   6.626  67.676  1.00  0.00    -0.282 A  
HETATM   13  C   UNL     1      -9.237   6.396  68.242  1.00  0.00    -0.112 A  
HETATM   14  C   UNL     1      -8.688   7.303  69.315  1.00  0.00    -0.137 C  
HETATM   15  C   UNL     1      -8.624   6.582  70.666  1.00  0.00    -0.139 C  
HETATM   16  C   UNL     1      -7.639   5.440  70.857  1.00  0.00    -0.089 A  
HETATM   17  C   UNL     1      -7.477   4.991  72.188  1.00  0.00    -0.092 A  
HETATM   18  C   UNL     1      -6.627   3.932  72.502  1.00  0.00    -0.028 A  
HETATM   19  C   UNL     1      -5.920   3.296  71.493  1.00  0.00    -0.014 A  
HETATM   20  C   UNL     1      -6.074   3.712  70.169  1.00  0.00    -0.023 A  
HETATM   21  C   UNL     1      -6.927   4.783  69.827  1.00  0.00    -0.053 A  
ENDBRANCH   5   6
ENDBRANCH   4   5
ENDBRANCH   2   4
TORSDOF 3
ENDMDL
MODEL      176
REMARK 921   NORMALIZED FREE ENERGY PREDICTED BY IDOCK:   -1.77 KCAL/MOL
REMARK 922        TOTAL FREE ENERGY PREDICTED BY IDOCK:   -2.58 KCAL/MOL
REMARK 923 INTER-LIGAND FREE ENERGY PREDICTED BY IDOCK:   -2.20 KCAL/MOL
REMARK 924 INTRA-LIGAND FREE ENERGY PREDICTED BY IDOCK:   -0.38 KCAL/MOL
REMARK 927      BINDING AFFINITY PREDICTED BY RF-SCORE:    0.00 PKD
ROOT
HETATM    1  C   UNL     1     -10.705   4.144  65.038  1.00  0.00    -0.095 C  
HETATM    2  N   UNL     1      -9.871   4.902  65.970  1.00  0.00    -0.186 NA 
HETATM    3  C   UNL     1      -8.497   4.967  65.466  1.00  0.00    -0.134 C  
ENDROOT
BRANCH   2   4
HETATM    4  C   UNL     1     -10.453   6.240  66.217  1.00  0.00     0.136 C  
BRANCH   4   5
HETATM    5  C   UNL     1     -10.687   6.521  67.712  1.00  0.00    -0.368 C  
BRANCH   5   6
HETATM    6  C   UNL     1      -9.739   7.524  68.334  1.00  0.00    -0.161 C  
HETATM    7  C   UNL     1      -8.906   7.279  69.373  1.00  0.00    -0.137 C  
HETATM    8  C   UNL     1      -8.960   5.954  70.030  1.00  0.00    -0.146 A  
HETATM    9  C   UNL     1      -8.512   4.798  69.377  1.00  0.00    -0.091 A  
HETATM   10  C   UNL     1      -8.631   3.553  69.994  1.00  0.00    -0.107 A  
HETATM   11  C   UNL     1      -9.184   3.459  71.270  1.00  0.00    -0.190 A  
HETATM   12  C   UNL     1      -9.606   4.612  71.938  1.00  0.00    -0.210 A  
HETATM   13  C   UNL     1      -9.492   5.865  71.326  1.00  0.00    -0.181 A  
HETATM   14  C   UNL     1      -9.900   7.125  72.047  1.00  0.00    -0.174 C  
HETATM   15  C   UNL     1      -8.679   7.985  72.388  1.00  0.00    -0.224 C  
HETATM   16  C   UNL     1      -7.898   8.652  71.266  1.00  0.00    -0.156 A  
HETATM   17  C   UNL     1      -6.942   9.609  71.674  1.00  0.00     0.517 A  
HETATM   18  C   UNL     1      -6.136  10.274  70.752  1.00  0.00    -0.071 A  
HETATM   19  C   UNL     1      -6.266   9.997  69.399  1.00  0.00    -0.045 A  
HETATM   20  C   UNL     1      -7.194   9.045  68.973  1.00  0.00    -0.072 A  
HETATM   21  C   UNL     1      -8.022   8.360  69.888  1.00  0.00    -0.107 A  
ENDBRANCH   5   6
ENDBRANCH   4   5
ENDBRANCH   2   4
TORSDOF 3
ENDMDL
MODEL      177
REMARK 921   NORMALIZED FREE ENERGY PREDICTED BY IDOCK:   -1.74 KCAL/MOL
REMARK 922        TOTAL FREE ENERGY PREDICTED BY IDOCK:   -2.55 KCAL/MOL
REMARK 923 INTER-LIGAND FREE ENERGY PREDICTED BY IDOCK:   -2.35 KCAL/MOL
REMARK 924 INTRA-LIGAND FREE ENERGY PREDICTED BY IDOCK:   -0.20 KCAL/MOL
REMARK 927      BINDING AFFINITY PREDICTED BY RF-SCORE:    0.00 PKD
ROOT
HETATM    1  C   UNL     1     -12.532  13.300  68.343  1.00  0.00     0.412 C  
HETATM    2  N   UNL     1     -11.354  12.697  68.968  1.00  0.00    -0.277 NA 
HETATM    3  C   UNL     1     -11.489  11.239  68.977  1.00  0.00    -0.302 C  
ENDROOT
BRANCH   2   4
HETATM    4  C   UNL     1     -10.119  13.153  68.292  1.00  0.00    -0.247 C  
BRANCH   4   5
HETATM    5  C   UNL     1      -9.051  12.049  68.196  1.00  0.00    -0.191 C  
BRANCH   5   6
HETATM    6  C   UNL     1      -8.800  11.516  66.801  1.00  0.00    -0.183 C  
HETATM    7  C   UNL     1      -8.116  10.385  66.503  1.00  0.00    -0.122 C  
HETATM    8  C   UNL     1      -7.482   9.627  67.604  1.00  0.00    -0.091 A  
HETATM    9  C   UNL     1      -8.251   8.933  68.549  1.00  0.00    -0.116 A  
HETATM   10  C   UNL     1      -7.631   8.277  69.612  1.00  0.00    -0.094 A  
HETATM   11  C   UNL     1      -6.242   8.299  69.729  1.00  0.00    -0.032 A  
HETATM   12  C   UNL     1      -5.469   8.965  68.774  1.00  0.00    -0.040 A  
HETATM   13  C   UNL     1      -6.083   9.627  67.704  1.00  0.00    -0.052 A  
HETATM   14  C   UNL     1      -5.264  10.314  66.640  1.00  0.00    -0.041 C  
HETATM   15  C   UNL     1      -5.371   9.576  65.301  1.00  0.00    -0.044 C  
HETATM   16  C   UNL     1      -6.695   9.574  64.553  1.00  0.00    -0.095 A  
HETATM   17  C   UNL     1      -6.646   9.080  63.230  1.00  0.00    -0.090 A  
HETATM   18  C   UNL     1      -7.792   8.995  62.440  1.00  0.00    -0.123 A  
HETATM   19  C   UNL     1      -9.014   9.401  62.956  1.00  0.00    -0.175 A  
HETATM   20  C   UNL     1      -9.089   9.878  64.266  1.00  0.00    -0.297 A  
HETATM   21  C   UNL     1      -7.943   9.975  65.083  1.00  0.00    -0.145 A  
ENDBRANCH   5   6
ENDBRANCH   4   5
ENDBRANCH   2   4
TORSDOF 3
ENDMDL
MODEL      178
REMARK 921   NORMALIZED FREE ENERGY PREDICTED BY IDOCK:   -1.57 KCAL/MOL
REMARK 922        TOTAL FREE ENERGY PREDICTED BY IDOCK:   -2.35 KCAL/MOL
REMARK 923 INTER-LIGAND FREE ENERGY PREDICTED BY IDOCK:   -4.09 KCAL/MOL
REMARK 924 INTRA-LIGAND FREE ENERGY PREDICTED BY IDOCK:    1.75 KCAL/MOL
REMARK 927      BINDING AFFINITY PREDICTED BY RF-SCORE:    0.00 PKD
ROOT
HETATM    1  C   UNL     1     -12.623  13.272  68.361  1.00  0.00     0.734 C  
HETATM    2  N   UNL     1     -11.626  12.503  69.105  1.00  0.00    -0.301 NA 
HETATM    3  C   UNL     1     -11.999  11.086  69.117  1.00  0.00    -0.324 C  
ENDROOT
BRANCH   2   4
HETATM    4  C   UNL     1     -10.274  12.733  68.549  1.00  0.00    -0.200 C  
BRANCH   4   5
HETATM    5  C   UNL     1      -9.406  11.461  68.546  1.00  0.00    -0.180 C  
BRANCH   5   6
HETATM    6  C   UNL     1      -9.247  10.794  67.197  1.00  0.00    -0.160 C  
HETATM    7  C   UNL     1      -9.245  11.430  66.001  1.00  0.00    -0.229 C  
HETATM    8  C   UNL     1      -9.497  12.888  65.971  1.00  0.00    -0.112 A  
HETATM    9  C   UNL     1      -8.560  13.800  66.476  1.00  0.00     0.182 A  
HETATM   10  C   UNL     1      -8.848  15.164  66.492  1.00  0.00    -0.312 A  
HETATM   11  C   UNL     1     -10.064  15.625  65.992  1.00  0.00    -0.355 A  
HETATM   12  C   UNL     1     -10.991  14.723  65.460  1.00  0.00    -0.350 A  
HETATM   13  C   UNL     1     -10.710  13.351  65.441  1.00  0.00    -0.307 A  
HETATM   14  C   UNL     1     -11.677  12.367  64.832  1.00  0.00    -0.418 C  
HETATM   15  C   UNL     1     -11.111  11.765  63.542  1.00  0.00    -0.503 C  
HETATM   16  C   UNL     1      -9.910  10.833  63.617  1.00  0.00    -0.406 A  
HETATM   17  C   UNL     1      -9.602  10.141  62.425  1.00  0.00    -0.145 A  
HETATM   18  C   UNL     1      -8.510   9.277  62.344  1.00  0.00    -0.207 A  
HETATM   19  C   UNL     1      -7.701   9.087  63.455  1.00  0.00    -0.124 A  
HETATM   20  C   UNL     1      -7.978   9.772  64.640  1.00  0.00    -0.139 A  
HETATM   21  C   UNL     1      -9.078  10.649  64.745  1.00  0.00    -0.236 A  
ENDBRANCH   5   6
ENDBRANCH   4   5
ENDBRANCH   2   4
TORSDOF 3
ENDMDL
MODEL      179
REMARK 921   NORMALIZED FREE ENERGY PREDICTED BY IDOCK:   -1.51 KCAL/MOL
REMARK 922        TOTAL FREE ENERGY PREDICTED BY IDOCK:   -2.27 KCAL/MOL
REMARK 923 INTER-LIGAND FREE ENERGY PREDICTED BY IDOCK:   -2.37 KCAL/MOL
REMARK 924 INTRA-LIGAND FREE ENERGY PREDICTED BY IDOCK:    0.10 KCAL/MOL
REMARK 927      BINDING AFFINITY PREDICTED BY RF-SCORE:    0.00 PKD
ROOT
HETATM    1  C   UNL     1     -10.720   3.594  64.159  1.00  0.00    -0.210 C  
HETATM    2  N   UNL     1      -9.732   4.142  65.090  1.00  0.00    -0.186 NA 
HETATM    3  C   UNL     1      -8.382   3.915  64.571  1.00  0.00    -0.098 C  
ENDROOT
BRANCH   2   4
HETATM    4  C   UNL     1     -10.009   5.571  65.358  1.00  0.00     0.429 C  
BRANCH   4   5
HETATM    5  C   UNL     1     -10.563   5.815  66.774  1.00  0.00    -0.373 C  
BRANCH   5   6
HETATM    6  C   UNL     1      -9.530   6.206  67.809  1.00  0.00    -0.115 C  
HETATM    7  C   UNL     1      -8.770   7.327  67.777  1.00  0.00    -0.126 C  
HETATM    8  C   UNL     1      -8.878   8.225  66.605  1.00  0.00    -0.166 A  
HETATM    9  C   UNL     1     -10.034   8.982  66.370  1.00  0.00    -0.370 A  
HETATM   10  C   UNL     1     -10.134   9.773  65.226  1.00  0.00    -0.124 A  
HETATM   11  C   UNL     1      -9.076   9.822  64.320  1.00  0.00    -0.293 A  
HETATM   12  C   UNL     1      -7.909   9.093  64.563  1.00  0.00    -0.120 A  
HETATM   13  C   UNL     1      -7.800   8.295  65.708  1.00  0.00    -0.098 A  
HETATM   14  C   UNL     1      -6.534   7.535  66.012  1.00  0.00    -0.045 C  
HETATM   15  C   UNL     1      -5.818   8.122  67.233  1.00  0.00    -0.042 C  
HETATM   16  C   UNL     1      -6.456   7.987  68.608  1.00  0.00    -0.053 A  
HETATM   17  C   UNL     1      -5.630   8.339  69.699  1.00  0.00    -0.026 A  
HETATM   18  C   UNL     1      -6.097   8.291  71.012  1.00  0.00    -0.034 A  
HETATM   19  C   UNL     1      -7.401   7.891  71.264  1.00  0.00    -0.068 A  
HETATM   20  C   UNL     1      -8.240   7.552  70.200  1.00  0.00    -0.132 A  
HETATM   21  C   UNL     1      -7.789   7.592  68.864  1.00  0.00    -0.124 A  
ENDBRANCH   5   6
ENDBRANCH   4   5
ENDBRANCH   2   4
TORSDOF 3
ENDMDL
MODEL      180
REMARK 921   NORMALIZED FREE ENERGY PREDICTED BY IDOCK:   -1.20 KCAL/MOL
REMARK 922        TOTAL FREE ENERGY PREDICTED BY IDOCK:   -1.90 KCAL/MOL
REMARK 923 INTER-LIGAND FREE ENERGY PREDICTED BY IDOCK:   -1.67 KCAL/MOL
REMARK 924 INTRA-LIGAND FREE ENERGY PREDICTED BY IDOCK:   -0.23 KCAL/MOL
REMARK 927      BINDING AFFINITY PREDICTED BY RF-SCORE:    0.00 PKD
ROOT
HETATM    1  C   UNL     1      -8.842   9.147  65.830  1.00  0.00    -0.175 C  
HETATM    2  N   UNL     1      -9.344  10.331  65.132  1.00  0.00    -0.205 NA 
HETATM    3  C   UNL     1     -10.716  10.615  65.560  1.00  0.00    -0.035 C  
ENDROOT
BRANCH   2   4
HETATM    4  C   UNL     1      -8.432  11.479  65.336  1.00  0.00     0.332 C  
BRANCH   4   5
HETATM    5  C   UNL     1      -8.701  12.225  66.655  1.00  0.00    -0.132 C  
BRANCH   5   6
HETATM    6  C   UNL     1      -7.861  13.466  66.875  1.00  0.00     0.230 C  
HETATM    7  C   UNL     1      -8.318  14.651  67.344  1.00  0.00    -0.223 C  
HETATM    8  C   UNL     1      -9.769  14.804  67.597  1.00  0.00    -0.213 A  
HETATM    9  C   UNL     1     -10.401  14.126  68.648  1.00  0.00    -0.243 A  
HETATM   10  C   UNL     1     -11.779  14.239  68.827  1.00  0.00    -0.378 A  
HETATM   11  C   UNL     1     -12.529  15.040  67.967  1.00  0.00     0.523 A  
HETATM   12  C   UNL     1     -11.900  15.742  66.935  1.00  0.00     0.603 A  
HETATM   13  C   UNL     1     -10.517  15.633  66.748  1.00  0.00    -0.297 A  
HETATM   14  C   UNL     1      -9.813  16.416  65.668  1.00  0.00    -0.222 C  
HETATM   15  C   UNL     1      -8.916  17.502  66.271  1.00  0.00    -0.220 C  
HETATM   16  C   UNL     1      -7.676  17.097  67.053  1.00  0.00    -0.221 A  
HETATM   17  C   UNL     1      -6.785  18.148  67.368  1.00  0.00    -0.205 A  
HETATM   18  C   UNL     1      -5.624  17.923  68.106  1.00  0.00    -0.151 A  
HETATM   19  C   UNL     1      -5.328  16.642  68.548  1.00  0.00    -0.114 A  
HETATM   20  C   UNL     1      -6.201  15.590  68.261  1.00  0.00    -0.123 A  
HETATM   21  C   UNL     1      -7.380  15.794  67.514  1.00  0.00    -0.205 A  
ENDBRANCH   5   6
ENDBRANCH   4   5
ENDBRANCH   2   4
TORSDOF 3
ENDMDL
MODEL      181
REMARK 921   NORMALIZED FREE ENERGY PREDICTED BY IDOCK:   -1.19 KCAL/MOL
REMARK 922        TOTAL FREE ENERGY PREDICTED BY IDOCK:   -1.90 KCAL/MOL
REMARK 923 INTER-LIGAND FREE ENERGY PREDICTED BY IDOCK:   -1.60 KCAL/MOL
REMARK 924 INTRA-LIGAND FREE ENERGY PREDICTED BY IDOCK:   -0.29 KCAL/MOL
REMARK 927      BINDING AFFINITY PREDICTED BY RF-SCORE:    0.00 PKD
ROOT
HETATM    1  C   UNL     1     -13.378  10.608  71.751  1.00  0.00    -0.334 C  
HETATM    2  N   UNL     1     -12.103  10.221  71.147  1.00  0.00    -0.371 NA 
HETATM    3  C   UNL     1     -11.249  11.401  70.992  1.00  0.00     1.528 C  
ENDROOT
BRANCH   2   4
HETATM    4  C   UNL     1     -11.459   9.149  71.940  1.00  0.00    -0.353 C  
BRANCH   4   5
HETATM    5  C   UNL     1     -11.365   7.817  71.174  1.00  0.00    -0.290 C  
BRANCH   5   6
HETATM    6  C   UNL     1     -10.054   7.075  71.334  1.00  0.00    -0.197 C  
HETATM    7  C   UNL     1      -9.207   6.751  70.328  1.00  0.00    -0.156 C  
HETATM    8  C   UNL     1      -9.604   7.064  68.936  1.00  0.00    -0.140 A  
HETATM    9  C   UNL     1      -9.669   8.386  68.477  1.00  0.00    -0.169 A  
HETATM   10  C   UNL     1     -10.105   8.657  67.180  1.00  0.00    -0.329 A  
HETATM   11  C   UNL     1     -10.462   7.609  66.333  1.00  0.00     0.218 A  
HETATM   12  C   UNL     1     -10.371   6.287  66.776  1.00  0.00    -0.285 A  
HETATM   13  C   UNL     1      -9.936   6.006  68.077  1.00  0.00    -0.162 A  
HETATM   14  C   UNL     1      -9.789   4.585  68.559  1.00  0.00    -0.160 C  
HETATM   15  C   UNL     1      -8.314   4.223  68.764  1.00  0.00    -0.092 C  
HETATM   16  C   UNL     1      -7.530   4.888  69.885  1.00  0.00    -0.056 A  
HETATM   17  C   UNL     1      -6.260   4.330  70.154  1.00  0.00    -0.026 A  
HETATM   18  C   UNL     1      -5.424   4.860  71.136  1.00  0.00    -0.004 A  
HETATM   19  C   UNL     1      -5.838   5.961  71.871  1.00  0.00    -0.031 A  
HETATM   20  C   UNL     1      -7.084   6.538  71.612  1.00  0.00    -0.081 A  
HETATM   21  C   UNL     1      -7.947   6.018  70.625  1.00  0.00    -0.111 A  
ENDBRANCH   5   6
ENDBRANCH   4   5
ENDBRANCH   2   4
TORSDOF 3
ENDMDL
MODEL      182
REMARK 921   NORMALIZED FREE ENERGY PREDICTED BY IDOCK:   -1.15 KCAL/MOL
REMARK 922        TOTAL FREE ENERGY PREDICTED BY IDOCK:   -1.85 KCAL/MOL
REMARK 923 INTER-LIGAND FREE ENERGY PREDICTED BY IDOCK:   -1.30 KCAL/MOL
REMARK 924 INTRA-LIGAND FREE ENERGY PREDICTED BY IDOCK:   -0.54 KCAL/MOL
REMARK 927      BINDING AFFINITY PREDICTED BY RF-SCORE:    0.00 PKD
ROOT
HETATM    1  C   UNL     1     -12.951  14.941  71.814  1.00  0.00    -0.336 C  
HETATM    2  N   UNL     1     -11.981  15.072  70.727  1.00  0.00    -0.293 NA 
HETATM    3  C   UNL     1     -12.540  15.905  69.660  1.00  0.00     0.294 C  
ENDROOT
BRANCH   2   4
HETATM    4  C   UNL     1     -10.694  15.589  71.242  1.00  0.00     0.141 C  
BRANCH   4   5
HETATM    5  C   UNL     1      -9.644  15.783  70.133  1.00  0.00     0.301 C  
BRANCH   5   6
HETATM    6  C   UNL     1      -8.628  14.667  70.007  1.00  0.00     0.759 C  
HETATM    7  C   UNL     1      -8.613  13.723  69.036  1.00  0.00     0.261 C  
HETATM    8  C   UNL     1      -9.714  13.706  68.045  1.00  0.00    -0.226 A  
HETATM    9  C   UNL     1      -9.845  14.717  67.084  1.00  0.00    -0.237 A  
HETATM   10  C   UNL     1     -10.925  14.710  66.202  1.00  0.00    -0.329 A  
HETATM   11  C   UNL     1     -11.870  13.687  66.267  1.00  0.00    -0.426 A  
HETATM   12  C   UNL     1     -11.728  12.660  67.204  1.00  0.00    -0.438 A  
HETATM   13  C   UNL     1     -10.647  12.660  68.094  1.00  0.00    -0.241 A  
HETATM   14  C   UNL     1     -10.453  11.538  69.083  1.00  0.00    -0.135 C  
HETATM   15  C   UNL     1      -9.224  10.695  68.726  1.00  0.00    -0.182 C  
HETATM   16  C   UNL     1      -7.837  11.306  68.853  1.00  0.00    -0.114 A  
HETATM   17  C   UNL     1      -6.759  10.400  68.734  1.00  0.00    -0.053 A  
HETATM   18  C   UNL     1      -5.434  10.828  68.802  1.00  0.00    -0.040 A  
HETATM   19  C   UNL     1      -5.156  12.174  68.988  1.00  0.00    -0.055 A  
HETATM   20  C   UNL     1      -6.205  13.091  69.093  1.00  0.00    -0.101 A  
HETATM   21  C   UNL     1      -7.553  12.680  69.030  1.00  0.00     0.146 A  
ENDBRANCH   5   6
ENDBRANCH   4   5
ENDBRANCH   2   4
TORSDOF 3
ENDMDL
MODEL      183
REMARK 921   NORMALIZED FREE ENERGY PREDICTED BY IDOCK:   -0.40 KCAL/MOL
REMARK 922        TOTAL FREE ENERGY PREDICTED BY IDOCK:   -0.96 KCAL/MOL
REMARK 923 INTER-LIGAND FREE ENERGY PREDICTED BY IDOCK:   -1.87 KCAL/MOL
REMARK 924 INTRA-LIGAND FREE ENERGY PREDICTED BY IDOCK:    0.91 KCAL/MOL
REMARK 927      BINDING AFFINITY PREDICTED BY RF-SCORE:    0.00 PKD
ROOT
HETATM    1  C   UNL     1      -7.380   8.188  65.748  1.00  0.00    -0.076 C  
HETATM    2  N   UNL     1      -7.595   9.268  64.785  1.00  0.00    -0.106 NA 
HETATM    3  C   UNL     1      -8.973   9.224  64.289  1.00  0.00    -0.096 C  
ENDROOT
BRANCH   2   4
HETATM    4  C   UNL     1      -7.244  10.575  65.385  1.00  0.00    -0.077 C  
BRANCH   4   5
HETATM    5  C   UNL     1      -8.338  11.110  66.327  1.00  0.00    -0.163 C  
BRANCH   5   6
HETATM    6  C   UNL     1      -8.978  10.072  67.224  1.00  0.00    -0.144 C  
HETATM    7  C   UNL     1      -8.617   9.807  68.502  1.00  0.00    -0.120 C  
HETATM    8  C   UNL     1      -7.451  10.519  69.073  1.00  0.00    -0.112 A  
HETATM    9  C   UNL     1      -7.501  11.892  69.354  1.00  0.00     0.247 A  
HETATM   10  C   UNL     1      -6.370  12.551  69.833  1.00  0.00    -0.039 A  
HETATM   11  C   UNL     1      -5.190  11.841  70.048  1.00  0.00    -0.081 A  
HETATM   12  C   UNL     1      -5.142  10.467  69.798  1.00  0.00    -0.038 A  
HETATM   13  C   UNL     1      -6.273   9.797  69.315  1.00  0.00    -0.036 A  
HETATM   14  C   UNL     1      -6.256   8.308  69.080  1.00  0.00    -0.039 C  
HETATM   15  C   UNL     1      -7.149   7.580  70.090  1.00  0.00    -0.060 C  
HETATM   16  C   UNL     1      -8.657   7.767  70.024  1.00  0.00    -0.140 A  
HETATM   17  C   UNL     1      -9.416   6.887  70.828  1.00  0.00    -0.165 A  
HETATM   18  C   UNL     1     -10.807   6.966  70.885  1.00  0.00    -0.277 A  
HETATM   19  C   UNL     1     -11.471   7.929  70.139  1.00  0.00    -0.025 A  
HETATM   20  C   UNL     1     -10.741   8.819  69.349  1.00  0.00    -0.180 A  
HETATM   21  C   UNL     1      -9.334   8.757  69.274  1.00  0.00    -0.149 A  
ENDBRANCH   5   6
ENDBRANCH   4   5
ENDBRANCH   2   4
TORSDOF 3
ENDMDL
MODEL      184
REMARK 921   NORMALIZED FREE ENERGY PREDICTED BY IDOCK:   -0.37 KCAL/MOL
REMARK 922        TOTAL FREE ENERGY PREDICTED BY IDOCK:   -0.93 KCAL/MOL
REMARK 923 INTER-LIGAND FREE ENERGY PREDICTED BY IDOCK:   -3.20 KCAL/MOL
REMARK 924 INTRA-LIGAND FREE ENERGY PREDICTED BY IDOCK:    2.28 KCAL/MOL
REMARK 927      BINDING AFFINITY PREDICTED BY RF-SCORE:    0.00 PKD
ROOT
HETATM    1  C   UNL     1      -8.201   7.901  65.585  1.00  0.00    -0.137 C  
HETATM    2  N   UNL     1      -9.285   7.756  66.556  1.00  0.00    -0.175 NA 
HETATM    3  C   UNL     1      -8.728   7.600  67.902  1.00  0.00    -0.124 C  
ENDROOT
BRANCH   2   4
HETATM    4  C   UNL     1     -10.226   8.895  66.455  1.00  0.00    -0.249 C  
BRANCH   4   5
HETATM    5  C   UNL     1     -11.076   9.078  67.725  1.00  0.00     0.190 C  
BRANCH   5   6
HETATM    6  C   UNL     1     -11.004  10.453  68.355  1.00  0.00    -0.312 C  
HETATM    7  C   UNL     1     -10.586  11.581  67.733  1.00  0.00    -0.227 C  
HETATM    8  C   UNL     1     -10.074  11.481  66.347  1.00  0.00    -0.250 A  
HETATM    9  C   UNL     1     -10.928  11.187  65.275  1.00  0.00    -0.153 A  
HETATM   10  C   UNL     1     -10.411  11.037  63.989  1.00  0.00    -0.433 A  
HETATM   11  C   UNL     1      -9.045  11.194  63.765  1.00  0.00    -0.081 A  
HETATM   12  C   UNL     1      -8.193  11.517  64.825  1.00  0.00     0.928 A  
HETATM   13  C   UNL     1      -8.703  11.667  66.120  1.00  0.00    -0.094 A  
HETATM   14  C   UNL     1      -7.808  12.058  67.269  1.00  0.00    -0.170 C  
HETATM   15  C   UNL     1      -8.126  13.475  67.758  1.00  0.00    -0.177 C  
HETATM   16  C   UNL     1      -9.453  13.746  68.449  1.00  0.00    -0.198 A  
HETATM   17  C   UNL     1      -9.568  15.008  69.075  1.00  0.00    -0.225 A  
HETATM   18  C   UNL     1     -10.741  15.398  69.720  1.00  0.00    -0.300 A  
HETATM   19  C   UNL     1     -11.827  14.537  69.752  1.00  0.00    -0.367 A  
HETATM   20  C   UNL     1     -11.742  13.290  69.128  1.00  0.00    -0.379 A  
HETATM   21  C   UNL     1     -10.565  12.873  68.472  1.00  0.00    -0.270 A  
ENDBRANCH   5   6
ENDBRANCH   4   5
ENDBRANCH   2   4
TORSDOF 3
ENDMDL
MODEL      185
REMARK 921   NORMALIZED FREE ENERGY PREDICTED BY IDOCK:   -0.32 KCAL/MOL
REMARK 922        TOTAL FREE ENERGY PREDICTED BY IDOCK:   -0.87 KCAL/MOL
REMARK 923 INTER-LIGAND FREE ENERGY PREDICTED BY IDOCK:   -1.01 KCAL/MOL
REMARK 924 INTRA-LIGAND FREE ENERGY PREDICTED BY IDOCK:    0.14 KCAL/MOL
REMARK 927      BINDING AFFINITY PREDICTED BY RF-SCORE:    0.00 PKD
ROOT
HETATM    1  C   UNL     1     -10.401  14.659  70.226  1.00  0.00     0.394 C  
HETATM    2  N   UNL     1     -10.393  13.445  69.409  1.00  0.00     0.252 NA 
HETATM    3  C   UNL     1     -11.419  13.541  68.368  1.00  0.00    -0.311 C  
ENDROOT
BRANCH   2   4
HETATM    4  C   UNL     1      -9.041  13.201  68.857  1.00  0.00     0.303 C  
BRANCH   4   5
HETATM    5  C   UNL     1      -9.002  13.281  67.321  1.00  0.00    -0.217 C  
BRANCH   5   6
HETATM    6  C   UNL     1      -8.028  12.333  66.652  1.00  0.00     0.095 C  
HETATM    7  C   UNL     1      -8.046  10.983  66.760  1.00  0.00    -0.151 C  
HETATM    8  C   UNL     1      -9.038  10.355  67.661  1.00  0.00    -0.143 A  
HETATM    9  C   UNL     1     -10.407  10.365  67.359  1.00  0.00    -0.275 A  
HETATM   10  C   UNL     1     -11.327   9.821  68.255  1.00  0.00     0.034 A  
HETATM   11  C   UNL     1     -10.884   9.252  69.447  1.00  0.00    -0.184 A  
HETATM   12  C   UNL     1      -9.518   9.212  69.741  1.00  0.00    -0.191 A  
HETATM   13  C   UNL     1      -8.588   9.757  68.848  1.00  0.00    -0.134 A  
HETATM   14  C   UNL     1      -7.107   9.685  69.125  1.00  0.00    -0.062 C  
HETATM   15  C   UNL     1      -6.408   8.738  68.144  1.00  0.00    -0.056 C  
HETATM   16  C   UNL     1      -6.310   9.123  66.676  1.00  0.00    -0.066 A  
HETATM   17  C   UNL     1      -5.453   8.318  65.891  1.00  0.00    -0.032 A  
HETATM   18  C   UNL     1      -5.292   8.541  64.524  1.00  0.00    -0.043 A  
HETATM   19  C   UNL     1      -5.985   9.574  63.910  1.00  0.00    -0.094 A  
HETATM   20  C   UNL     1      -6.849  10.373  64.662  1.00  0.00    -0.013 A  
HETATM   21  C   UNL     1      -7.026  10.167  66.047  1.00  0.00    -0.117 A  
ENDBRANCH   5   6
ENDBRANCH   4   5
ENDBRANCH   2   4
TORSDOF 3
ENDMDL
MODEL      186
REMARK 921   NORMALIZED FREE ENERGY PREDICTED BY IDOCK:    0.61 KCAL/MOL
REMARK 922        TOTAL FREE ENERGY PREDICTED BY IDOCK:    0.22 KCAL/MOL
REMARK 923 INTER-LIGAND FREE ENERGY PREDICTED BY IDOCK:   -1.42 KCAL/MOL
REMARK 924 INTRA-LIGAND FREE ENERGY PREDICTED BY IDOCK:    1.64 KCAL/MOL
REMARK 927      BINDING AFFINITY PREDICTED BY RF-SCORE:    0.00 PKD
ROOT
HETATM    1  C   UNL     1     -10.409   7.230  72.891  1.00  0.00    -0.262 C  
HETATM    2  N   UNL     1      -9.057   7.106  72.346  1.00  0.00    -0.131 NA 
HETATM    3  C   UNL     1      -8.084   7.053  73.440  1.00  0.00    -0.100 C  
ENDROOT
BRANCH   2   4
HETATM    4  C   UNL     1      -8.968   5.936  71.445  1.00  0.00    -0.140 C  
BRANCH   4   5
HETATM    5  C   UNL     1      -7.514   5.524  71.147  1.00  0.00    -0.086 C  
BRANCH   5   6
HETATM    6  C   UNL     1      -6.802   6.376  70.118  1.00  0.00    -0.057 C  
HETATM    7  C   UNL     1      -7.292   6.711  68.901  1.00  0.00    -0.094 C  
HETATM    8  C   UNL     1      -8.595   6.149  68.479  1.00  0.00    -0.113 A  
HETATM    9  C   UNL     1      -9.792   6.548  69.089  1.00  0.00    -0.156 A  
HETATM   10  C   UNL     1     -10.999   5.958  68.715  1.00  0.00    -0.311 A  
HETATM   11  C   UNL     1     -11.018   4.980  67.723  1.00  0.00     0.753 A  
HETATM   12  C   UNL     1      -9.831   4.599  67.091  1.00  0.00    -0.227 A  
HETATM   13  C   UNL     1      -8.614   5.185  67.460  1.00  0.00    -0.104 A  
HETATM   14  C   UNL     1      -7.329   4.819  66.761  1.00  0.00    -0.082 C  
HETATM   15  C   UNL     1      -6.808   5.990  65.920  1.00  0.00    -0.057 C  
HETATM   16  C   UNL     1      -6.297   7.241  66.618  1.00  0.00    -0.051 A  
HETATM   17  C   UNL     1      -5.622   8.166  65.791  1.00  0.00    -0.036 A  
HETATM   18  C   UNL     1      -5.127   9.369  66.294  1.00  0.00    -0.039 A  
HETATM   19  C   UNL     1      -5.299   9.675  67.636  1.00  0.00    -0.036 A  
HETATM   20  C   UNL     1      -5.976   8.782  68.469  1.00  0.00    -0.045 A  
HETATM   21  C   UNL     1      -6.483   7.559  67.983  1.00  0.00    -0.050 A  
ENDBRANCH   5   6
ENDBRANCH   4   5
ENDBRANCH   2   4
TORSDOF 3
ENDMDL
MODEL      187
REMARK 921   NORMALIZED FREE ENERGY PREDICTED BY IDOCK:    1.06 KCAL/MOL
REMARK 922        TOTAL FREE ENERGY PREDICTED BY IDOCK:    0.75 KCAL/MOL
REMARK 923 INTER-LIGAND FREE ENERGY PREDICTED BY IDOCK:    0.15 KCAL/MOL
REMARK 924 INTRA-LIGAND FREE ENERGY PREDICTED BY IDOCK:    0.60 KCAL/MOL
REMARK 927      BINDING AFFINITY PREDICTED BY RF-SCORE:    0.00 PKD
ROOT
HETATM    1  C   UNL     1     -10.161   7.831  71.677  1.00  0.00    -0.185 C  
HETATM    2  N   UNL     1      -8.705   7.949  71.584  1.00  0.00    -0.117 NA 
HETATM    3  C   UNL     1      -8.106   7.757  72.907  1.00  0.00    -0.126 C  
ENDROOT
BRANCH   2   4
HETATM    4  C   UNL     1      -8.173   7.007  70.574  1.00  0.00    -0.123 C  
BRANCH   4   5
HETATM    5  C   UNL     1      -9.055   6.924  69.315  1.00  0.00    -0.140 C  
BRANCH   5   6
HETATM    6  C   UNL     1      -8.323   7.108  68.003  1.00  0.00    -0.119 C  
HETATM    7  C   UNL     1      -7.881   8.288  67.508  1.00  0.00    -0.106 C  
HETATM    8  C   UNL     1      -8.194   9.531  68.248  1.00  0.00    -0.113 A  
HETATM    9  C   UNL     1      -7.601   9.810  69.488  1.00  0.00    -0.114 A  
HETATM   10  C   UNL     1      -7.960  10.958  70.194  1.00  0.00     1.011 A  
HETATM   11  C   UNL     1      -8.899  11.838  69.660  1.00  0.00     1.460 A  
HETATM   12  C   UNL     1      -9.472  11.580  68.411  1.00  0.00    -0.195 A  
HETATM   13  C   UNL     1      -9.119  10.430  67.696  1.00  0.00    -0.143 A  
HETATM   14  C   UNL     1      -9.692  10.156  66.328  1.00  0.00    -0.274 C  
HETATM   15  C   UNL     1      -8.616  10.282  65.245  1.00  0.00    -0.175 C  
HETATM   16  C   UNL     1      -7.489   9.262  65.188  1.00  0.00    -0.105 A  
HETATM   17  C   UNL     1      -6.682   9.309  64.030  1.00  0.00    -0.091 A  
HETATM   18  C   UNL     1      -5.597   8.450  63.861  1.00  0.00    -0.061 A  
HETATM   19  C   UNL     1      -5.293   7.525  64.848  1.00  0.00    -0.029 A  
HETATM   20  C   UNL     1      -6.068   7.469  66.009  1.00  0.00    -0.038 A  
HETATM   21  C   UNL     1      -7.172   8.327  66.200  1.00  0.00    -0.070 A  
ENDBRANCH   5   6
ENDBRANCH   4   5
ENDBRANCH   2   4
TORSDOF 3
ENDMDL
MODEL      188
REMARK 921   NORMALIZED FREE ENERGY PREDICTED BY IDOCK:    2.67 KCAL/MOL
REMARK 922        TOTAL FREE ENERGY PREDICTED BY IDOCK:    2.63 KCAL/MOL
REMARK 923 INTER-LIGAND FREE ENERGY PREDICTED BY IDOCK:    1.90 KCAL/MOL
REMARK 924 INTRA-LIGAND FREE ENERGY PREDICTED BY IDOCK:    0.74 KCAL/MOL
REMARK 927      BINDING AFFINITY PREDICTED BY RF-SCORE:    0.00 PKD
ROOT
HETATM    1  C   UNL     1      -6.239  18.348  70.947  1.00  0.00     0.831 C  
HETATM    2  N   UNL     1      -6.780  19.653  70.570  1.00  0.00     0.046 NA 
HETATM    3  C   UNL     1      -6.191  20.697  71.413  1.00  0.00     0.252 C  
ENDROOT
BRANCH   2   4
HETATM    4  C   UNL     1      -6.575  19.901  69.125  1.00  0.00    -0.333 C  
BRANCH   4   5
HETATM    5  C   UNL     1      -7.873  19.768  68.309  1.00  0.00    -0.335 C  
BRANCH   5   6
HETATM    6  C   UNL     1      -9.002  19.043  69.010  1.00  0.00    -0.219 C  
HETATM    7  C   UNL     1      -9.172  17.700  69.046  1.00  0.00    -0.054 C  
HETATM    8  C   UNL     1      -8.239  16.845  68.279  1.00  0.00    -0.222 A  
HETATM    9  C   UNL     1      -6.898  16.702  68.663  1.00  0.00    -0.168 A  
HETATM   10  C   UNL     1      -6.024  15.940  67.889  1.00  0.00    -0.152 A  
HETATM   11  C   UNL     1      -6.487  15.306  66.737  1.00  0.00     1.103 A  
HETATM   12  C   UNL     1      -7.830  15.421  66.364  1.00  0.00     0.417 A  
HETATM   13  C   UNL     1      -8.714  16.185  67.135  1.00  0.00    -0.216 A  
HETATM   14  C   UNL     1     -10.175  16.286  66.775  1.00  0.00    -0.280 C  
HETATM   15  C   UNL     1     -11.047  15.560  67.804  1.00  0.00    -0.315 C  
HETATM   16  C   UNL     1     -11.159  16.117  69.215  1.00  0.00    -0.327 A  
HETATM   17  C   UNL     1     -12.158  15.531  70.024  1.00  0.00    -0.391 A  
HETATM   18  C   UNL     1     -12.350  15.926  71.347  1.00  0.00    -0.485 A  
HETATM   19  C   UNL     1     -11.546  16.916  71.892  1.00  0.00     0.402 A  
HETATM   20  C   UNL     1     -10.542  17.500  71.116  1.00  0.00     2.244 A  
HETATM   21  C   UNL     1     -10.331  17.117  69.775  1.00  0.00     0.099 A  
ENDBRANCH   5   6
ENDBRANCH   4   5
ENDBRANCH   2   4
TORSDOF 3
ENDMDL
MODEL      189
REMARK 921   NORMALIZED FREE ENERGY PREDICTED BY IDOCK:    7.98 KCAL/MOL
REMARK 922        TOTAL FREE ENERGY PREDICTED BY IDOCK:    8.89 KCAL/MOL
REMARK 923 INTER-LIGAND FREE ENERGY PREDICTED BY IDOCK:    9.13 KCAL/MOL
REMARK 924 INTRA-LIGAND FREE ENERGY PREDICTED BY IDOCK:   -0.24 KCAL/MOL
REMARK 927      BINDING AFFINITY PREDICTED BY RF-SCORE:    0.00 PKD
ROOT
HETATM    1  C   UNL     1      -5.944  19.016  64.585  1.00  0.00    -0.263 C  
HETATM    2  N   UNL     1      -6.568  18.768  65.885  1.00  0.00    -0.228 NA 
HETATM    3  C   UNL     1      -7.567  19.803  66.162  1.00  0.00    -0.320 C  
ENDROOT
BRANCH   2   4
HETATM    4  C   UNL     1      -7.132  17.401  65.936  1.00  0.00    -0.117 C  
BRANCH   4   5
HETATM    5  C   UNL     1      -7.348  16.900  67.376  1.00  0.00    -0.186 C  
BRANCH   5   6
HETATM    6  C   UNL     1      -8.792  16.655  67.761  1.00  0.00    -0.206 C  
HETATM    7  C   UNL     1      -9.209  15.960  68.846  1.00  0.00    -0.232 C  
HETATM    8  C   UNL     1      -8.195  15.305  69.703  1.00  0.00    -0.115 A  
HETATM    9  C   UNL     1      -7.319  16.055  70.500  1.00  0.00     1.576 A  
HETATM   10  C   UNL     1      -6.333  15.417  71.251  1.00  0.00     0.853 A  
HETATM   11  C   UNL     1      -6.226  14.027  71.220  1.00  0.00     0.116 A  
HETATM   12  C   UNL     1      -7.114  13.272  70.451  1.00  0.00     1.440 A  
HETATM   13  C   UNL     1      -8.107  13.905  69.693  1.00  0.00     0.830 A  
HETATM   14  C   UNL     1      -9.103  13.106  68.891  1.00  0.00     0.293 C  
HETATM   15  C   UNL     1     -10.508  13.215  69.491  1.00  0.00     0.464 C  
HETATM   16  C   UNL     1     -11.242  14.546  69.436  1.00  0.00    -0.312 A  
HETATM   17  C   UNL     1     -12.609  14.503  69.793  1.00  0.00    -0.162 A  
HETATM   18  C   UNL     1     -13.394  15.656  69.814  1.00  0.00     1.055 A  
HETATM   19  C   UNL     1     -12.829  16.878  69.480  1.00  0.00     4.507 A  
HETATM   20  C   UNL     1     -11.477  16.947  69.138  1.00  0.00     0.385 A  
HETATM   21  C   UNL     1     -10.664  15.794  69.108  1.00  0.00    -0.246 A  
ENDBRANCH   5   6
ENDBRANCH   4   5
ENDBRANCH   2   4
TORSDOF 3
ENDMDL
MODEL      190
REMARK 921   NORMALIZED FREE ENERGY PREDICTED BY IDOCK:    8.57 KCAL/MOL
REMARK 922        TOTAL FREE ENERGY PREDICTED BY IDOCK:    9.57 KCAL/MOL
REMARK 923 INTER-LIGAND FREE ENERGY PREDICTED BY IDOCK:    9.33 KCAL/MOL
REMARK 924 INTRA-LIGAND FREE ENERGY PREDICTED BY IDOCK:    0.24 KCAL/MOL
REMARK 927      BINDING AFFINITY PREDICTED BY RF-SCORE:    0.00 PKD
ROOT
HETATM    1  C   UNL     1      -7.015  18.198  65.055  1.00  0.00     1.026 C  
HETATM    2  N   UNL     1      -6.757  19.516  64.473  1.00  0.00    -0.255 NA 
HETATM    3  C   UNL     1      -6.639  19.401  63.017  1.00  0.00     2.523 C  
ENDROOT
BRANCH   2   4
HETATM    4  C   UNL     1      -7.802  20.479  64.888  1.00  0.00     0.929 C  
BRANCH   4   5
HETATM    5  C   UNL     1      -8.595  20.002  66.118  1.00  0.00    -0.301 C  
BRANCH   5   6
HETATM    6  C   UNL     1      -7.922  20.248  67.452  1.00  0.00    -0.366 C  
HETATM    7  C   UNL     1      -7.978  19.422  68.524  1.00  0.00    -0.395 C  
HETATM    8  C   UNL     1      -8.825  18.211  68.445  1.00  0.00    -0.305 A  
HETATM    9  C   UNL     1      -8.483  17.135  67.615  1.00  0.00    -0.204 A  
HETATM   10  C   UNL     1      -9.329  16.032  67.511  1.00  0.00    -0.217 A  
HETATM   11  C   UNL     1     -10.512  15.991  68.247  1.00  0.00    -0.269 A  
HETATM   12  C   UNL     1     -10.845  17.048  69.099  1.00  0.00    -0.164 A  
HETATM   13  C   UNL     1     -10.001  18.160  69.208  1.00  0.00    -0.088 A  
HETATM   14  C   UNL     1     -10.320  19.290  70.154  1.00  0.00     1.041 C  
HETATM   15  C   UNL     1      -9.326  19.330  71.319  1.00  0.00     3.642 C  
HETATM   16  C   UNL     1      -7.877  19.707  71.052  1.00  0.00     2.094 A  
HETATM   17  C   UNL     1      -7.089  19.950  72.200  1.00  0.00     1.388 A  
HETATM   18  C   UNL     1      -5.737  20.276  72.101  1.00  0.00    -0.061 A  
HETATM   19  C   UNL     1      -5.141  20.365  70.851  1.00  0.00    -0.283 A  
HETATM   20  C   UNL     1      -5.896  20.115  69.704  1.00  0.00    -0.365 A  
HETATM   21  C   UNL     1      -7.266  19.786  69.779  1.00  0.00    -0.036 A  
ENDBRANCH   5   6
ENDBRANCH   4   5
ENDBRANCH   2   4
TORSDOF 3
ENDMDL
MODEL      191
REMARK 921   NORMALIZED FREE ENERGY PREDICTED BY IDOCK:   14.85 KCAL/MOL
REMARK 922        TOTAL FREE ENERGY PREDICTED BY IDOCK:   16.96 KCAL/MOL
REMARK 923 INTER-LIGAND FREE ENERGY PREDICTED BY IDOCK:    7.35 KCAL/MOL
REMARK 924 INTRA-LIGAND FREE ENERGY PREDICTED BY IDOCK:    9.61 KCAL/MOL
REMARK 927      BINDING AFFINITY PREDICTED BY RF-SCORE:    0.00 PKD
ROOT
HETATM    1  C   UNL     1     -12.480  12.506  67.351  1.00  0.00     0.911 C  
HETATM    2  N   UNL     1     -11.571  11.905  68.327  1.00  0.00    -0.307 NA 
HETATM    3  C   UNL     1     -11.823  10.464  68.418  1.00  0.00     0.255 C  
ENDROOT
BRANCH   2   4
HETATM    4  C   UNL     1     -10.165  12.219  67.988  1.00  0.00    -0.206 C  
BRANCH   4   5
HETATM    5  C   UNL     1      -9.486  13.114  69.041  1.00  0.00     0.393 C  
BRANCH   5   6
HETATM    6  C   UNL     1      -8.647  12.379  70.065  1.00  0.00     3.385 C  
HETATM    7  C   UNL     1      -8.370  11.053  70.049  1.00  0.00     1.181 C  
HETATM    8  C   UNL     1      -8.989  10.211  69.001  1.00  0.00    -0.168 A  
HETATM    9  C   UNL     1      -8.610  10.323  67.656  1.00  0.00    -0.118 A  
HETATM   10  C   UNL     1      -9.252   9.561  66.681  1.00  0.00    -0.190 A  
HETATM   11  C   UNL     1     -10.264   8.675  67.045  1.00  0.00    -0.360 A  
HETATM   12  C   UNL     1     -10.627   8.537  68.387  1.00  0.00    -0.161 A  
HETATM   13  C   UNL     1      -9.988   9.299  69.373  1.00  0.00    -0.184 A  
HETATM   14  C   UNL     1     -10.334   9.134  70.832  1.00  0.00    -0.349 C  
HETATM   15  C   UNL     1      -9.177   8.490  71.603  1.00  0.00    -0.304 C  
HETATM   16  C   UNL     1      -7.886   9.270  71.800  1.00  0.00     0.426 A  
HETATM   17  C   UNL     1      -6.968   8.707  72.714  1.00  0.00     0.005 A  
HETATM   18  C   UNL     1      -5.733   9.302  72.968  1.00  0.00     0.033 A  
HETATM   19  C   UNL     1      -5.387  10.474  72.311  1.00  0.00     0.271 A  
HETATM   20  C   UNL     1      -6.272  11.041  71.392  1.00  0.00     0.976 A  
HETATM   21  C   UNL     1      -7.528  10.458  71.121  1.00  0.00     1.863 A  
ENDBRANCH   5   6
ENDBRANCH   4   5
ENDBRANCH   2   4
TORSDOF 3
ENDMDL
MODEL      192
REMARK 921   NORMALIZED FREE ENERGY PREDICTED BY IDOCK:   15.10 KCAL/MOL
REMARK 922        TOTAL FREE ENERGY PREDICTED BY IDOCK:   17.25 KCAL/MOL
REMARK 923 INTER-LIGAND FREE ENERGY PREDICTED BY IDOCK:   17.41 KCAL/MOL
REMARK 924 INTRA-LIGAND FREE ENERGY PREDICTED BY IDOCK:   -0.15 KCAL/MOL
REMARK 927      BINDING AFFINITY PREDICTED BY RF-SCORE:    0.00 PKD
ROOT
HETATM    1  C   UNL     1     -13.849  16.309  67.257  1.00  0.00     8.313 C  
HETATM    2  N   UNL     1     -12.417  16.593  67.340  1.00  0.00     2.357 NA 
HETATM    3  C   UNL     1     -11.712  15.914  66.250  1.00  0.00     0.702 C  
ENDROOT
BRANCH   2   4
HETATM    4  C   UNL     1     -12.178  18.054  67.352  1.00  0.00     3.711 C  
BRANCH   4   5
HETATM    5  C   UNL     1     -10.963  18.466  66.502  1.00  0.00     0.138 C  
BRANCH   5   6
HETATM    6  C   UNL     1      -9.773  18.978  67.286  1.00  0.00    -0.368 C  
HETATM    7  C   UNL     1      -8.625  18.294  67.510  1.00  0.00    -0.253 C  
HETATM    8  C   UNL     1      -8.525  16.898  67.029  1.00  0.00    -0.228 A  
HETATM    9  C   UNL     1      -8.454  16.601  65.661  1.00  0.00     0.572 A  
HETATM   10  C   UNL     1      -8.422  15.275  65.231  1.00  0.00     3.094 A  
HETATM   11  C   UNL     1      -8.446  14.241  66.165  1.00  0.00     0.849 A  
HETATM   12  C   UNL     1      -8.487  14.530  67.532  1.00  0.00    -0.201 A  
HETATM   13  C   UNL     1      -8.521  15.859  67.972  1.00  0.00    -0.162 A  
HETATM   14  C   UNL     1      -8.521  16.193  69.442  1.00  0.00    -0.091 C  
HETATM   15  C   UNL     1      -7.200  16.848  69.859  1.00  0.00     0.673 C  
HETATM   16  C   UNL     1      -6.863  18.240  69.346  1.00  0.00    -0.138 A  
HETATM   17  C   UNL     1      -5.752  18.862  69.959  1.00  0.00    -0.262 A  
HETATM   18  C   UNL     1      -5.315  20.127  69.566  1.00  0.00    -0.273 A  
HETATM   19  C   UNL     1      -5.979  20.797  68.549  1.00  0.00    -0.388 A  
HETATM   20  C   UNL     1      -7.070  20.196  67.919  1.00  0.00    -0.325 A  
HETATM   21  C   UNL     1      -7.531  18.919  68.301  1.00  0.00    -0.315 A  
ENDBRANCH   5   6
ENDBRANCH   4   5
ENDBRANCH   2   4
TORSDOF 3
ENDMDL
MODEL      193
REMARK 921   NORMALIZED FREE ENERGY PREDICTED BY IDOCK:   16.97 KCAL/MOL
REMARK 922        TOTAL FREE ENERGY PREDICTED BY IDOCK:   19.44 KCAL/MOL
REMARK 923 INTER-LIGAND FREE ENERGY PREDICTED BY IDOCK:    9.60 KCAL/MOL
REMARK 924 INTRA-LIGAND FREE ENERGY PREDICTED BY IDOCK:    9.85 KCAL/MOL
REMARK 927      BINDING AFFINITY PREDICTED BY RF-SCORE:    0.00 PKD
ROOT
HETATM    1  C   UNL     1      -8.220  18.975  66.269  1.00  0.00    -0.282 C  
HETATM    2  N   UNL     1      -8.431  20.320  66.805  1.00  0.00    -0.287 NA 
HETATM    3  C   UNL     1      -9.334  21.068  65.928  1.00  0.00     1.352 C  
ENDROOT
BRANCH   2   4
HETATM    4  C   UNL     1      -8.917  20.251  68.201  1.00  0.00    -0.028 C  
BRANCH   4   5
HETATM    5  C   UNL     1      -9.495  18.871  68.562  1.00  0.00    -0.416 C  
BRANCH   5   6
HETATM    6  C   UNL     1      -8.684  18.075  69.563  1.00  0.00     0.699 C  
HETATM    7  C   UNL     1      -7.475  17.513  69.327  1.00  0.00     0.003 C  
HETATM    8  C   UNL     1      -6.907  17.598  67.962  1.00  0.00    -0.193 A  
HETATM    9  C   UNL     1      -6.464  18.817  67.431  1.00  0.00    -0.193 A  
HETATM   10  C   UNL     1      -5.990  18.880  66.121  1.00  0.00    -0.192 A  
HETATM   11  C   UNL     1      -5.945  17.726  65.341  1.00  0.00     0.051 A  
HETATM   12  C   UNL     1      -6.358  16.502  65.874  1.00  0.00     1.669 A  
HETATM   13  C   UNL     1      -6.836  16.429  67.188  1.00  0.00    -0.238 A  
HETATM   14  C   UNL     1      -7.246  15.112  67.797  1.00  0.00    -0.185 C  
HETATM   15  C   UNL     1      -6.269  14.685  68.897  1.00  0.00    -0.087 C  
HETATM   16  C   UNL     1      -6.207  15.483  70.191  1.00  0.00    -0.099 A  
HETATM   17  C   UNL     1      -5.461  14.891  71.235  1.00  0.00    -0.069 A  
HETATM   18  C   UNL     1      -5.298  15.527  72.466  1.00  0.00     0.452 A  
HETATM   19  C   UNL     1      -5.875  16.770  72.679  1.00  0.00     2.495 A  
HETATM   20  C   UNL     1      -6.604  17.380  71.656  1.00  0.00     4.070 A  
HETATM   21  C   UNL     1      -6.784  16.755  70.404  1.00  0.00     1.076 A  
ENDBRANCH   5   6
ENDBRANCH   4   5
ENDBRANCH   2   4
TORSDOF 3
ENDMDL
MODEL      194
REMARK 921   NORMALIZED FREE ENERGY PREDICTED BY IDOCK:   61.88 KCAL/MOL
REMARK 922        TOTAL FREE ENERGY PREDICTED BY IDOCK:   72.23 KCAL/MOL
REMARK 923 INTER-LIGAND FREE ENERGY PREDICTED BY IDOCK:   66.12 KCAL/MOL
REMARK 924 INTRA-LIGAND FREE ENERGY PREDICTED BY IDOCK:    6.11 KCAL/MOL
REMARK 927      BINDING AFFINITY PREDICTED BY RF-SCORE:    0.00 PKD
ROOT
HETATM    1  C   UNL     1      -9.558  13.188  70.534  1.00  0.00     5.460 C  
HETATM    2  N   UNL     1      -9.805  14.594  70.212  1.00  0.00     0.594 NA 
HETATM    3  C   UNL     1     -10.817  15.140  71.120  1.00  0.00    -0.021 C  
ENDROOT
BRANCH   2   4
HETATM    4  C   UNL     1      -8.540  15.361  70.238  1.00  0.00     0.880 C  
BRANCH   4   5
HETATM    5  C   UNL     1      -8.455  16.330  71.431  1.00  0.00     6.626 C  
BRANCH   5   6
HETATM    6  C   UNL     1      -9.709  16.421  72.276  1.00  0.00     7.528 C  
HETATM    7  C   UNL     1     -10.730  17.288  72.076  1.00  0.00     2.880 C  
HETATM    8  C   UNL     1     -10.605  18.297  71.000  1.00  0.00     2.620 A  
HETATM    9  C   UNL     1     -10.632  17.928  69.648  1.00  0.00     0.648 A  
HETATM   10  C   UNL     1     -10.451  18.889  68.655  1.00  0.00    -0.120 A  
HETATM   11  C   UNL     1     -10.256  20.224  69.006  1.00  0.00    -0.110 A  
HETATM   12  C   UNL     1     -10.257  20.603  70.351  1.00  0.00     1.318 A  
HETATM   13  C   UNL     1     -10.438  19.644  71.355  1.00  0.00     2.980 A  
HETATM   14  C   UNL     1     -10.486  20.038  72.810  1.00  0.00     4.574 C  
HETATM   15  C   UNL     1     -11.894  19.851  73.385  1.00  0.00    11.557 C  
HETATM   16  C   UNL     1     -12.454  18.446  73.548  1.00  0.00     5.401 A  
HETATM   17  C   UNL     1     -13.648  18.350  74.297  1.00  0.00     7.385 A  
HETATM   18  C   UNL     1     -14.285  17.127  74.500  1.00  0.00     4.767 A  
HETATM   19  C   UNL     1     -13.743  15.971  73.957  1.00  0.00     1.034 A  
HETATM   20  C   UNL     1     -12.571  16.044  73.201  1.00  0.00    -0.625 A  
HETATM   21  C   UNL     1     -11.908  17.270  72.984  1.00  0.00     0.743 A  
ENDBRANCH   5   6
ENDBRANCH   4   5
ENDBRANCH   2   4
TORSDOF 3
ENDMDL
