MODEL        1
REMARK 921   NORMALIZED FREE ENERGY PREDICTED BY IDOCK:   -6.33 KCAL/MOL
REMARK 922        TOTAL FREE ENERGY PREDICTED BY IDOCK:  -11.58 KCAL/MOL
REMARK 923 INTER-LIGAND FREE ENERGY PREDICTED BY IDOCK:  -10.02 KCAL/MOL
REMARK 924 INTRA-LIGAND FREE ENERGY PREDICTED BY IDOCK:   -1.56 KCAL/MOL
REMARK 927      BINDING AFFINITY PREDICTED BY RF-SCORE:    0.00 PKD
ROOT
HETATM    1  C   UNL     1      -9.464   9.316  70.520  1.00  0.00    -0.317 C  
HETATM    2  C   UNL     1     -10.460   9.807  69.478  1.00  0.00    -0.232 C  
ENDROOT
BRANCH   2   3
HETATM    3  O   UNL     1     -10.308  11.216  69.267  1.00  0.00    -0.203 OA 
BRANCH   3   4
HETATM    4  C   UNL     1     -11.410  11.902  68.882  1.00  0.00    -0.278 C  
HETATM    5  O   UNL     1     -12.493  11.366  68.707  1.00  0.00    -0.396 OA 
BRANCH   4   6
HETATM    6  C   UNL     1     -11.144  13.379  68.752  1.00  0.00    -0.297 C  
HETATM    7  C   UNL     1     -11.555  14.292  69.672  1.00  0.00    -0.296 C  
HETATM    8  C   UNL     1     -10.292  15.395  67.355  1.00  0.00    -0.262 C  
HETATM    9  N   UNL     1     -11.264  15.633  69.502  1.00  0.00    -0.286 NA 
HETATM   10  C   UNL     1     -10.727  16.193  68.362  1.00  0.00    -0.298 C  
HETATM   11  C   UNL     1     -10.354  13.854  67.495  1.00  0.00    -0.245 C  
HETATM   12  C   UNL     1     -10.649  17.703  68.365  1.00  0.00    -0.318 C  
BRANCH   7  13
HETATM   13  C   UNL     1     -12.361  13.965  70.921  1.00  0.00    -0.377 C  
BRANCH  13  14
HETATM   14  O   UNL     1     -13.564  14.746  71.028  1.00  0.00    -0.380 OA 
BRANCH  14  15
HETATM   15  C   UNL     1     -13.808  14.998  72.427  1.00  0.00    -0.493 C  
BRANCH  15  16
HETATM   16  C   UNL     1     -12.553  15.536  73.111  1.00  0.00    -0.468 C  
HETATM   17  N   UNL     1     -12.886  16.184  74.382  1.00  0.00    -0.970 NA 
HETATM   18  H2  UNL     1     -13.411  15.561  74.995  1.00  0.00     0.000 HD 
HETATM   19  H1  UNL     1     -12.048  16.543  74.839  1.00  0.00     0.000 HD 
ENDBRANCH  15  16
ENDBRANCH  14  15
ENDBRANCH  13  14
ENDBRANCH   7  13
BRANCH   8  20
HETATM   20  C   UNL     1      -9.745  16.022  66.117  1.00  0.00    -0.324 C  
HETATM   21  O   UNL     1     -10.432  16.530  65.242  1.00  0.00    -0.590 OA 
BRANCH  20  22
HETATM   22  O   UNL     1      -8.391  15.963  66.084  1.00  0.00    -0.282 OA 
HETATM   23  C   UNL     1      -7.737  17.232  66.212  1.00  0.00    -0.318 C  
ENDBRANCH  20  22
ENDBRANCH   8  20
BRANCH  11  24
HETATM   24  C   UNL     1     -10.816  13.156  66.208  1.00  0.00    -0.292 A  
HETATM   25  C   UNL     1     -12.075  13.460  65.654  1.00  0.00    -0.476 A  
HETATM   26  C   UNL     1     -12.557  12.764  64.540  1.00  0.00    -0.463 A  
HETATM   27  C   UNL     1     -11.792  11.763  63.949  1.00  0.00    -0.449 A  
HETATM   28  C   UNL     1     -10.539  11.455  64.471  1.00  0.00    -0.390 A  
HETATM   29  C   UNL     1     -10.052  12.137  65.592  1.00  0.00    -0.248 A  
HETATM   30 CL   UNL     1      -8.507  11.631  66.191  1.00  0.00    -0.075 Cl 
ENDBRANCH  11  24
ENDBRANCH   4   6
ENDBRANCH   3   4
ENDBRANCH   2   3
TORSDOF 10
ENDMDL
MODEL        2
REMARK 921   NORMALIZED FREE ENERGY PREDICTED BY IDOCK:   -6.05 KCAL/MOL
REMARK 922        TOTAL FREE ENERGY PREDICTED BY IDOCK:  -11.15 KCAL/MOL
REMARK 923 INTER-LIGAND FREE ENERGY PREDICTED BY IDOCK:   -9.15 KCAL/MOL
REMARK 924 INTRA-LIGAND FREE ENERGY PREDICTED BY IDOCK:   -2.00 KCAL/MOL
REMARK 927      BINDING AFFINITY PREDICTED BY RF-SCORE:    0.00 PKD
ROOT
HETATM    1  C   UNL     1     -12.826  10.589  71.327  1.00  0.00    -0.532 C  
HETATM    2  C   UNL     1     -11.526   9.883  70.966  1.00  0.00    -0.388 C  
ENDROOT
BRANCH   2   3
HETATM    3  O   UNL     1     -11.394   9.778  69.543  1.00  0.00    -0.190 OA 
BRANCH   3   4
HETATM    4  C   UNL     1     -10.324  10.386  68.980  1.00  0.00    -0.214 C  
HETATM    5  O   UNL     1      -9.256  10.512  69.557  1.00  0.00    -0.158 OA 
BRANCH   4   6
HETATM    6  C   UNL     1     -10.602  10.832  67.568  1.00  0.00    -0.280 C  
HETATM    7  C   UNL     1     -10.104  10.192  66.476  1.00  0.00    -0.234 C  
HETATM    8  C   UNL     1     -11.585  12.573  65.912  1.00  0.00    -0.454 C  
HETATM    9  N   UNL     1     -10.411  10.642  65.204  1.00  0.00    -0.289 NA 
HETATM   10  C   UNL     1     -11.055  11.825  64.911  1.00  0.00    -0.285 C  
HETATM   11  C   UNL     1     -11.510  12.085  67.378  1.00  0.00    -0.406 C  
HETATM   12  C   UNL     1     -11.133  12.167  63.441  1.00  0.00    -0.495 C  
BRANCH   7  13
HETATM   13  C   UNL     1      -9.182   8.982  66.522  1.00  0.00    -0.179 C  
BRANCH  13  14
HETATM   14  O   UNL     1      -9.897   7.735  66.459  1.00  0.00    -0.221 OA 
BRANCH  14  15
HETATM   15  C   UNL     1      -9.617   6.999  67.668  1.00  0.00    -0.131 C  
BRANCH  15  16
HETATM   16  C   UNL     1     -10.802   6.117  68.056  1.00  0.00    -0.313 C  
HETATM   17  N   UNL     1     -11.537   6.693  69.183  1.00  0.00    -0.628 NA 
HETATM   18  H2  UNL     1     -11.828   7.652  68.992  1.00  0.00     0.000 HD 
HETATM   19  H1  UNL     1     -12.328   6.105  69.442  1.00  0.00     0.000 HD 
ENDBRANCH  15  16
ENDBRANCH  14  15
ENDBRANCH  13  14
ENDBRANCH   7  13
BRANCH   8  20
HETATM   20  C   UNL     1     -12.249  13.867  65.576  1.00  0.00    -0.444 C  
HETATM   21  O   UNL     1     -13.451  13.995  65.395  1.00  0.00    -0.679 OA 
BRANCH  20  22
HETATM   22  O   UNL     1     -11.354  14.882  65.499  1.00  0.00    -0.347 OA 
HETATM   23  C   UNL     1     -11.532  15.747  64.371  1.00  0.00    -0.263 C  
ENDBRANCH  20  22
ENDBRANCH   8  20
BRANCH  11  24
HETATM   24  C   UNL     1     -11.173  13.212  68.367  1.00  0.00    -0.305 A  
HETATM   25  C   UNL     1     -12.136  13.640  69.301  1.00  0.00    -0.360 A  
HETATM   26  C   UNL     1     -11.886  14.729  70.142  1.00  0.00    -0.360 A  
HETATM   27  C   UNL     1     -10.671  15.405  70.079  1.00  0.00    -0.323 A  
HETATM   28  C   UNL     1      -9.699  14.991  69.172  1.00  0.00    -0.212 A  
HETATM   29  C   UNL     1      -9.944  13.909  68.318  1.00  0.00    -0.238 A  
HETATM   30 CL   UNL     1      -8.687  13.518  67.190  1.00  0.00    -0.222 Cl 
ENDBRANCH  11  24
ENDBRANCH   4   6
ENDBRANCH   3   4
ENDBRANCH   2   3
TORSDOF 10
ENDMDL
MODEL        3
REMARK 921   NORMALIZED FREE ENERGY PREDICTED BY IDOCK:   -5.92 KCAL/MOL
REMARK 922        TOTAL FREE ENERGY PREDICTED BY IDOCK:  -10.94 KCAL/MOL
REMARK 923 INTER-LIGAND FREE ENERGY PREDICTED BY IDOCK:   -9.01 KCAL/MOL
REMARK 924 INTRA-LIGAND FREE ENERGY PREDICTED BY IDOCK:   -1.94 KCAL/MOL
REMARK 927      BINDING AFFINITY PREDICTED BY RF-SCORE:    0.00 PKD
ROOT
HETATM    1  C   UNL     1     -12.045  11.990  63.571  1.00  0.00    -0.628 C  
HETATM    2  C   UNL     1     -12.402  13.117  64.532  1.00  0.00    -0.385 C  
ENDROOT
BRANCH   2   3
HETATM    3  O   UNL     1     -12.518  12.613  65.869  1.00  0.00    -0.584 OA 
BRANCH   3   4
HETATM    4  C   UNL     1     -11.542  12.960  66.742  1.00  0.00    -0.360 C  
HETATM    5  O   UNL     1     -10.814  13.925  66.569  1.00  0.00    -0.292 OA 
BRANCH   4   6
HETATM    6  C   UNL     1     -11.506  12.053  67.944  1.00  0.00    -0.396 C  
HETATM    7  C   UNL     1     -11.848  12.464  69.195  1.00  0.00    -0.300 C  
HETATM    8  C   UNL     1     -10.874   9.780  69.027  1.00  0.00    -0.223 C  
HETATM    9  N   UNL     1     -11.810  11.576  70.255  1.00  0.00    -0.350 NA 
HETATM   10  C   UNL     1     -11.274  10.307  70.212  1.00  0.00    -0.323 C  
HETATM   11  C   UNL     1     -11.057  10.578  67.714  1.00  0.00    -0.382 C  
HETATM   12  C   UNL     1     -11.210   9.592  71.543  1.00  0.00    -0.437 C  
BRANCH   7  13
HETATM   13  C   UNL     1     -12.270  13.880  69.559  1.00  0.00    -0.306 C  
BRANCH  13  14
HETATM   14  O   UNL     1     -12.135  14.156  70.965  1.00  0.00    -0.337 OA 
BRANCH  14  15
HETATM   15  C   UNL     1     -13.246  14.985  71.364  1.00  0.00    -0.421 C  
BRANCH  15  16
HETATM   16  C   UNL     1     -14.350  14.145  72.005  1.00  0.00    -0.512 C  
HETATM   17  N   UNL     1     -13.789  12.980  72.692  1.00  0.00    -0.742 NA 
HETATM   18  H2  UNL     1     -13.079  13.250  73.372  1.00  0.00     0.000 HD 
HETATM   19  H1  UNL     1     -14.525  12.419  73.120  1.00  0.00     0.000 HD 
ENDBRANCH  15  16
ENDBRANCH  14  15
ENDBRANCH  13  14
ENDBRANCH   7  13
BRANCH   8  20
HETATM   20  C   UNL     1     -10.266   8.417  69.009  1.00  0.00    -0.207 C  
HETATM   21  O   UNL     1     -10.875   7.397  68.718  1.00  0.00    -0.155 OA 
BRANCH  20  22
HETATM   22  O   UNL     1      -8.955   8.450  69.351  1.00  0.00    -0.150 OA 
HETATM   23  C   UNL     1      -8.090   7.732  68.462  1.00  0.00    -0.123 C  
ENDBRANCH  20  22
ENDBRANCH   8  20
BRANCH  11  24
HETATM   24  C   UNL     1      -9.846  10.469  66.775  1.00  0.00    -0.237 A  
HETATM   25  C   UNL     1      -9.944   9.725  65.583  1.00  0.00    -0.352 A  
HETATM   26  C   UNL     1      -8.827   9.531  64.764  1.00  0.00    -0.244 A  
HETATM   27  C   UNL     1      -7.596  10.082  65.108  1.00  0.00    -0.138 A  
HETATM   28  C   UNL     1      -7.479  10.832  66.275  1.00  0.00    -0.138 A  
HETATM   29  C   UNL     1      -8.588  11.023  67.107  1.00  0.00    -0.136 A  
HETATM   30 CL   UNL     1      -8.314  11.923  68.562  1.00  0.00    -0.146 Cl 
ENDBRANCH  11  24
ENDBRANCH   4   6
ENDBRANCH   3   4
ENDBRANCH   2   3
TORSDOF 10
ENDMDL
MODEL        4
REMARK 921   NORMALIZED FREE ENERGY PREDICTED BY IDOCK:   -5.75 KCAL/MOL
REMARK 922        TOTAL FREE ENERGY PREDICTED BY IDOCK:  -10.67 KCAL/MOL
REMARK 923 INTER-LIGAND FREE ENERGY PREDICTED BY IDOCK:   -9.44 KCAL/MOL
REMARK 924 INTRA-LIGAND FREE ENERGY PREDICTED BY IDOCK:   -1.24 KCAL/MOL
REMARK 927      BINDING AFFINITY PREDICTED BY RF-SCORE:    0.00 PKD
ROOT
HETATM    1  C   UNL     1     -12.482  15.121  73.798  1.00  0.00    -0.718 C  
HETATM    2  C   UNL     1     -11.802  15.885  72.669  1.00  0.00    -0.493 C  
ENDROOT
BRANCH   2   3
HETATM    3  O   UNL     1     -11.546  15.012  71.561  1.00  0.00    -0.347 OA 
BRANCH   3   4
HETATM    4  C   UNL     1     -12.522  14.904  70.628  1.00  0.00    -0.352 C  
HETATM    5  O   UNL     1     -13.557  15.548  70.677  1.00  0.00    -0.424 OA 
BRANCH   4   6
HETATM    6  C   UNL     1     -12.149  13.946  69.526  1.00  0.00    -0.393 C  
HETATM    7  C   UNL     1     -12.160  12.595  69.681  1.00  0.00    -0.213 C  
HETATM    8  C   UNL     1     -11.198  13.514  67.149  1.00  0.00    -0.324 C  
HETATM    9  N   UNL     1     -11.823  11.769  68.624  1.00  0.00    -0.360 NA 
HETATM   10  C   UNL     1     -11.285  12.189  67.425  1.00  0.00    -0.302 C  
HETATM   11  C   UNL     1     -11.740  14.560  68.152  1.00  0.00    -0.369 C  
HETATM   12  C   UNL     1     -10.857  11.080  66.491  1.00  0.00    -0.269 C  
BRANCH   7  13
HETATM   13  C   UNL     1     -12.506  11.871  70.974  1.00  0.00    -0.290 C  
BRANCH  13  14
HETATM   14  O   UNL     1     -13.063  10.564  70.748  1.00  0.00    -0.364 OA 
BRANCH  14  15
HETATM   15  C   UNL     1     -12.389   9.636  71.622  1.00  0.00    -0.404 C  
BRANCH  15  16
HETATM   16  C   UNL     1     -13.291   8.448  71.956  1.00  0.00    -0.343 C  
HETATM   17  N   UNL     1     -14.261   8.803  72.993  1.00  0.00    -1.132 NA 
HETATM   18  H2  UNL     1     -14.804   9.627  72.735  1.00  0.00     0.000 HD 
HETATM   19  H1  UNL     1     -14.863   8.011  73.216  1.00  0.00     0.000 HD 
ENDBRANCH  15  16
ENDBRANCH  14  15
ENDBRANCH  13  14
ENDBRANCH   7  13
BRANCH   8  20
HETATM   20  C   UNL     1     -10.583  13.947  65.860  1.00  0.00    -0.293 C  
HETATM   21  O   UNL     1      -9.413  13.757  65.560  1.00  0.00    -0.029 OA 
BRANCH  20  22
HETATM   22  O   UNL     1     -11.482  14.573  65.063  1.00  0.00    -0.350 OA 
HETATM   23  C   UNL     1     -12.335  13.691  64.322  1.00  0.00    -0.335 C  
ENDBRANCH  20  22
ENDBRANCH   8  20
BRANCH  11  24
HETATM   24  C   UNL     1     -10.816  15.778  68.303  1.00  0.00    -0.305 A  
HETATM   25  C   UNL     1     -11.281  17.062  67.956  1.00  0.00    -0.016 A  
HETATM   26  C   UNL     1     -10.426  18.169  67.991  1.00  0.00    -0.387 A  
HETATM   27  C   UNL     1      -9.098  18.023  68.381  1.00  0.00    -0.293 A  
HETATM   28  C   UNL     1      -8.621  16.766  68.741  1.00  0.00    -0.255 A  
HETATM   29  C   UNL     1      -9.465  15.650  68.700  1.00  0.00    -0.204 A  
HETATM   30 CL   UNL     1      -8.749  14.126  69.111  1.00  0.00     0.125 Cl 
ENDBRANCH  11  24
ENDBRANCH   4   6
ENDBRANCH   3   4
ENDBRANCH   2   3
TORSDOF 10
ENDMDL
MODEL        5
REMARK 921   NORMALIZED FREE ENERGY PREDICTED BY IDOCK:   -5.66 KCAL/MOL
REMARK 922        TOTAL FREE ENERGY PREDICTED BY IDOCK:  -10.52 KCAL/MOL
REMARK 923 INTER-LIGAND FREE ENERGY PREDICTED BY IDOCK:   -8.74 KCAL/MOL
REMARK 924 INTRA-LIGAND FREE ENERGY PREDICTED BY IDOCK:   -1.78 KCAL/MOL
REMARK 927      BINDING AFFINITY PREDICTED BY RF-SCORE:    0.00 PKD
ROOT
HETATM    1  C   UNL     1     -10.089   8.267  66.520  1.00  0.00    -0.303 C  
HETATM    2  C   UNL     1      -9.831   9.723  66.155  1.00  0.00    -0.263 C  
ENDROOT
BRANCH   2   3
HETATM    3  O   UNL     1     -10.598  10.592  66.999  1.00  0.00    -0.240 OA 
BRANCH   3   4
HETATM    4  C   UNL     1      -9.919  11.287  67.942  1.00  0.00    -0.175 C  
HETATM    5  O   UNL     1      -8.725  11.526  67.854  1.00  0.00    -0.134 OA 
BRANCH   4   6
HETATM    6  C   UNL     1     -10.816  11.757  69.057  1.00  0.00    -0.239 C  
HETATM    7  C   UNL     1     -11.443  10.906  69.914  1.00  0.00    -0.323 C  
HETATM    8  C   UNL     1     -12.092  13.669  70.262  1.00  0.00    -0.427 C  
HETATM    9  N   UNL     1     -12.241  11.401  70.929  1.00  0.00    -0.368 NA 
HETATM   10  C   UNL     1     -12.628  12.718  71.067  1.00  0.00    -0.271 C  
HETATM   11  C   UNL     1     -11.015  13.295  69.216  1.00  0.00    -0.140 C  
HETATM   12  C   UNL     1     -13.630  12.979  72.168  1.00  0.00    -0.618 C  
BRANCH   7  13
HETATM   13  C   UNL     1     -11.360   9.388  69.847  1.00  0.00    -0.093 C  
BRANCH  13  14
HETATM   14  O   UNL     1     -11.352   8.773  71.148  1.00  0.00    -0.258 OA 
BRANCH  14  15
HETATM   15  C   UNL     1     -12.340   7.722  71.150  1.00  0.00    -0.247 C  
BRANCH  15  16
HETATM   16  C   UNL     1     -13.692   8.247  71.631  1.00  0.00    -0.361 C  
HETATM   17  N   UNL     1     -13.542   9.037  72.855  1.00  0.00    -0.903 NA 
HETATM   18  H2  UNL     1     -12.867   9.791  72.735  1.00  0.00     0.000 HD 
HETATM   19  H1  UNL     1     -14.444   9.387  73.175  1.00  0.00     0.000 HD 
ENDBRANCH  15  16
ENDBRANCH  14  15
ENDBRANCH  13  14
ENDBRANCH   7  13
BRANCH   8  20
HETATM   20  C   UNL     1     -12.549  15.082  70.407  1.00  0.00    -0.350 C  
HETATM   21  O   UNL     1     -13.658  15.482  70.083  1.00  0.00     0.035 OA 
BRANCH  20  22
HETATM   22  O   UNL     1     -11.584  15.867  70.946  1.00  0.00    -0.359 OA 
HETATM   23  C   UNL     1     -11.795  16.210  72.321  1.00  0.00    -0.536 C  
ENDBRANCH  20  22
ENDBRANCH   8  20
BRANCH  11  24
HETATM   24  C   UNL     1     -11.216  14.006  67.870  1.00  0.00    -0.295 A  
HETATM   25  C   UNL     1     -12.275  13.623  67.023  1.00  0.00    -0.373 A  
HETATM   26  C   UNL     1     -12.416  14.189  65.751  1.00  0.00    -0.490 A  
HETATM   27  C   UNL     1     -11.517  15.152  65.303  1.00  0.00    -0.266 A  
HETATM   28  C   UNL     1     -10.472  15.555  66.129  1.00  0.00    -0.323 A  
HETATM   29  C   UNL     1     -10.314  14.988  67.399  1.00  0.00    -0.238 A  
HETATM   30 CL   UNL     1      -8.944  15.521  68.317  1.00  0.00    -0.182 Cl 
ENDBRANCH  11  24
ENDBRANCH   4   6
ENDBRANCH   3   4
ENDBRANCH   2   3
TORSDOF 10
ENDMDL
MODEL        6
REMARK 921   NORMALIZED FREE ENERGY PREDICTED BY IDOCK:   -5.65 KCAL/MOL
REMARK 922        TOTAL FREE ENERGY PREDICTED BY IDOCK:  -10.51 KCAL/MOL
REMARK 923 INTER-LIGAND FREE ENERGY PREDICTED BY IDOCK:   -8.68 KCAL/MOL
REMARK 924 INTRA-LIGAND FREE ENERGY PREDICTED BY IDOCK:   -1.82 KCAL/MOL
REMARK 927      BINDING AFFINITY PREDICTED BY RF-SCORE:    0.00 PKD
ROOT
HETATM    1  C   UNL     1     -13.000  10.273  71.434  1.00  0.00    -0.540 C  
HETATM    2  C   UNL     1     -11.555  10.123  70.976  1.00  0.00    -0.376 C  
ENDROOT
BRANCH   2   3
HETATM    3  O   UNL     1     -11.495  10.003  69.549  1.00  0.00    -0.208 OA 
BRANCH   3   4
HETATM    4  C   UNL     1     -10.390  10.493  68.939  1.00  0.00    -0.208 C  
HETATM    5  O   UNL     1      -9.293  10.511  69.474  1.00  0.00    -0.169 OA 
BRANCH   4   6
HETATM    6  C   UNL     1     -10.675  10.954  67.533  1.00  0.00    -0.299 C  
HETATM    7  C   UNL     1     -10.196  10.315  66.431  1.00  0.00    -0.225 C  
HETATM    8  C   UNL     1     -11.646  12.722  65.899  1.00  0.00    -0.428 C  
HETATM    9  N   UNL     1     -10.507  10.779  65.166  1.00  0.00    -0.265 NA 
HETATM   10  C   UNL     1     -11.137  11.974  64.889  1.00  0.00    -0.316 C  
HETATM   11  C   UNL     1     -11.565  12.222  67.362  1.00  0.00    -0.425 C  
HETATM   12  C   UNL     1     -11.223  12.328  63.422  1.00  0.00    -0.497 C  
BRANCH   7  13
HETATM   13  C   UNL     1      -9.291   9.092  66.460  1.00  0.00    -0.191 C  
BRANCH  13  14
HETATM   14  O   UNL     1      -8.051   9.300  65.762  1.00  0.00    -0.110 OA 
BRANCH  14  15
HETATM   15  C   UNL     1      -8.040   8.438  64.605  1.00  0.00    -0.156 C  
BRANCH  15  16
HETATM   16  C   UNL     1      -7.664   9.220  63.347  1.00  0.00    -0.121 C  
HETATM   17  N   UNL     1      -7.684  10.662  63.602  1.00  0.00    -0.352 NA 
HETATM   18  H2  UNL     1      -7.091  10.913  64.392  1.00  0.00     0.000 HD 
HETATM   19  H1  UNL     1      -7.433  11.184  62.762  1.00  0.00     0.000 HD 
ENDBRANCH  15  16
ENDBRANCH  14  15
ENDBRANCH  13  14
ENDBRANCH   7  13
BRANCH   8  20
HETATM   20  C   UNL     1     -12.294  14.027  65.580  1.00  0.00    -0.483 C  
HETATM   21  O   UNL     1     -13.495  14.172  65.399  1.00  0.00    -0.648 OA 
BRANCH  20  22
HETATM   22  O   UNL     1     -11.388  15.033  65.518  1.00  0.00    -0.347 OA 
HETATM   23  C   UNL     1     -11.518  15.881  64.370  1.00  0.00    -0.264 C  
ENDBRANCH  20  22
ENDBRANCH   8  20
BRANCH  11  24
HETATM   24  C   UNL     1     -11.203  13.335  68.355  1.00  0.00    -0.314 A  
HETATM   25  C   UNL     1     -12.156  13.778  69.295  1.00  0.00    -0.374 A  
HETATM   26  C   UNL     1     -11.881  14.857  70.141  1.00  0.00    -0.357 A  
HETATM   27  C   UNL     1     -10.652  15.508  70.079  1.00  0.00    -0.337 A  
HETATM   28  C   UNL     1      -9.691  15.078  69.168  1.00  0.00    -0.212 A  
HETATM   29  C   UNL     1      -9.960  14.007  68.308  1.00  0.00    -0.236 A  
HETATM   30 CL   UNL     1      -8.714  13.597  67.175  1.00  0.00    -0.224 Cl 
ENDBRANCH  11  24
ENDBRANCH   4   6
ENDBRANCH   3   4
ENDBRANCH   2   3
TORSDOF 10
ENDMDL
MODEL        7
REMARK 921   NORMALIZED FREE ENERGY PREDICTED BY IDOCK:   -5.65 KCAL/MOL
REMARK 922        TOTAL FREE ENERGY PREDICTED BY IDOCK:  -10.50 KCAL/MOL
REMARK 923 INTER-LIGAND FREE ENERGY PREDICTED BY IDOCK:   -8.77 KCAL/MOL
REMARK 924 INTRA-LIGAND FREE ENERGY PREDICTED BY IDOCK:   -1.74 KCAL/MOL
REMARK 927      BINDING AFFINITY PREDICTED BY RF-SCORE:    0.00 PKD
ROOT
HETATM    1  C   UNL     1      -6.356  16.434  69.736  1.00  0.00    -0.186 C  
HETATM    2  C   UNL     1      -6.961  15.051  69.940  1.00  0.00    -0.149 C  
ENDROOT
BRANCH   2   3
HETATM    3  O   UNL     1      -8.129  14.893  69.124  1.00  0.00    -0.167 OA 
BRANCH   3   4
HETATM    4  C   UNL     1      -8.002  14.129  68.013  1.00  0.00    -0.149 C  
HETATM    5  O   UNL     1      -7.211  13.202  67.936  1.00  0.00    -0.102 OA 
BRANCH   4   6
HETATM    6  C   UNL     1      -8.972  14.532  66.934  1.00  0.00    -0.267 C  
HETATM    7  C   UNL     1      -8.851  15.682  66.218  1.00  0.00    -0.329 C  
HETATM    8  C   UNL     1     -11.198  14.149  65.654  1.00  0.00    -0.308 C  
HETATM    9  N   UNL     1      -9.766  15.987  65.227  1.00  0.00    -0.364 NA 
HETATM   10  C   UNL     1     -10.942  15.305  64.992  1.00  0.00    -0.437 C  
HETATM   11  C   UNL     1     -10.159  13.565  66.641  1.00  0.00    -0.277 C  
HETATM   12  C   UNL     1     -11.848  15.928  63.955  1.00  0.00     0.175 C  
BRANCH   7  13
HETATM   13  C   UNL     1      -7.761  16.725  66.426  1.00  0.00    -0.310 C  
BRANCH  13  14
HETATM   14  O   UNL     1      -7.952  17.898  65.615  1.00  0.00    -0.527 OA 
BRANCH  14  15
HETATM   15  C   UNL     1      -7.893  19.051  66.480  1.00  0.00    -0.268 C  
BRANCH  15  16
HETATM   16  C   UNL     1      -9.293  19.597  66.756  1.00  0.00    -0.364 C  
HETATM   17  N   UNL     1     -10.218  19.234  65.681  1.00  0.00    -0.466 NA 
HETATM   18  H2  UNL     1     -10.232  18.227  65.520  1.00  0.00     0.000 HD 
HETATM   19  H1  UNL     1     -11.152  19.598  65.865  1.00  0.00     0.000 HD 
ENDBRANCH  15  16
ENDBRANCH  14  15
ENDBRANCH  13  14
ENDBRANCH   7  13
BRANCH   8  20
HETATM   20  C   UNL     1     -12.491  13.445  65.409  1.00  0.00    -0.494 C  
HETATM   21  O   UNL     1     -13.590  13.925  65.644  1.00  0.00    -0.478 OA 
BRANCH  20  22
HETATM   22  O   UNL     1     -12.295  12.208  64.890  1.00  0.00    -0.421 OA 
HETATM   23  C   UNL     1     -12.344  12.150  63.459  1.00  0.00    -0.574 C  
ENDBRANCH  20  22
ENDBRANCH   8  20
BRANCH  11  24
HETATM   24  C   UNL     1     -10.799  13.011  67.923  1.00  0.00    -0.260 A  
HETATM   25  C   UNL     1     -10.778  11.626  68.179  1.00  0.00    -0.248 A  
HETATM   26  C   UNL     1     -11.440  11.091  69.289  1.00  0.00    -0.370 A  
HETATM   27  C   UNL     1     -12.124  11.923  70.171  1.00  0.00    -0.382 A  
HETATM   28  C   UNL     1     -12.146  13.296  69.946  1.00  0.00    -0.377 A  
HETATM   29  C   UNL     1     -11.496  13.841  68.832  1.00  0.00    -0.304 A  
HETATM   30 CL   UNL     1     -11.639  15.554  68.618  1.00  0.00    -0.365 Cl 
ENDBRANCH  11  24
ENDBRANCH   4   6
ENDBRANCH   3   4
ENDBRANCH   2   3
TORSDOF 10
ENDMDL
MODEL        8
REMARK 921   NORMALIZED FREE ENERGY PREDICTED BY IDOCK:   -5.64 KCAL/MOL
REMARK 922        TOTAL FREE ENERGY PREDICTED BY IDOCK:  -10.49 KCAL/MOL
REMARK 923 INTER-LIGAND FREE ENERGY PREDICTED BY IDOCK:   -9.00 KCAL/MOL
REMARK 924 INTRA-LIGAND FREE ENERGY PREDICTED BY IDOCK:   -1.49 KCAL/MOL
REMARK 927      BINDING AFFINITY PREDICTED BY RF-SCORE:    0.00 PKD
ROOT
HETATM    1  C   UNL     1     -10.426  11.608  63.415  1.00  0.00    -0.482 C  
HETATM    2  C   UNL     1     -10.254  10.824  64.709  1.00  0.00    -0.334 C  
ENDROOT
BRANCH   2   3
HETATM    3  O   UNL     1     -10.860  11.527  65.802  1.00  0.00    -0.280 OA 
BRANCH   3   4
HETATM    4  C   UNL     1     -10.100  11.714  66.907  1.00  0.00    -0.211 C  
HETATM    5  O   UNL     1      -8.895  11.899  66.857  1.00  0.00    -0.185 OA 
BRANCH   4   6
HETATM    6  C   UNL     1     -10.924  11.713  68.169  1.00  0.00    -0.275 C  
HETATM    7  C   UNL     1     -11.499  12.834  68.680  1.00  0.00    -0.303 C  
HETATM    8  C   UNL     1     -11.810  10.480  70.274  1.00  0.00    -0.418 C  
HETATM    9  N   UNL     1     -12.258  12.764  69.834  1.00  0.00    -0.226 NA 
HETATM   10  C   UNL     1     -12.358  11.661  70.656  1.00  0.00    -0.344 C  
HETATM   11  C   UNL     1     -11.112  10.349  68.899  1.00  0.00    -0.296 C  
HETATM   12  C   UNL     1     -13.123  11.885  71.940  1.00  0.00    -0.474 C  
BRANCH   7  13
HETATM   13  C   UNL     1     -11.365  14.229  68.086  1.00  0.00    -0.288 C  
BRANCH  13  14
HETATM   14  O   UNL     1     -12.112  14.388  66.866  1.00  0.00    -0.425 OA 
BRANCH  14  15
HETATM   15  C   UNL     1     -11.235  14.970  65.880  1.00  0.00    -0.313 C  
BRANCH  15  16
HETATM   16  C   UNL     1     -11.879  14.945  64.495  1.00  0.00    -0.396 C  
HETATM   17  N   UNL     1     -11.749  16.244  63.833  1.00  0.00    -1.518 NA 
HETATM   18  H2  UNL     1     -10.777  16.549  63.790  1.00  0.00     0.000 HD 
HETATM   19  H1  UNL     1     -12.178  16.227  62.908  1.00  0.00     0.000 HD 
ENDBRANCH  15  16
ENDBRANCH  14  15
ENDBRANCH  13  14
ENDBRANCH   7  13
BRANCH   8  20
HETATM   20  C   UNL     1     -11.901   9.308  71.194  1.00  0.00    -0.325 C  
HETATM   21  O   UNL     1     -11.091   9.064  72.076  1.00  0.00    -0.364 OA 
BRANCH  20  22
HETATM   22  O   UNL     1     -12.994   8.551  70.931  1.00  0.00    -0.018 OA 
HETATM   23  C   UNL     1     -12.884   7.184  71.349  1.00  0.00    -0.384 C  
ENDBRANCH  20  22
ENDBRANCH   8  20
BRANCH  11  24
HETATM   24  C   UNL     1      -9.815   9.529  68.963  1.00  0.00    -0.178 A  
HETATM   25  C   UNL     1      -8.717  10.006  69.706  1.00  0.00    -0.198 A  
HETATM   26  C   UNL     1      -7.495   9.326  69.697  1.00  0.00    -0.078 A  
HETATM   27  C   UNL     1      -7.344   8.155  68.961  1.00  0.00    -0.083 A  
HETATM   28  C   UNL     1      -8.420   7.658  68.230  1.00  0.00    -0.125 A  
HETATM   29  C   UNL     1      -9.644   8.336  68.223  1.00  0.00    -0.147 A  
HETATM   30 CL   UNL     1     -10.895   7.660  67.232  1.00  0.00    -0.333 Cl 
ENDBRANCH  11  24
ENDBRANCH   4   6
ENDBRANCH   3   4
ENDBRANCH   2   3
TORSDOF 10
ENDMDL
MODEL        9
REMARK 921   NORMALIZED FREE ENERGY PREDICTED BY IDOCK:   -5.61 KCAL/MOL
REMARK 922        TOTAL FREE ENERGY PREDICTED BY IDOCK:  -10.45 KCAL/MOL
REMARK 923 INTER-LIGAND FREE ENERGY PREDICTED BY IDOCK:   -8.66 KCAL/MOL
REMARK 924 INTRA-LIGAND FREE ENERGY PREDICTED BY IDOCK:   -1.79 KCAL/MOL
REMARK 927      BINDING AFFINITY PREDICTED BY RF-SCORE:    0.00 PKD
ROOT
HETATM    1  C   UNL     1      -6.280  11.503  66.928  1.00  0.00    -0.143 C  
HETATM    2  C   UNL     1      -7.634  11.013  66.429  1.00  0.00    -0.135 C  
ENDROOT
BRANCH   2   3
HETATM    3  O   UNL     1      -8.678  11.879  66.890  1.00  0.00    -0.180 OA 
BRANCH   3   4
HETATM    4  C   UNL     1      -9.951  11.452  66.715  1.00  0.00    -0.208 C  
HETATM    5  O   UNL     1     -10.346  10.963  65.669  1.00  0.00    -0.250 OA 
BRANCH   4   6
HETATM    6  C   UNL     1     -10.779  11.609  67.964  1.00  0.00    -0.246 C  
HETATM    7  C   UNL     1     -11.290  12.803  68.371  1.00  0.00    -0.295 C  
HETATM    8  C   UNL     1     -11.747  10.619  70.160  1.00  0.00    -0.417 C  
HETATM    9  N   UNL     1     -12.057  12.878  69.519  1.00  0.00    -0.258 NA 
HETATM   10  C   UNL     1     -12.225  11.859  70.433  1.00  0.00    -0.314 C  
HETATM   11  C   UNL     1     -11.052  10.328  68.809  1.00  0.00    -0.276 C  
HETATM   12  C   UNL     1     -12.982  12.239  71.685  1.00  0.00    -0.416 C  
BRANCH   7  13
HETATM   13  C   UNL     1     -11.071  14.130  67.658  1.00  0.00    -0.282 C  
BRANCH  13  14
HETATM   14  O   UNL     1     -12.101  14.422  66.698  1.00  0.00    -0.419 OA 
BRANCH  14  15
HETATM   15  C   UNL     1     -11.515  14.355  65.381  1.00  0.00    -0.344 C  
BRANCH  15  16
HETATM   16  C   UNL     1     -10.882  15.691  64.998  1.00  0.00    -0.450 C  
HETATM   17  N   UNL     1     -11.568  16.285  63.849  1.00  0.00    -1.573 NA 
HETATM   18  H2  UNL     1     -12.570  16.376  64.014  1.00  0.00     0.000 HD 
HETATM   19  H1  UNL     1     -11.146  17.177  63.592  1.00  0.00     0.000 HD 
ENDBRANCH  15  16
ENDBRANCH  14  15
ENDBRANCH  13  14
ENDBRANCH   7  13
BRANCH   8  20
HETATM   20  C   UNL     1     -11.911   9.540  71.177  1.00  0.00    -0.358 C  
HETATM   21  O   UNL     1     -11.106   9.307  72.068  1.00  0.00    -0.331 OA 
BRANCH  20  22
HETATM   22  O   UNL     1     -13.063   8.851  70.993  1.00  0.00    -0.150 OA 
HETATM   23  C   UNL     1     -13.834   8.652  72.185  1.00  0.00    -0.429 C  
ENDBRANCH  20  22
ENDBRANCH   8  20
BRANCH  11  24
HETATM   24  C   UNL     1      -9.805   9.442  68.957  1.00  0.00    -0.171 A  
HETATM   25  C   UNL     1      -8.724   9.876  69.749  1.00  0.00    -0.229 A  
HETATM   26  C   UNL     1      -7.541   9.132  69.817  1.00  0.00    -0.079 A  
HETATM   27  C   UNL     1      -7.415   7.940  69.110  1.00  0.00    -0.093 A  
HETATM   28  C   UNL     1      -8.476   7.485  68.332  1.00  0.00    -0.125 A  
HETATM   29  C   UNL     1      -9.661   8.227  68.248  1.00  0.00    -0.147 A  
HETATM   30 CL   UNL     1     -10.892   7.597  67.204  1.00  0.00    -0.347 Cl 
ENDBRANCH  11  24
ENDBRANCH   4   6
ENDBRANCH   3   4
ENDBRANCH   2   3
TORSDOF 10
ENDMDL
MODEL       10
REMARK 921   NORMALIZED FREE ENERGY PREDICTED BY IDOCK:   -5.55 KCAL/MOL
REMARK 922        TOTAL FREE ENERGY PREDICTED BY IDOCK:  -10.36 KCAL/MOL
REMARK 923 INTER-LIGAND FREE ENERGY PREDICTED BY IDOCK:   -8.31 KCAL/MOL
REMARK 924 INTRA-LIGAND FREE ENERGY PREDICTED BY IDOCK:   -2.05 KCAL/MOL
REMARK 927      BINDING AFFINITY PREDICTED BY RF-SCORE:    0.00 PKD
ROOT
HETATM    1  C   UNL     1     -10.538  11.702  63.217  1.00  0.00    -0.420 C  
HETATM    2  C   UNL     1      -9.711  10.705  64.017  1.00  0.00    -0.315 C  
ENDROOT
BRANCH   2   3
HETATM    3  O   UNL     1     -10.250  10.555  65.337  1.00  0.00    -0.286 OA 
BRANCH   3   4
HETATM    4  C   UNL     1      -9.438  10.881  66.370  1.00  0.00    -0.187 C  
HETATM    5  O   UNL     1      -8.238  11.059  66.237  1.00  0.00    -0.161 OA 
BRANCH   4   6
HETATM    6  C   UNL     1     -10.199  11.040  67.661  1.00  0.00    -0.211 C  
HETATM    7  C   UNL     1     -10.634   9.984  68.401  1.00  0.00    -0.220 C  
HETATM    8  C   UNL     1     -11.426  12.553  69.377  1.00  0.00    -0.327 C  
HETATM    9  N   UNL     1     -11.313  10.196  69.586  1.00  0.00    -0.248 NA 
HETATM   10  C   UNL     1     -11.770  11.418  70.035  1.00  0.00    -0.334 C  
HETATM   11  C   UNL     1     -10.484  12.492  68.150  1.00  0.00    -0.238 C  
HETATM   12  C   UNL     1     -12.622  11.365  71.283  1.00  0.00    -0.480 C  
BRANCH   7  13
HETATM   13  C   UNL     1     -10.451   8.522  68.020  1.00  0.00    -0.191 C  
BRANCH  13  14
HETATM   14  O   UNL     1      -9.994   7.714  69.119  1.00  0.00    -0.172 OA 
BRANCH  14  15
HETATM   15  C   UNL     1     -10.873   6.575  69.231  1.00  0.00    -0.307 C  
BRANCH  15  16
HETATM   16  C   UNL     1     -11.490   6.498  70.626  1.00  0.00    -0.374 C  
HETATM   17  N   UNL     1     -12.674   7.354  70.723  1.00  0.00    -0.585 NA 
HETATM   18  H2  UNL     1     -13.356   7.137  69.997  1.00  0.00     0.000 HD 
HETATM   19  H1  UNL     1     -13.086   7.303  71.654  1.00  0.00     0.000 HD 
ENDBRANCH  15  16
ENDBRANCH  14  15
ENDBRANCH  13  14
ENDBRANCH   7  13
BRANCH   8  20
HETATM   20  C   UNL     1     -11.959  13.860  69.860  1.00  0.00    -0.341 C  
HETATM   21  O   UNL     1     -13.129  14.201  69.767  1.00  0.00     0.195 OA 
BRANCH  20  22
HETATM   22  O   UNL     1     -10.985  14.622  70.416  1.00  0.00    -0.132 OA 
HETATM   23  C   UNL     1     -11.439  15.503  71.451  1.00  0.00    -0.414 C  
ENDBRANCH  20  22
ENDBRANCH   8  20
BRANCH  11  24
HETATM   24  C   UNL     1     -10.926  13.422  67.011  1.00  0.00    -0.298 A  
HETATM   25  C   UNL     1     -12.212  13.288  66.451  1.00  0.00    -0.419 A  
HETATM   26  C   UNL     1     -12.599  14.057  65.349  1.00  0.00    -0.529 A  
HETATM   27  C   UNL     1     -11.720  14.981  64.790  1.00  0.00    -0.370 A  
HETATM   28  C   UNL     1     -10.450  15.140  65.335  1.00  0.00    -0.416 A  
HETATM   29  C   UNL     1     -10.049  14.368  66.432  1.00  0.00    -0.286 A  
HETATM   30 CL   UNL     1      -8.426  14.606  66.990  1.00  0.00    -0.245 Cl 
ENDBRANCH  11  24
ENDBRANCH   4   6
ENDBRANCH   3   4
ENDBRANCH   2   3
TORSDOF 10
ENDMDL
MODEL       11
REMARK 921   NORMALIZED FREE ENERGY PREDICTED BY IDOCK:   -5.54 KCAL/MOL
REMARK 922        TOTAL FREE ENERGY PREDICTED BY IDOCK:  -10.33 KCAL/MOL
REMARK 923 INTER-LIGAND FREE ENERGY PREDICTED BY IDOCK:   -8.96 KCAL/MOL
REMARK 924 INTRA-LIGAND FREE ENERGY PREDICTED BY IDOCK:   -1.37 KCAL/MOL
REMARK 927      BINDING AFFINITY PREDICTED BY RF-SCORE:    0.00 PKD
ROOT
HETATM    1  C   UNL     1      -9.000   9.452  70.480  1.00  0.00    -0.303 C  
HETATM    2  C   UNL     1     -10.163   9.745  69.541  1.00  0.00    -0.221 C  
ENDROOT
BRANCH   2   3
HETATM    3  O   UNL     1     -10.098  11.100  69.076  1.00  0.00    -0.204 OA 
BRANCH   3   4
HETATM    4  C   UNL     1     -11.244  11.638  68.595  1.00  0.00    -0.250 C  
HETATM    5  O   UNL     1     -12.244  10.974  68.373  1.00  0.00    -0.586 OA 
BRANCH   4   6
HETATM    6  C   UNL     1     -11.141  13.131  68.422  1.00  0.00    -0.298 C  
HETATM    7  C   UNL     1     -11.755  14.018  69.251  1.00  0.00    -0.326 C  
HETATM    8  C   UNL     1     -10.387  15.186  67.027  1.00  0.00    -0.271 C  
HETATM    9  N   UNL     1     -11.607  15.378  69.048  1.00  0.00    -0.327 NA 
HETATM   10  C   UNL     1     -11.019  15.960  67.944  1.00  0.00    -0.327 C  
HETATM   11  C   UNL     1     -10.281  13.656  67.233  1.00  0.00    -0.246 C  
HETATM   12  C   UNL     1     -11.121  17.467  67.883  1.00  0.00     0.015 C  
BRANCH   7  13
HETATM   13  C   UNL     1     -12.646  13.639  70.424  1.00  0.00    -0.227 C  
BRANCH  13  14
HETATM   14  O   UNL     1     -12.124  12.536  71.186  1.00  0.00    -0.133 OA 
BRANCH  14  15
HETATM   15  C   UNL     1     -13.227  11.901  71.864  1.00  0.00    -0.362 C  
BRANCH  15  16
HETATM   16  C   UNL     1     -13.048  10.383  71.893  1.00  0.00    -0.458 C  
HETATM   17  N   UNL     1     -13.531   9.776  70.652  1.00  0.00    -0.592 NA 
HETATM   18  H2  UNL     1     -13.089  10.191  69.832  1.00  0.00     0.000 HD 
HETATM   19  H1  UNL     1     -13.412   8.763  70.670  1.00  0.00     0.000 HD 
ENDBRANCH  15  16
ENDBRANCH  14  15
ENDBRANCH  13  14
ENDBRANCH   7  13
BRANCH   8  20
HETATM   20  C   UNL     1      -9.787  15.833  65.824  1.00  0.00    -0.348 C  
HETATM   21  O   UNL     1     -10.425  16.182  64.841  1.00  0.00    -0.605 OA 
BRANCH  20  22
HETATM   22  O   UNL     1      -8.447  15.989  65.957  1.00  0.00    -0.302 OA 
HETATM   23  C   UNL     1      -8.032  17.324  66.270  1.00  0.00    -0.295 C  
ENDBRANCH  20  22
ENDBRANCH   8  20
BRANCH  11  24
HETATM   24  C   UNL     1     -10.516  12.862  65.939  1.00  0.00    -0.294 A  
HETATM   25  C   UNL     1      -9.483  12.066  65.405  1.00  0.00    -0.080 A  
HETATM   26  C   UNL     1      -9.642  11.414  64.177  1.00  0.00    -0.217 A  
HETATM   27  C   UNL     1     -10.832  11.531  63.465  1.00  0.00    -0.473 A  
HETATM   28  C   UNL     1     -11.871  12.301  63.981  1.00  0.00    -0.530 A  
HETATM   29  C   UNL     1     -11.718  12.966  65.203  1.00  0.00    -0.349 A  
HETATM   30 CL   UNL     1     -13.053  13.944  65.720  1.00  0.00    -0.352 Cl 
ENDBRANCH  11  24
ENDBRANCH   4   6
ENDBRANCH   3   4
ENDBRANCH   2   3
TORSDOF 10
ENDMDL
MODEL       12
REMARK 921   NORMALIZED FREE ENERGY PREDICTED BY IDOCK:   -5.52 KCAL/MOL
REMARK 922        TOTAL FREE ENERGY PREDICTED BY IDOCK:  -10.31 KCAL/MOL
REMARK 923 INTER-LIGAND FREE ENERGY PREDICTED BY IDOCK:   -8.52 KCAL/MOL
REMARK 924 INTRA-LIGAND FREE ENERGY PREDICTED BY IDOCK:   -1.79 KCAL/MOL
REMARK 927      BINDING AFFINITY PREDICTED BY RF-SCORE:    0.00 PKD
ROOT
HETATM    1  C   UNL     1      -8.724   9.368  70.433  1.00  0.00    -0.278 C  
HETATM    2  C   UNL     1      -9.615   9.265  69.202  1.00  0.00    -0.161 C  
ENDROOT
BRANCH   2   3
HETATM    3  O   UNL     1      -9.825  10.563  68.629  1.00  0.00    -0.163 OA 
BRANCH   3   4
HETATM    4  C   UNL     1     -11.109  10.962  68.470  1.00  0.00    -0.256 C  
HETATM    5  O   UNL     1     -11.905  10.361  67.767  1.00  0.00    -0.240 OA 
BRANCH   4   6
HETATM    6  C   UNL     1     -11.429  12.184  69.292  1.00  0.00    -0.363 C  
HETATM    7  C   UNL     1     -12.174  12.139  70.429  1.00  0.00    -0.294 C  
HETATM    8  C   UNL     1     -11.399  14.762  69.594  1.00  0.00    -0.316 C  
HETATM    9  N   UNL     1     -12.418  13.294  71.148  1.00  0.00    -0.350 NA 
HETATM   10  C   UNL     1     -12.122  14.573  70.726  1.00  0.00    -0.329 C  
HETATM   11  C   UNL     1     -10.865  13.549  68.794  1.00  0.00    -0.279 C  
HETATM   12  C   UNL     1     -12.630  15.679  71.622  1.00  0.00    -0.512 C  
BRANCH   7  13
HETATM   13  C   UNL     1     -12.809  10.881  71.003  1.00  0.00    -0.376 C  
BRANCH  13  14
HETATM   14  O   UNL     1     -11.867  10.055  71.711  1.00  0.00    -0.323 OA 
BRANCH  14  15
HETATM   15  C   UNL     1     -12.534   8.827  72.071  1.00  0.00    -0.386 C  
BRANCH  15  16
HETATM   16  C   UNL     1     -11.543   7.666  72.130  1.00  0.00    -0.308 C  
HETATM   17  N   UNL     1     -11.094   7.430  73.503  1.00  0.00    -0.587 NA 
HETATM   18  H2  UNL     1     -11.879   7.287  74.137  1.00  0.00     0.000 HD 
HETATM   19  H1  UNL     1     -10.432   6.655  73.543  1.00  0.00     0.000 HD 
ENDBRANCH  15  16
ENDBRANCH  14  15
ENDBRANCH  13  14
ENDBRANCH   7  13
BRANCH   8  20
HETATM   20  C   UNL     1     -11.117  16.154  69.137  1.00  0.00    -0.329 C  
HETATM   21  O   UNL     1     -11.895  16.832  68.480  1.00  0.00     0.155 OA 
BRANCH  20  22
HETATM   22  O   UNL     1      -9.894  16.575  69.542  1.00  0.00    -0.197 OA 
HETATM   23  C   UNL     1      -9.059  17.075  68.491  1.00  0.00    -0.259 C  
ENDBRANCH  20  22
ENDBRANCH   8  20
BRANCH  11  24
HETATM   24  C   UNL     1     -11.004  13.726  67.275  1.00  0.00    -0.302 A  
HETATM   25  C   UNL     1     -12.283  13.793  66.688  1.00  0.00    -0.454 A  
HETATM   26  C   UNL     1     -12.432  13.854  65.298  1.00  0.00    -0.504 A  
HETATM   27  C   UNL     1     -11.315  13.863  64.468  1.00  0.00    -0.381 A  
HETATM   28  C   UNL     1     -10.042  13.813  65.027  1.00  0.00    -0.310 A  
HETATM   29  C   UNL     1      -9.881  13.740  66.416  1.00  0.00    -0.298 A  
HETATM   30 CL   UNL     1      -8.253  13.621  66.998  1.00  0.00    -0.117 Cl 
ENDBRANCH  11  24
ENDBRANCH   4   6
ENDBRANCH   3   4
ENDBRANCH   2   3
TORSDOF 10
ENDMDL
MODEL       13
REMARK 921   NORMALIZED FREE ENERGY PREDICTED BY IDOCK:   -5.51 KCAL/MOL
REMARK 922        TOTAL FREE ENERGY PREDICTED BY IDOCK:  -10.29 KCAL/MOL
REMARK 923 INTER-LIGAND FREE ENERGY PREDICTED BY IDOCK:   -8.82 KCAL/MOL
REMARK 924 INTRA-LIGAND FREE ENERGY PREDICTED BY IDOCK:   -1.47 KCAL/MOL
REMARK 927      BINDING AFFINITY PREDICTED BY RF-SCORE:    0.00 PKD
ROOT
HETATM    1  C   UNL     1     -10.531  15.417  65.195  1.00  0.00    -0.439 C  
HETATM    2  C   UNL     1     -10.161  13.996  65.601  1.00  0.00    -0.334 C  
ENDROOT
BRANCH   2   3
HETATM    3  O   UNL     1     -10.733  13.678  66.877  1.00  0.00    -0.273 OA 
BRANCH   3   4
HETATM    4  C   UNL     1     -11.686  12.716  66.898  1.00  0.00    -0.383 C  
HETATM    5  O   UNL     1     -12.521  12.593  66.017  1.00  0.00    -0.555 OA 
BRANCH   4   6
HETATM    6  C   UNL     1     -11.551  11.811  68.096  1.00  0.00    -0.391 C  
HETATM    7  C   UNL     1     -11.851  12.207  69.362  1.00  0.00    -0.309 C  
HETATM    8  C   UNL     1     -10.764   9.571  69.144  1.00  0.00    -0.228 C  
HETATM    9  N   UNL     1     -11.722  11.323  70.418  1.00  0.00    -0.329 NA 
HETATM   10  C   UNL     1     -11.130  10.079  70.347  1.00  0.00    -0.327 C  
HETATM   11  C   UNL     1     -11.046  10.359  67.842  1.00  0.00    -0.363 C  
HETATM   12  C   UNL     1     -10.971   9.369  71.672  1.00  0.00    -0.382 C  
BRANCH   7  13
HETATM   13  C   UNL     1     -12.321  13.602  69.749  1.00  0.00    -0.228 C  
BRANCH  13  14
HETATM   14  O   UNL     1     -12.945  13.640  71.045  1.00  0.00    -0.297 OA 
BRANCH  14  15
HETATM   15  C   UNL     1     -13.431  14.980  71.266  1.00  0.00    -0.447 C  
BRANCH  15  16
HETATM   16  C   UNL     1     -12.610  15.686  72.344  1.00  0.00    -0.421 C  
HETATM   17  N   UNL     1     -13.446  16.034  73.494  1.00  0.00    -0.837 NA 
HETATM   18  H2  UNL     1     -13.934  15.219  73.866  1.00  0.00     0.000 HD 
HETATM   19  H1  UNL     1     -12.899  16.505  74.214  1.00  0.00     0.000 HD 
ENDBRANCH  15  16
ENDBRANCH  14  15
ENDBRANCH  13  14
ENDBRANCH   7  13
BRANCH   8  20
HETATM   20  C   UNL     1     -10.095   8.238  69.094  1.00  0.00    -0.202 C  
HETATM   21  O   UNL     1      -8.927   8.043  69.402  1.00  0.00    -0.147 OA 
BRANCH  20  22
HETATM   22  O   UNL     1     -10.942   7.269  68.669  1.00  0.00    -0.116 OA 
HETATM   23  C   UNL     1     -11.241   6.268  69.649  1.00  0.00    -0.437 C  
ENDBRANCH  20  22
ENDBRANCH   8  20
BRANCH  11  24
HETATM   24  C   UNL     1      -9.877  10.306  66.847  1.00  0.00    -0.244 A  
HETATM   25  C   UNL     1     -10.021   9.615  65.628  1.00  0.00    -0.321 A  
HETATM   26  C   UNL     1      -8.940   9.470  64.752  1.00  0.00    -0.263 A  
HETATM   27  C   UNL     1      -7.700  10.019  65.066  1.00  0.00    -0.138 A  
HETATM   28  C   UNL     1      -7.538  10.717  66.259  1.00  0.00    -0.142 A  
HETATM   29  C   UNL     1      -8.611  10.859  67.147  1.00  0.00    -0.130 A  
HETATM   30 CL   UNL     1      -8.280  11.696  68.628  1.00  0.00    -0.140 Cl 
ENDBRANCH  11  24
ENDBRANCH   4   6
ENDBRANCH   3   4
ENDBRANCH   2   3
TORSDOF 10
ENDMDL
MODEL       14
REMARK 921   NORMALIZED FREE ENERGY PREDICTED BY IDOCK:   -5.50 KCAL/MOL
REMARK 922        TOTAL FREE ENERGY PREDICTED BY IDOCK:  -10.27 KCAL/MOL
REMARK 923 INTER-LIGAND FREE ENERGY PREDICTED BY IDOCK:   -8.36 KCAL/MOL
REMARK 924 INTRA-LIGAND FREE ENERGY PREDICTED BY IDOCK:   -1.91 KCAL/MOL
REMARK 927      BINDING AFFINITY PREDICTED BY RF-SCORE:    0.00 PKD
ROOT
HETATM    1  C   UNL     1     -11.681  10.452  70.219  1.00  0.00    -0.406 C  
HETATM    2  C   UNL     1     -11.988  11.731  69.452  1.00  0.00    -0.298 C  
ENDROOT
BRANCH   2   3
HETATM    3  O   UNL     1     -11.837  11.516  68.043  1.00  0.00    -0.545 OA 
BRANCH   3   4
HETATM    4  C   UNL     1     -11.011  12.358  67.379  1.00  0.00    -0.254 C  
HETATM    5  O   UNL     1     -10.762  13.487  67.773  1.00  0.00    -0.246 OA 
BRANCH   4   6
HETATM    6  C   UNL     1     -10.416  11.719  66.151  1.00  0.00    -0.284 C  
HETATM    7  C   UNL     1     -11.064  11.660  64.957  1.00  0.00    -0.249 C  
HETATM    8  C   UNL     1      -8.541  10.316  65.031  1.00  0.00    -0.190 C  
HETATM    9  N   UNL     1     -10.456  11.074  63.862  1.00  0.00    -0.371 NA 
HETATM   10  C   UNL     1      -9.279  10.356  63.894  1.00  0.00    -0.266 C  
HETATM   11  C   UNL     1      -8.987  11.108  66.283  1.00  0.00    -0.202 C  
HETATM   12  C   UNL     1      -8.904   9.682  62.594  1.00  0.00    -0.254 C  
BRANCH   7  13
HETATM   13  C   UNL     1     -12.470  12.186  64.704  1.00  0.00    -0.236 C  
BRANCH  13  14
HETATM   14  O   UNL     1     -12.478  13.412  63.950  1.00  0.00    -0.658 OA 
BRANCH  14  15
HETATM   15  C   UNL     1     -12.529  14.509  64.885  1.00  0.00    -0.311 C  
BRANCH  15  16
HETATM   16  C   UNL     1     -11.267  15.364  64.791  1.00  0.00    -0.395 C  
HETATM   17  N   UNL     1     -11.446  16.459  63.835  1.00  0.00    -1.618 NA 
HETATM   18  H2  UNL     1     -12.266  17.022  64.058  1.00  0.00     0.000 HD 
HETATM   19  H1  UNL     1     -10.604  17.030  63.772  1.00  0.00     0.000 HD 
ENDBRANCH  15  16
ENDBRANCH  14  15
ENDBRANCH  13  14
ENDBRANCH   7  13
BRANCH   8  20
HETATM   20  C   UNL     1      -7.288   9.506  65.053  1.00  0.00    -0.110 C  
HETATM   21  O   UNL     1      -7.260   8.285  65.123  1.00  0.00    -0.076 OA 
BRANCH  20  22
HETATM   22  O   UNL     1      -6.185  10.290  64.984  1.00  0.00    -0.116 OA 
HETATM   23  C   UNL     1      -5.408  10.120  63.792  1.00  0.00    -0.119 C  
ENDBRANCH  20  22
ENDBRANCH   8  20
BRANCH  11  24
HETATM   24  C   UNL     1      -8.801  10.320  67.588  1.00  0.00    -0.121 A  
HETATM   25  C   UNL     1      -7.948  10.815  68.594  1.00  0.00    -0.133 A  
HETATM   26  C   UNL     1      -7.687  10.065  69.746  1.00  0.00    -0.173 A  
HETATM   27  C   UNL     1      -8.277   8.817  69.925  1.00  0.00    -0.118 A  
HETATM   28  C   UNL     1      -9.134   8.315  68.950  1.00  0.00    -0.147 A  
HETATM   29  C   UNL     1      -9.394   9.052  67.788  1.00  0.00    -0.140 A  
HETATM   30 CL   UNL     1     -10.428   8.304  66.616  1.00  0.00    -0.325 Cl 
ENDBRANCH  11  24
ENDBRANCH   4   6
ENDBRANCH   3   4
ENDBRANCH   2   3
TORSDOF 10
ENDMDL
MODEL       15
REMARK 921   NORMALIZED FREE ENERGY PREDICTED BY IDOCK:   -5.47 KCAL/MOL
REMARK 922        TOTAL FREE ENERGY PREDICTED BY IDOCK:  -10.23 KCAL/MOL
REMARK 923 INTER-LIGAND FREE ENERGY PREDICTED BY IDOCK:   -8.50 KCAL/MOL
REMARK 924 INTRA-LIGAND FREE ENERGY PREDICTED BY IDOCK:   -1.73 KCAL/MOL
REMARK 927      BINDING AFFINITY PREDICTED BY RF-SCORE:    0.00 PKD
ROOT
HETATM    1  C   UNL     1     -10.536  12.563  65.154  1.00  0.00    -0.320 C  
HETATM    2  C   UNL     1     -11.677  13.146  65.978  1.00  0.00    -0.379 C  
ENDROOT
BRANCH   2   3
HETATM    3  O   UNL     1     -11.935  12.325  67.124  1.00  0.00    -0.564 OA 
BRANCH   3   4
HETATM    4  C   UNL     1     -11.218  12.589  68.241  1.00  0.00    -0.266 C  
HETATM    5  O   UNL     1     -10.589  13.624  68.393  1.00  0.00    -0.238 OA 
BRANCH   4   6
HETATM    6  C   UNL     1     -11.335  11.489  69.264  1.00  0.00    -0.353 C  
HETATM    7  C   UNL     1     -12.020  11.630  70.431  1.00  0.00    -0.358 C  
HETATM    8  C   UNL     1     -10.651   9.138  70.126  1.00  0.00    -0.258 C  
HETATM    9  N   UNL     1     -12.105  10.576  71.321  1.00  0.00    -0.352 NA 
HETATM   10  C   UNL     1     -11.393   9.398  71.232  1.00  0.00    -0.366 C  
HETATM   11  C   UNL     1     -10.633  10.135  68.943  1.00  0.00    -0.237 C  
HETATM   12  C   UNL     1     -11.542   8.466  72.413  1.00  0.00    -0.450 C  
BRANCH   7  13
HETATM   13  C   UNL     1     -12.721  12.905  70.879  1.00  0.00    -0.207 C  
BRANCH  13  14
HETATM   14  O   UNL     1     -13.293  12.793  72.194  1.00  0.00    -0.517 OA 
BRANCH  14  15
HETATM   15  C   UNL     1     -13.911  14.054  72.520  1.00  0.00    -0.505 C  
BRANCH  15  16
HETATM   16  C   UNL     1     -12.948  14.945  73.304  1.00  0.00    -0.519 C  
HETATM   17  N   UNL     1     -13.578  16.222  73.648  1.00  0.00    -0.853 NA 
HETATM   18  H2  UNL     1     -14.456  16.085  74.148  1.00  0.00     0.000 HD 
HETATM   19  H1  UNL     1     -12.936  16.816  74.171  1.00  0.00     0.000 HD 
ENDBRANCH  15  16
ENDBRANCH  14  15
ENDBRANCH  13  14
ENDBRANCH   7  13
BRANCH   8  20
HETATM   20  C   UNL     1      -9.862   7.873  70.064  1.00  0.00    -0.181 C  
HETATM   21  O   UNL     1      -8.880   7.641  70.756  1.00  0.00    -0.141 OA 
BRANCH  20  22
HETATM   22  O   UNL     1     -10.371   7.011  69.150  1.00  0.00    -0.187 OA 
HETATM   23  C   UNL     1     -10.979   5.841  69.709  1.00  0.00    -0.327 C  
ENDBRANCH  20  22
ENDBRANCH   8  20
BRANCH  11  24
HETATM   24  C   UNL     1      -9.231  10.325  68.344  1.00  0.00    -0.136 A  
HETATM   25  C   UNL     1      -8.244  11.023  69.067  1.00  0.00    -0.101 A  
HETATM   26  C   UNL     1      -6.995  11.293  68.500  1.00  0.00    -0.078 A  
HETATM   27  C   UNL     1      -6.699  10.865  67.209  1.00  0.00    -0.082 A  
HETATM   28  C   UNL     1      -7.654  10.161  66.481  1.00  0.00    -0.109 A  
HETATM   29  C   UNL     1      -8.911   9.895  67.035  1.00  0.00    -0.138 A  
HETATM   30 CL   UNL     1     -10.042   9.065  66.017  1.00  0.00    -0.279 Cl 
ENDBRANCH  11  24
ENDBRANCH   4   6
ENDBRANCH   3   4
ENDBRANCH   2   3
TORSDOF 10
ENDMDL
MODEL       16
REMARK 921   NORMALIZED FREE ENERGY PREDICTED BY IDOCK:   -5.42 KCAL/MOL
REMARK 922        TOTAL FREE ENERGY PREDICTED BY IDOCK:  -10.14 KCAL/MOL
REMARK 923 INTER-LIGAND FREE ENERGY PREDICTED BY IDOCK:   -7.89 KCAL/MOL
REMARK 924 INTRA-LIGAND FREE ENERGY PREDICTED BY IDOCK:   -2.26 KCAL/MOL
REMARK 927      BINDING AFFINITY PREDICTED BY RF-SCORE:    0.00 PKD
ROOT
HETATM    1  C   UNL     1      -6.156  11.028  66.333  1.00  0.00    -0.141 C  
HETATM    2  C   UNL     1      -7.393  10.413  65.692  1.00  0.00    -0.148 C  
ENDROOT
BRANCH   2   3
HETATM    3  O   UNL     1      -8.581  10.992  66.247  1.00  0.00    -0.159 OA 
BRANCH   3   4
HETATM    4  C   UNL     1      -9.715  10.254  66.172  1.00  0.00    -0.211 C  
HETATM    5  O   UNL     1      -9.982   9.549  65.212  1.00  0.00    -0.247 OA 
BRANCH   4   6
HETATM    6  C   UNL     1     -10.555  10.377  67.416  1.00  0.00    -0.321 C  
HETATM    7  C   UNL     1     -11.404  11.417  67.639  1.00  0.00    -0.290 C  
HETATM    8  C   UNL     1     -11.184   9.552  69.796  1.00  0.00    -0.173 C  
HETATM    9  N   UNL     1     -12.161  11.463  68.795  1.00  0.00    -0.514 NA 
HETATM   10  C   UNL     1     -12.015  10.621  69.877  1.00  0.00    -0.310 C  
HETATM   11  C   UNL     1     -10.429   9.245  68.480  1.00  0.00    -0.240 C  
HETATM   12  C   UNL     1     -12.855  10.974  71.083  1.00  0.00    -0.491 C  
BRANCH   7  13
HETATM   13  C   UNL     1     -11.595  12.600  66.700  1.00  0.00    -0.381 C  
BRANCH  13  14
HETATM   14  O   UNL     1     -12.471  12.300  65.599  1.00  0.00    -0.591 OA 
BRANCH  14  15
HETATM   15  C   UNL     1     -12.135  13.183  64.509  1.00  0.00    -0.404 C  
BRANCH  15  16
HETATM   16  C   UNL     1     -11.045  12.572  63.630  1.00  0.00    -0.467 C  
HETATM   17  N   UNL     1     -11.441  11.247  63.150  1.00  0.00    -0.831 NA 
HETATM   18  H2  UNL     1     -12.340  11.273  62.671  1.00  0.00     0.000 HD 
HETATM   19  H1  UNL     1     -10.714  10.839  62.563  1.00  0.00     0.000 HD 
ENDBRANCH  15  16
ENDBRANCH  14  15
ENDBRANCH  13  14
ENDBRANCH   7  13
BRANCH   8  20
HETATM   20  C   UNL     1     -11.016   8.672  70.989  1.00  0.00    -0.260 C  
HETATM   21  O   UNL     1     -10.462   9.016  72.024  1.00  0.00    -0.346 OA 
BRANCH  20  22
HETATM   22  O   UNL     1     -11.556   7.446  70.785  1.00  0.00    -0.290 OA 
HETATM   23  C   UNL     1     -12.796   7.221  71.467  1.00  0.00    -0.388 C  
ENDBRANCH  20  22
ENDBRANCH   8  20
BRANCH  11  24
HETATM   24  C   UNL     1      -8.974   8.813  68.712  1.00  0.00    -0.138 A  
HETATM   25  C   UNL     1      -8.106   9.633  69.461  1.00  0.00    -0.129 A  
HETATM   26  C   UNL     1      -6.753   9.308  69.601  1.00  0.00    -0.047 A  
HETATM   27  C   UNL     1      -6.240   8.157  69.010  1.00  0.00    -0.040 A  
HETATM   28  C   UNL     1      -7.081   7.324  68.278  1.00  0.00    -0.081 A  
HETATM   29  C   UNL     1      -8.435   7.646  68.123  1.00  0.00    -0.124 A  
HETATM   30 CL   UNL     1      -9.375   6.571  67.142  1.00  0.00    -0.129 Cl 
ENDBRANCH  11  24
ENDBRANCH   4   6
ENDBRANCH   3   4
ENDBRANCH   2   3
TORSDOF 10
ENDMDL
MODEL       17
REMARK 921   NORMALIZED FREE ENERGY PREDICTED BY IDOCK:   -5.39 KCAL/MOL
REMARK 922        TOTAL FREE ENERGY PREDICTED BY IDOCK:  -10.10 KCAL/MOL
REMARK 923 INTER-LIGAND FREE ENERGY PREDICTED BY IDOCK:   -8.73 KCAL/MOL
REMARK 924 INTRA-LIGAND FREE ENERGY PREDICTED BY IDOCK:   -1.37 KCAL/MOL
REMARK 927      BINDING AFFINITY PREDICTED BY RF-SCORE:    0.00 PKD
ROOT
HETATM    1  C   UNL     1     -12.109  15.363  72.194  1.00  0.00    -0.489 C  
HETATM    2  C   UNL     1     -11.334  15.555  70.897  1.00  0.00    -0.369 C  
ENDROOT
BRANCH   2   3
HETATM    3  O   UNL     1     -11.086  14.289  70.272  1.00  0.00    -0.081 OA 
BRANCH   3   4
HETATM    4  C   UNL     1     -11.838  13.984  69.187  1.00  0.00    -0.350 C  
HETATM    5  O   UNL     1     -12.661  14.752  68.717  1.00  0.00     0.068 OA 
BRANCH   4   6
HETATM    6  C   UNL     1     -11.497  12.629  68.624  1.00  0.00    -0.347 C  
HETATM    7  C   UNL     1     -11.733  11.467  69.292  1.00  0.00    -0.330 C  
HETATM    8  C   UNL     1     -10.367  11.172  66.796  1.00  0.00    -0.284 C  
HETATM    9  N   UNL     1     -11.412  10.253  68.713  1.00  0.00    -0.168 NA 
HETATM   10  C   UNL     1     -10.687  10.091  67.551  1.00  0.00    -0.281 C  
HETATM   11  C   UNL     1     -10.849  12.584  67.207  1.00  0.00    -0.277 C  
HETATM   12  C   UNL     1     -10.334   8.662  67.209  1.00  0.00    -0.366 C  
BRANCH   7  13
HETATM   13  C   UNL     1     -12.327  11.373  70.690  1.00  0.00    -0.373 C  
BRANCH  13  14
HETATM   14  O   UNL     1     -12.899  10.082  70.965  1.00  0.00    -0.347 OA 
BRANCH  14  15
HETATM   15  C   UNL     1     -11.997   9.372  71.838  1.00  0.00    -0.346 C  
BRANCH  15  16
HETATM   16  C   UNL     1     -12.752   8.354  72.692  1.00  0.00    -0.140 C  
HETATM   17  N   UNL     1     -14.008   8.919  73.190  1.00  0.00    -1.215 NA 
HETATM   18  H2  UNL     1     -14.587   9.277  72.431  1.00  0.00     0.000 HD 
HETATM   19  H1  UNL     1     -14.512   8.240  73.759  1.00  0.00     0.000 HD 
ENDBRANCH  15  16
ENDBRANCH  14  15
ENDBRANCH  13  14
ENDBRANCH   7  13
BRANCH   8  20
HETATM   20  C   UNL     1      -9.554  10.978  65.560  1.00  0.00    -0.222 C  
HETATM   21  O   UNL     1      -8.332  10.953  65.539  1.00  0.00    -0.154 OA 
BRANCH  20  22
HETATM   22  O   UNL     1     -10.338  10.830  64.465  1.00  0.00    -0.345 OA 
HETATM   23  C   UNL     1     -10.071  11.765  63.412  1.00  0.00    -0.446 C  
ENDBRANCH  20  22
ENDBRANCH   8  20
BRANCH  11  24
HETATM   24  C   UNL     1      -9.771  13.662  67.018  1.00  0.00    -0.251 A  
HETATM   25  C   UNL     1      -8.616  13.652  67.824  1.00  0.00    -0.182 A  
HETATM   26  C   UNL     1      -7.670  14.679  67.736  1.00  0.00    -0.169 A  
HETATM   27  C   UNL     1      -7.849  15.728  66.838  1.00  0.00    -0.271 A  
HETATM   28  C   UNL     1      -8.976  15.750  66.021  1.00  0.00    -0.322 A  
HETATM   29  C   UNL     1      -9.934  14.733  66.109  1.00  0.00    -0.304 A  
HETATM   30 CL   UNL     1     -11.325  14.894  65.088  1.00  0.00    -0.367 Cl 
ENDBRANCH  11  24
ENDBRANCH   4   6
ENDBRANCH   3   4
ENDBRANCH   2   3
TORSDOF 10
ENDMDL
MODEL       18
REMARK 921   NORMALIZED FREE ENERGY PREDICTED BY IDOCK:   -5.38 KCAL/MOL
REMARK 922        TOTAL FREE ENERGY PREDICTED BY IDOCK:  -10.09 KCAL/MOL
REMARK 923 INTER-LIGAND FREE ENERGY PREDICTED BY IDOCK:   -8.03 KCAL/MOL
REMARK 924 INTRA-LIGAND FREE ENERGY PREDICTED BY IDOCK:   -2.06 KCAL/MOL
REMARK 927      BINDING AFFINITY PREDICTED BY RF-SCORE:    0.00 PKD
ROOT
HETATM    1  C   UNL     1     -12.593  12.077  63.616  1.00  0.00    -0.605 C  
HETATM    2  C   UNL     1     -11.532  13.161  63.747  1.00  0.00    -0.373 C  
ENDROOT
BRANCH   2   3
HETATM    3  O   UNL     1     -11.857  14.050  64.823  1.00  0.00    -0.363 OA 
BRANCH   3   4
HETATM    4  C   UNL     1     -10.887  14.286  65.738  1.00  0.00    -0.303 C  
HETATM    5  O   UNL     1      -9.774  14.682  65.433  1.00  0.00    -0.295 OA 
BRANCH   4   6
HETATM    6  C   UNL     1     -11.366  14.049  67.147  1.00  0.00    -0.348 C  
HETATM    7  C   UNL     1     -11.611  15.057  68.027  1.00  0.00    -0.338 C  
HETATM    8  C   UNL     1     -11.894  12.420  69.098  1.00  0.00    -0.352 C  
HETATM    9  N   UNL     1     -12.066  14.774  69.302  1.00  0.00    -0.289 NA 
HETATM   10  C   UNL     1     -12.135  13.515  69.862  1.00  0.00    -0.341 C  
HETATM   11  C   UNL     1     -11.584  12.570  67.589  1.00  0.00    -0.416 C  
HETATM   12  C   UNL     1     -12.516  13.484  71.324  1.00  0.00    -0.388 C  
BRANCH   7  13
HETATM   13  C   UNL     1     -11.407  16.536  67.733  1.00  0.00     0.005 C  
BRANCH  13  14
HETATM   14  O   UNL     1     -10.554  17.182  68.696  1.00  0.00    -0.346 OA 
BRANCH  14  15
HETATM   15  C   UNL     1      -9.213  17.194  68.165  1.00  0.00    -0.261 C  
BRANCH  15  16
HETATM   16  C   UNL     1      -9.151  17.986  66.860  1.00  0.00    -0.269 C  
HETATM   17  N   UNL     1      -8.401  17.253  65.838  1.00  0.00    -0.542 NA 
HETATM   18  H2  UNL     1      -8.779  16.318  65.692  1.00  0.00     0.000 HD 
HETATM   19  H1  UNL     1      -8.359  17.781  64.967  1.00  0.00     0.000 HD 
ENDBRANCH  15  16
ENDBRANCH  14  15
ENDBRANCH  13  14
ENDBRANCH   7  13
BRANCH   8  20
HETATM   20  C   UNL     1     -11.942  11.070  69.732  1.00  0.00    -0.356 C  
HETATM   21  O   UNL     1     -12.942  10.369  69.779  1.00  0.00    -0.059 OA 
BRANCH  20  22
HETATM   22  O   UNL     1     -10.739  10.717  70.246  1.00  0.00    -0.204 OA 
HETATM   23  C   UNL     1     -10.713   9.425  70.866  1.00  0.00    -0.323 C  
ENDBRANCH  20  22
ENDBRANCH   8  20
BRANCH  11  24
HETATM   24  C   UNL     1     -10.459  11.639  67.115  1.00  0.00    -0.252 A  
HETATM   25  C   UNL     1     -10.763  10.510  66.329  1.00  0.00    -0.139 A  
HETATM   26  C   UNL     1      -9.766   9.596  65.971  1.00  0.00    -0.331 A  
HETATM   27  C   UNL     1      -8.449   9.794  66.374  1.00  0.00    -0.128 A  
HETATM   28  C   UNL     1      -8.124  10.910  67.139  1.00  0.00    -0.127 A  
HETATM   29  C   UNL     1      -9.115  11.825  67.513  1.00  0.00    -0.175 A  
HETATM   30 CL   UNL     1      -8.607  13.145  68.515  1.00  0.00    -0.110 Cl 
ENDBRANCH  11  24
ENDBRANCH   4   6
ENDBRANCH   3   4
ENDBRANCH   2   3
TORSDOF 10
ENDMDL
MODEL       19
REMARK 921   NORMALIZED FREE ENERGY PREDICTED BY IDOCK:   -5.36 KCAL/MOL
REMARK 922        TOTAL FREE ENERGY PREDICTED BY IDOCK:  -10.06 KCAL/MOL
REMARK 923 INTER-LIGAND FREE ENERGY PREDICTED BY IDOCK:   -8.33 KCAL/MOL
REMARK 924 INTRA-LIGAND FREE ENERGY PREDICTED BY IDOCK:   -1.73 KCAL/MOL
REMARK 927      BINDING AFFINITY PREDICTED BY RF-SCORE:    0.00 PKD
ROOT
HETATM    1  C   UNL     1     -12.575  12.024  63.467  1.00  0.00    -0.625 C  
HETATM    2  C   UNL     1     -12.273  13.109  64.493  1.00  0.00    -0.406 C  
ENDROOT
BRANCH   2   3
HETATM    3  O   UNL     1     -12.429  12.595  65.822  1.00  0.00    -0.607 OA 
BRANCH   3   4
HETATM    4  C   UNL     1     -11.473  12.927  66.722  1.00  0.00    -0.340 C  
HETATM    5  O   UNL     1     -10.759  13.908  66.597  1.00  0.00    -0.279 OA 
BRANCH   4   6
HETATM    6  C   UNL     1     -11.442  11.977  67.892  1.00  0.00    -0.396 C  
HETATM    7  C   UNL     1     -11.781  12.347  69.157  1.00  0.00    -0.322 C  
HETATM    8  C   UNL     1     -10.823   9.665  68.895  1.00  0.00    -0.201 C  
HETATM    9  N   UNL     1     -11.748  11.423  70.185  1.00  0.00    -0.331 NA 
HETATM   10  C   UNL     1     -11.219  10.152  70.098  1.00  0.00    -0.310 C  
HETATM   11  C   UNL     1     -11.002  10.509  67.611  1.00  0.00    -0.375 C  
HETATM   12  C   UNL     1     -11.159   9.391  71.403  1.00  0.00    -0.450 C  
BRANCH   7  13
HETATM   13  C   UNL     1     -12.194  13.752  69.571  1.00  0.00    -0.293 C  
BRANCH  13  14
HETATM   14  O   UNL     1     -11.071  14.588  69.902  1.00  0.00    -0.237 OA 
BRANCH  14  15
HETATM   15  C   UNL     1     -11.512  15.960  69.867  1.00  0.00    -0.344 C  
BRANCH  15  16
HETATM   16  C   UNL     1     -10.928  16.689  68.658  1.00  0.00    -0.328 C  
HETATM   17  N   UNL     1     -10.464  18.028  69.028  1.00  0.00    -0.414 NA 
HETATM   18  H2  UNL     1      -9.803  17.997  69.804  1.00  0.00     0.000 HD 
HETATM   19  H1  UNL     1     -10.074  18.515  68.222  1.00  0.00     0.000 HD 
ENDBRANCH  15  16
ENDBRANCH  14  15
ENDBRANCH  13  14
ENDBRANCH   7  13
BRANCH   8  20
HETATM   20  C   UNL     1     -10.223   8.300  68.829  1.00  0.00    -0.210 C  
HETATM   21  O   UNL     1     -10.831   7.299  68.478  1.00  0.00    -0.162 OA 
BRANCH  20  22
HETATM   22  O   UNL     1      -8.920   8.308  69.202  1.00  0.00    -0.146 OA 
HETATM   23  C   UNL     1      -8.056   7.533  68.362  1.00  0.00    -0.125 C  
ENDBRANCH  20  22
ENDBRANCH   8  20
BRANCH  11  24
HETATM   24  C   UNL     1      -9.792  10.426  66.668  1.00  0.00    -0.251 A  
HETATM   25  C   UNL     1      -9.909   9.767  65.428  1.00  0.00    -0.365 A  
HETATM   26  C   UNL     1      -8.796   9.594  64.600  1.00  0.00    -0.253 A  
HETATM   27  C   UNL     1      -7.550  10.082  64.981  1.00  0.00    -0.139 A  
HETATM   28  C   UNL     1      -7.413  10.748  66.195  1.00  0.00    -0.129 A  
HETATM   29  C   UNL     1      -8.519  10.918  67.037  1.00  0.00    -0.134 A  
HETATM   30 CL   UNL     1      -8.221  11.709  68.550  1.00  0.00    -0.153 Cl 
ENDBRANCH  11  24
ENDBRANCH   4   6
ENDBRANCH   3   4
ENDBRANCH   2   3
TORSDOF 10
ENDMDL
MODEL       20
REMARK 921   NORMALIZED FREE ENERGY PREDICTED BY IDOCK:   -5.32 KCAL/MOL
REMARK 922        TOTAL FREE ENERGY PREDICTED BY IDOCK:   -9.99 KCAL/MOL
REMARK 923 INTER-LIGAND FREE ENERGY PREDICTED BY IDOCK:   -8.96 KCAL/MOL
REMARK 924 INTRA-LIGAND FREE ENERGY PREDICTED BY IDOCK:   -1.03 KCAL/MOL
REMARK 927      BINDING AFFINITY PREDICTED BY RF-SCORE:    0.00 PKD
ROOT
HETATM    1  C   UNL     1     -10.772  18.972  67.330  1.00  0.00    -0.556 C  
HETATM    2  C   UNL     1     -10.527  18.069  68.532  1.00  0.00    -0.280 C  
ENDROOT
BRANCH   2   3
HETATM    3  O   UNL     1     -11.287  16.860  68.409  1.00  0.00    -0.230 OA 
BRANCH   3   4
HETATM    4  C   UNL     1     -11.175  15.961  69.416  1.00  0.00    -0.336 C  
HETATM    5  O   UNL     1     -11.076  16.291  70.587  1.00  0.00    -0.341 OA 
BRANCH   4   6
HETATM    6  C   UNL     1     -11.237  14.541  68.919  1.00  0.00    -0.283 C  
HETATM    7  C   UNL     1     -11.821  13.533  69.621  1.00  0.00    -0.336 C  
HETATM    8  C   UNL     1     -10.545  12.731  67.190  1.00  0.00    -0.249 C  
HETATM    9  N   UNL     1     -11.860  12.252  69.101  1.00  0.00    -0.310 NA 
HETATM   10  C   UNL     1     -11.188  11.829  67.974  1.00  0.00    -0.263 C  
HETATM   11  C   UNL     1     -10.598  14.241  67.529  1.00  0.00    -0.261 C  
HETATM   12  C   UNL     1     -11.264  10.345  67.700  1.00  0.00    -0.287 C  
BRANCH   7  13
HETATM   13  C   UNL     1     -12.449  13.684  70.999  1.00  0.00    -0.377 C  
BRANCH  13  14
HETATM   14  O   UNL     1     -13.704  14.388  70.964  1.00  0.00    -0.313 OA 
BRANCH  14  15
HETATM   15  C   UNL     1     -14.128  14.608  72.325  1.00  0.00    -0.491 C  
BRANCH  15  16
HETATM   16  C   UNL     1     -12.930  14.878  73.233  1.00  0.00    -0.519 C  
HETATM   17  N   UNL     1     -13.119  16.113  73.997  1.00  0.00    -0.941 NA 
HETATM   18  H2  UNL     1     -13.993  16.100  74.522  1.00  0.00     0.000 HD 
HETATM   19  H1  UNL     1     -12.320  16.293  74.604  1.00  0.00     0.000 HD 
ENDBRANCH  15  16
ENDBRANCH  14  15
ENDBRANCH  13  14
ENDBRANCH   7  13
BRANCH   8  20
HETATM   20  C   UNL     1      -9.797  12.249  65.993  1.00  0.00    -0.248 C  
HETATM   21  O   UNL     1      -8.777  11.575  66.046  1.00  0.00    -0.176 OA 
BRANCH  20  22
HETATM   22  O   UNL     1     -10.388  12.646  64.840  1.00  0.00    -0.296 OA 
HETATM   23  C   UNL     1     -10.908  11.578  64.039  1.00  0.00    -0.387 C  
ENDBRANCH  20  22
ENDBRANCH   8  20
BRANCH  11  24
HETATM   24  C   UNL     1      -9.245  14.943  67.338  1.00  0.00    -0.198 A  
HETATM   25  C   UNL     1      -8.203  14.728  68.261  1.00  0.00    -0.142 A  
HETATM   26  C   UNL     1      -6.999  15.434  68.161  1.00  0.00    -0.131 A  
HETATM   27  C   UNL     1      -6.804  16.356  67.137  1.00  0.00    -0.238 A  
HETATM   28  C   UNL     1      -7.816  16.574  66.205  1.00  0.00    -0.266 A  
HETATM   29  C   UNL     1      -9.028  15.882  66.302  1.00  0.00    -0.346 A  
HETATM   30 CL   UNL     1     -10.237  16.276  65.125  1.00  0.00    -0.163 Cl 
ENDBRANCH  11  24
ENDBRANCH   4   6
ENDBRANCH   3   4
ENDBRANCH   2   3
TORSDOF 10
ENDMDL
MODEL       21
REMARK 921   NORMALIZED FREE ENERGY PREDICTED BY IDOCK:   -5.32 KCAL/MOL
REMARK 922        TOTAL FREE ENERGY PREDICTED BY IDOCK:   -9.98 KCAL/MOL
REMARK 923 INTER-LIGAND FREE ENERGY PREDICTED BY IDOCK:   -8.52 KCAL/MOL
REMARK 924 INTRA-LIGAND FREE ENERGY PREDICTED BY IDOCK:   -1.46 KCAL/MOL
REMARK 927      BINDING AFFINITY PREDICTED BY RF-SCORE:    0.00 PKD
ROOT
HETATM    1  C   UNL     1      -9.703  19.371  68.813  1.00  0.00    -0.516 C  
HETATM    2  C   UNL     1     -10.657  18.802  67.770  1.00  0.00    -0.390 C  
ENDROOT
BRANCH   2   3
HETATM    3  O   UNL     1     -10.523  17.376  67.698  1.00  0.00    -0.347 OA 
BRANCH   3   4
HETATM    4  C   UNL     1      -9.916  16.872  66.598  1.00  0.00    -0.296 C  
HETATM    5  O   UNL     1     -10.203  17.225  65.465  1.00  0.00    -0.602 OA 
BRANCH   4   6
HETATM    6  C   UNL     1      -8.836  15.882  66.948  1.00  0.00    -0.264 C  
HETATM    7  C   UNL     1      -7.519  16.214  67.022  1.00  0.00    -0.229 C  
HETATM    8  C   UNL     1      -8.089  13.438  67.405  1.00  0.00    -0.178 C  
HETATM    9  N   UNL     1      -6.578  15.261  67.366  1.00  0.00    -0.282 NA 
HETATM   10  C   UNL     1      -6.819  13.908  67.479  1.00  0.00    -0.130 C  
HETATM   11  C   UNL     1      -9.278  14.415  67.239  1.00  0.00    -0.214 C  
HETATM   12  C   UNL     1      -5.592  13.056  67.711  1.00  0.00    -0.126 C  
BRANCH   7  13
HETATM   13  C   UNL     1      -6.954  17.597  66.729  1.00  0.00    -0.199 C  
BRANCH  13  14
HETATM   14  O   UNL     1      -7.029  17.945  65.335  1.00  0.00    -0.434 OA 
BRANCH  14  15
HETATM   15  C   UNL     1      -6.756  19.357  65.214  1.00  0.00    -0.231 C  
BRANCH  15  16
HETATM   16  C   UNL     1      -6.503  19.982  66.585  1.00  0.00    -0.192 C  
HETATM   17  N   UNL     1      -6.979  21.366  66.625  1.00  0.00    -0.782 NA 
HETATM   18  H2  UNL     1      -7.960  21.435  66.355  1.00  0.00     0.000 HD 
HETATM   19  H1  UNL     1      -6.811  21.784  67.539  1.00  0.00     0.000 HD 
ENDBRANCH  15  16
ENDBRANCH  14  15
ENDBRANCH  13  14
ENDBRANCH   7  13
BRANCH   8  20
HETATM   20  C   UNL     1      -8.324  11.967  67.497  1.00  0.00    -0.166 C  
HETATM   21  O   UNL     1      -8.472  11.233  66.530  1.00  0.00    -0.163 OA 
BRANCH  20  22
HETATM   22  O   UNL     1      -8.349  11.545  68.785  1.00  0.00    -0.141 OA 
HETATM   23  C   UNL     1      -9.195  10.413  69.023  1.00  0.00    -0.187 C  
ENDBRANCH  20  22
ENDBRANCH   8  20
BRANCH  11  24
HETATM   24  C   UNL     1     -10.334  13.908  66.246  1.00  0.00    -0.293 A  
HETATM   25  C   UNL     1      -9.985  13.687  64.899  1.00  0.00    -0.183 A  
HETATM   26  C   UNL     1     -10.953  13.322  63.958  1.00  0.00    -0.317 A  
HETATM   27  C   UNL     1     -12.282  13.158  64.339  1.00  0.00    -0.462 A  
HETATM   28  C   UNL     1     -12.646  13.357  65.668  1.00  0.00    -0.496 A  
HETATM   29  C   UNL     1     -11.688  13.734  66.616  1.00  0.00    -0.394 A  
HETATM   30 CL   UNL     1     -12.264  14.014  68.226  1.00  0.00    -0.302 Cl 
ENDBRANCH  11  24
ENDBRANCH   4   6
ENDBRANCH   3   4
ENDBRANCH   2   3
TORSDOF 10
ENDMDL
MODEL       22
REMARK 921   NORMALIZED FREE ENERGY PREDICTED BY IDOCK:   -5.27 KCAL/MOL
REMARK 922        TOTAL FREE ENERGY PREDICTED BY IDOCK:   -9.91 KCAL/MOL
REMARK 923 INTER-LIGAND FREE ENERGY PREDICTED BY IDOCK:   -8.29 KCAL/MOL
REMARK 924 INTRA-LIGAND FREE ENERGY PREDICTED BY IDOCK:   -1.62 KCAL/MOL
REMARK 927      BINDING AFFINITY PREDICTED BY RF-SCORE:    0.00 PKD
ROOT
HETATM    1  C   UNL     1     -11.117  11.530  63.508  1.00  0.00    -0.434 C  
HETATM    2  C   UNL     1     -12.143  12.425  64.193  1.00  0.00    -0.453 C  
ENDROOT
BRANCH   2   3
HETATM    3  O   UNL     1     -11.520  13.626  64.665  1.00  0.00    -0.338 OA 
BRANCH   3   4
HETATM    4  C   UNL     1     -11.593  13.874  65.994  1.00  0.00    -0.349 C  
HETATM    5  O   UNL     1     -12.620  14.239  66.542  1.00  0.00    -0.360 OA 
BRANCH   4   6
HETATM    6  C   UNL     1     -10.288  13.598  66.695  1.00  0.00    -0.275 C  
HETATM    7  C   UNL     1     -10.025  12.431  67.342  1.00  0.00    -0.202 C  
HETATM    8  C   UNL     1      -7.981  14.420  67.557  1.00  0.00    -0.208 C  
HETATM    9  N   UNL     1      -8.800  12.233  67.953  1.00  0.00    -0.170 NA 
HETATM   10  C   UNL     1      -7.835  13.201  68.134  1.00  0.00    -0.145 C  
HETATM   11  C   UNL     1      -9.205  14.719  66.658  1.00  0.00    -0.300 C  
HETATM   12  C   UNL     1      -6.648  12.775  68.969  1.00  0.00    -0.099 C  
BRANCH   7  13
HETATM   13  C   UNL     1     -11.004  11.274  67.481  1.00  0.00    -0.265 C  
BRANCH  13  14
HETATM   14  O   UNL     1     -12.170  11.621  68.250  1.00  0.00    -0.525 OA 
BRANCH  14  15
HETATM   15  C   UNL     1     -11.780  11.703  69.637  1.00  0.00    -0.350 C  
BRANCH  15  16
HETATM   16  C   UNL     1     -11.828  10.327  70.299  1.00  0.00    -0.288 C  
HETATM   17  N   UNL     1     -13.211   9.906  70.531  1.00  0.00    -0.600 NA 
HETATM   18  H2  UNL     1     -13.761   9.930  69.673  1.00  0.00     0.000 HD 
HETATM   19  H1  UNL     1     -13.243   8.988  70.972  1.00  0.00     0.000 HD 
ENDBRANCH  15  16
ENDBRANCH  14  15
ENDBRANCH  13  14
ENDBRANCH   7  13
BRANCH   8  20
HETATM   20  C   UNL     1      -6.941  15.463  67.793  1.00  0.00    -0.163 C  
HETATM   21  O   UNL     1      -6.083  15.775  66.978  1.00  0.00    -0.314 OA 
BRANCH  20  22
HETATM   22  O   UNL     1      -7.066  16.024  69.020  1.00  0.00    -0.146 OA 
HETATM   23  C   UNL     1      -6.830  17.437  69.054  1.00  0.00    -0.244 C  
ENDBRANCH  20  22
ENDBRANCH   8  20
BRANCH  11  24
HETATM   24  C   UNL     1      -9.794  16.117  66.897  1.00  0.00    -0.247 A  
HETATM   25  C   UNL     1      -9.739  17.088  65.877  1.00  0.00    -0.170 A  
HETATM   26  C   UNL     1     -10.179  18.395  66.107  1.00  0.00    -0.408 A  
HETATM   27  C   UNL     1     -10.693  18.759  67.348  1.00  0.00    -0.487 A  
HETATM   28  C   UNL     1     -10.770  17.812  68.366  1.00  0.00    -0.205 A  
HETATM   29  C   UNL     1     -10.322  16.504  68.150  1.00  0.00    -0.296 A  
HETATM   30 CL   UNL     1     -10.410  15.426  69.504  1.00  0.00    -0.250 Cl 
ENDBRANCH  11  24
ENDBRANCH   4   6
ENDBRANCH   3   4
ENDBRANCH   2   3
TORSDOF 10
ENDMDL
MODEL       23
REMARK 921   NORMALIZED FREE ENERGY PREDICTED BY IDOCK:   -5.27 KCAL/MOL
REMARK 922        TOTAL FREE ENERGY PREDICTED BY IDOCK:   -9.91 KCAL/MOL
REMARK 923 INTER-LIGAND FREE ENERGY PREDICTED BY IDOCK:   -8.31 KCAL/MOL
REMARK 924 INTRA-LIGAND FREE ENERGY PREDICTED BY IDOCK:   -1.59 KCAL/MOL
REMARK 927      BINDING AFFINITY PREDICTED BY RF-SCORE:    0.00 PKD
ROOT
HETATM    1  C   UNL     1      -7.490   9.132  69.640  1.00  0.00    -0.078 C  
HETATM    2  C   UNL     1      -8.882   9.629  70.007  1.00  0.00    -0.232 C  
ENDROOT
BRANCH   2   3
HETATM    3  O   UNL     1      -9.300  10.656  69.098  1.00  0.00    -0.196 OA 
BRANCH   3   4
HETATM    4  C   UNL     1     -10.609  10.670  68.751  1.00  0.00    -0.206 C  
HETATM    5  O   UNL     1     -11.039  10.083  67.771  1.00  0.00    -0.286 OA 
BRANCH   4   6
HETATM    6  C   UNL     1     -11.448  11.445  69.733  1.00  0.00    -0.376 C  
HETATM    7  C   UNL     1     -12.318  10.853  70.595  1.00  0.00    -0.376 C  
HETATM    8  C   UNL     1     -12.320  13.713  70.648  1.00  0.00    -0.440 C  
HETATM    9  N   UNL     1     -13.048  11.620  71.485  1.00  0.00    -0.381 NA 
HETATM   10  C   UNL     1     -13.122  12.997  71.476  1.00  0.00    -0.310 C  
HETATM   11  C   UNL     1     -11.289  12.996  69.743  1.00  0.00    -0.114 C  
HETATM   12  C   UNL     1     -14.111  13.593  72.452  1.00  0.00    -0.586 C  
BRANCH   7  13
HETATM   13  C   UNL     1     -12.592   9.358  70.664  1.00  0.00     0.052 C  
BRANCH  13  14
HETATM   14  O   UNL     1     -12.621   8.859  72.014  1.00  0.00    -0.341 OA 
BRANCH  14  15
HETATM   15  C   UNL     1     -11.342   8.254  72.293  1.00  0.00    -0.378 C  
BRANCH  15  16
HETATM   16  C   UNL     1     -11.337   6.780  71.888  1.00  0.00    -0.271 C  
HETATM   17  N   UNL     1     -12.559   6.110  72.337  1.00  0.00    -0.501 NA 
HETATM   18  H2  UNL     1     -13.395   6.589  72.004  1.00  0.00     0.000 HD 
HETATM   19  H1  UNL     1     -12.556   5.127  72.067  1.00  0.00     0.000 HD 
ENDBRANCH  15  16
ENDBRANCH  14  15
ENDBRANCH  13  14
ENDBRANCH   7  13
BRANCH   8  20
HETATM   20  C   UNL     1     -12.440  15.200  70.630  1.00  0.00    -0.388 C  
HETATM   21  O   UNL     1     -13.301  15.813  70.015  1.00  0.00     0.028 OA 
BRANCH  20  22
HETATM   22  O   UNL     1     -11.478  15.788  71.383  1.00  0.00    -0.377 OA 
HETATM   23  C   UNL     1     -11.951  16.369  72.604  1.00  0.00    -0.502 C  
ENDBRANCH  20  22
ENDBRANCH   8  20
BRANCH  11  24
HETATM   24  C   UNL     1     -11.219  13.591  68.329  1.00  0.00    -0.305 A  
HETATM   25  C   UNL     1     -12.284  13.394  67.428  1.00  0.00    -0.262 A  
HETATM   26  C   UNL     1     -12.198  13.842  66.106  1.00  0.00    -0.499 A  
HETATM   27  C   UNL     1     -11.058  14.504  65.658  1.00  0.00    -0.327 A  
HETATM   28  C   UNL     1     -10.000  14.722  66.535  1.00  0.00    -0.283 A  
HETATM   29  C   UNL     1     -10.071  14.269  67.857  1.00  0.00    -0.233 A  
HETATM   30 CL   UNL     1      -8.672  14.543  68.843  1.00  0.00    -0.146 Cl 
ENDBRANCH  11  24
ENDBRANCH   4   6
ENDBRANCH   3   4
ENDBRANCH   2   3
TORSDOF 10
ENDMDL
MODEL       24
REMARK 921   NORMALIZED FREE ENERGY PREDICTED BY IDOCK:   -5.19 KCAL/MOL
REMARK 922        TOTAL FREE ENERGY PREDICTED BY IDOCK:   -9.78 KCAL/MOL
REMARK 923 INTER-LIGAND FREE ENERGY PREDICTED BY IDOCK:   -8.34 KCAL/MOL
REMARK 924 INTRA-LIGAND FREE ENERGY PREDICTED BY IDOCK:   -1.45 KCAL/MOL
REMARK 927      BINDING AFFINITY PREDICTED BY RF-SCORE:    0.00 PKD
ROOT
HETATM    1  C   UNL     1     -12.024   7.598  70.654  1.00  0.00    -0.122 C  
HETATM    2  C   UNL     1     -10.944   8.665  70.527  1.00  0.00    -0.238 C  
ENDROOT
BRANCH   2   3
HETATM    3  O   UNL     1     -11.271   9.583  69.476  1.00  0.00    -0.189 OA 
BRANCH   3   4
HETATM    4  C   UNL     1     -10.242  10.251  68.902  1.00  0.00    -0.205 C  
HETATM    5  O   UNL     1      -9.192  10.470  69.483  1.00  0.00    -0.158 OA 
BRANCH   4   6
HETATM    6  C   UNL     1     -10.539  10.633  67.475  1.00  0.00    -0.297 C  
HETATM    7  C   UNL     1     -10.174   9.868  66.411  1.00  0.00    -0.222 C  
HETATM    8  C   UNL     1     -11.396  12.366  65.744  1.00  0.00    -0.393 C  
HETATM    9  N   UNL     1     -10.491  10.267  65.125  1.00  0.00    -0.130 NA 
HETATM   10  C   UNL     1     -11.008  11.497  64.777  1.00  0.00    -0.273 C  
HETATM   11  C   UNL     1     -11.304  11.970  67.237  1.00  0.00    -0.394 C  
HETATM   12  C   UNL     1     -11.121  11.748  63.291  1.00  0.00    -0.370 C  
BRANCH   7  13
HETATM   13  C   UNL     1      -9.397   8.563  66.504  1.00  0.00    -0.203 C  
BRANCH  13  14
HETATM   14  O   UNL     1     -10.241   7.431  66.782  1.00  0.00    -0.255 OA 
BRANCH  14  15
HETATM   15  C   UNL     1      -9.520   6.237  66.417  1.00  0.00    -0.133 C  
BRANCH  15  16
HETATM   16  C   UNL     1     -10.405   5.000  66.564  1.00  0.00    -0.284 C  
HETATM   17  N   UNL     1     -11.062   4.673  65.298  1.00  0.00    -0.943 NA 
HETATM   18  H2  UNL     1     -10.388   4.565  64.540  1.00  0.00     0.000 HD 
HETATM   19  H1  UNL     1     -11.653   3.847  65.396  1.00  0.00     0.000 HD 
ENDBRANCH  15  16
ENDBRANCH  14  15
ENDBRANCH  13  14
ENDBRANCH   7  13
BRANCH   8  20
HETATM   20  C   UNL     1     -11.922  13.705  65.346  1.00  0.00    -0.378 C  
HETATM   21  O   UNL     1     -13.100  14.027  65.411  1.00  0.00    -0.763 OA 
BRANCH  20  22
HETATM   22  O   UNL     1     -10.933  14.520  64.905  1.00  0.00    -0.373 OA 
HETATM   23  C   UNL     1     -10.887  15.800  65.547  1.00  0.00    -0.332 C  
ENDBRANCH  20  22
ENDBRANCH   8  20
BRANCH  11  24
HETATM   24  C   UNL     1     -10.789  13.111  68.127  1.00  0.00    -0.271 A  
HETATM   25  C   UNL     1     -11.664  13.750  69.028  1.00  0.00    -0.372 A  
HETATM   26  C   UNL     1     -11.243  14.855  69.775  1.00  0.00    -0.308 A  
HETATM   27  C   UNL     1      -9.943  15.337  69.651  1.00  0.00    -0.236 A  
HETATM   28  C   UNL     1      -9.058  14.712  68.777  1.00  0.00    -0.178 A  
HETATM   29  C   UNL     1      -9.472  13.613  68.016  1.00  0.00    -0.209 A  
HETATM   30 CL   UNL     1      -8.306  12.952  66.918  1.00  0.00    -0.106 Cl 
ENDBRANCH  11  24
ENDBRANCH   4   6
ENDBRANCH   3   4
ENDBRANCH   2   3
TORSDOF 10
ENDMDL
MODEL       25
REMARK 921   NORMALIZED FREE ENERGY PREDICTED BY IDOCK:   -5.16 KCAL/MOL
REMARK 922        TOTAL FREE ENERGY PREDICTED BY IDOCK:   -9.74 KCAL/MOL
REMARK 923 INTER-LIGAND FREE ENERGY PREDICTED BY IDOCK:   -8.01 KCAL/MOL
REMARK 924 INTRA-LIGAND FREE ENERGY PREDICTED BY IDOCK:   -1.73 KCAL/MOL
REMARK 927      BINDING AFFINITY PREDICTED BY RF-SCORE:    0.00 PKD
ROOT
HETATM    1  C   UNL     1     -12.434  12.001  63.688  1.00  0.00    -0.637 C  
HETATM    2  C   UNL     1     -10.972  11.876  64.099  1.00  0.00    -0.369 C  
ENDROOT
BRANCH   2   3
HETATM    3  O   UNL     1     -10.863  11.171  65.342  1.00  0.00    -0.234 OA 
BRANCH   3   4
HETATM    4  C   UNL     1     -10.233  11.811  66.356  1.00  0.00    -0.215 C  
HETATM    5  O   UNL     1      -9.211  12.459  66.195  1.00  0.00    -0.198 OA 
BRANCH   4   6
HETATM    6  C   UNL     1     -10.968  11.664  67.663  1.00  0.00    -0.294 C  
HETATM    7  C   UNL     1     -11.690  12.670  68.226  1.00  0.00    -0.342 C  
HETATM    8  C   UNL     1     -11.508  10.286  69.796  1.00  0.00    -0.320 C  
HETATM    9  N   UNL     1     -12.356  12.465  69.421  1.00  0.00    -0.023 NA 
HETATM   10  C   UNL     1     -12.220  11.356  70.229  1.00  0.00    -0.349 C  
HETATM   11  C   UNL     1     -10.882  10.283  68.381  1.00  0.00    -0.288 C  
HETATM   12  C   UNL     1     -12.934  11.440  71.559  1.00  0.00    -0.505 C  
BRANCH   7  13
HETATM   13  C   UNL     1     -11.827  14.071  67.648  1.00  0.00    -0.395 C  
BRANCH  13  14
HETATM   14  O   UNL     1     -10.815  14.973  68.130  1.00  0.00    -0.249 OA 
BRANCH  14  15
HETATM   15  C   UNL     1     -11.476  16.078  68.779  1.00  0.00    -0.375 C  
BRANCH  15  16
HETATM   16  C   UNL     1     -11.711  15.780  70.260  1.00  0.00    -0.358 C  
HETATM   17  N   UNL     1     -13.110  15.429  70.507  1.00  0.00    -0.677 NA 
HETATM   18  H2  UNL     1     -13.416  14.658  69.915  1.00  0.00     0.000 HD 
HETATM   19  H1  UNL     1     -13.267  15.229  71.495  1.00  0.00     0.000 HD 
ENDBRANCH  15  16
ENDBRANCH  14  15
ENDBRANCH  13  14
ENDBRANCH   7  13
BRANCH   8  20
HETATM   20  C   UNL     1     -11.346   9.109  70.699  1.00  0.00    -0.273 C  
HETATM   21  O   UNL     1     -12.095   8.143  70.709  1.00  0.00    -0.209 OA 
BRANCH  20  22
HETATM   22  O   UNL     1     -10.264   9.243  71.505  1.00  0.00    -0.330 OA 
HETATM   23  C   UNL     1     -10.177   8.267  72.551  1.00  0.00    -0.316 C  
ENDBRANCH  20  22
ENDBRANCH   8  20
BRANCH  11  24
HETATM   24  C   UNL     1      -9.464   9.692  68.355  1.00  0.00    -0.143 A  
HETATM   25  C   UNL     1      -8.390  10.414  68.912  1.00  0.00    -0.138 A  
HETATM   26  C   UNL     1      -7.078   9.940  68.811  1.00  0.00    -0.067 A  
HETATM   27  C   UNL     1      -6.810   8.735  68.167  1.00  0.00    -0.069 A  
HETATM   28  C   UNL     1      -7.858   7.998  67.623  1.00  0.00    -0.122 A  
HETATM   29  C   UNL     1      -9.174   8.469  67.708  1.00  0.00    -0.135 A  
HETATM   30 CL   UNL     1     -10.390   7.500  66.943  1.00  0.00    -0.377 Cl 
ENDBRANCH  11  24
ENDBRANCH   4   6
ENDBRANCH   3   4
ENDBRANCH   2   3
TORSDOF 10
ENDMDL
MODEL       26
REMARK 921   NORMALIZED FREE ENERGY PREDICTED BY IDOCK:   -5.11 KCAL/MOL
REMARK 922        TOTAL FREE ENERGY PREDICTED BY IDOCK:   -9.66 KCAL/MOL
REMARK 923 INTER-LIGAND FREE ENERGY PREDICTED BY IDOCK:   -7.68 KCAL/MOL
REMARK 924 INTRA-LIGAND FREE ENERGY PREDICTED BY IDOCK:   -1.97 KCAL/MOL
REMARK 927      BINDING AFFINITY PREDICTED BY RF-SCORE:    0.00 PKD
ROOT
HETATM    1  C   UNL     1     -10.885   5.741  69.966  1.00  0.00    -0.403 C  
HETATM    2  C   UNL     1     -10.158   6.879  70.671  1.00  0.00    -0.194 C  
ENDROOT
BRANCH   2   3
HETATM    3  O   UNL     1     -10.845   8.119  70.454  1.00  0.00    -0.231 OA 
BRANCH   3   4
HETATM    4  C   UNL     1     -10.102   9.249  70.508  1.00  0.00    -0.255 C  
HETATM    5  O   UNL     1      -9.178   9.395  71.292  1.00  0.00    -0.262 OA 
BRANCH   4   6
HETATM    6  C   UNL     1     -10.524  10.256  69.470  1.00  0.00    -0.268 C  
HETATM    7  C   UNL     1     -11.574  11.103  69.641  1.00  0.00    -0.326 C  
HETATM    8  C   UNL     1     -10.317  11.238  67.076  1.00  0.00    -0.263 C  
HETATM    9  N   UNL     1     -11.900  12.017  68.656  1.00  0.00    -0.322 NA 
HETATM   10  C   UNL     1     -11.360  12.048  67.387  1.00  0.00    -0.327 C  
HETATM   11  C   UNL     1      -9.698  10.310  68.149  1.00  0.00    -0.158 C  
HETATM   12  C   UNL     1     -11.994  13.043  66.443  1.00  0.00    -0.466 C  
BRANCH   7  13
HETATM   13  C   UNL     1     -12.479  11.131  70.864  1.00  0.00    -0.409 C  
BRANCH  13  14
HETATM   14  O   UNL     1     -13.487  10.105  70.834  1.00  0.00    -0.345 OA 
BRANCH  14  15
HETATM   15  C   UNL     1     -13.617   9.568  72.166  1.00  0.00    -0.424 C  
BRANCH  15  16
HETATM   16  C   UNL     1     -14.247   8.177  72.134  1.00  0.00    -0.336 C  
HETATM   17  N   UNL     1     -13.757   7.407  70.989  1.00  0.00    -0.613 NA 
HETATM   18  H2  UNL     1     -12.739   7.359  70.975  1.00  0.00     0.000 HD 
HETATM   19  H1  UNL     1     -14.177   6.478  70.967  1.00  0.00     0.000 HD 
ENDBRANCH  15  16
ENDBRANCH  14  15
ENDBRANCH  13  14
ENDBRANCH   7  13
BRANCH   8  20
HETATM   20  C   UNL     1      -9.769  11.264  65.688  1.00  0.00    -0.230 C  
HETATM   21  O   UNL     1      -8.600  11.501  65.415  1.00  0.00     0.047 OA 
BRANCH  20  22
HETATM   22  O   UNL     1     -10.725  10.988  64.768  1.00  0.00    -0.309 OA 
HETATM   23  C   UNL     1     -10.383  11.356  63.427  1.00  0.00    -0.402 C  
ENDBRANCH  20  22
ENDBRANCH   8  20
BRANCH  11  24
HETATM   24  C   UNL     1      -9.359   8.913  67.607  1.00  0.00    -0.156 A  
HETATM   25  C   UNL     1     -10.363   8.127  67.010  1.00  0.00    -0.403 A  
HETATM   26  C   UNL     1     -10.099   6.815  66.601  1.00  0.00    -0.205 A  
HETATM   27  C   UNL     1      -8.831   6.266  66.766  1.00  0.00    -0.126 A  
HETATM   28  C   UNL     1      -7.820   7.031  67.341  1.00  0.00    -0.111 A  
HETATM   29  C   UNL     1      -8.076   8.340  67.764  1.00  0.00    -0.127 A  
HETATM   30 CL   UNL     1      -6.760   9.177  68.520  1.00  0.00    -0.058 Cl 
ENDBRANCH  11  24
ENDBRANCH   4   6
ENDBRANCH   3   4
ENDBRANCH   2   3
TORSDOF 10
ENDMDL
MODEL       27
REMARK 921   NORMALIZED FREE ENERGY PREDICTED BY IDOCK:   -5.10 KCAL/MOL
REMARK 922        TOTAL FREE ENERGY PREDICTED BY IDOCK:   -9.65 KCAL/MOL
REMARK 923 INTER-LIGAND FREE ENERGY PREDICTED BY IDOCK:   -8.12 KCAL/MOL
REMARK 924 INTRA-LIGAND FREE ENERGY PREDICTED BY IDOCK:   -1.53 KCAL/MOL
REMARK 927      BINDING AFFINITY PREDICTED BY RF-SCORE:    0.00 PKD
ROOT
HETATM    1  C   UNL     1     -11.093   6.655  67.225  1.00  0.00    -0.418 C  
HETATM    2  C   UNL     1     -10.359   7.955  66.923  1.00  0.00    -0.330 C  
ENDROOT
BRANCH   2   3
HETATM    3  O   UNL     1     -10.920   9.033  67.684  1.00  0.00    -0.152 OA 
BRANCH   3   4
HETATM    4  C   UNL     1     -10.058   9.793  68.399  1.00  0.00    -0.166 C  
HETATM    5  O   UNL     1      -9.098   9.325  68.990  1.00  0.00    -0.142 OA 
BRANCH   4   6
HETATM    6  C   UNL     1     -10.401  11.259  68.330  1.00  0.00    -0.200 C  
HETATM    7  C   UNL     1     -11.383  11.827  69.080  1.00  0.00    -0.278 C  
HETATM    8  C   UNL     1     -10.120  13.583  67.209  1.00  0.00    -0.235 C  
HETATM    9  N   UNL     1     -11.638  13.183  68.982  1.00  0.00    -0.292 NA 
HETATM   10  C   UNL     1     -11.098  14.029  68.037  1.00  0.00    -0.263 C  
HETATM   11  C   UNL     1      -9.574  12.142  67.346  1.00  0.00    -0.177 C  
HETATM   12  C   UNL     1     -11.654  15.435  68.041  1.00  0.00    -0.303 C  
BRANCH   7  13
HETATM   13  C   UNL     1     -12.282  11.074  70.050  1.00  0.00    -0.343 C  
BRANCH  13  14
HETATM   14  O   UNL     1     -12.602  11.843  71.224  1.00  0.00    -0.359 OA 
BRANCH  14  15
HETATM   15  C   UNL     1     -13.574  11.103  71.989  1.00  0.00    -0.029 C  
BRANCH  15  16
HETATM   16  C   UNL     1     -13.255   9.608  71.976  1.00  0.00    -0.453 C  
HETATM   17  N   UNL     1     -13.816   8.944  73.154  1.00  0.00    -1.176 NA 
HETATM   18  H2  UNL     1     -14.817   9.114  73.242  1.00  0.00     0.000 HD 
HETATM   19  H1  UNL     1     -13.604   7.946  73.146  1.00  0.00     0.000 HD 
ENDBRANCH  15  16
ENDBRANCH  14  15
ENDBRANCH  13  14
ENDBRANCH   7  13
BRANCH   8  20
HETATM   20  C   UNL     1      -9.572  14.506  66.172  1.00  0.00    -0.297 C  
HETATM   21  O   UNL     1     -10.085  14.691  65.077  1.00  0.00    -0.384 OA 
BRANCH  20  22
HETATM   22  O   UNL     1      -8.438  15.115  66.594  1.00  0.00    -0.257 OA 
HETATM   23  C   UNL     1      -8.322  16.490  66.208  1.00  0.00    -0.329 C  
ENDBRANCH  20  22
ENDBRANCH   8  20
BRANCH  11  24
HETATM   24  C   UNL     1      -9.344  11.458  65.991  1.00  0.00    -0.235 A  
HETATM   25  C   UNL     1     -10.400  11.356  65.065  1.00  0.00    -0.342 A  
HETATM   26  C   UNL     1     -10.240  10.651  63.867  1.00  0.00    -0.306 A  
HETATM   27  C   UNL     1      -9.024  10.045  63.562  1.00  0.00    -0.279 A  
HETATM   28  C   UNL     1      -7.962  10.145  64.456  1.00  0.00    -0.147 A  
HETATM   29  C   UNL     1      -8.115  10.839  65.663  1.00  0.00    -0.112 A  
HETATM   30 CL   UNL     1      -6.747  10.848  66.726  1.00  0.00    -0.111 Cl 
ENDBRANCH  11  24
ENDBRANCH   4   6
ENDBRANCH   3   4
ENDBRANCH   2   3
TORSDOF 10
ENDMDL
MODEL       28
REMARK 921   NORMALIZED FREE ENERGY PREDICTED BY IDOCK:   -5.04 KCAL/MOL
REMARK 922        TOTAL FREE ENERGY PREDICTED BY IDOCK:   -9.55 KCAL/MOL
REMARK 923 INTER-LIGAND FREE ENERGY PREDICTED BY IDOCK:   -8.17 KCAL/MOL
REMARK 924 INTRA-LIGAND FREE ENERGY PREDICTED BY IDOCK:   -1.38 KCAL/MOL
REMARK 927      BINDING AFFINITY PREDICTED BY RF-SCORE:    0.00 PKD
ROOT
HETATM    1  C   UNL     1     -13.718  13.601  72.254  1.00  0.00    -0.687 C  
HETATM    2  C   UNL     1     -12.759  12.990  71.240  1.00  0.00    -0.293 C  
ENDROOT
BRANCH   2   3
HETATM    3  O   UNL     1     -12.657  11.574  71.441  1.00  0.00    -0.364 OA 
BRANCH   3   4
HETATM    4  C   UNL     1     -12.563  10.803  70.332  1.00  0.00    -0.314 C  
HETATM    5  O   UNL     1     -13.523  10.232  69.841  1.00  0.00     0.170 OA 
BRANCH   4   6
HETATM    6  C   UNL     1     -11.164  10.782  69.772  1.00  0.00    -0.365 C  
HETATM    7  C   UNL     1     -10.807  11.452  68.644  1.00  0.00    -0.208 C  
HETATM    8  C   UNL     1      -8.746   9.837  69.796  1.00  0.00    -0.228 C  
HETATM    9  N   UNL     1      -9.501  11.407  68.191  1.00  0.00    -0.174 NA 
HETATM   10  C   UNL     1      -8.515  10.578  68.683  1.00  0.00    -0.138 C  
HETATM   11  C   UNL     1     -10.096   9.949  70.544  1.00  0.00    -0.207 C  
HETATM   12  C   UNL     1      -7.213  10.603  67.916  1.00  0.00    -0.087 C  
BRANCH   7  13
HETATM   13  C   UNL     1     -11.756  12.272  67.782  1.00  0.00    -0.337 C  
BRANCH  13  14
HETATM   14  O   UNL     1     -11.215  12.563  66.481  1.00  0.00    -0.277 OA 
BRANCH  14  15
HETATM   15  C   UNL     1     -12.215  13.286  65.734  1.00  0.00    -0.456 C  
BRANCH  15  16
HETATM   16  C   UNL     1     -12.369  12.707  64.328  1.00  0.00    -0.435 C  
HETATM   17  N   UNL     1     -12.422  13.774  63.326  1.00  0.00    -1.092 NA 
HETATM   18  H2  UNL     1     -11.614  14.392  63.392  1.00  0.00     0.000 HD 
HETATM   19  H1  UNL     1     -12.525  13.388  62.388  1.00  0.00     0.000 HD 
ENDBRANCH  15  16
ENDBRANCH  14  15
ENDBRANCH  13  14
ENDBRANCH   7  13
BRANCH   8  20
HETATM   20  C   UNL     1      -7.678   8.922  70.293  1.00  0.00    -0.090 C  
HETATM   21  O   UNL     1      -7.459   7.809  69.836  1.00  0.00    -0.078 OA 
BRANCH  20  22
HETATM   22  O   UNL     1      -6.977   9.479  71.311  1.00  0.00    -0.300 OA 
HETATM   23  C   UNL     1      -6.137   8.563  72.025  1.00  0.00    -0.066 C  
ENDBRANCH  20  22
ENDBRANCH   8  20
BRANCH  11  24
HETATM   24  C   UNL     1     -10.635   8.589  71.012  1.00  0.00    -0.267 A  
HETATM   25  C   UNL     1     -10.762   8.318  72.389  1.00  0.00    -0.411 A  
HETATM   26  C   UNL     1     -11.156   7.053  72.838  1.00  0.00    -0.314 A  
HETATM   27  C   UNL     1     -11.441   6.038  71.929  1.00  0.00    -0.328 A  
HETATM   28  C   UNL     1     -11.335   6.288  70.563  1.00  0.00    -0.428 A  
HETATM   29  C   UNL     1     -10.931   7.547  70.103  1.00  0.00    -0.254 A  
HETATM   30 CL   UNL     1     -10.776   7.727  68.387  1.00  0.00    -0.145 Cl 
ENDBRANCH  11  24
ENDBRANCH   4   6
ENDBRANCH   3   4
ENDBRANCH   2   3
TORSDOF 10
ENDMDL
MODEL       29
REMARK 921   NORMALIZED FREE ENERGY PREDICTED BY IDOCK:   -5.02 KCAL/MOL
REMARK 922        TOTAL FREE ENERGY PREDICTED BY IDOCK:   -9.51 KCAL/MOL
REMARK 923 INTER-LIGAND FREE ENERGY PREDICTED BY IDOCK:   -7.83 KCAL/MOL
REMARK 924 INTRA-LIGAND FREE ENERGY PREDICTED BY IDOCK:   -1.68 KCAL/MOL
REMARK 927      BINDING AFFINITY PREDICTED BY RF-SCORE:    0.00 PKD
ROOT
HETATM    1  C   UNL     1     -10.248  10.700  64.752  1.00  0.00    -0.401 C  
HETATM    2  C   UNL     1      -9.517   9.479  65.294  1.00  0.00    -0.258 C  
ENDROOT
BRANCH   2   3
HETATM    3  O   UNL     1     -10.041   9.114  66.578  1.00  0.00    -0.273 OA 
BRANCH   3   4
HETATM    4  C   UNL     1      -9.550   9.777  67.651  1.00  0.00    -0.145 C  
HETATM    5  O   UNL     1      -8.419  10.234  67.684  1.00  0.00    -0.118 OA 
BRANCH   4   6
HETATM    6  C   UNL     1     -10.572   9.915  68.750  1.00  0.00    -0.246 C  
HETATM    7  C   UNL     1     -11.268  11.061  68.976  1.00  0.00    -0.258 C  
HETATM    8  C   UNL     1     -11.748   8.963  70.859  1.00  0.00    -0.312 C  
HETATM    9  N   UNL     1     -12.205  11.119  69.991  1.00  0.00    -0.326 NA 
HETATM   10  C   UNL     1     -12.397  10.150  70.954  1.00  0.00    -0.363 C  
HETATM   11  C   UNL     1     -10.826   8.669  69.651  1.00  0.00    -0.163 C  
HETATM   12  C   UNL     1     -13.375  10.517  72.047  1.00  0.00    -0.420 C  
BRANCH   7  13
HETATM   13  C   UNL     1     -11.091  12.355  68.194  1.00  0.00    -0.247 C  
BRANCH  13  14
HETATM   14  O   UNL     1     -12.183  12.614  67.293  1.00  0.00    -0.425 OA 
BRANCH  14  15
HETATM   15  C   UNL     1     -11.983  13.920  66.715  1.00  0.00    -0.438 C  
BRANCH  15  16
HETATM   16  C   UNL     1     -12.320  13.913  65.224  1.00  0.00    -0.464 C  
HETATM   17  N   UNL     1     -13.180  12.776  64.888  1.00  0.00    -0.738 NA 
HETATM   18  H2  UNL     1     -14.021  12.757  65.464  1.00  0.00     0.000 HD 
HETATM   19  H1  UNL     1     -13.405  12.771  63.893  1.00  0.00     0.000 HD 
ENDBRANCH  15  16
ENDBRANCH  14  15
ENDBRANCH  13  14
ENDBRANCH   7  13
BRANCH   8  20
HETATM   20  C   UNL     1     -11.945   7.942  71.929  1.00  0.00    -0.305 C  
HETATM   21  O   UNL     1     -12.681   6.970  71.825  1.00  0.00    -0.349 OA 
BRANCH  20  22
HETATM   22  O   UNL     1     -11.205   8.222  73.029  1.00  0.00    -0.264 OA 
HETATM   23  C   UNL     1     -10.617   7.077  73.658  1.00  0.00    -0.345 C  
ENDBRANCH  20  22
ENDBRANCH   8  20
BRANCH  11  24
HETATM   24  C   UNL     1      -9.526   7.955  70.052  1.00  0.00    -0.157 A  
HETATM   25  C   UNL     1      -8.568   8.625  70.837  1.00  0.00    -0.204 A  
HETATM   26  C   UNL     1      -7.336   8.030  71.129  1.00  0.00    -0.065 A  
HETATM   27  C   UNL     1      -7.039   6.755  70.657  1.00  0.00    -0.068 A  
HETATM   28  C   UNL     1      -7.977   6.068  69.891  1.00  0.00    -0.113 A  
HETATM   29  C   UNL     1      -9.209   6.659  69.584  1.00  0.00    -0.145 A  
HETATM   30 CL   UNL     1     -10.275   5.738  68.574  1.00  0.00    -0.222 Cl 
ENDBRANCH  11  24
ENDBRANCH   4   6
ENDBRANCH   3   4
ENDBRANCH   2   3
TORSDOF 10
ENDMDL
MODEL       30
REMARK 921   NORMALIZED FREE ENERGY PREDICTED BY IDOCK:   -5.02 KCAL/MOL
REMARK 922        TOTAL FREE ENERGY PREDICTED BY IDOCK:   -9.51 KCAL/MOL
REMARK 923 INTER-LIGAND FREE ENERGY PREDICTED BY IDOCK:   -7.82 KCAL/MOL
REMARK 924 INTRA-LIGAND FREE ENERGY PREDICTED BY IDOCK:   -1.69 KCAL/MOL
REMARK 927      BINDING AFFINITY PREDICTED BY RF-SCORE:    0.00 PKD
ROOT
HETATM    1  C   UNL     1     -13.985   7.453  71.483  1.00  0.00    -0.517 C  
HETATM    2  C   UNL     1     -12.488   7.391  71.760  1.00  0.00    -0.336 C  
ENDROOT
BRANCH   2   3
HETATM    3  O   UNL     1     -11.764   8.096  70.743  1.00  0.00    -0.276 OA 
BRANCH   3   4
HETATM    4  C   UNL     1     -10.929   9.080  71.155  1.00  0.00    -0.301 C  
HETATM    5  O   UNL     1     -10.159   8.943  72.092  1.00  0.00    -0.325 OA 
BRANCH   4   6
HETATM    6  C   UNL     1     -11.040  10.314  70.298  1.00  0.00    -0.388 C  
HETATM    7  C   UNL     1     -11.993  11.266  70.487  1.00  0.00    -0.371 C  
HETATM    8  C   UNL     1     -10.306  11.677  68.215  1.00  0.00    -0.212 C  
HETATM    9  N   UNL     1     -12.031  12.385  69.676  1.00  0.00    -0.298 NA 
HETATM   10  C   UNL     1     -11.281  12.566  68.533  1.00  0.00    -0.283 C  
HETATM   11  C   UNL     1      -9.999  10.483  69.150  1.00  0.00    -0.236 C  
HETATM   12  C   UNL     1     -11.617  13.804  67.733  1.00  0.00    -0.381 C  
BRANCH   7  13
HETATM   13  C   UNL     1     -13.085  11.205  71.546  1.00  0.00    -0.385 C  
BRANCH  13  14
HETATM   14  O   UNL     1     -12.944  12.227  72.549  1.00  0.00    -0.160 OA 
BRANCH  14  15
HETATM   15  C   UNL     1     -13.961  13.223  72.317  1.00  0.00    -0.461 C  
BRANCH  15  16
HETATM   16  C   UNL     1     -13.395  14.631  72.491  1.00  0.00    -0.448 C  
HETATM   17  N   UNL     1     -12.119  14.773  71.786  1.00  0.00    -0.350 NA 
HETATM   18  H2  UNL     1     -12.202  14.520  70.802  1.00  0.00     0.000 HD 
HETATM   19  H1  UNL     1     -11.741  15.712  71.902  1.00  0.00     0.000 HD 
ENDBRANCH  15  16
ENDBRANCH  14  15
ENDBRANCH  13  14
ENDBRANCH   7  13
BRANCH   8  20
HETATM   20  C   UNL     1      -9.529  11.874  66.956  1.00  0.00    -0.188 C  
HETATM   21  O   UNL     1      -8.425  12.398  66.906  1.00  0.00    -0.190 OA 
BRANCH  20  22
HETATM   22  O   UNL     1     -10.196  11.398  65.877  1.00  0.00    -0.230 OA 
HETATM   23  C   UNL     1     -10.071  12.202  64.698  1.00  0.00    -0.257 C  
ENDBRANCH  20  22
ENDBRANCH   8  20
BRANCH  11  24
HETATM   24  C   UNL     1      -9.745   9.175  68.386  1.00  0.00    -0.166 A  
HETATM   25  C   UNL     1     -10.774   8.598  67.616  1.00  0.00    -0.194 A  
HETATM   26  C   UNL     1     -10.594   7.358  66.994  1.00  0.00    -0.414 A  
HETATM   27  C   UNL     1      -9.388   6.675  67.115  1.00  0.00    -0.150 A  
HETATM   28  C   UNL     1      -8.353   7.234  67.860  1.00  0.00    -0.119 A  
HETATM   29  C   UNL     1      -8.525   8.469  68.496  1.00  0.00    -0.131 A  
HETATM   30 CL   UNL     1      -7.192   9.039  69.444  1.00  0.00    -0.056 Cl 
ENDBRANCH  11  24
ENDBRANCH   4   6
ENDBRANCH   3   4
ENDBRANCH   2   3
TORSDOF 10
ENDMDL
MODEL       31
REMARK 921   NORMALIZED FREE ENERGY PREDICTED BY IDOCK:   -4.99 KCAL/MOL
REMARK 922        TOTAL FREE ENERGY PREDICTED BY IDOCK:   -9.47 KCAL/MOL
REMARK 923 INTER-LIGAND FREE ENERGY PREDICTED BY IDOCK:   -7.61 KCAL/MOL
REMARK 924 INTRA-LIGAND FREE ENERGY PREDICTED BY IDOCK:   -1.87 KCAL/MOL
REMARK 927      BINDING AFFINITY PREDICTED BY RF-SCORE:    0.00 PKD
ROOT
HETATM    1  C   UNL     1     -12.618   9.645  71.674  1.00  0.00    -0.493 C  
HETATM    2  C   UNL     1     -12.904  10.904  70.866  1.00  0.00    -0.326 C  
ENDROOT
BRANCH   2   3
HETATM    3  O   UNL     1     -11.685  11.451  70.347  1.00  0.00    -0.324 OA 
BRANCH   3   4
HETATM    4  C   UNL     1     -11.455  11.288  69.022  1.00  0.00    -0.302 C  
HETATM    5  O   UNL     1     -12.354  11.196  68.202  1.00  0.00    -0.469 OA 
BRANCH   4   6
HETATM    6  C   UNL     1      -9.984  11.285  68.698  1.00  0.00    -0.210 C  
HETATM    7  C   UNL     1      -9.348  12.341  68.123  1.00  0.00    -0.205 C  
HETATM    8  C   UNL     1      -7.724  10.019  68.514  1.00  0.00    -0.089 C  
HETATM    9  N   UNL     1      -7.991  12.282  67.865  1.00  0.00    -0.140 NA 
HETATM   10  C   UNL     1      -7.208  11.152  67.974  1.00  0.00    -0.079 C  
HETATM   11  C   UNL     1      -9.176   9.999  69.051  1.00  0.00    -0.180 C  
HETATM   12  C   UNL     1      -5.786  11.307  67.485  1.00  0.00    -0.050 C  
BRANCH   7  13
HETATM   13  C   UNL     1     -10.024  13.637  67.699  1.00  0.00    -0.239 C  
BRANCH  13  14
HETATM   14  O   UNL     1     -10.538  13.583  66.356  1.00  0.00    -0.278 OA 
BRANCH  14  15
HETATM   15  C   UNL     1     -11.737  14.383  66.305  1.00  0.00    -0.385 C  
BRANCH  15  16
HETATM   16  C   UNL     1     -12.591  14.008  65.094  1.00  0.00    -0.428 C  
HETATM   17  N   UNL     1     -12.405  14.970  64.006  1.00  0.00    -1.015 NA 
HETATM   18  H2  UNL     1     -11.421  15.071  63.757  1.00  0.00     0.000 HD 
HETATM   19  H1  UNL     1     -12.974  14.721  63.198  1.00  0.00     0.000 HD 
ENDBRANCH  15  16
ENDBRANCH  14  15
ENDBRANCH  13  14
ENDBRANCH   7  13
BRANCH   8  20
HETATM   20  C   UNL     1      -6.870   8.798  68.592  1.00  0.00    -0.063 C  
HETATM   21  O   UNL     1      -6.278   8.438  69.599  1.00  0.00    -0.035 OA 
BRANCH  20  22
HETATM   22  O   UNL     1      -6.835   8.137  67.409  1.00  0.00    -0.070 OA 
HETATM   23  C   UNL     1      -6.993   6.717  67.517  1.00  0.00    -0.083 C  
ENDBRANCH  20  22
ENDBRANCH   8  20
BRANCH  11  24
HETATM   24  C   UNL     1      -9.929   8.711  68.690  1.00  0.00    -0.197 A  
HETATM   25  C   UNL     1     -10.219   7.760  69.689  1.00  0.00    -0.206 A  
HETATM   26  C   UNL     1     -10.815   6.537  69.365  1.00  0.00    -0.363 A  
HETATM   27  C   UNL     1     -11.144   6.241  68.046  1.00  0.00    -0.365 A  
HETATM   28  C   UNL     1     -10.880   7.171  67.044  1.00  0.00    -0.382 A  
HETATM   29  C   UNL     1     -10.274   8.393  67.356  1.00  0.00    -0.260 A  
HETATM   30 CL   UNL     1      -9.937   9.449  66.023  1.00  0.00    -0.370 Cl 
ENDBRANCH  11  24
ENDBRANCH   4   6
ENDBRANCH   3   4
ENDBRANCH   2   3
TORSDOF 10
ENDMDL
MODEL       32
REMARK 921   NORMALIZED FREE ENERGY PREDICTED BY IDOCK:   -4.97 KCAL/MOL
REMARK 922        TOTAL FREE ENERGY PREDICTED BY IDOCK:   -9.44 KCAL/MOL
REMARK 923 INTER-LIGAND FREE ENERGY PREDICTED BY IDOCK:   -7.88 KCAL/MOL
REMARK 924 INTRA-LIGAND FREE ENERGY PREDICTED BY IDOCK:   -1.55 KCAL/MOL
REMARK 927      BINDING AFFINITY PREDICTED BY RF-SCORE:    0.00 PKD
ROOT
HETATM    1  C   UNL     1     -11.321  11.931  63.338  1.00  0.00    -0.465 C  
HETATM    2  C   UNL     1     -10.179  10.984  63.682  1.00  0.00    -0.372 C  
ENDROOT
BRANCH   2   3
HETATM    3  O   UNL     1     -10.382  10.411  64.980  1.00  0.00    -0.306 OA 
BRANCH   3   4
HETATM    4  C   UNL     1      -9.558  10.829  65.970  1.00  0.00    -0.201 C  
HETATM    5  O   UNL     1      -8.342  10.762  65.889  1.00  0.00    -0.159 OA 
BRANCH   4   6
HETATM    6  C   UNL     1     -10.317  11.417  67.131  1.00  0.00    -0.247 C  
HETATM    7  C   UNL     1     -10.387  12.754  67.372  1.00  0.00    -0.222 C  
HETATM    8  C   UNL     1     -11.643  11.103  69.341  1.00  0.00    -0.388 C  
HETATM    9  N   UNL     1     -11.115  13.232  68.446  1.00  0.00    -0.257 NA 
HETATM   10  C   UNL     1     -11.662  12.456  69.446  1.00  0.00    -0.322 C  
HETATM   11  C   UNL     1     -11.052  10.424  68.082  1.00  0.00    -0.344 C  
HETATM   12  C   UNL     1     -12.276  13.226  70.593  1.00  0.00    -0.417 C  
BRANCH   7  13
HETATM   13  C   UNL     1      -9.691  13.824  66.543  1.00  0.00    -0.293 C  
BRANCH  13  14
HETATM   14  O   UNL     1     -10.546  14.391  65.535  1.00  0.00    -0.310 OA 
BRANCH  14  15
HETATM   15  C   UNL     1     -10.634  15.811  65.772  1.00  0.00    -0.355 C  
BRANCH  15  16
HETATM   16  C   UNL     1     -11.141  16.540  64.528  1.00  0.00    -0.010 C  
HETATM   17  N   UNL     1     -12.127  15.729  63.812  1.00  0.00    -1.173 NA 
HETATM   18  H2  UNL     1     -12.894  15.444  64.420  1.00  0.00     0.000 HD 
HETATM   19  H1  UNL     1     -12.466  16.216  62.983  1.00  0.00     0.000 HD 
ENDBRANCH  15  16
ENDBRANCH  14  15
ENDBRANCH  13  14
ENDBRANCH   7  13
BRANCH   8  20
HETATM   20  C   UNL     1     -12.210  10.282  70.450  1.00  0.00    -0.261 C  
HETATM   21  O   UNL     1     -13.387   9.961  70.534  1.00  0.00    -0.167 OA 
BRANCH  20  22
HETATM   22  O   UNL     1     -11.259   9.933  71.350  1.00  0.00    -0.348 OA 
HETATM   23  C   UNL     1     -11.392   8.605  71.871  1.00  0.00    -0.347 C  
ENDBRANCH  20  22
ENDBRANCH   8  20
BRANCH  11  24
HETATM   24  C   UNL     1     -10.203   9.187  68.413  1.00  0.00    -0.230 A  
HETATM   25  C   UNL     1     -10.700   7.898  68.139  1.00  0.00    -0.101 A  
HETATM   26  C   UNL     1      -9.987   6.757  68.523  1.00  0.00    -0.149 A  
HETATM   27  C   UNL     1      -8.764   6.876  69.175  1.00  0.00    -0.135 A  
HETATM   28  C   UNL     1      -8.247   8.140  69.444  1.00  0.00    -0.121 A  
HETATM   29  C   UNL     1      -8.957   9.289  69.074  1.00  0.00    -0.140 A  
HETATM   30 CL   UNL     1      -8.247  10.808  69.511  1.00  0.00    -0.045 Cl 
ENDBRANCH  11  24
ENDBRANCH   4   6
ENDBRANCH   3   4
ENDBRANCH   2   3
TORSDOF 10
ENDMDL
MODEL       33
REMARK 921   NORMALIZED FREE ENERGY PREDICTED BY IDOCK:   -4.95 KCAL/MOL
REMARK 922        TOTAL FREE ENERGY PREDICTED BY IDOCK:   -9.40 KCAL/MOL
REMARK 923 INTER-LIGAND FREE ENERGY PREDICTED BY IDOCK:   -7.86 KCAL/MOL
REMARK 924 INTRA-LIGAND FREE ENERGY PREDICTED BY IDOCK:   -1.54 KCAL/MOL
REMARK 927      BINDING AFFINITY PREDICTED BY RF-SCORE:    0.00 PKD
ROOT
HETATM    1  C   UNL     1     -12.026  12.462  63.591  1.00  0.00    -0.626 C  
HETATM    2  C   UNL     1     -12.388  13.862  64.070  1.00  0.00    -0.307 C  
ENDROOT
BRANCH   2   3
HETATM    3  O   UNL     1     -11.258  14.482  64.697  1.00  0.00    -0.377 OA 
BRANCH   3   4
HETATM    4  C   UNL     1     -11.193  14.413  66.048  1.00  0.00    -0.333 C  
HETATM    5  O   UNL     1     -12.184  14.441  66.760  1.00  0.00    -0.420 OA 
BRANCH   4   6
HETATM    6  C   UNL     1      -9.778  14.253  66.540  1.00  0.00    -0.304 C  
HETATM    7  C   UNL     1      -9.301  13.091  67.064  1.00  0.00    -0.236 C  
HETATM    8  C   UNL     1      -7.470  15.287  67.126  1.00  0.00    -0.202 C  
HETATM    9  N   UNL     1      -7.986  13.003  67.483  1.00  0.00    -0.166 NA 
HETATM   10  C   UNL     1      -7.113  14.065  67.593  1.00  0.00    -0.179 C  
HETATM   11  C   UNL     1      -8.837  15.490  66.429  1.00  0.00    -0.359 C  
HETATM   12  C   UNL     1      -5.779  13.735  68.224  1.00  0.00    -0.109 C  
BRANCH   7  13
HETATM   13  C   UNL     1     -10.122  11.825  67.259  1.00  0.00    -0.192 C  
BRANCH  13  14
HETATM   14  O   UNL     1      -9.731  11.083  68.429  1.00  0.00    -0.166 OA 
BRANCH  14  15
HETATM   15  C   UNL     1      -9.279   9.782  68.000  1.00  0.00    -0.124 C  
BRANCH  15  16
HETATM   16  C   UNL     1     -10.407   9.013  67.313  1.00  0.00    -0.273 C  
HETATM   17  N   UNL     1      -9.988   8.538  65.993  1.00  0.00    -0.465 NA 
HETATM   18  H2  UNL     1      -9.133   7.984  66.046  1.00  0.00     0.000 HD 
HETATM   19  H1  UNL     1     -10.740   8.025  65.534  1.00  0.00     0.000 HD 
ENDBRANCH  15  16
ENDBRANCH  14  15
ENDBRANCH  13  14
ENDBRANCH   7  13
BRANCH   8  20
HETATM   20  C   UNL     1      -6.522  16.429  67.284  1.00  0.00    -0.187 C  
HETATM   21  O   UNL     1      -5.822  16.871  66.384  1.00  0.00    -0.320 OA 
BRANCH  20  22
HETATM   22  O   UNL     1      -6.536  16.917  68.549  1.00  0.00    -0.153 OA 
HETATM   23  C   UNL     1      -6.563  18.348  68.633  1.00  0.00    -0.233 C  
ENDBRANCH  20  22
ENDBRANCH   8  20
BRANCH  11  24
HETATM   24  C   UNL     1      -9.529  16.798  66.841  1.00  0.00    -0.253 A  
HETATM   25  C   UNL     1      -9.670  17.845  65.909  1.00  0.00    -0.016 A  
HETATM   26  C   UNL     1     -10.207  19.078  66.291  1.00  0.00    -0.510 A  
HETATM   27  C   UNL     1     -10.626  19.290  67.601  1.00  0.00    -0.553 A  
HETATM   28  C   UNL     1     -10.509  18.265  68.536  1.00  0.00    -0.241 A  
HETATM   29  C   UNL     1      -9.963  17.030  68.167  1.00  0.00    -0.287 A  
HETATM   30 CL   UNL     1      -9.810  15.848  69.425  1.00  0.00    -0.268 Cl 
ENDBRANCH  11  24
ENDBRANCH   4   6
ENDBRANCH   3   4
ENDBRANCH   2   3
TORSDOF 10
ENDMDL
MODEL       34
REMARK 921   NORMALIZED FREE ENERGY PREDICTED BY IDOCK:   -4.94 KCAL/MOL
REMARK 922        TOTAL FREE ENERGY PREDICTED BY IDOCK:   -9.39 KCAL/MOL
REMARK 923 INTER-LIGAND FREE ENERGY PREDICTED BY IDOCK:   -7.73 KCAL/MOL
REMARK 924 INTRA-LIGAND FREE ENERGY PREDICTED BY IDOCK:   -1.66 KCAL/MOL
REMARK 927      BINDING AFFINITY PREDICTED BY RF-SCORE:    0.00 PKD
ROOT
HETATM    1  C   UNL     1     -13.864   7.421  71.393  1.00  0.00    -0.436 C  
HETATM    2  C   UNL     1     -12.394   7.466  71.789  1.00  0.00    -0.333 C  
ENDROOT
BRANCH   2   3
HETATM    3  O   UNL     1     -11.581   7.788  70.653  1.00  0.00    -0.281 OA 
BRANCH   3   4
HETATM    4  C   UNL     1     -10.780   8.874  70.761  1.00  0.00    -0.233 C  
HETATM    5  O   UNL     1      -9.969   9.010  71.663  1.00  0.00    -0.309 OA 
BRANCH   4   6
HETATM    6  C   UNL     1     -10.980   9.842  69.624  1.00  0.00    -0.269 C  
HETATM    7  C   UNL     1     -11.966  10.779  69.612  1.00  0.00    -0.313 C  
HETATM    8  C   UNL     1     -10.393  10.648  67.227  1.00  0.00    -0.265 C  
HETATM    9  N   UNL     1     -12.086  11.651  68.545  1.00  0.00    -0.499 NA 
HETATM   10  C   UNL     1     -11.392  11.556  67.357  1.00  0.00    -0.298 C  
HETATM   11  C   UNL     1      -9.996   9.744  68.419  1.00  0.00    -0.176 C  
HETATM   12  C   UNL     1     -11.816  12.536  66.287  1.00  0.00    -0.453 C  
BRANCH   7  13
HETATM   13  C   UNL     1     -13.009  10.958  70.706  1.00  0.00    -0.222 C  
BRANCH  13  14
HETATM   14  O   UNL     1     -12.551  11.797  71.781  1.00  0.00    -0.213 OA 
BRANCH  14  15
HETATM   15  C   UNL     1     -13.597  12.742  72.085  1.00  0.00    -0.451 C  
BRANCH  15  16
HETATM   16  C   UNL     1     -13.073  14.175  72.016  1.00  0.00    -0.387 C  
HETATM   17  N   UNL     1     -11.892  14.260  71.154  1.00  0.00    -0.482 NA 
HETATM   18  H2  UNL     1     -12.076  13.882  70.226  1.00  0.00     0.000 HD 
HETATM   19  H1  UNL     1     -11.542  15.216  71.108  1.00  0.00     0.000 HD 
ENDBRANCH  15  16
ENDBRANCH  14  15
ENDBRANCH  13  14
ENDBRANCH   7  13
BRANCH   8  20
HETATM   20  C   UNL     1      -9.678  10.540  65.922  1.00  0.00    -0.217 C  
HETATM   21  O   UNL     1     -10.150  10.021  64.920  1.00  0.00    -0.316 OA 
BRANCH  20  22
HETATM   22  O   UNL     1      -8.440  11.089  65.984  1.00  0.00    -0.167 OA 
HETATM   23  C   UNL     1      -7.398  10.270  65.442  1.00  0.00    -0.144 C  
ENDBRANCH  20  22
ENDBRANCH   8  20
BRANCH  11  24
HETATM   24  C   UNL     1      -9.715   8.293  68.002  1.00  0.00    -0.187 A  
HETATM   25  C   UNL     1     -10.741   7.513  67.433  1.00  0.00    -0.331 A  
HETATM   26  C   UNL     1     -10.535   6.162  67.138  1.00  0.00    -0.327 A  
HETATM   27  C   UNL     1      -9.304   5.563  67.392  1.00  0.00    -0.115 A  
HETATM   28  C   UNL     1      -8.272   6.319  67.941  1.00  0.00    -0.114 A  
HETATM   29  C   UNL     1      -8.470   7.669  68.250  1.00  0.00    -0.125 A  
HETATM   30 CL   UNL     1      -7.136   8.496  68.985  1.00  0.00    -0.064 Cl 
ENDBRANCH  11  24
ENDBRANCH   4   6
ENDBRANCH   3   4
ENDBRANCH   2   3
TORSDOF 10
ENDMDL
MODEL       35
REMARK 921   NORMALIZED FREE ENERGY PREDICTED BY IDOCK:   -4.94 KCAL/MOL
REMARK 922        TOTAL FREE ENERGY PREDICTED BY IDOCK:   -9.38 KCAL/MOL
REMARK 923 INTER-LIGAND FREE ENERGY PREDICTED BY IDOCK:   -7.89 KCAL/MOL
REMARK 924 INTRA-LIGAND FREE ENERGY PREDICTED BY IDOCK:   -1.49 KCAL/MOL
REMARK 927      BINDING AFFINITY PREDICTED BY RF-SCORE:    0.00 PKD
ROOT
HETATM    1  C   UNL     1     -13.389  12.986  72.048  1.00  0.00    -0.588 C  
HETATM    2  C   UNL     1     -12.661  13.125  70.718  1.00  0.00    -0.260 C  
ENDROOT
BRANCH   2   3
HETATM    3  O   UNL     1     -11.802  11.998  70.500  1.00  0.00    -0.302 OA 
BRANCH   3   4
HETATM    4  C   UNL     1     -12.293  10.990  69.741  1.00  0.00    -0.262 C  
HETATM    5  O   UNL     1     -13.487  10.753  69.651  1.00  0.00     0.347 OA 
BRANCH   4   6
HETATM    6  C   UNL     1     -11.206  10.252  69.005  1.00  0.00    -0.260 C  
HETATM    7  C   UNL     1     -10.453   9.274  69.578  1.00  0.00    -0.220 C  
HETATM    8  C   UNL     1      -9.705   9.967  66.906  1.00  0.00    -0.237 C  
HETATM    9  N   UNL     1      -9.481   8.622  68.843  1.00  0.00    -0.146 NA 
HETATM   10  C   UNL     1      -9.053   8.990  67.584  1.00  0.00    -0.133 C  
HETATM   11  C   UNL     1     -10.955  10.644  67.517  1.00  0.00    -0.371 C  
HETATM   12  C   UNL     1      -7.868   8.213  67.057  1.00  0.00    -0.104 C  
BRANCH   7  13
HETATM   13  C   UNL     1     -10.573   8.821  71.026  1.00  0.00    -0.230 C  
BRANCH  13  14
HETATM   14  O   UNL     1     -11.227   7.547  71.158  1.00  0.00    -0.249 OA 
BRANCH  14  15
HETATM   15  C   UNL     1     -12.598   7.787  71.537  1.00  0.00    -0.333 C  
BRANCH  15  16
HETATM   16  C   UNL     1     -12.693   8.942  72.533  1.00  0.00    -0.313 C  
HETATM   17  N   UNL     1     -14.034   9.020  73.117  1.00  0.00    -1.215 NA 
HETATM   18  H2  UNL     1     -14.312   8.135  73.540  1.00  0.00     0.000 HD 
HETATM   19  H1  UNL     1     -14.098   9.791  73.782  1.00  0.00     0.000 HD 
ENDBRANCH  15  16
ENDBRANCH  14  15
ENDBRANCH  13  14
ENDBRANCH   7  13
BRANCH   8  20
HETATM   20  C   UNL     1      -9.205  10.372  65.560  1.00  0.00    -0.184 C  
HETATM   21  O   UNL     1      -8.115  10.889  65.359  1.00  0.00    -0.106 OA 
BRANCH  20  22
HETATM   22  O   UNL     1     -10.107  10.094  64.588  1.00  0.00    -0.321 OA 
HETATM   23  C   UNL     1     -10.286  11.141  63.626  1.00  0.00    -0.389 C  
ENDBRANCH  20  22
ENDBRANCH   8  20
BRANCH  11  24
HETATM   24  C   UNL     1     -10.981  12.163  67.295  1.00  0.00    -0.308 A  
HETATM   25  C   UNL     1     -12.027  12.749  66.554  1.00  0.00    -0.428 A  
HETATM   26  C   UNL     1     -12.017  14.115  66.256  1.00  0.00    -0.448 A  
HETATM   27  C   UNL     1     -10.976  14.927  66.697  1.00  0.00    -0.325 A  
HETATM   28  C   UNL     1      -9.940  14.372  67.443  1.00  0.00    -0.242 A  
HETATM   29  C   UNL     1      -9.934  13.004  67.738  1.00  0.00    -0.227 A  
HETATM   30 CL   UNL     1      -8.565  12.411  68.620  1.00  0.00    -0.039 Cl 
ENDBRANCH  11  24
ENDBRANCH   4   6
ENDBRANCH   3   4
ENDBRANCH   2   3
TORSDOF 10
ENDMDL
MODEL       36
REMARK 921   NORMALIZED FREE ENERGY PREDICTED BY IDOCK:   -4.93 KCAL/MOL
REMARK 922        TOTAL FREE ENERGY PREDICTED BY IDOCK:   -9.37 KCAL/MOL
REMARK 923 INTER-LIGAND FREE ENERGY PREDICTED BY IDOCK:   -7.44 KCAL/MOL
REMARK 924 INTRA-LIGAND FREE ENERGY PREDICTED BY IDOCK:   -1.92 KCAL/MOL
REMARK 927      BINDING AFFINITY PREDICTED BY RF-SCORE:    0.00 PKD
ROOT
HETATM    1  C   UNL     1      -7.895  12.813  67.298  1.00  0.00    -0.148 C  
HETATM    2  C   UNL     1      -9.038  13.626  67.892  1.00  0.00    -0.198 C  
ENDROOT
BRANCH   2   3
HETATM    3  O   UNL     1      -9.745  12.853  68.870  1.00  0.00     0.003 OA 
BRANCH   3   4
HETATM    4  C   UNL     1     -10.823  12.156  68.439  1.00  0.00    -0.224 C  
HETATM    5  O   UNL     1     -11.307  12.309  67.329  1.00  0.00    -0.286 OA 
BRANCH   4   6
HETATM    6  C   UNL     1     -11.301  11.159  69.463  1.00  0.00    -0.359 C  
HETATM    7  C   UNL     1     -12.056  11.506  70.539  1.00  0.00    -0.378 C  
HETATM    8  C   UNL     1     -11.276   8.756  70.444  1.00  0.00    -0.247 C  
HETATM    9  N   UNL     1     -12.478  10.541  71.435  1.00  0.00    -0.397 NA 
HETATM   10  C   UNL     1     -12.053   9.229  71.452  1.00  0.00    -0.348 C  
HETATM   11  C   UNL     1     -10.900   9.668  69.252  1.00  0.00    -0.227 C  
HETATM   12  C   UNL     1     -12.540   8.411  72.626  1.00  0.00    -0.224 C  
BRANCH   7  13
HETATM   13  C   UNL     1     -12.487  12.926  70.879  1.00  0.00    -0.296 C  
BRANCH  13  14
HETATM   14  O   UNL     1     -13.424  12.978  71.969  1.00  0.00    -0.481 OA 
BRANCH  14  15
HETATM   15  C   UNL     1     -13.500  14.344  72.426  1.00  0.00    -0.462 C  
BRANCH  15  16
HETATM   16  C   UNL     1     -13.237  15.318  71.278  1.00  0.00    -0.488 C  
HETATM   17  N   UNL     1     -12.237  16.317  71.659  1.00  0.00    -0.614 NA 
HETATM   18  H2  UNL     1     -11.376  15.882  71.988  1.00  0.00     0.000 HD 
HETATM   19  H1  UNL     1     -12.061  16.967  70.893  1.00  0.00     0.000 HD 
ENDBRANCH  15  16
ENDBRANCH  14  15
ENDBRANCH  13  14
ENDBRANCH   7  13
BRANCH   8  20
HETATM   20  C   UNL     1     -10.799   7.343  70.499  1.00  0.00    -0.243 C  
HETATM   21  O   UNL     1      -9.835   6.968  71.150  1.00  0.00    -0.177 OA 
BRANCH  20  22
HETATM   22  O   UNL     1     -11.570   6.527  69.740  1.00  0.00    -0.394 OA 
HETATM   23  C   UNL     1     -10.897   5.954  68.611  1.00  0.00    -0.261 C  
ENDBRANCH  20  22
ENDBRANCH   8  20
BRANCH  11  24
HETATM   24  C   UNL     1      -9.436   9.506  68.814  1.00  0.00    -0.147 A  
HETATM   25  C   UNL     1      -8.395   9.784  69.722  1.00  0.00    -0.189 A  
HETATM   26  C   UNL     1      -7.058   9.739  69.315  1.00  0.00    -0.066 A  
HETATM   27  C   UNL     1      -6.730   9.407  68.004  1.00  0.00    -0.063 A  
HETATM   28  C   UNL     1      -7.742   9.115  67.094  1.00  0.00    -0.098 A  
HETATM   29  C   UNL     1      -9.084   9.168  67.487  1.00  0.00    -0.124 A  
HETATM   30 CL   UNL     1     -10.261   8.844  66.257  1.00  0.00    -0.304 Cl 
ENDBRANCH  11  24
ENDBRANCH   4   6
ENDBRANCH   3   4
ENDBRANCH   2   3
TORSDOF 10
ENDMDL
MODEL       37
REMARK 921   NORMALIZED FREE ENERGY PREDICTED BY IDOCK:   -4.92 KCAL/MOL
REMARK 922        TOTAL FREE ENERGY PREDICTED BY IDOCK:   -9.35 KCAL/MOL
REMARK 923 INTER-LIGAND FREE ENERGY PREDICTED BY IDOCK:   -7.18 KCAL/MOL
REMARK 924 INTRA-LIGAND FREE ENERGY PREDICTED BY IDOCK:   -2.18 KCAL/MOL
REMARK 927      BINDING AFFINITY PREDICTED BY RF-SCORE:    0.00 PKD
ROOT
HETATM    1  C   UNL     1      -6.835   9.297  66.995  1.00  0.00    -0.080 C  
HETATM    2  C   UNL     1      -7.564  10.519  66.451  1.00  0.00    -0.132 C  
ENDROOT
BRANCH   2   3
HETATM    3  O   UNL     1      -8.554  10.967  67.386  1.00  0.00    -0.126 OA 
BRANCH   3   4
HETATM    4  C   UNL     1      -9.827  10.556  67.175  1.00  0.00    -0.176 C  
HETATM    5  O   UNL     1     -10.180  10.002  66.146  1.00  0.00    -0.247 OA 
BRANCH   4   6
HETATM    6  C   UNL     1     -10.713  10.821  68.364  1.00  0.00    -0.255 C  
HETATM    7  C   UNL     1     -11.175  12.060  68.684  1.00  0.00    -0.258 C  
HETATM    8  C   UNL     1     -11.859   9.996  70.542  1.00  0.00    -0.387 C  
HETATM    9  N   UNL     1     -12.000  12.234  69.780  1.00  0.00    -0.313 NA 
HETATM   10  C   UNL     1     -12.278  11.273  70.728  1.00  0.00    -0.380 C  
HETATM   11  C   UNL     1     -11.107   9.600  69.249  1.00  0.00    -0.149 C  
HETATM   12  C   UNL     1     -13.081  11.756  71.915  1.00  0.00    -0.482 C  
BRANCH   7  13
HETATM   13  C   UNL     1     -10.840  13.335  67.925  1.00  0.00    -0.243 C  
BRANCH  13  14
HETATM   14  O   UNL     1     -11.901  14.306  67.972  1.00  0.00    -0.332 OA 
BRANCH  14  15
HETATM   15  C   UNL     1     -11.310  15.601  68.205  1.00  0.00    -0.356 C  
BRANCH  15  16
HETATM   16  C   UNL     1     -11.441  16.004  69.673  1.00  0.00    -0.326 C  
HETATM   17  N   UNL     1     -12.588  15.340  70.297  1.00  0.00    -0.545 NA 
HETATM   18  H2  UNL     1     -12.542  14.327  70.187  1.00  0.00     0.000 HD 
HETATM   19  H1  UNL     1     -12.676  15.608  71.277  1.00  0.00     0.000 HD 
ENDBRANCH  15  16
ENDBRANCH  14  15
ENDBRANCH  13  14
ENDBRANCH   7  13
BRANCH   8  20
HETATM   20  C   UNL     1     -12.142   8.979  71.597  1.00  0.00    -0.352 C  
HETATM   21  O   UNL     1     -11.403   8.747  72.543  1.00  0.00    -0.290 OA 
BRANCH  20  22
HETATM   22  O   UNL     1     -13.321   8.347  71.378  1.00  0.00    -0.299 OA 
HETATM   23  C   UNL     1     -13.267   6.923  71.521  1.00  0.00    -0.251 C  
ENDBRANCH  20  22
ENDBRANCH   8  20
BRANCH  11  24
HETATM   24  C   UNL     1      -9.924   8.655  69.511  1.00  0.00    -0.196 A  
HETATM   25  C   UNL     1      -8.832   9.093  70.286  1.00  0.00    -0.238 A  
HETATM   26  C   UNL     1      -7.702   8.285  70.454  1.00  0.00    -0.084 A  
HETATM   27  C   UNL     1      -7.641   7.025  69.866  1.00  0.00    -0.102 A  
HETATM   28  C   UNL     1      -8.715   6.567  69.107  1.00  0.00    -0.129 A  
HETATM   29  C   UNL     1      -9.846   7.372  68.924  1.00  0.00    -0.157 A  
HETATM   30 CL   UNL     1     -11.095   6.725  67.912  1.00  0.00    -0.291 Cl 
ENDBRANCH  11  24
ENDBRANCH   4   6
ENDBRANCH   3   4
ENDBRANCH   2   3
TORSDOF 10
ENDMDL
MODEL       38
REMARK 921   NORMALIZED FREE ENERGY PREDICTED BY IDOCK:   -4.91 KCAL/MOL
REMARK 922        TOTAL FREE ENERGY PREDICTED BY IDOCK:   -9.35 KCAL/MOL
REMARK 923 INTER-LIGAND FREE ENERGY PREDICTED BY IDOCK:   -7.55 KCAL/MOL
REMARK 924 INTRA-LIGAND FREE ENERGY PREDICTED BY IDOCK:   -1.80 KCAL/MOL
REMARK 927      BINDING AFFINITY PREDICTED BY RF-SCORE:    0.00 PKD
ROOT
HETATM    1  C   UNL     1     -12.784  14.263  70.517  1.00  0.00    -0.391 C  
HETATM    2  C   UNL     1     -11.451  14.837  70.054  1.00  0.00    -0.277 C  
ENDROOT
BRANCH   2   3
HETATM    3  O   UNL     1     -11.251  14.570  68.660  1.00  0.00    -0.239 OA 
BRANCH   3   4
HETATM    4  C   UNL     1     -10.001  14.218  68.276  1.00  0.00    -0.239 C  
HETATM    5  O   UNL     1      -9.010  14.473  68.940  1.00  0.00    -0.178 OA 
BRANCH   4   6
HETATM    6  C   UNL     1     -10.001  13.447  66.981  1.00  0.00    -0.246 C  
HETATM    7  C   UNL     1     -10.440  13.972  65.805  1.00  0.00    -0.309 C  
HETATM    8  C   UNL     1      -9.677  11.218  65.692  1.00  0.00    -0.267 C  
HETATM    9  N   UNL     1     -10.399  13.217  64.647  1.00  0.00    -0.389 NA 
HETATM   10  C   UNL     1     -10.109  11.871  64.584  1.00  0.00    -0.269 C  
HETATM   11  C   UNL     1      -9.465  11.984  67.019  1.00  0.00    -0.199 C  
HETATM   12  C   UNL     1     -10.282  11.241  63.220  1.00  0.00    -0.417 C  
BRANCH   7  13
HETATM   13  C   UNL     1     -11.017  15.370  65.639  1.00  0.00    -0.326 C  
BRANCH  13  14
HETATM   14  O   UNL     1     -10.007  16.362  65.379  1.00  0.00    -0.534 OA 
BRANCH  14  15
HETATM   15  C   UNL     1     -10.320  17.531  66.163  1.00  0.00    -0.329 C  
BRANCH  15  16
HETATM   16  C   UNL     1      -9.323  17.702  67.309  1.00  0.00    -0.249 C  
HETATM   17  N   UNL     1     -10.003  17.665  68.605  1.00  0.00    -0.349 NA 
HETATM   18  H2  UNL     1     -10.560  16.818  68.713  1.00  0.00     0.000 HD 
HETATM   19  H1  UNL     1      -9.338  17.778  69.369  1.00  0.00     0.000 HD 
ENDBRANCH  15  16
ENDBRANCH  14  15
ENDBRANCH  13  14
ENDBRANCH   7  13
BRANCH   8  20
HETATM   20  C   UNL     1      -9.401   9.754  65.609  1.00  0.00    -0.227 C  
HETATM   21  O   UNL     1      -8.331   9.275  65.261  1.00  0.00    -0.130 OA 
BRANCH  20  22
HETATM   22  O   UNL     1     -10.482   9.020  65.970  1.00  0.00    -0.020 OA 
HETATM   23  C   UNL     1     -10.171   7.804  66.661  1.00  0.00    -0.218 C  
ENDBRANCH  20  22
ENDBRANCH   8  20
BRANCH  11  24
HETATM   24  C   UNL     1      -9.963  11.205  68.246  1.00  0.00    -0.196 A  
HETATM   25  C   UNL     1     -11.329  11.230  68.589  1.00  0.00    -0.336 A  
HETATM   26  C   UNL     1     -11.787  10.610  69.757  1.00  0.00    -0.377 A  
HETATM   27  C   UNL     1     -10.899   9.944  70.596  1.00  0.00    -0.400 A  
HETATM   28  C   UNL     1      -9.547   9.894  70.269  1.00  0.00    -0.184 A  
HETATM   29  C   UNL     1      -9.076  10.521  69.109  1.00  0.00    -0.166 A  
HETATM   30 CL   UNL     1      -7.367  10.446  68.832  1.00  0.00    -0.086 Cl 
ENDBRANCH  11  24
ENDBRANCH   4   6
ENDBRANCH   3   4
ENDBRANCH   2   3
TORSDOF 10
ENDMDL
MODEL       39
REMARK 921   NORMALIZED FREE ENERGY PREDICTED BY IDOCK:   -4.89 KCAL/MOL
REMARK 922        TOTAL FREE ENERGY PREDICTED BY IDOCK:   -9.31 KCAL/MOL
REMARK 923 INTER-LIGAND FREE ENERGY PREDICTED BY IDOCK:   -7.73 KCAL/MOL
REMARK 924 INTRA-LIGAND FREE ENERGY PREDICTED BY IDOCK:   -1.58 KCAL/MOL
REMARK 927      BINDING AFFINITY PREDICTED BY RF-SCORE:    0.00 PKD
ROOT
HETATM    1  C   UNL     1     -13.124  13.038  71.844  1.00  0.00    -0.483 C  
HETATM    2  C   UNL     1     -12.331  12.981  70.545  1.00  0.00    -0.287 C  
ENDROOT
BRANCH   2   3
HETATM    3  O   UNL     1     -12.066  11.620  70.182  1.00  0.00    -0.322 OA 
BRANCH   3   4
HETATM    4  C   UNL     1     -11.567  11.402  68.942  1.00  0.00    -0.323 C  
HETATM    5  O   UNL     1     -12.279  11.243  67.963  1.00  0.00    -0.621 OA 
BRANCH   4   6
HETATM    6  C   UNL     1     -10.061  11.431  68.923  1.00  0.00    -0.166 C  
HETATM    7  C   UNL     1      -9.345  12.382  68.265  1.00  0.00    -0.199 C  
HETATM    8  C   UNL     1      -7.784  10.312  69.473  1.00  0.00    -0.167 C  
HETATM    9  N   UNL     1      -7.963  12.362  68.299  1.00  0.00    -0.154 NA 
HETATM   10  C   UNL     1      -7.193  11.337  68.808  1.00  0.00    -0.104 C  
HETATM   11  C   UNL     1      -9.314  10.308  69.704  1.00  0.00    -0.167 C  
HETATM   12  C   UNL     1      -5.705  11.481  68.586  1.00  0.00    -0.042 C  
BRANCH   7  13
HETATM   13  C   UNL     1      -9.949  13.509  67.440  1.00  0.00    -0.234 C  
BRANCH  13  14
HETATM   14  O   UNL     1     -10.169  13.138  66.067  1.00  0.00    -0.275 OA 
BRANCH  14  15
HETATM   15  C   UNL     1     -10.680  14.293  65.370  1.00  0.00    -0.343 C  
BRANCH  15  16
HETATM   16  C   UNL     1     -12.168  14.130  65.064  1.00  0.00    -0.441 C  
HETATM   17  N   UNL     1     -12.395  14.007  63.623  1.00  0.00    -1.059 NA 
HETATM   18  H2  UNL     1     -11.843  13.252  63.218  1.00  0.00     0.000 HD 
HETATM   19  H1  UNL     1     -13.388  13.898  63.418  1.00  0.00     0.000 HD 
ENDBRANCH  15  16
ENDBRANCH  14  15
ENDBRANCH  13  14
ENDBRANCH   7  13
BRANCH   8  20
HETATM   20  C   UNL     1      -6.936   9.197  69.985  1.00  0.00    -0.054 C  
HETATM   21  O   UNL     1      -6.555   8.255  69.305  1.00  0.00    -0.038 OA 
BRANCH  20  22
HETATM   22  O   UNL     1      -6.638   9.359  71.298  1.00  0.00    -0.180 OA 
HETATM   23  C   UNL     1      -5.413   8.740  71.710  1.00  0.00    -0.047 C  
ENDBRANCH  20  22
ENDBRANCH   8  20
BRANCH  11  24
HETATM   24  C   UNL     1      -9.946   8.923  69.496  1.00  0.00    -0.191 A  
HETATM   25  C   UNL     1      -9.918   8.320  68.223  1.00  0.00    -0.217 A  
HETATM   26  C   UNL     1     -10.573   7.107  67.989  1.00  0.00    -0.251 A  
HETATM   27  C   UNL     1     -11.257   6.465  69.017  1.00  0.00    -0.402 A  
HETATM   28  C   UNL     1     -11.286   7.035  70.286  1.00  0.00    -0.339 A  
HETATM   29  C   UNL     1     -10.643   8.255  70.529  1.00  0.00    -0.219 A  
HETATM   30 CL   UNL     1     -10.795   8.901  72.130  1.00  0.00    -0.404 Cl 
ENDBRANCH  11  24
ENDBRANCH   4   6
ENDBRANCH   3   4
ENDBRANCH   2   3
TORSDOF 10
ENDMDL
MODEL       40
REMARK 921   NORMALIZED FREE ENERGY PREDICTED BY IDOCK:   -4.84 KCAL/MOL
REMARK 922        TOTAL FREE ENERGY PREDICTED BY IDOCK:   -9.22 KCAL/MOL
REMARK 923 INTER-LIGAND FREE ENERGY PREDICTED BY IDOCK:   -7.75 KCAL/MOL
REMARK 924 INTRA-LIGAND FREE ENERGY PREDICTED BY IDOCK:   -1.47 KCAL/MOL
REMARK 927      BINDING AFFINITY PREDICTED BY RF-SCORE:    0.00 PKD
ROOT
HETATM    1  C   UNL     1     -12.876   9.944  71.193  1.00  0.00    -0.461 C  
HETATM    2  C   UNL     1     -12.195  10.747  70.093  1.00  0.00    -0.346 C  
ENDROOT
BRANCH   2   3
HETATM    3  O   UNL     1     -11.622   9.867  69.116  1.00  0.00    -0.050 OA 
BRANCH   3   4
HETATM    4  C   UNL     1     -10.291   9.982  68.894  1.00  0.00    -0.202 C  
HETATM    5  O   UNL     1      -9.484  10.157  69.792  1.00  0.00    -0.220 OA 
BRANCH   4   6
HETATM    6  C   UNL     1      -9.943   9.820  67.437  1.00  0.00    -0.239 C  
HETATM    7  C   UNL     1      -9.085   8.868  66.980  1.00  0.00    -0.135 C  
HETATM    8  C   UNL     1     -10.056  10.678  64.989  1.00  0.00    -0.388 C  
HETATM    9  N   UNL     1      -8.820   8.761  65.627  1.00  0.00    -0.190 NA 
HETATM   10  C   UNL     1      -9.214   9.665  64.664  1.00  0.00    -0.234 C  
HETATM   11  C   UNL     1     -10.614  10.800  66.428  1.00  0.00    -0.266 C  
HETATM   12  C   UNL     1      -8.666   9.407  63.279  1.00  0.00    -0.220 C  
BRANCH   7  13
HETATM   13  C   UNL     1      -8.340   7.875  67.860  1.00  0.00    -0.126 C  
BRANCH  13  14
HETATM   14  O   UNL     1      -9.168   6.777  68.284  1.00  0.00    -0.125 OA 
BRANCH  14  15
HETATM   15  C   UNL     1      -8.869   5.644  67.444  1.00  0.00    -0.105 C  
BRANCH  15  16
HETATM   16  C   UNL     1     -10.140   4.864  67.109  1.00  0.00    -0.187 C  
HETATM   17  N   UNL     1     -11.068   5.686  66.329  1.00  0.00    -0.772 NA 
HETATM   18  H2  UNL     1     -10.625   6.061  65.491  1.00  0.00     0.000 HD 
HETATM   19  H1  UNL     1     -11.916   5.166  66.106  1.00  0.00     0.000 HD 
ENDBRANCH  15  16
ENDBRANCH  14  15
ENDBRANCH  13  14
ENDBRANCH   7  13
BRANCH   8  20
HETATM   20  C   UNL     1     -10.443  11.665  63.939  1.00  0.00    -0.382 C  
HETATM   21  O   UNL     1      -9.662  12.434  63.398  1.00  0.00    -0.312 OA 
BRANCH  20  22
HETATM   22  O   UNL     1     -11.767  11.600  63.657  1.00  0.00    -0.420 OA 
HETATM   23  C   UNL     1     -12.382  12.867  63.393  1.00  0.00    -0.410 C  
ENDBRANCH  20  22
ENDBRANCH   8  20
BRANCH  11  24
HETATM   24  C   UNL     1     -10.638  12.249  66.938  1.00  0.00    -0.249 A  
HETATM   25  C   UNL     1     -11.866  12.922  67.089  1.00  0.00    -0.424 A  
HETATM   26  C   UNL     1     -11.905  14.271  67.457  1.00  0.00    -0.429 A  
HETATM   27  C   UNL     1     -10.726  14.972  67.694  1.00  0.00    -0.274 A  
HETATM   28  C   UNL     1      -9.501  14.322  67.564  1.00  0.00    -0.209 A  
HETATM   29  C   UNL     1      -9.451  12.976  67.186  1.00  0.00    -0.230 A  
HETATM   30 CL   UNL     1      -7.872  12.286  66.998  1.00  0.00    -0.145 Cl 
ENDBRANCH  11  24
ENDBRANCH   4   6
ENDBRANCH   3   4
ENDBRANCH   2   3
TORSDOF 10
ENDMDL
MODEL       41
REMARK 921   NORMALIZED FREE ENERGY PREDICTED BY IDOCK:   -4.83 KCAL/MOL
REMARK 922        TOTAL FREE ENERGY PREDICTED BY IDOCK:   -9.22 KCAL/MOL
REMARK 923 INTER-LIGAND FREE ENERGY PREDICTED BY IDOCK:   -7.74 KCAL/MOL
REMARK 924 INTRA-LIGAND FREE ENERGY PREDICTED BY IDOCK:   -1.48 KCAL/MOL
REMARK 927      BINDING AFFINITY PREDICTED BY RF-SCORE:    0.00 PKD
ROOT
HETATM    1  C   UNL     1      -6.284  10.114  64.579  1.00  0.00    -0.133 C  
HETATM    2  C   UNL     1      -7.781   9.870  64.720  1.00  0.00    -0.138 C  
ENDROOT
BRANCH   2   3
HETATM    3  O   UNL     1      -8.380  10.899  65.518  1.00  0.00    -0.154 OA 
BRANCH   3   4
HETATM    4  C   UNL     1      -9.732  10.977  65.503  1.00  0.00    -0.229 C  
HETATM    5  O   UNL     1     -10.386  10.910  64.474  1.00  0.00    -0.325 OA 
BRANCH   4   6
HETATM    6  C   UNL     1     -10.309  11.104  66.889  1.00  0.00    -0.272 C  
HETATM    7  C   UNL     1     -10.757  10.039  67.607  1.00  0.00    -0.284 C  
HETATM    8  C   UNL     1     -11.153  12.586  68.846  1.00  0.00    -0.309 C  
HETATM    9  N   UNL     1     -11.260  10.221  68.882  1.00  0.00    -0.229 NA 
HETATM   10  C   UNL     1     -11.530  11.440  69.466  1.00  0.00    -0.312 C  
HETATM   11  C   UNL     1     -10.380  12.534  67.506  1.00  0.00    -0.225 C  
HETATM   12  C   UNL     1     -12.224  11.370  70.808  1.00  0.00    -0.475 C  
BRANCH   7  13
HETATM   13  C   UNL     1     -10.775   8.601  67.109  1.00  0.00    -0.129 C  
BRANCH  13  14
HETATM   14  O   UNL     1      -9.544   7.905  67.373  1.00  0.00    -0.141 OA 
BRANCH  14  15
HETATM   15  C   UNL     1      -9.860   6.521  67.626  1.00  0.00    -0.125 C  
BRANCH  15  16
HETATM   16  C   UNL     1     -11.136   6.111  66.892  1.00  0.00    -0.219 C  
HETATM   17  N   UNL     1     -10.825   5.285  65.724  1.00  0.00    -0.682 NA 
HETATM   18  H2  UNL     1     -10.258   4.475  65.975  1.00  0.00     0.000 HD 
HETATM   19  H1  UNL     1     -11.676   5.011  65.234  1.00  0.00     0.000 HD 
ENDBRANCH  15  16
ENDBRANCH  14  15
ENDBRANCH  13  14
ENDBRANCH   7  13
BRANCH   8  20
HETATM   20  C   UNL     1     -11.484  13.896  69.479  1.00  0.00    -0.274 C  
HETATM   21  O   UNL     1     -12.622  14.280  69.708  1.00  0.00    -0.287 OA 
BRANCH  20  22
HETATM   22  O   UNL     1     -10.367  14.606  69.773  1.00  0.00    -0.088 OA 
HETATM   23  C   UNL     1     -10.531  16.027  69.704  1.00  0.00    -0.300 C  
ENDBRANCH  20  22
ENDBRANCH   8  20
BRANCH  11  24
HETATM   24  C   UNL     1     -10.859  13.589  66.498  1.00  0.00    -0.283 A  
HETATM   25  C   UNL     1     -12.122  13.457  65.887  1.00  0.00    -0.486 A  
HETATM   26  C   UNL     1     -12.535  14.351  64.894  1.00  0.00    -0.368 A  
HETATM   27  C   UNL     1     -11.708  15.398  64.499  1.00  0.00    -0.277 A  
HETATM   28  C   UNL     1     -10.462  15.556  65.098  1.00  0.00    -0.431 A  
HETATM   29  C   UNL     1     -10.034  14.660  66.085  1.00  0.00    -0.304 A  
HETATM   30 CL   UNL     1      -8.441  14.917  66.720  1.00  0.00    -0.256 Cl 
ENDBRANCH  11  24
ENDBRANCH   4   6
ENDBRANCH   3   4
ENDBRANCH   2   3
TORSDOF 10
ENDMDL
MODEL       42
REMARK 921   NORMALIZED FREE ENERGY PREDICTED BY IDOCK:   -4.83 KCAL/MOL
REMARK 922        TOTAL FREE ENERGY PREDICTED BY IDOCK:   -9.21 KCAL/MOL
REMARK 923 INTER-LIGAND FREE ENERGY PREDICTED BY IDOCK:   -7.77 KCAL/MOL
REMARK 924 INTRA-LIGAND FREE ENERGY PREDICTED BY IDOCK:   -1.44 KCAL/MOL
REMARK 927      BINDING AFFINITY PREDICTED BY RF-SCORE:    0.00 PKD
ROOT
HETATM    1  C   UNL     1     -11.658   7.955  70.639  1.00  0.00    -0.215 C  
HETATM    2  C   UNL     1     -10.619   9.067  70.562  1.00  0.00    -0.227 C  
ENDROOT
BRANCH   2   3
HETATM    3  O   UNL     1     -10.975  10.012  69.544  1.00  0.00    -0.232 OA 
BRANCH   3   4
HETATM    4  C   UNL     1      -9.958  10.610  68.880  1.00  0.00    -0.204 C  
HETATM    5  O   UNL     1      -8.874  10.833  69.395  1.00  0.00    -0.093 OA 
BRANCH   4   6
HETATM    6  C   UNL     1     -10.314  10.910  67.448  1.00  0.00    -0.248 C  
HETATM    7  C   UNL     1     -10.084  10.040  66.428  1.00  0.00    -0.241 C  
HETATM    8  C   UNL     1     -11.136  12.580  65.638  1.00  0.00    -0.338 C  
HETATM    9  N   UNL     1     -10.450  10.369  65.135  1.00  0.00    -0.190 NA 
HETATM   10  C   UNL     1     -10.885  11.611  64.722  1.00  0.00    -0.308 C  
HETATM   11  C   UNL     1     -10.979  12.288  67.149  1.00  0.00    -0.308 C  
HETATM   12  C   UNL     1     -11.073  11.761  63.229  1.00  0.00    -0.370 C  
BRANCH   7  13
HETATM   13  C   UNL     1      -9.414   8.682  66.577  1.00  0.00    -0.216 C  
BRANCH  13  14
HETATM   14  O   UNL     1     -10.345   7.636  66.911  1.00  0.00    -0.290 OA 
BRANCH  14  15
HETATM   15  C   UNL     1      -9.823   6.395  66.393  1.00  0.00    -0.063 C  
BRANCH  15  16
HETATM   16  C   UNL     1     -10.759   5.232  66.721  1.00  0.00    -0.164 C  
HETATM   17  N   UNL     1     -11.536   4.837  65.545  1.00  0.00    -0.901 NA 
HETATM   18  H2  UNL     1     -10.934   4.623  64.751  1.00  0.00     0.000 HD 
HETATM   19  H1  UNL     1     -12.160   4.061  65.764  1.00  0.00     0.000 HD 
ENDBRANCH  15  16
ENDBRANCH  14  15
ENDBRANCH  13  14
ENDBRANCH   7  13
BRANCH   8  20
HETATM   20  C   UNL     1     -11.574  13.926  65.167  1.00  0.00    -0.335 C  
HETATM   21  O   UNL     1     -12.742  14.277  65.080  1.00  0.00    -0.625 OA 
BRANCH  20  22
HETATM   22  O   UNL     1     -10.517  14.713  64.850  1.00  0.00    -0.414 OA 
HETATM   23  C   UNL     1     -10.598  16.050  65.358  1.00  0.00    -0.408 C  
ENDBRANCH  20  22
ENDBRANCH   8  20
BRANCH  11  24
HETATM   24  C   UNL     1     -10.315  13.442  67.915  1.00  0.00    -0.238 A  
HETATM   25  C   UNL     1      -8.969  13.774  67.661  1.00  0.00    -0.194 A  
HETATM   26  C   UNL     1      -8.317  14.754  68.416  1.00  0.00    -0.154 A  
HETATM   27  C   UNL     1      -8.991  15.430  69.428  1.00  0.00    -0.258 A  
HETATM   28  C   UNL     1     -10.325  15.129  69.687  1.00  0.00    -0.238 A  
HETATM   29  C   UNL     1     -10.985  14.142  68.945  1.00  0.00    -0.259 A  
HETATM   30 CL   UNL     1     -12.625  13.807  69.394  1.00  0.00    -0.043 Cl 
ENDBRANCH  11  24
ENDBRANCH   4   6
ENDBRANCH   3   4
ENDBRANCH   2   3
TORSDOF 10
ENDMDL
MODEL       43
REMARK 921   NORMALIZED FREE ENERGY PREDICTED BY IDOCK:   -4.80 KCAL/MOL
REMARK 922        TOTAL FREE ENERGY PREDICTED BY IDOCK:   -9.16 KCAL/MOL
REMARK 923 INTER-LIGAND FREE ENERGY PREDICTED BY IDOCK:   -7.38 KCAL/MOL
REMARK 924 INTRA-LIGAND FREE ENERGY PREDICTED BY IDOCK:   -1.79 KCAL/MOL
REMARK 927      BINDING AFFINITY PREDICTED BY RF-SCORE:    0.00 PKD
ROOT
HETATM    1  C   UNL     1     -11.578  14.740  68.549  1.00  0.00    -0.348 C  
HETATM    2  C   UNL     1     -12.223  13.724  69.484  1.00  0.00    -0.293 C  
ENDROOT
BRANCH   2   3
HETATM    3  O   UNL     1     -11.322  12.638  69.736  1.00  0.00    -0.169 OA 
BRANCH   3   4
HETATM    4  C   UNL     1     -11.349  11.604  68.862  1.00  0.00    -0.267 C  
HETATM    5  O   UNL     1     -12.388  11.122  68.441  1.00  0.00    -0.556 OA 
BRANCH   4   6
HETATM    6  C   UNL     1      -9.965  11.172  68.451  1.00  0.00    -0.193 C  
HETATM    7  C   UNL     1      -9.383  11.560  67.285  1.00  0.00    -0.166 C  
HETATM    8  C   UNL     1      -7.861   9.703  68.839  1.00  0.00    -0.081 C  
HETATM    9  N   UNL     1      -8.102  11.142  66.973  1.00  0.00    -0.141 NA 
HETATM   10  C   UNL     1      -7.383  10.190  67.667  1.00  0.00    -0.089 C  
HETATM   11  C   UNL     1      -9.187  10.240  69.429  1.00  0.00    -0.206 C  
HETATM   12  C   UNL     1      -6.068   9.793  67.035  1.00  0.00    -0.063 C  
BRANCH   7  13
HETATM   13  C   UNL     1     -10.044  12.437  66.232  1.00  0.00    -0.240 C  
BRANCH  13  14
HETATM   14  O   UNL     1     -10.954  11.706  65.390  1.00  0.00    -0.299 OA 
BRANCH  14  15
HETATM   15  C   UNL     1     -12.110  12.536  65.157  1.00  0.00    -0.446 C  
BRANCH  15  16
HETATM   16  C   UNL     1     -11.702  13.881  64.557  1.00  0.00    -0.410 C  
HETATM   17  N   UNL     1     -12.378  14.110  63.278  1.00  0.00    -1.133 NA 
HETATM   18  H2  UNL     1     -13.390  14.029  63.367  1.00  0.00     0.000 HD 
HETATM   19  H1  UNL     1     -12.106  15.007  62.877  1.00  0.00     0.000 HD 
ENDBRANCH  15  16
ENDBRANCH  14  15
ENDBRANCH  13  14
ENDBRANCH   7  13
BRANCH   8  20
HETATM   20  C   UNL     1      -7.084   8.650  69.556  1.00  0.00    -0.055 C  
HETATM   21  O   UNL     1      -7.096   7.464  69.259  1.00  0.00    -0.070 OA 
BRANCH  20  22
HETATM   22  O   UNL     1      -6.359   9.172  70.576  1.00  0.00    -0.041 OA 
HETATM   23  C   UNL     1      -6.660   8.618  71.863  1.00  0.00    -0.077 C  
ENDBRANCH  20  22
ENDBRANCH   8  20
BRANCH  11  24
HETATM   24  C   UNL     1     -10.072   9.131  70.018  1.00  0.00    -0.230 A  
HETATM   25  C   UNL     1     -10.345   9.107  71.400  1.00  0.00    -0.409 A  
HETATM   26  C   UNL     1     -11.065   8.053  71.970  1.00  0.00    -0.353 A  
HETATM   27  C   UNL     1     -11.536   7.010  71.179  1.00  0.00    -0.351 A  
HETATM   28  C   UNL     1     -11.291   7.020  69.808  1.00  0.00    -0.226 A  
HETATM   29  C   UNL     1     -10.562   8.065  69.228  1.00  0.00    -0.184 A  
HETATM   30 CL   UNL     1     -10.264   7.944  67.525  1.00  0.00    -0.283 Cl 
ENDBRANCH  11  24
ENDBRANCH   4   6
ENDBRANCH   3   4
ENDBRANCH   2   3
TORSDOF 10
ENDMDL
MODEL       44
REMARK 921   NORMALIZED FREE ENERGY PREDICTED BY IDOCK:   -4.79 KCAL/MOL
REMARK 922        TOTAL FREE ENERGY PREDICTED BY IDOCK:   -9.15 KCAL/MOL
REMARK 923 INTER-LIGAND FREE ENERGY PREDICTED BY IDOCK:   -7.69 KCAL/MOL
REMARK 924 INTRA-LIGAND FREE ENERGY PREDICTED BY IDOCK:   -1.47 KCAL/MOL
REMARK 927      BINDING AFFINITY PREDICTED BY RF-SCORE:    0.00 PKD
ROOT
HETATM    1  C   UNL     1     -12.282  14.328  64.564  1.00  0.00    -0.476 C  
HETATM    2  C   UNL     1     -11.182  13.430  64.010  1.00  0.00    -0.287 C  
ENDROOT
BRANCH   2   3
HETATM    3  O   UNL     1     -11.297  12.109  64.554  1.00  0.00    -0.313 OA 
BRANCH   3   4
HETATM    4  C   UNL     1     -11.183  11.988  65.898  1.00  0.00    -0.337 C  
HETATM    5  O   UNL     1     -12.151  11.927  66.640  1.00  0.00    -0.587 OA 
BRANCH   4   6
HETATM    6  C   UNL     1      -9.746  11.891  66.340  1.00  0.00    -0.238 C  
HETATM    7  C   UNL     1      -9.039  10.729  66.317  1.00  0.00    -0.175 C  
HETATM    8  C   UNL     1      -7.655  12.965  67.442  1.00  0.00    -0.150 C  
HETATM    9  N   UNL     1      -7.717  10.710  66.720  1.00  0.00    -0.121 NA 
HETATM   10  C   UNL     1      -7.056  11.753  67.335  1.00  0.00    -0.126 C  
HETATM   11  C   UNL     1      -9.061  13.200  66.839  1.00  0.00    -0.231 C  
HETATM   12  C   UNL     1      -5.661  11.431  67.822  1.00  0.00    -0.046 C  
BRANCH   7  13
HETATM   13  C   UNL     1      -9.597   9.381  65.886  1.00  0.00    -0.270 C  
BRANCH  13  14
HETATM   14  O   UNL     1     -10.486   8.809  66.862  1.00  0.00    -0.285 OA 
BRANCH  14  15
HETATM   15  C   UNL     1      -9.898   7.579  67.334  1.00  0.00    -0.169 C  
BRANCH  15  16
HETATM   16  C   UNL     1     -10.952   6.477  67.439  1.00  0.00    -0.378 C  
HETATM   17  N   UNL     1     -11.055   5.730  66.184  1.00  0.00    -0.710 NA 
HETATM   18  H2  UNL     1     -10.152   5.360  65.891  1.00  0.00     0.000 HD 
HETATM   19  H1  UNL     1     -11.758   4.995  66.254  1.00  0.00     0.000 HD 
ENDBRANCH  15  16
ENDBRANCH  14  15
ENDBRANCH  13  14
ENDBRANCH   7  13
BRANCH   8  20
HETATM   20  C   UNL     1      -6.936  14.070  68.140  1.00  0.00    -0.120 C  
HETATM   21  O   UNL     1      -6.858  14.179  69.356  1.00  0.00    -0.120 OA 
BRANCH  20  22
HETATM   22  O   UNL     1      -6.377  14.937  67.261  1.00  0.00    -0.310 OA 
HETATM   23  C   UNL     1      -6.451  16.313  67.653  1.00  0.00    -0.158 C  
ENDBRANCH  20  22
ENDBRANCH   8  20
BRANCH  11  24
HETATM   24  C   UNL     1      -9.973  14.032  67.753  1.00  0.00    -0.236 A  
HETATM   25  C   UNL     1     -10.568  13.438  68.883  1.00  0.00    -0.181 A  
HETATM   26  C   UNL     1     -11.479  14.149  69.671  1.00  0.00    -0.329 A  
HETATM   27  C   UNL     1     -11.805  15.465  69.359  1.00  0.00    -0.372 A  
HETATM   28  C   UNL     1     -11.218  16.077  68.255  1.00  0.00    -0.350 A  
HETATM   29  C   UNL     1     -10.314  15.371  67.452  1.00  0.00    -0.262 A  
HETATM   30 CL   UNL     1      -9.691  16.211  66.071  1.00  0.00    -0.351 Cl 
ENDBRANCH  11  24
ENDBRANCH   4   6
ENDBRANCH   3   4
ENDBRANCH   2   3
TORSDOF 10
ENDMDL
MODEL       45
REMARK 921   NORMALIZED FREE ENERGY PREDICTED BY IDOCK:   -4.76 KCAL/MOL
REMARK 922        TOTAL FREE ENERGY PREDICTED BY IDOCK:   -9.11 KCAL/MOL
REMARK 923 INTER-LIGAND FREE ENERGY PREDICTED BY IDOCK:   -7.61 KCAL/MOL
REMARK 924 INTRA-LIGAND FREE ENERGY PREDICTED BY IDOCK:   -1.50 KCAL/MOL
REMARK 927      BINDING AFFINITY PREDICTED BY RF-SCORE:    0.00 PKD
ROOT
HETATM    1  C   UNL     1     -12.125  10.604  70.214  1.00  0.00    -0.423 C  
HETATM    2  C   UNL     1     -12.150  11.584  69.048  1.00  0.00    -0.238 C  
ENDROOT
BRANCH   2   3
HETATM    3  O   UNL     1     -11.569  10.986  67.882  1.00  0.00    -0.483 OA 
BRANCH   3   4
HETATM    4  C   UNL     1     -10.448  11.564  67.390  1.00  0.00    -0.209 C  
HETATM    5  O   UNL     1     -10.066  12.669  67.740  1.00  0.00    -0.210 OA 
BRANCH   4   6
HETATM    6  C   UNL     1      -9.727  10.668  66.416  1.00  0.00    -0.241 C  
HETATM    7  C   UNL     1      -9.967  10.681  65.077  1.00  0.00    -0.305 C  
HETATM    8  C   UNL     1      -8.113   8.688  65.955  1.00  0.00    -0.111 C  
HETATM    9  N   UNL     1      -9.258   9.844  64.234  1.00  0.00    -0.260 NA 
HETATM   10  C   UNL     1      -8.420   8.827  64.641  1.00  0.00    -0.151 C  
HETATM   11  C   UNL     1      -8.661   9.691  66.998  1.00  0.00    -0.131 C  
HETATM   12  C   UNL     1      -7.886   7.953  63.529  1.00  0.00    -0.138 C  
BRANCH   7  13
HETATM   13  C   UNL     1     -11.001  11.559  64.388  1.00  0.00    -0.324 C  
BRANCH  13  14
HETATM   14  O   UNL     1     -10.532  12.900  64.162  1.00  0.00    -0.403 OA 
BRANCH  14  15
HETATM   15  C   UNL     1     -11.585  13.810  64.539  1.00  0.00    -0.392 C  
BRANCH  15  16
HETATM   16  C   UNL     1     -11.015  15.175  64.922  1.00  0.00    -0.419 C  
HETATM   17  N   UNL     1     -11.469  16.211  63.992  1.00  0.00    -1.425 NA 
HETATM   18  H2  UNL     1     -12.486  16.234  63.921  1.00  0.00     0.000 HD 
HETATM   19  H1  UNL     1     -11.089  17.122  64.247  1.00  0.00     0.000 HD 
ENDBRANCH  15  16
ENDBRANCH  14  15
ENDBRANCH  13  14
ENDBRANCH   7  13
BRANCH   8  20
HETATM   20  C   UNL     1      -7.231   7.561  66.377  1.00  0.00    -0.075 C  
HETATM   21  O   UNL     1      -6.064   7.692  66.718  1.00  0.00    -0.045 OA 
BRANCH  20  22
HETATM   22  O   UNL     1      -7.884   6.374  66.338  1.00  0.00    -0.100 OA 
HETATM   23  C   UNL     1      -7.037   5.225  66.462  1.00  0.00    -0.069 C  
ENDBRANCH  20  22
ENDBRANCH   8  20
BRANCH  11  24
HETATM   24  C   UNL     1      -9.127   9.011  68.294  1.00  0.00    -0.133 A  
HETATM   25  C   UNL     1      -8.543   9.365  69.526  1.00  0.00    -0.158 A  
HETATM   26  C   UNL     1      -8.882   8.689  70.702  1.00  0.00    -0.192 A  
HETATM   27  C   UNL     1      -9.816   7.657  70.678  1.00  0.00    -0.182 A  
HETATM   28  C   UNL     1     -10.417   7.299  69.474  1.00  0.00    -0.238 A  
HETATM   29  C   UNL     1     -10.076   7.962  68.289  1.00  0.00    -0.194 A  
HETATM   30 CL   UNL     1     -10.841   7.394  66.842  1.00  0.00    -0.363 Cl 
ENDBRANCH  11  24
ENDBRANCH   4   6
ENDBRANCH   3   4
ENDBRANCH   2   3
TORSDOF 10
ENDMDL
MODEL       46
REMARK 921   NORMALIZED FREE ENERGY PREDICTED BY IDOCK:   -4.74 KCAL/MOL
REMARK 922        TOTAL FREE ENERGY PREDICTED BY IDOCK:   -9.06 KCAL/MOL
REMARK 923 INTER-LIGAND FREE ENERGY PREDICTED BY IDOCK:   -7.25 KCAL/MOL
REMARK 924 INTRA-LIGAND FREE ENERGY PREDICTED BY IDOCK:   -1.81 KCAL/MOL
REMARK 927      BINDING AFFINITY PREDICTED BY RF-SCORE:    0.00 PKD
ROOT
HETATM    1  C   UNL     1     -12.257  12.546  63.746  1.00  0.00    -0.615 C  
HETATM    2  C   UNL     1     -12.609  12.984  65.162  1.00  0.00    -0.469 C  
ENDROOT
BRANCH   2   3
HETATM    3  O   UNL     1     -11.797  14.098  65.555  1.00  0.00    -0.341 OA 
BRANCH   3   4
HETATM    4  C   UNL     1     -11.508  14.211  66.873  1.00  0.00    -0.357 C  
HETATM    5  O   UNL     1     -12.329  13.994  67.750  1.00  0.00    -0.249 OA 
BRANCH   4   6
HETATM    6  C   UNL     1     -10.067  14.582  67.108  1.00  0.00    -0.252 C  
HETATM    7  C   UNL     1      -9.587  15.842  66.931  1.00  0.00    -0.230 C  
HETATM    8  C   UNL     1      -7.619  13.882  67.614  1.00  0.00    -0.188 C  
HETATM    9  N   UNL     1      -8.255  16.121  67.181  1.00  0.00    -0.179 NA 
HETATM   10  C   UNL     1      -7.278  15.182  67.435  1.00  0.00    -0.199 C  
HETATM   11  C   UNL     1      -9.105  13.450  67.580  1.00  0.00    -0.215 C  
HETATM   12  C   UNL     1      -5.870  15.727  67.519  1.00  0.00    -0.125 C  
BRANCH   7  13
HETATM   13  C   UNL     1     -10.409  17.026  66.444  1.00  0.00    -0.303 C  
BRANCH  13  14
HETATM   14  O   UNL     1     -10.900  17.844  67.521  1.00  0.00    -0.364 OA 
BRANCH  14  15
HETATM   15  C   UNL     1     -10.370  19.174  67.348  1.00  0.00    -0.430 C  
BRANCH  15  16
HETATM   16  C   UNL     1     -10.423  19.594  65.880  1.00  0.00    -0.493 C  
HETATM   17  N   UNL     1      -9.196  20.293  65.491  1.00  0.00    -0.419 NA 
HETATM   18  H2  UNL     1      -8.366  19.737  65.693  1.00  0.00     0.000 HD 
HETATM   19  H1  UNL     1      -9.231  20.573  64.511  1.00  0.00     0.000 HD 
ENDBRANCH  15  16
ENDBRANCH  14  15
ENDBRANCH  13  14
ENDBRANCH   7  13
BRANCH   8  20
HETATM   20  C   UNL     1      -6.543  12.877  67.855  1.00  0.00    -0.125 C  
HETATM   21  O   UNL     1      -5.675  12.590  67.042  1.00  0.00    -0.315 OA 
BRANCH  20  22
HETATM   22  O   UNL     1      -6.643  12.323  69.088  1.00  0.00    -0.095 OA 
HETATM   23  C   UNL     1      -6.215  13.174  70.159  1.00  0.00    -0.039 C  
ENDBRANCH  20  22
ENDBRANCH   8  20
BRANCH  11  24
HETATM   24  C   UNL     1      -9.327  12.132  66.822  1.00  0.00    -0.212 A  
HETATM   25  C   UNL     1      -8.935  12.021  65.473  1.00  0.00     0.239 A  
HETATM   26  C   UNL     1      -9.218  10.866  64.737  1.00  0.00    -0.227 A  
HETATM   27  C   UNL     1      -9.883   9.797  65.329  1.00  0.00    -0.335 A  
HETATM   28  C   UNL     1     -10.268   9.879  66.664  1.00  0.00    -0.293 A  
HETATM   29  C   UNL     1     -10.000  11.035  67.408  1.00  0.00    -0.182 A  
HETATM   30 CL   UNL     1     -10.576  11.051  69.042  1.00  0.00    -0.239 Cl 
ENDBRANCH  11  24
ENDBRANCH   4   6
ENDBRANCH   3   4
ENDBRANCH   2   3
TORSDOF 10
ENDMDL
MODEL       47
REMARK 921   NORMALIZED FREE ENERGY PREDICTED BY IDOCK:   -4.73 KCAL/MOL
REMARK 922        TOTAL FREE ENERGY PREDICTED BY IDOCK:   -9.06 KCAL/MOL
REMARK 923 INTER-LIGAND FREE ENERGY PREDICTED BY IDOCK:   -7.04 KCAL/MOL
REMARK 924 INTRA-LIGAND FREE ENERGY PREDICTED BY IDOCK:   -2.02 KCAL/MOL
REMARK 927      BINDING AFFINITY PREDICTED BY RF-SCORE:    0.00 PKD
ROOT
HETATM    1  C   UNL     1      -9.941  11.150  63.117  1.00  0.00    -0.393 C  
HETATM    2  C   UNL     1      -9.853  10.272  64.359  1.00  0.00    -0.305 C  
ENDROOT
BRANCH   2   3
HETATM    3  O   UNL     1     -10.556  10.880  65.450  1.00  0.00    -0.246 OA 
BRANCH   3   4
HETATM    4  C   UNL     1      -9.817  11.260  66.520  1.00  0.00    -0.208 C  
HETATM    5  O   UNL     1      -8.813  11.947  66.419  1.00  0.00    -0.197 OA 
BRANCH   4   6
HETATM    6  C   UNL     1     -10.408  10.776  67.818  1.00  0.00    -0.226 C  
HETATM    7  C   UNL     1     -11.026  11.601  68.705  1.00  0.00    -0.226 C  
HETATM    8  C   UNL     1     -10.761   8.885  69.562  1.00  0.00    -0.206 C  
HETATM    9  N   UNL     1     -11.564  11.092  69.873  1.00  0.00    -0.307 NA 
HETATM   10  C   UNL     1     -11.381   9.807  70.340  1.00  0.00    -0.297 C  
HETATM   11  C   UNL     1     -10.295   9.253  68.133  1.00  0.00    -0.261 C  
HETATM   12  C   UNL     1     -11.940   9.540  71.719  1.00  0.00    -0.443 C  
BRANCH   7  13
HETATM   13  C   UNL     1     -11.173  13.106  68.536  1.00  0.00    -0.272 C  
BRANCH  13  14
HETATM   14  O   UNL     1     -12.180  13.462  67.571  1.00  0.00    -0.311 OA 
BRANCH  14  15
HETATM   15  C   UNL     1     -11.616  14.447  66.681  1.00  0.00    -0.384 C  
BRANCH  15  16
HETATM   16  C   UNL     1     -11.845  14.058  65.222  1.00  0.00    -0.359 C  
HETATM   17  N   UNL     1     -12.806  12.957  65.119  1.00  0.00    -0.773 NA 
HETATM   18  H2  UNL     1     -13.682  13.176  65.592  1.00  0.00     0.000 HD 
HETATM   19  H1  UNL     1     -12.959  12.697  64.145  1.00  0.00     0.000 HD 
ENDBRANCH  15  16
ENDBRANCH  14  15
ENDBRANCH  13  14
ENDBRANCH   7  13
BRANCH   8  20
HETATM   20  C   UNL     1     -10.545   7.510  70.100  1.00  0.00    -0.235 C  
HETATM   21  O   UNL     1     -11.231   6.542  69.804  1.00  0.00    -0.335 OA 
BRANCH  20  22
HETATM   22  O   UNL     1      -9.493   7.467  70.953  1.00  0.00    -0.164 OA 
HETATM   23  C   UNL     1      -8.917   6.166  71.121  1.00  0.00    -0.143 C  
ENDBRANCH  20  22
ENDBRANCH   8  20
BRANCH  11  24
HETATM   24  C   UNL     1      -8.912   8.680  67.789  1.00  0.00    -0.140 A  
HETATM   25  C   UNL     1      -8.798   7.623  66.865  1.00  0.00    -0.142 A  
HETATM   26  C   UNL     1      -7.560   7.022  66.613  1.00  0.00    -0.089 A  
HETATM   27  C   UNL     1      -6.413   7.466  67.264  1.00  0.00    -0.060 A  
HETATM   28  C   UNL     1      -6.501   8.519  68.170  1.00  0.00    -0.057 A  
HETATM   29  C   UNL     1      -7.736   9.121  68.439  1.00  0.00    -0.094 A  
HETATM   30 CL   UNL     1      -7.737  10.382  69.628  1.00  0.00    -0.163 Cl 
ENDBRANCH  11  24
ENDBRANCH   4   6
ENDBRANCH   3   4
ENDBRANCH   2   3
TORSDOF 10
ENDMDL
MODEL       48
REMARK 921   NORMALIZED FREE ENERGY PREDICTED BY IDOCK:   -4.71 KCAL/MOL
REMARK 922        TOTAL FREE ENERGY PREDICTED BY IDOCK:   -9.02 KCAL/MOL
REMARK 923 INTER-LIGAND FREE ENERGY PREDICTED BY IDOCK:   -7.51 KCAL/MOL
REMARK 924 INTRA-LIGAND FREE ENERGY PREDICTED BY IDOCK:   -1.51 KCAL/MOL
REMARK 927      BINDING AFFINITY PREDICTED BY RF-SCORE:    0.00 PKD
ROOT
HETATM    1  C   UNL     1      -9.859  19.900  66.294  1.00  0.00    -0.570 C  
HETATM    2  C   UNL     1     -10.961  19.628  67.310  1.00  0.00    -0.290 C  
ENDROOT
BRANCH   2   3
HETATM    3  O   UNL     1     -11.156  18.216  67.468  1.00  0.00    -0.221 OA 
BRANCH   3   4
HETATM    4  C   UNL     1     -10.659  17.652  68.594  1.00  0.00    -0.244 C  
HETATM    5  O   UNL     1     -10.259  18.309  69.542  1.00  0.00    -0.086 OA 
BRANCH   4   6
HETATM    6  C   UNL     1     -10.711  16.147  68.545  1.00  0.00    -0.300 C  
HETATM    7  C   UNL     1     -11.453  15.401  69.408  1.00  0.00    -0.324 C  
HETATM    8  C   UNL     1      -9.838  13.897  67.588  1.00  0.00    -0.236 C  
HETATM    9  N   UNL     1     -11.471  14.023  69.299  1.00  0.00    -0.278 NA 
HETATM   10  C   UNL     1     -10.646  13.276  68.484  1.00  0.00    -0.256 C  
HETATM   11  C   UNL     1      -9.869  15.437  67.442  1.00  0.00    -0.216 C  
HETATM   12  C   UNL     1     -10.752  11.779  68.662  1.00  0.00    -0.252 C  
BRANCH   7  13
HETATM   13  C   UNL     1     -12.290  15.965  70.546  1.00  0.00    -0.245 C  
BRANCH  13  14
HETATM   14  O   UNL     1     -13.620  15.416  70.585  1.00  0.00    -0.341 OA 
BRANCH  14  15
HETATM   15  C   UNL     1     -14.133  15.585  71.922  1.00  0.00    -0.486 C  
BRANCH  15  16
HETATM   16  C   UNL     1     -13.110  15.126  72.960  1.00  0.00    -0.502 C  
HETATM   17  N   UNL     1     -13.046  16.064  74.082  1.00  0.00    -0.914 NA 
HETATM   18  H2  UNL     1     -13.964  16.215  74.500  1.00  0.00     0.000 HD 
HETATM   19  H1  UNL     1     -12.364  15.758  74.775  1.00  0.00     0.000 HD 
ENDBRANCH  15  16
ENDBRANCH  14  15
ENDBRANCH  13  14
ENDBRANCH   7  13
BRANCH   8  20
HETATM   20  C   UNL     1      -8.929  13.073  66.739  1.00  0.00    -0.175 C  
HETATM   21  O   UNL     1      -7.843  12.649  67.107  1.00  0.00    -0.166 OA 
BRANCH  20  22
HETATM   22  O   UNL     1      -9.458  12.849  65.512  1.00  0.00    -0.044 OA 
HETATM   23  C   UNL     1      -9.640  11.466  65.185  1.00  0.00    -0.229 C  
ENDBRANCH  20  22
ENDBRANCH   8  20
BRANCH  11  24
HETATM   24  C   UNL     1      -8.469  16.050  67.283  1.00  0.00    -0.206 A  
HETATM   25  C   UNL     1      -8.145  16.771  66.117  1.00  0.00    -0.293 A  
HETATM   26  C   UNL     1      -6.848  17.251  65.908  1.00  0.00    -0.013 A  
HETATM   27  C   UNL     1      -5.854  17.036  66.858  1.00  0.00    -0.225 A  
HETATM   28  C   UNL     1      -6.156  16.338  68.024  1.00  0.00    -0.133 A  
HETATM   29  C   UNL     1      -7.447  15.843  68.238  1.00  0.00    -0.127 A  
HETATM   30 CL   UNL     1      -7.695  14.939  69.696  1.00  0.00    -0.132 Cl 
ENDBRANCH  11  24
ENDBRANCH   4   6
ENDBRANCH   3   4
ENDBRANCH   2   3
TORSDOF 10
ENDMDL
MODEL       49
REMARK 921   NORMALIZED FREE ENERGY PREDICTED BY IDOCK:   -4.65 KCAL/MOL
REMARK 922        TOTAL FREE ENERGY PREDICTED BY IDOCK:   -8.92 KCAL/MOL
REMARK 923 INTER-LIGAND FREE ENERGY PREDICTED BY IDOCK:   -6.71 KCAL/MOL
REMARK 924 INTRA-LIGAND FREE ENERGY PREDICTED BY IDOCK:   -2.21 KCAL/MOL
REMARK 927      BINDING AFFINITY PREDICTED BY RF-SCORE:    0.00 PKD
ROOT
HETATM    1  C   UNL     1      -6.839  18.632  65.930  1.00  0.00    -0.312 C  
HETATM    2  C   UNL     1      -5.788  17.591  66.296  1.00  0.00    -0.209 C  
ENDROOT
BRANCH   2   3
HETATM    3  O   UNL     1      -6.414  16.344  66.621  1.00  0.00    -0.277 OA 
BRANCH   3   4
HETATM    4  C   UNL     1      -6.678  16.113  67.929  1.00  0.00    -0.137 C  
HETATM    5  O   UNL     1      -6.133  16.728  68.831  1.00  0.00    -0.145 OA 
BRANCH   4   6
HETATM    6  C   UNL     1      -7.738  15.060  68.117  1.00  0.00    -0.115 C  
HETATM    7  C   UNL     1      -7.507  13.732  67.932  1.00  0.00    -0.152 C  
HETATM    8  C   UNL     1     -10.219  14.416  68.534  1.00  0.00    -0.243 C  
HETATM    9  N   UNL     1      -8.520  12.813  68.137  1.00  0.00    -0.172 NA 
HETATM   10  C   UNL     1      -9.847  13.124  68.351  1.00  0.00    -0.206 C  
HETATM   11  C   UNL     1      -9.157  15.542  68.548  1.00  0.00    -0.196 C  
HETATM   12  C   UNL     1     -10.785  11.939  68.390  1.00  0.00    -0.248 C  
BRANCH   7  13
HETATM   13  C   UNL     1      -6.182  13.135  67.481  1.00  0.00    -0.122 C  
BRANCH  13  14
HETATM   14  O   UNL     1      -6.175  11.697  67.530  1.00  0.00    -0.063 OA 
BRANCH  14  15
HETATM   15  C   UNL     1      -5.877  11.208  66.206  1.00  0.00    -0.139 C  
BRANCH  15  16
HETATM   16  C   UNL     1      -6.999  10.306  65.694  1.00  0.00    -0.133 C  
HETATM   17  N   UNL     1      -8.215  11.079  65.437  1.00  0.00    -0.359 NA 
HETATM   18  H2  UNL     1      -8.040  11.858  64.804  1.00  0.00     0.000 HD 
HETATM   19  H1  UNL     1      -8.964  10.477  65.095  1.00  0.00     0.000 HD 
ENDBRANCH  15  16
ENDBRANCH  14  15
ENDBRANCH  13  14
ENDBRANCH   7  13
BRANCH   8  20
HETATM   20  C   UNL     1     -11.663  14.733  68.731  1.00  0.00    -0.323 C  
HETATM   21  O   UNL     1     -12.504  14.687  67.844  1.00  0.00    -0.031 OA 
BRANCH  20  22
HETATM   22  O   UNL     1     -11.929  15.076  70.015  1.00  0.00    -0.293 OA 
HETATM   23  C   UNL     1     -12.697  14.109  70.741  1.00  0.00    -0.344 C  
ENDBRANCH  20  22
ENDBRANCH   8  20
BRANCH  11  24
HETATM   24  C   UNL     1      -9.609  16.799  67.789  1.00  0.00    -0.241 A  
HETATM   25  C   UNL     1      -9.755  18.021  68.475  1.00  0.00    -0.357 A  
HETATM   26  C   UNL     1     -10.259  19.152  67.825  1.00  0.00    -0.492 A  
HETATM   27  C   UNL     1     -10.617  19.094  66.482  1.00  0.00    -0.523 A  
HETATM   28  C   UNL     1     -10.468  17.900  65.781  1.00  0.00    -0.196 A  
HETATM   29  C   UNL     1      -9.974  16.759  66.424  1.00  0.00    -0.304 A  
HETATM   30 CL   UNL     1      -9.888  15.314  65.471  1.00  0.00    -0.377 Cl 
ENDBRANCH  11  24
ENDBRANCH   4   6
ENDBRANCH   3   4
ENDBRANCH   2   3
TORSDOF 10
ENDMDL
MODEL       50
REMARK 921   NORMALIZED FREE ENERGY PREDICTED BY IDOCK:   -4.62 KCAL/MOL
REMARK 922        TOTAL FREE ENERGY PREDICTED BY IDOCK:   -8.88 KCAL/MOL
REMARK 923 INTER-LIGAND FREE ENERGY PREDICTED BY IDOCK:   -6.90 KCAL/MOL
REMARK 924 INTRA-LIGAND FREE ENERGY PREDICTED BY IDOCK:   -1.99 KCAL/MOL
REMARK 927      BINDING AFFINITY PREDICTED BY RF-SCORE:    0.00 PKD
ROOT
HETATM    1  C   UNL     1      -6.869   9.171  70.018  1.00  0.00    -0.049 C  
HETATM    2  C   UNL     1      -8.295   8.669  69.832  1.00  0.00    -0.123 C  
ENDROOT
BRANCH   2   3
HETATM    3  O   UNL     1      -9.233   9.666  70.260  1.00  0.00    -0.242 OA 
BRANCH   3   4
HETATM    4  C   UNL     1     -10.343   9.828  69.502  1.00  0.00    -0.230 C  
HETATM    5  O   UNL     1     -10.864   8.911  68.888  1.00  0.00    -0.150 OA 
BRANCH   4   6
HETATM    6  C   UNL     1     -10.865  11.241  69.555  1.00  0.00    -0.207 C  
HETATM    7  C   UNL     1     -11.884  11.626  70.369  1.00  0.00    -0.293 C  
HETATM    8  C   UNL     1     -10.905  13.659  68.612  1.00  0.00    -0.283 C  
HETATM    9  N   UNL     1     -12.306  12.943  70.383  1.00  0.00    -0.299 NA 
HETATM   10  C   UNL     1     -11.902  13.918  69.494  1.00  0.00    -0.329 C  
HETATM   11  C   UNL     1     -10.183  12.290  68.625  1.00  0.00    -0.177 C  
HETATM   12  C   UNL     1     -12.626  15.239  69.620  1.00  0.00    -0.087 C  
BRANCH   7  13
HETATM   13  C   UNL     1     -12.654  10.697  71.297  1.00  0.00    -0.427 C  
BRANCH  13  14
HETATM   14  O   UNL     1     -13.490   9.767  70.585  1.00  0.00    -0.181 OA 
BRANCH  14  15
HETATM   15  C   UNL     1     -13.960   8.781  71.526  1.00  0.00    -0.334 C  
BRANCH  15  16
HETATM   16  C   UNL     1     -12.871   7.751  71.825  1.00  0.00    -0.327 C  
HETATM   17  N   UNL     1     -12.485   7.031  70.610  1.00  0.00    -0.604 NA 
HETATM   18  H2  UNL     1     -12.205   7.669  69.867  1.00  0.00     0.000 HD 
HETATM   19  H1  UNL     1     -11.758   6.344  70.809  1.00  0.00     0.000 HD 
ENDBRANCH  15  16
ENDBRANCH  14  15
ENDBRANCH  13  14
ENDBRANCH   7  13
BRANCH   8  20
HETATM   20  C   UNL     1     -10.507  14.717  67.638  1.00  0.00    -0.254 C  
HETATM   21  O   UNL     1      -9.587  15.504  67.816  1.00  0.00    -0.208 OA 
BRANCH  20  22
HETATM   22  O   UNL     1     -11.288  14.696  66.531  1.00  0.00    -0.341 OA 
HETATM   23  C   UNL     1     -10.587  14.932  65.304  1.00  0.00    -0.401 C  
ENDBRANCH  20  22
ENDBRANCH   8  20
BRANCH  11  24
HETATM   24  C   UNL     1      -9.914  11.743  67.215  1.00  0.00    -0.208 A  
HETATM   25  C   UNL     1     -10.991  11.356  66.393  1.00  0.00    -0.315 A  
HETATM   26  C   UNL     1     -10.764  10.764  65.146  1.00  0.00    -0.159 A  
HETATM   27  C   UNL     1      -9.466  10.556  64.689  1.00  0.00    -0.316 A  
HETATM   28  C   UNL     1      -8.388  10.944  65.479  1.00  0.00    -0.079 A  
HETATM   29  C   UNL     1      -8.603  11.527  66.733  1.00  0.00    -0.170 A  
HETATM   30 CL   UNL     1      -7.188  11.914  67.656  1.00  0.00    -0.103 Cl 
ENDBRANCH  11  24
ENDBRANCH   4   6
ENDBRANCH   3   4
ENDBRANCH   2   3
TORSDOF 10
ENDMDL
MODEL       51
REMARK 921   NORMALIZED FREE ENERGY PREDICTED BY IDOCK:   -4.61 KCAL/MOL
REMARK 922        TOTAL FREE ENERGY PREDICTED BY IDOCK:   -8.87 KCAL/MOL
REMARK 923 INTER-LIGAND FREE ENERGY PREDICTED BY IDOCK:   -8.34 KCAL/MOL
REMARK 924 INTRA-LIGAND FREE ENERGY PREDICTED BY IDOCK:   -0.53 KCAL/MOL
REMARK 927      BINDING AFFINITY PREDICTED BY RF-SCORE:    0.00 PKD
ROOT
HETATM    1  C   UNL     1     -10.648   5.605  69.173  1.00  0.00    -0.334 C  
HETATM    2  C   UNL     1     -10.557   5.930  67.688  1.00  0.00    -0.262 C  
ENDROOT
BRANCH   2   3
HETATM    3  O   UNL     1     -10.946   7.289  67.451  1.00  0.00    -0.258 OA 
BRANCH   3   4
HETATM    4  C   UNL     1     -10.027   8.246  67.722  1.00  0.00    -0.186 C  
HETATM    5  O   UNL     1      -8.827   8.024  67.737  1.00  0.00    -0.126 OA 
BRANCH   4   6
HETATM    6  C   UNL     1     -10.661   9.594  67.949  1.00  0.00    -0.302 C  
HETATM    7  C   UNL     1     -10.520  10.635  67.086  1.00  0.00    -0.245 C  
HETATM    8  C   UNL     1     -11.969  11.235  69.478  1.00  0.00    -0.421 C  
HETATM    9  N   UNL     1     -11.142  11.843  67.343  1.00  0.00    -0.261 NA 
HETATM   10  C   UNL     1     -11.778  12.177  68.521  1.00  0.00    -0.330 C  
HETATM   11  C   UNL     1     -11.517   9.774  69.240  1.00  0.00     0.023 C  
HETATM   12  C   UNL     1     -12.241  13.613  68.615  1.00  0.00    -0.189 C  
BRANCH   7  13
HETATM   13  C   UNL     1      -9.688  10.602  65.812  1.00  0.00    -0.221 C  
BRANCH  13  14
HETATM   14  O   UNL     1     -10.493  10.514  64.623  1.00  0.00    -0.311 OA 
BRANCH  14  15
HETATM   15  C   UNL     1     -10.225  11.678  63.816  1.00  0.00    -0.389 C  
BRANCH  15  16
HETATM   16  C   UNL     1     -11.518  12.423  63.488  1.00  0.00    -0.483 C  
HETATM   17  N   UNL     1     -12.518  11.514  62.926  1.00  0.00    -0.867 NA 
HETATM   18  H2  UNL     1     -12.688  10.716  63.537  1.00  0.00     0.000 HD 
HETATM   19  H1  UNL     1     -13.381  12.011  62.707  1.00  0.00     0.000 HD 
ENDBRANCH  15  16
ENDBRANCH  14  15
ENDBRANCH  13  14
ENDBRANCH   7  13
BRANCH   8  20
HETATM   20  C   UNL     1     -12.630  11.625  70.757  1.00  0.00    -0.273 C  
HETATM   21  O   UNL     1     -13.381  10.898  71.392  1.00  0.00    -0.295 OA 
BRANCH  20  22
HETATM   22  O   UNL     1     -12.292  12.883  71.131  1.00  0.00    -0.322 OA 
HETATM   23  C   UNL     1     -13.167  13.471  72.101  1.00  0.00    -0.458 C  
ENDBRANCH  20  22
ENDBRANCH   8  20
BRANCH  11  24
HETATM   24  C   UNL     1     -10.860   9.142  70.476  1.00  0.00    -0.306 A  
HETATM   25  C   UNL     1      -9.513   9.422  70.778  1.00  0.00    -0.307 A  
HETATM   26  C   UNL     1      -8.868   8.781  71.841  1.00  0.00    -0.224 A  
HETATM   27  C   UNL     1      -9.551   7.861  72.630  1.00  0.00    -0.290 A  
HETATM   28  C   UNL     1     -10.887   7.579  72.358  1.00  0.00    -0.323 A  
HETATM   29  C   UNL     1     -11.540   8.207  71.290  1.00  0.00    -0.273 A  
HETATM   30 CL   UNL     1     -13.183   7.736  71.007  1.00  0.00    -0.109 Cl 
ENDBRANCH  11  24
ENDBRANCH   4   6
ENDBRANCH   3   4
ENDBRANCH   2   3
TORSDOF 10
ENDMDL
MODEL       52
REMARK 921   NORMALIZED FREE ENERGY PREDICTED BY IDOCK:   -4.61 KCAL/MOL
REMARK 922        TOTAL FREE ENERGY PREDICTED BY IDOCK:   -8.87 KCAL/MOL
REMARK 923 INTER-LIGAND FREE ENERGY PREDICTED BY IDOCK:   -7.26 KCAL/MOL
REMARK 924 INTRA-LIGAND FREE ENERGY PREDICTED BY IDOCK:   -1.61 KCAL/MOL
REMARK 927      BINDING AFFINITY PREDICTED BY RF-SCORE:    0.00 PKD
ROOT
HETATM    1  C   UNL     1      -6.399  11.320  66.687  1.00  0.00    -0.135 C  
HETATM    2  C   UNL     1      -7.733  11.950  67.067  1.00  0.00    -0.146 C  
ENDROOT
BRANCH   2   3
HETATM    3  O   UNL     1      -8.507  11.037  67.856  1.00  0.00    -0.123 OA 
BRANCH   3   4
HETATM    4  C   UNL     1      -9.774  10.793  67.444  1.00  0.00    -0.171 C  
HETATM    5  O   UNL     1     -10.061  10.593  66.275  1.00  0.00    -0.220 OA 
BRANCH   4   6
HETATM    6  C   UNL     1     -10.747  10.754  68.594  1.00  0.00    -0.242 C  
HETATM    7  C   UNL     1     -11.479  11.832  68.984  1.00  0.00    -0.297 C  
HETATM    8  C   UNL     1     -11.780   9.508  70.624  1.00  0.00    -0.330 C  
HETATM    9  N   UNL     1     -12.368  11.726  70.038  1.00  0.00    -0.204 NA 
HETATM   10  C   UNL     1     -12.473  10.644  70.887  1.00  0.00    -0.397 C  
HETATM   11  C   UNL     1     -10.905   9.401  69.352  1.00  0.00    -0.208 C  
HETATM   12  C   UNL     1     -13.411  10.835  72.057  1.00  0.00    -0.403 C  
BRANCH   7  13
HETATM   13  C   UNL     1     -11.395  13.215  68.354  1.00  0.00    -0.289 C  
BRANCH  13  14
HETATM   14  O   UNL     1     -12.081  13.294  67.092  1.00  0.00    -0.361 OA 
BRANCH  14  15
HETATM   15  C   UNL     1     -11.521  14.395  66.348  1.00  0.00    -0.360 C  
BRANCH  15  16
HETATM   16  C   UNL     1     -11.316  14.013  64.882  1.00  0.00    -0.354 C  
HETATM   17  N   UNL     1     -10.024  13.352  64.690  1.00  0.00    -0.629 NA 
HETATM   18  H2  UNL     1      -9.917  12.547  65.307  1.00  0.00     0.000 HD 
HETATM   19  H1  UNL     1      -9.886  13.097  63.712  1.00  0.00     0.000 HD 
ENDBRANCH  15  16
ENDBRANCH  14  15
ENDBRANCH  13  14
ENDBRANCH   7  13
BRANCH   8  20
HETATM   20  C   UNL     1     -11.882   8.361  71.573  1.00  0.00    -0.297 C  
HETATM   21  O   UNL     1     -11.364   8.338  72.681  1.00  0.00    -0.390 OA 
BRANCH  20  22
HETATM   22  O   UNL     1     -12.621   7.350  71.056  1.00  0.00    -0.304 OA 
HETATM   23  C   UNL     1     -13.947   7.249  71.591  1.00  0.00    -0.363 C  
ENDBRANCH  20  22
ENDBRANCH   8  20
BRANCH  11  24
HETATM   24  C   UNL     1      -9.559   8.707  69.608  1.00  0.00    -0.170 A  
HETATM   25  C   UNL     1      -8.696   9.194  70.610  1.00  0.00    -0.272 A  
HETATM   26  C   UNL     1      -7.425   8.640  70.794  1.00  0.00    -0.080 A  
HETATM   27  C   UNL     1      -6.993   7.585  69.994  1.00  0.00    -0.059 A  
HETATM   28  C   UNL     1      -7.834   7.080  69.008  1.00  0.00    -0.115 A  
HETATM   29  C   UNL     1      -9.104   7.634  68.808  1.00  0.00    -0.139 A  
HETATM   30 CL   UNL     1     -10.042   6.966  67.513  1.00  0.00    -0.200 Cl 
ENDBRANCH  11  24
ENDBRANCH   4   6
ENDBRANCH   3   4
ENDBRANCH   2   3
TORSDOF 10
ENDMDL
MODEL       53
REMARK 921   NORMALIZED FREE ENERGY PREDICTED BY IDOCK:   -4.60 KCAL/MOL
REMARK 922        TOTAL FREE ENERGY PREDICTED BY IDOCK:   -8.85 KCAL/MOL
REMARK 923 INTER-LIGAND FREE ENERGY PREDICTED BY IDOCK:   -6.78 KCAL/MOL
REMARK 924 INTRA-LIGAND FREE ENERGY PREDICTED BY IDOCK:   -2.07 KCAL/MOL
REMARK 927      BINDING AFFINITY PREDICTED BY RF-SCORE:    0.00 PKD
ROOT
HETATM    1  C   UNL     1      -6.098  19.230  69.414  1.00  0.00    -0.299 C  
HETATM    2  C   UNL     1      -5.478  18.022  68.722  1.00  0.00    -0.182 C  
ENDROOT
BRANCH   2   3
HETATM    3  O   UNL     1      -6.295  16.861  68.921  1.00  0.00    -0.160 OA 
BRANCH   3   4
HETATM    4  C   UNL     1      -6.893  16.338  67.825  1.00  0.00    -0.135 C  
HETATM    5  O   UNL     1      -6.507  16.564  66.689  1.00  0.00    -0.258 OA 
BRANCH   4   6
HETATM    6  C   UNL     1      -8.036  15.424  68.184  1.00  0.00    -0.136 C  
HETATM    7  C   UNL     1      -8.003  14.079  67.983  1.00  0.00    -0.152 C  
HETATM    8  C   UNL     1     -10.486  15.093  68.977  1.00  0.00    -0.248 C  
HETATM    9  N   UNL     1      -9.080  13.293  68.350  1.00  0.00    -0.173 NA 
HETATM   10  C   UNL     1     -10.310  13.766  68.757  1.00  0.00    -0.192 C  
HETATM   11  C   UNL     1      -9.302  16.077  68.817  1.00  0.00    -0.222 C  
HETATM   12  C   UNL     1     -11.372  12.708  68.952  1.00  0.00    -0.345 C  
BRANCH   7  13
HETATM   13  C   UNL     1      -6.846  13.324  67.345  1.00  0.00    -0.085 C  
BRANCH  13  14
HETATM   14  O   UNL     1      -5.835  12.948  68.297  1.00  0.00    -0.066 OA 
BRANCH  14  15
HETATM   15  C   UNL     1      -5.943  11.527  68.523  1.00  0.00    -0.045 C  
BRANCH  15  16
HETATM   16  C   UNL     1      -6.456  11.238  69.933  1.00  0.00    -0.132 C  
HETATM   17  N   UNL     1      -7.811  10.683  69.893  1.00  0.00    -0.356 NA 
HETATM   18  H2  UNL     1      -7.862   9.858  69.297  1.00  0.00     0.000 HD 
HETATM   19  H1  UNL     1      -8.154  10.490  70.834  1.00  0.00     0.000 HD 
ENDBRANCH  15  16
ENDBRANCH  14  15
ENDBRANCH  13  14
ENDBRANCH   7  13
BRANCH   8  20
HETATM   20  C   UNL     1     -11.833  15.587  69.385  1.00  0.00    -0.374 C  
HETATM   21  O   UNL     1     -12.752  15.801  68.607  1.00  0.00     0.558 OA 
BRANCH  20  22
HETATM   22  O   UNL     1     -11.914  15.766  70.726  1.00  0.00    -0.357 OA 
HETATM   23  C   UNL     1     -13.175  15.400  71.300  1.00  0.00    -0.510 C  
ENDBRANCH  20  22
ENDBRANCH   8  20
BRANCH  11  24
HETATM   24  C   UNL     1      -9.704  17.385  68.119  1.00  0.00    -0.291 A  
HETATM   25  C   UNL     1      -9.727  18.593  68.845  1.00  0.00    -0.363 A  
HETATM   26  C   UNL     1     -10.183  19.776  68.255  1.00  0.00    -0.569 A  
HETATM   27  C   UNL     1     -10.614  19.784  66.932  1.00  0.00    -0.588 A  
HETATM   28  C   UNL     1     -10.587  18.606  66.192  1.00  0.00    -0.409 A  
HETATM   29  C   UNL     1     -10.142  17.414  66.775  1.00  0.00    -0.313 A  
HETATM   30 CL   UNL     1     -10.207  15.997  65.779  1.00  0.00    -0.376 Cl 
ENDBRANCH  11  24
ENDBRANCH   4   6
ENDBRANCH   3   4
ENDBRANCH   2   3
TORSDOF 10
ENDMDL
MODEL       54
REMARK 921   NORMALIZED FREE ENERGY PREDICTED BY IDOCK:   -4.58 KCAL/MOL
REMARK 922        TOTAL FREE ENERGY PREDICTED BY IDOCK:   -8.82 KCAL/MOL
REMARK 923 INTER-LIGAND FREE ENERGY PREDICTED BY IDOCK:   -6.60 KCAL/MOL
REMARK 924 INTRA-LIGAND FREE ENERGY PREDICTED BY IDOCK:   -2.22 KCAL/MOL
REMARK 927      BINDING AFFINITY PREDICTED BY RF-SCORE:    0.00 PKD
ROOT
HETATM    1  C   UNL     1     -10.536   5.562  70.315  1.00  0.00    -0.365 C  
HETATM    2  C   UNL     1     -11.440   6.415  71.196  1.00  0.00    -0.323 C  
ENDROOT
BRANCH   2   3
HETATM    3  O   UNL     1     -11.566   7.735  70.650  1.00  0.00    -0.281 OA 
BRANCH   3   4
HETATM    4  C   UNL     1     -10.844   8.715  71.243  1.00  0.00    -0.260 C  
HETATM    5  O   UNL     1     -10.353   8.594  72.353  1.00  0.00    -0.319 OA 
BRANCH   4   6
HETATM    6  C   UNL     1     -10.691   9.923  70.355  1.00  0.00    -0.379 C  
HETATM    7  C   UNL     1     -11.664  10.862  70.206  1.00  0.00    -0.347 C  
HETATM    8  C   UNL     1      -9.352  11.242  68.564  1.00  0.00    -0.182 C  
HETATM    9  N   UNL     1     -11.454  11.958  69.388  1.00  0.00    -0.290 NA 
HETATM   10  C   UNL     1     -10.385  12.121  68.533  1.00  0.00    -0.221 C  
HETATM   11  C   UNL     1      -9.344  10.080  69.586  1.00  0.00    -0.242 C  
HETATM   12  C   UNL     1     -10.465  13.330  67.629  1.00  0.00    -0.231 C  
BRANCH   7  13
HETATM   13  C   UNL     1     -13.032  10.811  70.870  1.00  0.00    -0.296 C  
BRANCH  13  14
HETATM   14  O   UNL     1     -13.048  11.447  72.161  1.00  0.00    -0.462 OA 
BRANCH  14  15
HETATM   15  C   UNL     1     -13.780  12.683  72.039  1.00  0.00    -0.210 C  
BRANCH  15  16
HETATM   16  C   UNL     1     -12.922  13.870  72.475  1.00  0.00    -0.359 C  
HETATM   17  N   UNL     1     -11.962  14.234  71.431  1.00  0.00    -0.426 NA 
HETATM   18  H2  UNL     1     -12.425  14.411  70.540  1.00  0.00     0.000 HD 
HETATM   19  H1  UNL     1     -11.390  15.025  71.722  1.00  0.00     0.000 HD 
ENDBRANCH  15  16
ENDBRANCH  14  15
ENDBRANCH  13  14
ENDBRANCH   7  13
BRANCH   8  20
HETATM   20  C   UNL     1      -8.221  11.418  67.608  1.00  0.00    -0.128 C  
HETATM   21  O   UNL     1      -8.269  11.115  66.424  1.00  0.00    -0.162 OA 
BRANCH  20  22
HETATM   22  O   UNL     1      -7.135  11.958  68.212  1.00  0.00    -0.070 OA 
HETATM   23  C   UNL     1      -6.588  13.101  67.542  1.00  0.00    -0.152 C  
ENDBRANCH  20  22
ENDBRANCH   8  20
BRANCH  11  24
HETATM   24  C   UNL     1      -8.852   8.756  68.983  1.00  0.00    -0.137 A  
HETATM   25  C   UNL     1      -7.697   8.134  69.498  1.00  0.00    -0.102 A  
HETATM   26  C   UNL     1      -7.176   6.982  68.899  1.00  0.00    -0.091 A  
HETATM   27  C   UNL     1      -7.797   6.422  67.787  1.00  0.00    -0.104 A  
HETATM   28  C   UNL     1      -8.946   7.012  67.269  1.00  0.00    -0.119 A  
HETATM   29  C   UNL     1      -9.471   8.171  67.854  1.00  0.00    -0.146 A  
HETATM   30 CL   UNL     1     -10.869   8.854  67.091  1.00  0.00    -0.193 Cl 
ENDBRANCH  11  24
ENDBRANCH   4   6
ENDBRANCH   3   4
ENDBRANCH   2   3
TORSDOF 10
ENDMDL
MODEL       55
REMARK 921   NORMALIZED FREE ENERGY PREDICTED BY IDOCK:   -4.58 KCAL/MOL
REMARK 922        TOTAL FREE ENERGY PREDICTED BY IDOCK:   -8.81 KCAL/MOL
REMARK 923 INTER-LIGAND FREE ENERGY PREDICTED BY IDOCK:   -6.69 KCAL/MOL
REMARK 924 INTRA-LIGAND FREE ENERGY PREDICTED BY IDOCK:   -2.12 KCAL/MOL
REMARK 927      BINDING AFFINITY PREDICTED BY RF-SCORE:    0.00 PKD
ROOT
HETATM    1  C   UNL     1      -5.258  11.035  69.845  1.00  0.00    -0.045 C  
HETATM    2  C   UNL     1      -5.395   9.518  69.866  1.00  0.00    -0.032 C  
ENDROOT
BRANCH   2   3
HETATM    3  O   UNL     1      -6.421   9.123  70.786  1.00  0.00    -0.053 OA 
BRANCH   3   4
HETATM    4  C   UNL     1      -7.420   8.352  70.295  1.00  0.00    -0.063 C  
HETATM    5  O   UNL     1      -7.216   7.300  69.711  1.00  0.00    -0.077 OA 
BRANCH   4   6
HETATM    6  C   UNL     1      -8.780   8.923  70.601  1.00  0.00    -0.230 C  
HETATM    7  C   UNL     1      -9.547   8.498  71.642  1.00  0.00    -0.249 C  
HETATM    8  C   UNL     1     -10.780  10.443  69.945  1.00  0.00    -0.331 C  
HETATM    9  N   UNL     1     -10.781   9.076  71.879  1.00  0.00    -0.355 NA 
HETATM   10  C   UNL     1     -11.425   9.955  71.035  1.00  0.00    -0.388 C  
HETATM   11  C   UNL     1      -9.308  10.054  69.667  1.00  0.00    -0.242 C  
HETATM   12  C   UNL     1     -12.833  10.322  71.443  1.00  0.00    -0.544 C  
BRANCH   7  13
HETATM   13  C   UNL     1      -9.165   7.384  72.604  1.00  0.00    -0.145 C  
BRANCH  13  14
HETATM   14  O   UNL     1     -10.170   7.145  73.606  1.00  0.00    -0.304 OA 
BRANCH  14  15
HETATM   15  C   UNL     1     -10.563   5.760  73.522  1.00  0.00    -0.269 C  
BRANCH  15  16
HETATM   16  C   UNL     1     -11.497   5.530  72.335  1.00  0.00    -0.204 C  
HETATM   17  N   UNL     1     -12.572   6.524  72.315  1.00  0.00    -0.554 NA 
HETATM   18  H2  UNL     1     -12.205   7.475  72.327  1.00  0.00     0.000 HD 
HETATM   19  H1  UNL     1     -13.195   6.371  71.523  1.00  0.00     0.000 HD 
ENDBRANCH  15  16
ENDBRANCH  14  15
ENDBRANCH  13  14
ENDBRANCH   7  13
BRANCH   8  20
HETATM   20  C   UNL     1     -11.507  11.368  69.027  1.00  0.00    -0.300 C  
HETATM   21  O   UNL     1     -12.213  11.000  68.099  1.00  0.00    -0.578 OA 
BRANCH  20  22
HETATM   22  O   UNL     1     -11.289  12.666  69.350  1.00  0.00    -0.254 OA 
HETATM   23  C   UNL     1     -10.371  13.348  68.487  1.00  0.00    -0.236 C  
ENDBRANCH  20  22
ENDBRANCH   8  20
BRANCH  11  24
HETATM   24  C   UNL     1      -9.036   9.769  68.182  1.00  0.00    -0.125 A  
HETATM   25  C   UNL     1      -8.246  10.658  67.428  1.00  0.00    -0.115 A  
HETATM   26  C   UNL     1      -8.068  10.470  66.053  1.00  0.00    -0.148 A  
HETATM   27  C   UNL     1      -8.661   9.390  65.406  1.00  0.00    -0.194 A  
HETATM   28  C   UNL     1      -9.435   8.491  66.135  1.00  0.00    -0.286 A  
HETATM   29  C   UNL     1      -9.629   8.676  67.509  1.00  0.00    -0.157 A  
HETATM   30 CL   UNL     1     -10.658   7.530  68.303  1.00  0.00    -0.215 Cl 
ENDBRANCH  11  24
ENDBRANCH   4   6
ENDBRANCH   3   4
ENDBRANCH   2   3
TORSDOF 10
ENDMDL
MODEL       56
REMARK 921   NORMALIZED FREE ENERGY PREDICTED BY IDOCK:   -4.57 KCAL/MOL
REMARK 922        TOTAL FREE ENERGY PREDICTED BY IDOCK:   -8.80 KCAL/MOL
REMARK 923 INTER-LIGAND FREE ENERGY PREDICTED BY IDOCK:   -7.41 KCAL/MOL
REMARK 924 INTRA-LIGAND FREE ENERGY PREDICTED BY IDOCK:   -1.39 KCAL/MOL
REMARK 927      BINDING AFFINITY PREDICTED BY RF-SCORE:    0.00 PKD
ROOT
HETATM    1  C   UNL     1      -9.888  10.528  63.956  1.00  0.00    -0.387 C  
HETATM    2  C   UNL     1      -9.405   9.673  65.120  1.00  0.00    -0.259 C  
ENDROOT
BRANCH   2   3
HETATM    3  O   UNL     1     -10.202   9.921  66.285  1.00  0.00    -0.243 OA 
BRANCH   3   4
HETATM    4  C   UNL     1      -9.612  10.597  67.299  1.00  0.00    -0.163 C  
HETATM    5  O   UNL     1      -8.451  10.971  67.256  1.00  0.00    -0.127 OA 
BRANCH   4   6
HETATM    6  C   UNL     1     -10.565  10.863  68.435  1.00  0.00    -0.225 C  
HETATM    7  C   UNL     1     -11.044  12.102  68.728  1.00  0.00    -0.250 C  
HETATM    8  C   UNL     1     -11.836  10.038  70.543  1.00  0.00    -0.387 C  
HETATM    9  N   UNL     1     -11.931  12.277  69.775  1.00  0.00    -0.313 NA 
HETATM   10  C   UNL     1     -12.264  11.315  70.705  1.00  0.00    -0.380 C  
HETATM   11  C   UNL     1     -11.011   9.642  69.296  1.00  0.00    -0.194 C  
HETATM   12  C   UNL     1     -13.134  11.799  71.844  1.00  0.00    -0.482 C  
BRANCH   7  13
HETATM   13  C   UNL     1     -10.664  13.377  67.990  1.00  0.00    -0.248 C  
BRANCH  13  14
HETATM   14  O   UNL     1     -10.471  14.496  68.875  1.00  0.00    -0.238 OA 
BRANCH  14  15
HETATM   15  C   UNL     1     -11.299  15.580  68.409  1.00  0.00    -0.354 C  
BRANCH  15  16
HETATM   16  C   UNL     1     -10.670  16.931  68.749  1.00  0.00    -0.333 C  
HETATM   17  N   UNL     1     -10.534  17.761  67.550  1.00  0.00    -0.369 NA 
HETATM   18  H2  UNL     1     -11.423  17.871  67.066  1.00  0.00     0.000 HD 
HETATM   19  H1  UNL     1     -10.114  18.662  67.777  1.00  0.00     0.000 HD 
ENDBRANCH  15  16
ENDBRANCH  14  15
ENDBRANCH  13  14
ENDBRANCH   7  13
BRANCH   8  20
HETATM   20  C   UNL     1     -12.181   9.021  71.579  1.00  0.00    -0.335 C  
HETATM   21  O   UNL     1     -13.189   8.329  71.554  1.00  0.00    -0.325 OA 
BRANCH  20  22
HETATM   22  O   UNL     1     -11.237   8.957  72.550  1.00  0.00    -0.200 OA 
HETATM   23  C   UNL     1     -10.850   7.627  72.915  1.00  0.00    -0.389 C  
ENDBRANCH  20  22
ENDBRANCH   8  20
BRANCH  11  24
HETATM   24  C   UNL     1      -9.846   8.696  69.625  1.00  0.00    -0.186 A  
HETATM   25  C   UNL     1      -8.740   9.169  70.358  1.00  0.00    -0.245 A  
HETATM   26  C   UNL     1      -7.627   8.354  70.583  1.00  0.00    -0.070 A  
HETATM   27  C   UNL     1      -7.596   7.050  70.096  1.00  0.00    -0.095 A  
HETATM   28  C   UNL     1      -8.684   6.557  69.381  1.00  0.00    -0.134 A  
HETATM   29  C   UNL     1      -9.799   7.368  69.140  1.00  0.00    -0.168 A  
HETATM   30 CL   UNL     1     -11.069   6.671  68.189  1.00  0.00    -0.313 Cl 
ENDBRANCH  11  24
ENDBRANCH   4   6
ENDBRANCH   3   4
ENDBRANCH   2   3
TORSDOF 10
ENDMDL
MODEL       57
REMARK 921   NORMALIZED FREE ENERGY PREDICTED BY IDOCK:   -4.56 KCAL/MOL
REMARK 922        TOTAL FREE ENERGY PREDICTED BY IDOCK:   -8.78 KCAL/MOL
REMARK 923 INTER-LIGAND FREE ENERGY PREDICTED BY IDOCK:   -7.50 KCAL/MOL
REMARK 924 INTRA-LIGAND FREE ENERGY PREDICTED BY IDOCK:   -1.28 KCAL/MOL
REMARK 927      BINDING AFFINITY PREDICTED BY RF-SCORE:    0.00 PKD
ROOT
HETATM    1  C   UNL     1     -11.072   6.411  67.298  1.00  0.00    -0.416 C  
HETATM    2  C   UNL     1     -10.443   7.770  67.017  1.00  0.00    -0.349 C  
ENDROOT
BRANCH   2   3
HETATM    3  O   UNL     1     -11.150   8.801  67.719  1.00  0.00     0.018 OA 
BRANCH   3   4
HETATM    4  C   UNL     1     -10.516   9.372  68.771  1.00  0.00    -0.212 C  
HETATM    5  O   UNL     1      -9.782   8.746  69.519  1.00  0.00    -0.168 OA 
BRANCH   4   6
HETATM    6  C   UNL     1     -10.788  10.850  68.863  1.00  0.00    -0.262 C  
HETATM    7  C   UNL     1     -11.782  11.375  69.630  1.00  0.00    -0.345 C  
HETATM    8  C   UNL     1     -10.344  13.274  68.046  1.00  0.00    -0.243 C  
HETATM    9  N   UNL     1     -11.970  12.744  69.685  1.00  0.00    -0.310 NA 
HETATM   10  C   UNL     1     -11.343  13.668  68.875  1.00  0.00    -0.290 C  
HETATM   11  C   UNL     1      -9.872  11.800  68.034  1.00  0.00    -0.184 C  
HETATM   12  C   UNL     1     -11.835  15.090  69.023  1.00  0.00    -0.330 C  
BRANCH   7  13
HETATM   13  C   UNL     1     -12.765  10.560  70.457  1.00  0.00    -0.305 C  
BRANCH  13  14
HETATM   14  O   UNL     1     -12.190  10.075  71.684  1.00  0.00    -0.385 OA 
BRANCH  14  15
HETATM   15  C   UNL     1     -12.858   8.845  72.033  1.00  0.00    -0.397 C  
BRANCH  15  16
HETATM   16  C   UNL     1     -11.870   7.680  72.067  1.00  0.00    -0.301 C  
HETATM   17  N   UNL     1     -11.902   6.929  70.811  1.00  0.00    -0.367 NA 
HETATM   18  H2  UNL     1     -11.743   7.534  70.006  1.00  0.00     0.000 HD 
HETATM   19  H1  UNL     1     -11.243   6.151  70.833  1.00  0.00     0.000 HD 
ENDBRANCH  15  16
ENDBRANCH  14  15
ENDBRANCH  13  14
ENDBRANCH   7  13
BRANCH   8  20
HETATM   20  C   UNL     1      -9.701  14.284  67.155  1.00  0.00    -0.254 C  
HETATM   21  O   UNL     1      -8.499  14.511  67.130  1.00  0.00    -0.200 OA 
BRANCH  20  22
HETATM   22  O   UNL     1     -10.612  14.915  66.376  1.00  0.00    -0.293 OA 
HETATM   23  C   UNL     1     -10.270  14.969  64.985  1.00  0.00    -0.314 C  
ENDBRANCH  20  22
ENDBRANCH   8  20
BRANCH  11  24
HETATM   24  C   UNL     1      -9.601  11.271  66.618  1.00  0.00    -0.218 A  
HETATM   25  C   UNL     1      -8.333  10.752  66.291  1.00  0.00    -0.160 A  
HETATM   26  C   UNL     1      -8.035  10.357  64.982  1.00  0.00    -0.126 A  
HETATM   27  C   UNL     1      -8.993  10.460  63.978  1.00  0.00    -0.249 A  
HETATM   28  C   UNL     1     -10.257  10.958  64.282  1.00  0.00    -0.430 A  
HETATM   29  C   UNL     1     -10.563  11.366  65.586  1.00  0.00    -0.258 A  
HETATM   30 CL   UNL     1     -12.146  12.025  65.836  1.00  0.00    -0.153 Cl 
ENDBRANCH  11  24
ENDBRANCH   4   6
ENDBRANCH   3   4
ENDBRANCH   2   3
TORSDOF 10
ENDMDL
MODEL       58
REMARK 921   NORMALIZED FREE ENERGY PREDICTED BY IDOCK:   -4.55 KCAL/MOL
REMARK 922        TOTAL FREE ENERGY PREDICTED BY IDOCK:   -8.77 KCAL/MOL
REMARK 923 INTER-LIGAND FREE ENERGY PREDICTED BY IDOCK:   -6.80 KCAL/MOL
REMARK 924 INTRA-LIGAND FREE ENERGY PREDICTED BY IDOCK:   -1.98 KCAL/MOL
REMARK 927      BINDING AFFINITY PREDICTED BY RF-SCORE:    0.00 PKD
ROOT
HETATM    1  C   UNL     1     -10.837   6.301  68.259  1.00  0.00    -0.397 C  
HETATM    2  C   UNL     1     -10.306   6.815  66.927  1.00  0.00    -0.254 C  
ENDROOT
BRANCH   2   3
HETATM    3  O   UNL     1     -10.735   8.164  66.706  1.00  0.00    -0.278 OA 
BRANCH   3   4
HETATM    4  C   UNL     1      -9.859   8.994  66.092  1.00  0.00    -0.278 C  
HETATM    5  O   UNL     1      -8.853   8.592  65.529  1.00  0.00    -0.183 OA 
BRANCH   4   6
HETATM    6  C   UNL     1     -10.302  10.432  66.150  1.00  0.00    -0.269 C  
HETATM    7  C   UNL     1     -10.457  11.207  65.043  1.00  0.00    -0.293 C  
HETATM    8  C   UNL     1     -10.861  12.559  67.531  1.00  0.00    -0.264 C  
HETATM    9  N   UNL     1     -10.884  12.517  65.163  1.00  0.00    -0.280 NA 
HETATM   10  C   UNL     1     -11.009  13.209  66.349  1.00  0.00    -0.288 C  
HETATM   11  C   UNL     1     -10.595  11.035  67.558  1.00  0.00    -0.266 C  
HETATM   12  C   UNL     1     -11.342  14.676  66.204  1.00  0.00    -0.350 C  
BRANCH   7  13
HETATM   13  C   UNL     1     -10.174  10.754  63.618  1.00  0.00    -0.261 C  
BRANCH  13  14
HETATM   14  O   UNL     1      -8.941  11.285  63.099  1.00  0.00    -0.202 OA 
BRANCH  14  15
HETATM   15  C   UNL     1      -8.199  10.196  62.512  1.00  0.00    -0.151 C  
BRANCH  15  16
HETATM   16  C   UNL     1      -6.771  10.156  63.054  1.00  0.00    -0.133 C  
HETATM   17  N   UNL     1      -6.743  10.482  64.481  1.00  0.00    -0.349 NA 
HETATM   18  H2  UNL     1      -7.366   9.878  65.017  1.00  0.00     0.000 HD 
HETATM   19  H1  UNL     1      -5.791  10.455  64.843  1.00  0.00     0.000 HD 
ENDBRANCH  15  16
ENDBRANCH  14  15
ENDBRANCH  13  14
ENDBRANCH   7  13
BRANCH   8  20
HETATM   20  C   UNL     1     -10.968  13.333  68.802  1.00  0.00    -0.260 C  
HETATM   21  O   UNL     1     -11.923  13.274  69.563  1.00  0.00    -0.307 OA 
BRANCH  20  22
HETATM   22  O   UNL     1      -9.875  14.107  69.009  1.00  0.00    -0.153 OA 
HETATM   23  C   UNL     1     -10.145  15.355  69.659  1.00  0.00    -0.269 C  
ENDBRANCH  20  22
ENDBRANCH   8  20
BRANCH  11  24
HETATM   24  C   UNL     1      -9.544  10.630  68.603  1.00  0.00    -0.179 A  
HETATM   25  C   UNL     1      -8.186  10.946  68.395  1.00  0.00    -0.133 A  
HETATM   26  C   UNL     1      -7.202  10.501  69.283  1.00  0.00    -0.103 A  
HETATM   27  C   UNL     1      -7.548   9.745  70.400  1.00  0.00    -0.165 A  
HETATM   28  C   UNL     1      -8.885   9.434  70.632  1.00  0.00    -0.275 A  
HETATM   29  C   UNL     1      -9.877   9.864  69.744  1.00  0.00    -0.236 A  
HETATM   30 CL   UNL     1     -11.499   9.368  70.099  1.00  0.00    -0.218 Cl 
ENDBRANCH  11  24
ENDBRANCH   4   6
ENDBRANCH   3   4
ENDBRANCH   2   3
TORSDOF 10
ENDMDL
MODEL       59
REMARK 921   NORMALIZED FREE ENERGY PREDICTED BY IDOCK:   -4.54 KCAL/MOL
REMARK 922        TOTAL FREE ENERGY PREDICTED BY IDOCK:   -8.75 KCAL/MOL
REMARK 923 INTER-LIGAND FREE ENERGY PREDICTED BY IDOCK:   -6.96 KCAL/MOL
REMARK 924 INTRA-LIGAND FREE ENERGY PREDICTED BY IDOCK:   -1.79 KCAL/MOL
REMARK 927      BINDING AFFINITY PREDICTED BY RF-SCORE:    0.00 PKD
ROOT
HETATM    1  C   UNL     1     -12.289  12.499  63.401  1.00  0.00    -0.577 C  
HETATM    2  C   UNL     1     -12.316  13.186  64.759  1.00  0.00    -0.423 C  
ENDROOT
BRANCH   2   3
HETATM    3  O   UNL     1     -11.470  12.492  65.686  1.00  0.00    -0.326 OA 
BRANCH   3   4
HETATM    4  C   UNL     1     -11.317  13.048  66.911  1.00  0.00    -0.311 C  
HETATM    5  O   UNL     1     -12.260  13.305  67.642  1.00  0.00    -0.292 OA 
BRANCH   4   6
HETATM    6  C   UNL     1      -9.867  13.256  67.263  1.00  0.00    -0.233 C  
HETATM    7  C   UNL     1      -9.140  14.317  66.820  1.00  0.00    -0.249 C  
HETATM    8  C   UNL     1      -7.667  12.389  68.335  1.00  0.00    -0.144 C  
HETATM    9  N   UNL     1      -7.816  14.459  67.193  1.00  0.00    -0.152 NA 
HETATM   10  C   UNL     1      -7.069  13.508  67.856  1.00  0.00    -0.140 C  
HETATM   11  C   UNL     1      -9.195  12.192  68.183  1.00  0.00    -0.197 C  
HETATM   12  C   UNL     1      -5.602  13.839  68.010  1.00  0.00    -0.127 C  
BRANCH   7  13
HETATM   13  C   UNL     1      -9.665  15.404  65.893  1.00  0.00    -0.357 C  
BRANCH  13  14
HETATM   14  O   UNL     1     -10.629  16.260  66.530  1.00  0.00    -0.308 OA 
BRANCH  14  15
HETATM   15  C   UNL     1      -9.912  17.205  67.351  1.00  0.00    -0.280 C  
BRANCH  15  16
HETATM   16  C   UNL     1     -10.452  17.204  68.781  1.00  0.00    -0.351 C  
HETATM   17  N   UNL     1     -11.476  16.171  68.953  1.00  0.00    -0.352 NA 
HETATM   18  H2  UNL     1     -11.132  15.251  68.680  1.00  0.00     0.000 HD 
HETATM   19  H1  UNL     1     -11.836  16.170  69.907  1.00  0.00     0.000 HD 
ENDBRANCH  15  16
ENDBRANCH  14  15
ENDBRANCH  13  14
ENDBRANCH   7  13
BRANCH   8  20
HETATM   20  C   UNL     1      -6.834  11.358  69.020  1.00  0.00    -0.102 C  
HETATM   21  O   UNL     1      -6.794  11.201  70.232  1.00  0.00    -0.187 OA 
BRANCH  20  22
HETATM   22  O   UNL     1      -6.129  10.616  68.132  1.00  0.00    -0.050 OA 
HETATM   23  C   UNL     1      -6.219   9.200  68.337  1.00  0.00    -0.053 C  
ENDBRANCH  20  22
ENDBRANCH   8  20
BRANCH  11  24
HETATM   24  C   UNL     1      -9.576  10.754  67.800  1.00  0.00    -0.176 A  
HETATM   25  C   UNL     1      -9.209  10.240  66.541  1.00  0.00    -0.179 A  
HETATM   26  C   UNL     1      -9.632   8.971  66.133  1.00  0.00    -0.341 A  
HETATM   27  C   UNL     1     -10.415   8.184  66.973  1.00  0.00    -0.396 A  
HETATM   28  C   UNL     1     -10.778   8.667  68.227  1.00  0.00    -0.107 A  
HETATM   29  C   UNL     1     -10.370   9.940  68.641  1.00  0.00    -0.195 A  
HETATM   30 CL   UNL     1     -10.929  10.461  70.196  1.00  0.00    -0.358 Cl 
ENDBRANCH  11  24
ENDBRANCH   4   6
ENDBRANCH   3   4
ENDBRANCH   2   3
TORSDOF 10
ENDMDL
MODEL       60
REMARK 921   NORMALIZED FREE ENERGY PREDICTED BY IDOCK:   -4.52 KCAL/MOL
REMARK 922        TOTAL FREE ENERGY PREDICTED BY IDOCK:   -8.71 KCAL/MOL
REMARK 923 INTER-LIGAND FREE ENERGY PREDICTED BY IDOCK:   -7.20 KCAL/MOL
REMARK 924 INTRA-LIGAND FREE ENERGY PREDICTED BY IDOCK:   -1.51 KCAL/MOL
REMARK 927      BINDING AFFINITY PREDICTED BY RF-SCORE:    0.00 PKD
ROOT
HETATM    1  C   UNL     1     -13.262  13.019  72.217  1.00  0.00    -0.539 C  
HETATM    2  C   UNL     1     -13.763  11.614  71.907  1.00  0.00     0.209 C  
ENDROOT
BRANCH   2   3
HETATM    3  O   UNL     1     -12.792  10.639  72.308  1.00  0.00    -0.286 OA 
BRANCH   3   4
HETATM    4  C   UNL     1     -12.566   9.612  71.455  1.00  0.00    -0.371 C  
HETATM    5  O   UNL     1     -13.410   8.769  71.197  1.00  0.00    -0.199 OA 
BRANCH   4   6
HETATM    6  C   UNL     1     -11.189   9.673  70.845  1.00  0.00    -0.422 C  
HETATM    7  C   UNL     1     -10.939  10.239  69.633  1.00  0.00    -0.270 C  
HETATM    8  C   UNL     1      -8.683   8.999  70.879  1.00  0.00    -0.280 C  
HETATM    9  N   UNL     1      -9.649  10.278  69.136  1.00  0.00    -0.207 NA 
HETATM   10  C   UNL     1      -8.565   9.623  69.680  1.00  0.00    -0.187 C  
HETATM   11  C   UNL     1     -10.016   9.055  71.664  1.00  0.00    -0.383 C  
HETATM   12  C   UNL     1      -7.295   9.694  68.863  1.00  0.00    -0.073 C  
BRANCH   7  13
HETATM   13  C   UNL     1     -11.996  10.845  68.722  1.00  0.00    -0.160 C  
BRANCH  13  14
HETATM   14  O   UNL     1     -11.552  12.056  68.084  1.00  0.00    -0.298 OA 
BRANCH  14  15
HETATM   15  C   UNL     1     -11.851  13.158  68.965  1.00  0.00    -0.313 C  
BRANCH  15  16
HETATM   16  C   UNL     1     -11.300  14.469  68.404  1.00  0.00    -0.289 C  
HETATM   17  N   UNL     1     -12.179  15.591  68.737  1.00  0.00    -0.584 NA 
HETATM   18  H2  UNL     1     -12.348  15.653  69.740  1.00  0.00     0.000 HD 
HETATM   19  H1  UNL     1     -11.812  16.466  68.363  1.00  0.00     0.000 HD 
ENDBRANCH  15  16
ENDBRANCH  14  15
ENDBRANCH  13  14
ENDBRANCH   7  13
BRANCH   8  20
HETATM   20  C   UNL     1      -7.507   8.268  71.435  1.00  0.00    -0.085 C  
HETATM   21  O   UNL     1      -7.175   7.141  71.094  1.00  0.00    -0.071 OA 
BRANCH  20  22
HETATM   22  O   UNL     1      -6.850   9.008  72.361  1.00  0.00    -0.308 OA 
HETATM   23  C   UNL     1      -5.442   9.140  72.127  1.00  0.00    -0.072 C  
ENDBRANCH  20  22
ENDBRANCH   8  20
BRANCH  11  24
HETATM   24  C   UNL     1     -10.388   7.711  72.307  1.00  0.00    -0.277 A  
HETATM   25  C   UNL     1     -10.259   7.536  73.698  1.00  0.00    -0.333 A  
HETATM   26  C   UNL     1     -10.497   6.291  74.290  1.00  0.00    -0.216 A  
HETATM   27  C   UNL     1     -10.880   5.202  73.513  1.00  0.00    -0.360 A  
HETATM   28  C   UNL     1     -11.028   5.356  72.138  1.00  0.00    -0.265 A  
HETATM   29  C   UNL     1     -10.781   6.594  71.533  1.00  0.00    -0.230 A  
HETATM   30 CL   UNL     1     -10.937   6.655  69.809  1.00  0.00    -0.333 Cl 
ENDBRANCH  11  24
ENDBRANCH   4   6
ENDBRANCH   3   4
ENDBRANCH   2   3
TORSDOF 10
ENDMDL
MODEL       61
REMARK 921   NORMALIZED FREE ENERGY PREDICTED BY IDOCK:   -4.52 KCAL/MOL
REMARK 922        TOTAL FREE ENERGY PREDICTED BY IDOCK:   -8.71 KCAL/MOL
REMARK 923 INTER-LIGAND FREE ENERGY PREDICTED BY IDOCK:   -6.92 KCAL/MOL
REMARK 924 INTRA-LIGAND FREE ENERGY PREDICTED BY IDOCK:   -1.79 KCAL/MOL
REMARK 927      BINDING AFFINITY PREDICTED BY RF-SCORE:    0.00 PKD
ROOT
HETATM    1  C   UNL     1     -12.020  13.224  65.480  1.00  0.00    -0.445 C  
HETATM    2  C   UNL     1     -12.088  13.152  67.000  1.00  0.00    -0.307 C  
ENDROOT
BRANCH   2   3
HETATM    3  O   UNL     1     -11.999  11.791  67.439  1.00  0.00    -0.617 OA 
BRANCH   3   4
HETATM    4  C   UNL     1     -10.935  11.465  68.211  1.00  0.00    -0.216 C  
HETATM    5  O   UNL     1     -10.105  12.283  68.572  1.00  0.00    -0.216 OA 
BRANCH   4   6
HETATM    6  C   UNL     1     -10.938  10.008  68.596  1.00  0.00    -0.247 C  
HETATM    7  C   UNL     1     -11.236   9.572  69.850  1.00  0.00    -0.178 C  
HETATM    8  C   UNL     1     -10.432   7.528  68.018  1.00  0.00    -0.253 C  
HETATM    9  N   UNL     1     -11.238   8.219  70.135  1.00  0.00    -0.190 NA 
HETATM   10  C   UNL     1     -10.782   7.227  69.293  1.00  0.00    -0.198 C  
HETATM   11  C   UNL     1     -10.584   8.973  67.485  1.00  0.00    -0.306 C  
HETATM   12  C   UNL     1     -10.744   5.841  69.897  1.00  0.00    -0.412 C  
BRANCH   7  13
HETATM   13  C   UNL     1     -11.565  10.476  71.029  1.00  0.00    -0.227 C  
BRANCH  13  14
HETATM   14  O   UNL     1     -12.932  10.924  71.023  1.00  0.00    -0.353 OA 
BRANCH  14  15
HETATM   15  C   UNL     1     -12.994  12.177  71.735  1.00  0.00    -0.332 C  
BRANCH  15  16
HETATM   16  C   UNL     1     -12.698  13.349  70.801  1.00  0.00    -0.228 C  
HETATM   17  N   UNL     1     -11.800  14.314  71.440  1.00  0.00    -0.449 NA 
HETATM   18  H2  UNL     1     -10.944  13.870  71.770  1.00  0.00     0.000 HD 
HETATM   19  H1  UNL     1     -11.603  15.096  70.817  1.00  0.00     0.000 HD 
ENDBRANCH  15  16
ENDBRANCH  14  15
ENDBRANCH  13  14
ENDBRANCH   7  13
BRANCH   8  20
HETATM   20  C   UNL     1      -9.910   6.445  67.134  1.00  0.00    -0.146 C  
HETATM   21  O   UNL     1     -10.596   5.813  66.344  1.00  0.00    -0.225 OA 
BRANCH  20  22
HETATM   22  O   UNL     1      -8.580   6.252  67.314  1.00  0.00    -0.108 OA 
HETATM   23  C   UNL     1      -7.843   6.031  66.106  1.00  0.00    -0.104 C  
ENDBRANCH  20  22
ENDBRANCH   8  20
BRANCH  11  24
HETATM   24  C   UNL     1      -9.396   9.420  66.620  1.00  0.00    -0.211 A  
HETATM   25  C   UNL     1      -9.564   9.605  65.234  1.00  0.00    -0.347 A  
HETATM   26  C   UNL     1      -8.474   9.915  64.414  1.00  0.00    -0.183 A  
HETATM   27  C   UNL     1      -7.200  10.056  64.957  1.00  0.00    -0.139 A  
HETATM   28  C   UNL     1      -7.013   9.891  66.326  1.00  0.00    -0.100 A  
HETATM   29  C   UNL     1      -8.095   9.571  67.155  1.00  0.00    -0.106 A  
HETATM   30 CL   UNL     1      -7.736   9.329  68.833  1.00  0.00    -0.078 Cl 
ENDBRANCH  11  24
ENDBRANCH   4   6
ENDBRANCH   3   4
ENDBRANCH   2   3
TORSDOF 10
ENDMDL
MODEL       62
REMARK 921   NORMALIZED FREE ENERGY PREDICTED BY IDOCK:   -4.51 KCAL/MOL
REMARK 922        TOTAL FREE ENERGY PREDICTED BY IDOCK:   -8.70 KCAL/MOL
REMARK 923 INTER-LIGAND FREE ENERGY PREDICTED BY IDOCK:   -6.93 KCAL/MOL
REMARK 924 INTRA-LIGAND FREE ENERGY PREDICTED BY IDOCK:   -1.77 KCAL/MOL
REMARK 927      BINDING AFFINITY PREDICTED BY RF-SCORE:    0.00 PKD
ROOT
HETATM    1  C   UNL     1      -6.794   9.321  67.363  1.00  0.00    -0.077 C  
HETATM    2  C   UNL     1      -7.090  10.699  67.941  1.00  0.00    -0.086 C  
ENDROOT
BRANCH   2   3
HETATM    3  O   UNL     1      -7.615  11.564  66.925  1.00  0.00    -0.147 OA 
BRANCH   3   4
HETATM    4  C   UNL     1      -8.911  11.382  66.576  1.00  0.00    -0.187 C  
HETATM    5  O   UNL     1      -9.250  11.024  65.460  1.00  0.00    -0.204 OA 
BRANCH   4   6
HETATM    6  C   UNL     1      -9.849  11.624  67.730  1.00  0.00    -0.186 C  
HETATM    7  C   UNL     1     -10.535  10.627  68.351  1.00  0.00    -0.188 C  
HETATM    8  C   UNL     1     -11.136  13.267  69.274  1.00  0.00    -0.208 C  
HETATM    9  N   UNL     1     -11.368  10.914  69.416  1.00  0.00    -0.254 NA 
HETATM   10  C   UNL     1     -11.731  12.180  69.826  1.00  0.00    -0.310 C  
HETATM   11  C   UNL     1     -10.020  13.096  68.216  1.00  0.00    -0.236 C  
HETATM   12  C   UNL     1     -12.778  12.226  70.916  1.00  0.00    -0.277 C  
BRANCH   7  13
HETATM   13  C   UNL     1     -10.484   9.159  67.955  1.00  0.00    -0.237 C  
BRANCH  13  14
HETATM   14  O   UNL     1      -9.796   8.345  68.922  1.00  0.00    -0.171 OA 
BRANCH  14  15
HETATM   15  C   UNL     1     -10.611   7.185  69.187  1.00  0.00    -0.214 C  
BRANCH  15  16
HETATM   16  C   UNL     1     -11.205   7.246  70.593  1.00  0.00    -0.274 C  
HETATM   17  N   UNL     1     -12.296   8.220  70.658  1.00  0.00    -0.480 NA 
HETATM   18  H2  UNL     1     -13.011   8.033  69.955  1.00  0.00     0.000 HD 
HETATM   19  H1  UNL     1     -12.693   8.262  71.596  1.00  0.00     0.000 HD 
ENDBRANCH  15  16
ENDBRANCH  14  15
ENDBRANCH  13  14
ENDBRANCH   7  13
BRANCH   8  20
HETATM   20  C   UNL     1     -11.567  14.628  69.708  1.00  0.00    -0.296 C  
HETATM   21  O   UNL     1     -12.462  15.268  69.175  1.00  0.00    -0.106 OA 
BRANCH  20  22
HETATM   22  O   UNL     1     -10.846  15.065  70.769  1.00  0.00    -0.202 OA 
HETATM   23  C   UNL     1     -11.627  15.649  71.819  1.00  0.00    -0.450 C  
ENDBRANCH  20  22
ENDBRANCH   8  20
BRANCH  11  24
HETATM   24  C   UNL     1     -10.141  14.091  67.053  1.00  0.00    -0.255 A  
HETATM   25  C   UNL     1      -9.277  15.203  66.984  1.00  0.00    -0.239 A  
HETATM   26  C   UNL     1      -9.435  16.173  65.990  1.00  0.00    -0.374 A  
HETATM   27  C   UNL     1     -10.444  16.053  65.039  1.00  0.00    -0.250 A  
HETATM   28  C   UNL     1     -11.300  14.956  65.079  1.00  0.00    -0.398 A  
HETATM   29  C   UNL     1     -11.158  13.984  66.077  1.00  0.00    -0.303 A  
HETATM   30 CL   UNL     1     -12.316  12.694  66.066  1.00  0.00    -0.323 Cl 
ENDBRANCH  11  24
ENDBRANCH   4   6
ENDBRANCH   3   4
ENDBRANCH   2   3
TORSDOF 10
ENDMDL
MODEL       63
REMARK 921   NORMALIZED FREE ENERGY PREDICTED BY IDOCK:   -4.50 KCAL/MOL
REMARK 922        TOTAL FREE ENERGY PREDICTED BY IDOCK:   -8.69 KCAL/MOL
REMARK 923 INTER-LIGAND FREE ENERGY PREDICTED BY IDOCK:   -7.16 KCAL/MOL
REMARK 924 INTRA-LIGAND FREE ENERGY PREDICTED BY IDOCK:   -1.53 KCAL/MOL
REMARK 927      BINDING AFFINITY PREDICTED BY RF-SCORE:    0.00 PKD
ROOT
HETATM    1  C   UNL     1     -10.069  14.009  67.776  1.00  0.00    -0.240 C  
HETATM    2  C   UNL     1     -10.710  12.877  68.569  1.00  0.00    -0.254 C  
ENDROOT
BRANCH   2   3
HETATM    3  O   UNL     1      -9.967  11.664  68.394  1.00  0.00    -0.191 OA 
BRANCH   3   4
HETATM    4  C   UNL     1     -10.633  10.607  67.872  1.00  0.00    -0.228 C  
HETATM    5  O   UNL     1     -11.841  10.469  67.980  1.00  0.00    -0.425 OA 
BRANCH   4   6
HETATM    6  C   UNL     1      -9.719   9.676  67.119  1.00  0.00    -0.222 C  
HETATM    7  C   UNL     1      -9.593   9.694  65.764  1.00  0.00    -0.263 C  
HETATM    8  C   UNL     1      -8.126   7.626  67.088  1.00  0.00    -0.118 C  
HETATM    9  N   UNL     1      -8.723   8.824  65.134  1.00  0.00    -0.186 NA 
HETATM   10  C   UNL     1      -8.067   7.773  65.741  1.00  0.00    -0.125 C  
HETATM   11  C   UNL     1      -8.888   8.656  67.956  1.00  0.00    -0.141 C  
HETATM   12  C   UNL     1      -7.295   6.872  64.804  1.00  0.00    -0.088 C  
BRANCH   7  13
HETATM   13  C   UNL     1     -10.368  10.613  64.831  1.00  0.00    -0.277 C  
BRANCH  13  14
HETATM   14  O   UNL     1      -9.896  11.972  64.869  1.00  0.00    -0.245 OA 
BRANCH  14  15
HETATM   15  C   UNL     1     -10.585  12.711  63.840  1.00  0.00    -0.428 C  
BRANCH  15  16
HETATM   16  C   UNL     1     -11.991  13.098  64.296  1.00  0.00    -0.411 C  
HETATM   17  N   UNL     1     -12.457  14.296  63.595  1.00  0.00    -1.083 NA 
HETATM   18  H2  UNL     1     -12.407  14.184  62.583  1.00  0.00     0.000 HD 
HETATM   19  H1  UNL     1     -13.395  14.554  63.899  1.00  0.00     0.000 HD 
ENDBRANCH  15  16
ENDBRANCH  14  15
ENDBRANCH  13  14
ENDBRANCH   7  13
BRANCH   8  20
HETATM   20  C   UNL     1      -7.437   6.463  67.721  1.00  0.00    -0.093 C  
HETATM   21  O   UNL     1      -6.385   6.542  68.339  1.00  0.00    -0.034 OA 
BRANCH  20  22
HETATM   22  O   UNL     1      -8.124   5.311  67.528  1.00  0.00    -0.100 OA 
HETATM   23  C   UNL     1      -8.219   4.474  68.688  1.00  0.00    -0.081 C  
ENDBRANCH  20  22
ENDBRANCH   8  20
BRANCH  11  24
HETATM   24  C   UNL     1      -9.711   8.002  69.075  1.00  0.00    -0.159 A  
HETATM   25  C   UNL     1      -9.374   8.232  70.424  1.00  0.00    -0.162 A  
HETATM   26  C   UNL     1     -10.047   7.569  71.455  1.00  0.00    -0.201 A  
HETATM   27  C   UNL     1     -11.075   6.675  71.167  1.00  0.00    -0.326 A  
HETATM   28  C   UNL     1     -11.434   6.443  69.842  1.00  0.00    -0.483 A  
HETATM   29  C   UNL     1     -10.760   7.093  68.802  1.00  0.00    -0.169 A  
HETATM   30 CL   UNL     1     -11.250   6.684  67.191  1.00  0.00    -0.423 Cl 
ENDBRANCH  11  24
ENDBRANCH   4   6
ENDBRANCH   3   4
ENDBRANCH   2   3
TORSDOF 10
ENDMDL
MODEL       64
REMARK 921   NORMALIZED FREE ENERGY PREDICTED BY IDOCK:   -4.46 KCAL/MOL
REMARK 922        TOTAL FREE ENERGY PREDICTED BY IDOCK:   -8.63 KCAL/MOL
REMARK 923 INTER-LIGAND FREE ENERGY PREDICTED BY IDOCK:   -6.78 KCAL/MOL
REMARK 924 INTRA-LIGAND FREE ENERGY PREDICTED BY IDOCK:   -1.85 KCAL/MOL
REMARK 927      BINDING AFFINITY PREDICTED BY RF-SCORE:    0.00 PKD
ROOT
HETATM    1  C   UNL     1      -8.493   8.081  73.373  1.00  0.00    -0.295 C  
HETATM    2  C   UNL     1      -8.818   7.833  71.906  1.00  0.00    -0.121 C  
ENDROOT
BRANCH   2   3
HETATM    3  O   UNL     1      -9.668   8.871  71.402  1.00  0.00    -0.249 OA 
BRANCH   3   4
HETATM    4  C   UNL     1     -10.587   8.513  70.473  1.00  0.00    -0.213 C  
HETATM    5  O   UNL     1     -11.265   7.503  70.570  1.00  0.00    -0.267 OA 
BRANCH   4   6
HETATM    6  C   UNL     1     -10.692   9.524  69.361  1.00  0.00    -0.244 C  
HETATM    7  C   UNL     1     -11.537  10.590  69.404  1.00  0.00    -0.246 C  
HETATM    8  C   UNL     1     -10.089  10.292  66.955  1.00  0.00    -0.268 C  
HETATM    9  N   UNL     1     -11.574  11.492  68.357  1.00  0.00    -0.319 NA 
HETATM   10  C   UNL     1     -10.946  11.327  67.140  1.00  0.00    -0.291 C  
HETATM   11  C   UNL     1      -9.777   9.317  68.116  1.00  0.00    -0.169 C  
HETATM   12  C   UNL     1     -11.268  12.379  66.104  1.00  0.00    -0.364 C  
BRANCH   7  13
HETATM   13  C   UNL     1     -12.503  10.888  70.541  1.00  0.00    -0.351 C  
BRANCH  13  14
HETATM   14  O   UNL     1     -13.494   9.858  70.714  1.00  0.00    -0.296 OA 
BRANCH  14  15
HETATM   15  C   UNL     1     -13.640   9.613  72.128  1.00  0.00    -0.389 C  
BRANCH  15  16
HETATM   16  C   UNL     1     -14.060   8.168  72.390  1.00  0.00    -0.132 C  
HETATM   17  N   UNL     1     -14.067   7.392  71.148  1.00  0.00    -0.623 NA 
HETATM   18  H2  UNL     1     -13.169   7.441  70.668  1.00  0.00     0.000 HD 
HETATM   19  H1  UNL     1     -14.348   6.427  71.323  1.00  0.00     0.000 HD 
ENDBRANCH  15  16
ENDBRANCH  14  15
ENDBRANCH  13  14
ENDBRANCH   7  13
BRANCH   8  20
HETATM   20  C   UNL     1      -9.445  10.113  65.621  1.00  0.00    -0.220 C  
HETATM   21  O   UNL     1     -10.013   9.657  64.639  1.00  0.00    -0.054 OA 
BRANCH  20  22
HETATM   22  O   UNL     1      -8.153  10.522  65.632  1.00  0.00    -0.156 OA 
HETATM   23  C   UNL     1      -7.228   9.585  65.067  1.00  0.00    -0.110 C  
ENDBRANCH  20  22
ENDBRANCH   8  20
BRANCH  11  24
HETATM   24  C   UNL     1      -9.718   7.850  67.665  1.00  0.00    -0.196 A  
HETATM   25  C   UNL     1     -10.871   7.224  67.152  1.00  0.00    -0.378 A  
HETATM   26  C   UNL     1     -10.865   5.863  66.829  1.00  0.00    -0.347 A  
HETATM   27  C   UNL     1      -9.712   5.102  66.997  1.00  0.00    -0.173 A  
HETATM   28  C   UNL     1      -8.557   5.704  67.489  1.00  0.00    -0.108 A  
HETATM   29  C   UNL     1      -8.555   7.062  67.827  1.00  0.00    -0.122 A  
HETATM   30 CL   UNL     1      -7.080   7.690  68.486  1.00  0.00    -0.078 Cl 
ENDBRANCH  11  24
ENDBRANCH   4   6
ENDBRANCH   3   4
ENDBRANCH   2   3
TORSDOF 10
ENDMDL
MODEL       65
REMARK 921   NORMALIZED FREE ENERGY PREDICTED BY IDOCK:   -4.46 KCAL/MOL
REMARK 922        TOTAL FREE ENERGY PREDICTED BY IDOCK:   -8.63 KCAL/MOL
REMARK 923 INTER-LIGAND FREE ENERGY PREDICTED BY IDOCK:   -6.80 KCAL/MOL
REMARK 924 INTRA-LIGAND FREE ENERGY PREDICTED BY IDOCK:   -1.83 KCAL/MOL
REMARK 927      BINDING AFFINITY PREDICTED BY RF-SCORE:    0.00 PKD
ROOT
HETATM    1  C   UNL     1      -8.733  14.047  67.741  1.00  0.00    -0.185 C  
HETATM    2  C   UNL     1      -9.499  12.871  67.146  1.00  0.00    -0.229 C  
ENDROOT
BRANCH   2   3
HETATM    3  O   UNL     1     -10.037  12.048  68.189  1.00  0.00    -0.189 OA 
BRANCH   3   4
HETATM    4  C   UNL     1     -11.094  11.265  67.868  1.00  0.00    -0.267 C  
HETATM    5  O   UNL     1     -12.057  11.679  67.243  1.00  0.00    -0.595 OA 
BRANCH   4   6
HETATM    6  C   UNL     1     -10.906   9.843  68.328  1.00  0.00    -0.275 C  
HETATM    7  C   UNL     1     -11.132   9.441  69.608  1.00  0.00    -0.142 C  
HETATM    8  C   UNL     1     -10.093   7.420  67.871  1.00  0.00    -0.220 C  
HETATM    9  N   UNL     1     -10.958   8.116  69.964  1.00  0.00    -0.233 NA 
HETATM   10  C   UNL     1     -10.387   7.145  69.167  1.00  0.00    -0.200 C  
HETATM   11  C   UNL     1     -10.435   8.803  67.267  1.00  0.00    -0.353 C  
HETATM   12  C   UNL     1     -10.165   5.811  69.841  1.00  0.00    -0.302 C  
BRANCH   7  13
HETATM   13  C   UNL     1     -11.561  10.358  70.745  1.00  0.00    -0.358 C  
BRANCH  13  14
HETATM   14  O   UNL     1     -12.094   9.638  71.870  1.00  0.00    -0.376 OA 
BRANCH  14  15
HETATM   15  C   UNL     1     -13.523   9.837  71.889  1.00  0.00    -0.395 C  
BRANCH  15  16
HETATM   16  C   UNL     1     -14.253   8.520  72.148  1.00  0.00    -0.434 C  
HETATM   17  N   UNL     1     -13.308   7.405  72.228  1.00  0.00    -0.496 NA 
HETATM   18  H2  UNL     1     -12.582   7.575  72.923  1.00  0.00     0.000 HD 
HETATM   19  H1  UNL     1     -13.795   6.525  72.400  1.00  0.00     0.000 HD 
ENDBRANCH  15  16
ENDBRANCH  14  15
ENDBRANCH  13  14
ENDBRANCH   7  13
BRANCH   8  20
HETATM   20  C   UNL     1      -9.446   6.366  67.036  1.00  0.00    -0.139 C  
HETATM   21  O   UNL     1     -10.046   5.653  66.244  1.00  0.00    -0.165 OA 
BRANCH  20  22
HETATM   22  O   UNL     1      -8.112   6.299  67.262  1.00  0.00    -0.108 OA 
HETATM   23  C   UNL     1      -7.315   6.148  66.080  1.00  0.00    -0.080 C  
ENDBRANCH  20  22
ENDBRANCH   8  20
BRANCH  11  24
HETATM   24  C   UNL     1      -9.323   9.349  66.359  1.00  0.00    -0.241 A  
HETATM   25  C   UNL     1      -9.549   9.490  64.975  1.00  0.00    -0.218 A  
HETATM   26  C   UNL     1      -8.520   9.891  64.117  1.00  0.00    -0.179 A  
HETATM   27  C   UNL     1      -7.252  10.171  64.618  1.00  0.00    -0.124 A  
HETATM   28  C   UNL     1      -7.010  10.053  65.984  1.00  0.00    -0.110 A  
HETATM   29  C   UNL     1      -8.030   9.641  66.850  1.00  0.00    -0.105 A  
HETATM   30 CL   UNL     1      -7.600   9.471  68.521  1.00  0.00    -0.080 Cl 
ENDBRANCH  11  24
ENDBRANCH   4   6
ENDBRANCH   3   4
ENDBRANCH   2   3
TORSDOF 10
ENDMDL
MODEL       66
REMARK 921   NORMALIZED FREE ENERGY PREDICTED BY IDOCK:   -4.44 KCAL/MOL
REMARK 922        TOTAL FREE ENERGY PREDICTED BY IDOCK:   -8.60 KCAL/MOL
REMARK 923 INTER-LIGAND FREE ENERGY PREDICTED BY IDOCK:   -7.51 KCAL/MOL
REMARK 924 INTRA-LIGAND FREE ENERGY PREDICTED BY IDOCK:   -1.09 KCAL/MOL
REMARK 927      BINDING AFFINITY PREDICTED BY RF-SCORE:    0.00 PKD
ROOT
HETATM    1  C   UNL     1      -5.687   7.429  67.234  1.00  0.00    -0.030 C  
HETATM    2  C   UNL     1      -7.142   7.440  67.683  1.00  0.00    -0.085 C  
ENDROOT
BRANCH   2   3
HETATM    3  O   UNL     1      -7.856   8.501  67.035  1.00  0.00    -0.095 OA 
BRANCH   3   4
HETATM    4  C   UNL     1      -9.179   8.308  66.821  1.00  0.00    -0.169 C  
HETATM    5  O   UNL     1      -9.632   7.260  66.390  1.00  0.00    -0.172 OA 
BRANCH   4   6
HETATM    6  C   UNL     1      -9.999   9.507  67.218  1.00  0.00    -0.244 C  
HETATM    7  C   UNL     1     -10.074  10.638  66.466  1.00  0.00    -0.223 C  
HETATM    8  C   UNL     1     -11.450  10.759  68.971  1.00  0.00    -0.368 C  
HETATM    9  N   UNL     1     -10.859  11.699  66.879  1.00  0.00    -0.263 NA 
HETATM   10  C   UNL     1     -11.466  11.809  68.112  1.00  0.00    -0.316 C  
HETATM   11  C   UNL     1     -10.792   9.420  68.558  1.00  0.00    -0.149 C  
HETATM   12  C   UNL     1     -12.140  13.135  68.380  1.00  0.00    -0.216 C  
BRANCH   7  13
HETATM   13  C   UNL     1      -9.326  10.865  65.160  1.00  0.00    -0.218 C  
BRANCH  13  14
HETATM   14  O   UNL     1     -10.148  10.637  64.001  1.00  0.00    -0.328 OA 
BRANCH  14  15
HETATM   15  C   UNL     1     -10.664  11.911  63.565  1.00  0.00    -0.442 C  
BRANCH  15  16
HETATM   16  C   UNL     1     -12.188  11.873  63.455  1.00  0.00    -0.482 C  
HETATM   17  N   UNL     1     -12.807  12.727  64.471  1.00  0.00    -0.737 NA 
HETATM   18  H2  UNL     1     -12.451  13.681  64.428  1.00  0.00     0.000 HD 
HETATM   19  H1  UNL     1     -13.824  12.702  64.398  1.00  0.00     0.000 HD 
ENDBRANCH  15  16
ENDBRANCH  14  15
ENDBRANCH  13  14
ENDBRANCH   7  13
BRANCH   8  20
HETATM   20  C   UNL     1     -12.084  10.910  70.313  1.00  0.00    -0.355 C  
HETATM   21  O   UNL     1     -12.096  11.952  70.953  1.00  0.00    -0.321 OA 
BRANCH  20  22
HETATM   22  O   UNL     1     -12.646   9.751  70.733  1.00  0.00    -0.276 OA 
HETATM   23  C   UNL     1     -13.338   9.845  71.984  1.00  0.00    -0.432 C  
ENDBRANCH  20  22
ENDBRANCH   8  20
BRANCH  11  24
HETATM   24  C   UNL     1      -9.971   8.783  69.689  1.00  0.00    -0.191 A  
HETATM   25  C   UNL     1      -8.953   9.522  70.322  1.00  0.00    -0.288 A  
HETATM   26  C   UNL     1      -8.129   8.930  71.285  1.00  0.00    -0.185 A  
HETATM   27  C   UNL     1      -8.309   7.598  71.644  1.00  0.00    -0.118 A  
HETATM   28  C   UNL     1      -9.318   6.852  71.042  1.00  0.00    -0.156 A  
HETATM   29  C   UNL     1     -10.141   7.432  70.069  1.00  0.00    -0.191 A  
HETATM   30 CL   UNL     1     -11.325   6.394  69.343  1.00  0.00    -0.466 Cl 
ENDBRANCH  11  24
ENDBRANCH   4   6
ENDBRANCH   3   4
ENDBRANCH   2   3
TORSDOF 10
ENDMDL
MODEL       67
REMARK 921   NORMALIZED FREE ENERGY PREDICTED BY IDOCK:   -4.44 KCAL/MOL
REMARK 922        TOTAL FREE ENERGY PREDICTED BY IDOCK:   -8.59 KCAL/MOL
REMARK 923 INTER-LIGAND FREE ENERGY PREDICTED BY IDOCK:   -6.77 KCAL/MOL
REMARK 924 INTRA-LIGAND FREE ENERGY PREDICTED BY IDOCK:   -1.83 KCAL/MOL
REMARK 927      BINDING AFFINITY PREDICTED BY RF-SCORE:    0.00 PKD
ROOT
HETATM    1  C   UNL     1     -11.356  11.675  63.606  1.00  0.00    -0.485 C  
HETATM    2  C   UNL     1     -10.167  10.856  64.090  1.00  0.00    -0.359 C  
ENDROOT
BRANCH   2   3
HETATM    3  O   UNL     1     -10.525  10.097  65.252  1.00  0.00    -0.193 OA 
BRANCH   3   4
HETATM    4  C   UNL     1      -9.577   9.276  65.764  1.00  0.00    -0.271 C  
HETATM    5  O   UNL     1      -8.736   8.726  65.071  1.00  0.00    -0.187 OA 
BRANCH   4   6
HETATM    6  C   UNL     1      -9.666   9.172  67.264  1.00  0.00    -0.225 C  
HETATM    7  C   UNL     1      -9.191  10.132  68.103  1.00  0.00    -0.135 C  
HETATM    8  C   UNL     1     -10.218   7.795  69.395  1.00  0.00    -0.208 C  
HETATM    9  N   UNL     1      -9.318   9.985  69.473  1.00  0.00    -0.220 NA 
HETATM   10  C   UNL     1      -9.737   8.839  70.116  1.00  0.00    -0.172 C  
HETATM   11  C   UNL     1     -10.341   7.898  67.855  1.00  0.00    -0.281 C  
HETATM   12  C   UNL     1      -9.640   8.878  71.624  1.00  0.00    -0.363 C  
BRANCH   7  13
HETATM   13  C   UNL     1      -8.483  11.403  67.658  1.00  0.00    -0.130 C  
BRANCH  13  14
HETATM   14  O   UNL     1      -9.167  12.597  68.079  1.00  0.00    -0.195 OA 
BRANCH  14  15
HETATM   15  C   UNL     1      -9.852  13.145  66.935  1.00  0.00    -0.249 C  
BRANCH  15  16
HETATM   16  C   UNL     1     -11.344  13.308  67.220  1.00  0.00    -0.314 C  
HETATM   17  N   UNL     1     -12.033  12.017  67.159  1.00  0.00    -0.598 NA 
HETATM   18  H2  UNL     1     -11.603  11.332  67.780  1.00  0.00     0.000 HD 
HETATM   19  H1  UNL     1     -13.028  12.125  67.349  1.00  0.00     0.000 HD 
ENDBRANCH  15  16
ENDBRANCH  14  15
ENDBRANCH  13  14
ENDBRANCH   7  13
BRANCH   8  20
HETATM   20  C   UNL     1     -10.635   6.553  70.108  1.00  0.00    -0.227 C  
HETATM   21  O   UNL     1      -9.865   5.805  70.693  1.00  0.00    -0.175 OA 
BRANCH  20  22
HETATM   22  O   UNL     1     -11.974   6.358  70.029  1.00  0.00    -0.333 OA 
HETATM   23  C   UNL     1     -12.728   6.970  71.083  1.00  0.00    -0.309 C  
ENDBRANCH  20  22
ENDBRANCH   8  20
BRANCH  11  24
HETATM   24  C   UNL     1      -9.908   6.612  67.134  1.00  0.00    -0.194 A  
HETATM   25  C   UNL     1     -10.868   5.811  66.485  1.00  0.00    -0.227 A  
HETATM   26  C   UNL     1     -10.510   4.588  65.909  1.00  0.00    -0.262 A  
HETATM   27  C   UNL     1      -9.192   4.144  65.957  1.00  0.00    -0.149 A  
HETATM   28  C   UNL     1      -8.224   4.926  66.580  1.00  0.00    -0.107 A  
HETATM   29  C   UNL     1      -8.573   6.146  67.170  1.00  0.00    -0.103 A  
HETATM   30 CL   UNL     1      -7.300   7.007  67.970  1.00  0.00    -0.094 Cl 
ENDBRANCH  11  24
ENDBRANCH   4   6
ENDBRANCH   3   4
ENDBRANCH   2   3
TORSDOF 10
ENDMDL
MODEL       68
REMARK 921   NORMALIZED FREE ENERGY PREDICTED BY IDOCK:   -4.42 KCAL/MOL
REMARK 922        TOTAL FREE ENERGY PREDICTED BY IDOCK:   -8.56 KCAL/MOL
REMARK 923 INTER-LIGAND FREE ENERGY PREDICTED BY IDOCK:   -6.96 KCAL/MOL
REMARK 924 INTRA-LIGAND FREE ENERGY PREDICTED BY IDOCK:   -1.60 KCAL/MOL
REMARK 927      BINDING AFFINITY PREDICTED BY RF-SCORE:    0.00 PKD
ROOT
HETATM    1  C   UNL     1     -10.677  19.252  66.053  1.00  0.00    -0.477 C  
HETATM    2  C   UNL     1     -10.297  18.818  67.463  1.00  0.00    -0.416 C  
ENDROOT
BRANCH   2   3
HETATM    3  O   UNL     1     -10.931  17.574  67.789  1.00  0.00    -0.314 OA 
BRANCH   3   4
HETATM    4  C   UNL     1     -10.650  17.043  69.002  1.00  0.00    -0.314 C  
HETATM    5  O   UNL     1     -10.237  17.711  69.937  1.00  0.00     0.186 OA 
BRANCH   4   6
HETATM    6  C   UNL     1     -10.953  15.568  69.060  1.00  0.00    -0.256 C  
HETATM    7  C   UNL     1     -11.954  15.046  69.818  1.00  0.00    -0.328 C  
HETATM    8  C   UNL     1     -10.329  13.119  68.466  1.00  0.00    -0.245 C  
HETATM    9  N   UNL     1     -12.193  13.683  69.814  1.00  0.00    -0.315 NA 
HETATM   10  C   UNL     1     -11.379  12.733  69.234  1.00  0.00    -0.247 C  
HETATM   11  C   UNL     1     -10.065  14.621  68.198  1.00  0.00    -0.224 C  
HETATM   12  C   UNL     1     -11.773  11.299  69.503  1.00  0.00    -0.415 C  
BRANCH   7  13
HETATM   13  C   UNL     1     -12.869  15.853  70.727  1.00  0.00    -0.061 C  
BRANCH  13  14
HETATM   14  O   UNL     1     -12.266  16.156  71.998  1.00  0.00    -0.471 OA 
BRANCH  14  15
HETATM   15  C   UNL     1     -13.140  15.663  73.034  1.00  0.00    -0.536 C  
BRANCH  15  16
HETATM   16  C   UNL     1     -13.003  14.149  73.187  1.00  0.00    -0.203 C  
HETATM   17  N   UNL     1     -14.152  13.457  72.599  1.00  0.00    -0.716 NA 
HETATM   18  H2  UNL     1     -14.295  13.726  71.626  1.00  0.00     0.000 HD 
HETATM   19  H1  UNL     1     -14.061  12.447  72.701  1.00  0.00     0.000 HD 
ENDBRANCH  15  16
ENDBRANCH  14  15
ENDBRANCH  13  14
ENDBRANCH   7  13
BRANCH   8  20
HETATM   20  C   UNL     1      -9.442  12.076  67.874  1.00  0.00    -0.196 C  
HETATM   21  O   UNL     1      -9.516  11.686  66.718  1.00  0.00    -0.178 OA 
BRANCH  20  22
HETATM   22  O   UNL     1      -8.541  11.616  68.777  1.00  0.00    -0.123 OA 
HETATM   23  C   UNL     1      -7.326  11.119  68.204  1.00  0.00    -0.087 C  
ENDBRANCH  20  22
ENDBRANCH   8  20
BRANCH  11  24
HETATM   24  C   UNL     1      -8.574  14.986  68.266  1.00  0.00    -0.156 A  
HETATM   25  C   UNL     1      -7.845  14.753  69.448  1.00  0.00    -0.083 A  
HETATM   26  C   UNL     1      -6.514  15.168  69.564  1.00  0.00    -0.151 A  
HETATM   27  C   UNL     1      -5.881  15.812  68.505  1.00  0.00    -0.100 A  
HETATM   28  C   UNL     1      -6.579  16.040  67.322  1.00  0.00    -0.219 A  
HETATM   29  C   UNL     1      -7.914  15.638  67.199  1.00  0.00    -0.219 A  
HETATM   30 CL   UNL     1      -8.701  16.027  65.705  1.00  0.00    -0.099 Cl 
ENDBRANCH  11  24
ENDBRANCH   4   6
ENDBRANCH   3   4
ENDBRANCH   2   3
TORSDOF 10
ENDMDL
MODEL       69
REMARK 921   NORMALIZED FREE ENERGY PREDICTED BY IDOCK:   -4.41 KCAL/MOL
REMARK 922        TOTAL FREE ENERGY PREDICTED BY IDOCK:   -8.55 KCAL/MOL
REMARK 923 INTER-LIGAND FREE ENERGY PREDICTED BY IDOCK:   -6.63 KCAL/MOL
REMARK 924 INTRA-LIGAND FREE ENERGY PREDICTED BY IDOCK:   -1.92 KCAL/MOL
REMARK 927      BINDING AFFINITY PREDICTED BY RF-SCORE:    0.00 PKD
ROOT
HETATM    1  C   UNL     1      -6.628   8.459  72.521  1.00  0.00    -0.097 C  
HETATM    2  C   UNL     1      -6.474   7.883  71.119  1.00  0.00    -0.037 C  
ENDROOT
BRANCH   2   3
HETATM    3  O   UNL     1      -7.161   8.704  70.166  1.00  0.00    -0.041 OA 
BRANCH   3   4
HETATM    4  C   UNL     1      -8.372   8.271  69.744  1.00  0.00    -0.123 C  
HETATM    5  O   UNL     1      -8.547   7.162  69.265  1.00  0.00    -0.135 OA 
BRANCH   4   6
HETATM    6  C   UNL     1      -9.455   9.291  69.983  1.00  0.00    -0.236 C  
HETATM    7  C   UNL     1     -10.414   9.146  70.936  1.00  0.00    -0.278 C  
HETATM    8  C   UNL     1     -10.698  11.458  69.277  1.00  0.00    -0.195 C  
HETATM    9  N   UNL     1     -11.371  10.127  71.118  1.00  0.00    -0.318 NA 
HETATM   10  C   UNL     1     -11.573  11.207  70.284  1.00  0.00    -0.296 C  
HETATM   11  C   UNL     1      -9.449  10.565  69.084  1.00  0.00    -0.205 C  
HETATM   12  C   UNL     1     -12.783  12.052  70.609  1.00  0.00    -0.163 C  
BRANCH   7  13
HETATM   13  C   UNL     1     -10.552   7.940  71.854  1.00  0.00    -0.231 C  
BRANCH  13  14
HETATM   14  O   UNL     1     -11.849   7.855  72.471  1.00  0.00    -0.354 OA 
BRANCH  14  15
HETATM   15  C   UNL     1     -12.682   7.019  71.642  1.00  0.00    -0.377 C  
BRANCH  15  16
HETATM   16  C   UNL     1     -14.131   7.506  71.659  1.00  0.00    -0.440 C  
HETATM   17  N   UNL     1     -14.289   8.707  70.838  1.00  0.00    -0.549 NA 
HETATM   18  H2  UNL     1     -13.953   8.560  69.887  1.00  0.00     0.000 HD 
HETATM   19  H1  UNL     1     -15.255   9.032  70.849  1.00  0.00     0.000 HD 
ENDBRANCH  15  16
ENDBRANCH  14  15
ENDBRANCH  13  14
ENDBRANCH   7  13
BRANCH   8  20
HETATM   20  C   UNL     1     -10.953  12.612  68.366  1.00  0.00    -0.257 C  
HETATM   21  O   UNL     1     -10.454  13.720  68.505  1.00  0.00    -0.235 OA 
BRANCH  20  22
HETATM   22  O   UNL     1     -11.804  12.279  67.365  1.00  0.00    -0.480 OA 
HETATM   23  C   UNL     1     -11.828  13.207  66.273  1.00  0.00    -0.401 C  
ENDBRANCH  20  22
ENDBRANCH   8  20
BRANCH  11  24
HETATM   24  C   UNL     1      -9.165  10.245  67.609  1.00  0.00    -0.154 A  
HETATM   25  C   UNL     1     -10.024   9.385  66.897  1.00  0.00    -0.293 A  
HETATM   26  C   UNL     1      -9.730   9.003  65.584  1.00  0.00    -0.178 A  
HETATM   27  C   UNL     1      -8.584   9.475  64.951  1.00  0.00    -0.191 A  
HETATM   28  C   UNL     1      -7.728  10.337  65.631  1.00  0.00    -0.148 A  
HETATM   29  C   UNL     1      -8.007  10.718  66.949  1.00  0.00    -0.133 A  
HETATM   30 CL   UNL     1      -6.842  11.745  67.718  1.00  0.00    -0.083 Cl 
ENDBRANCH  11  24
ENDBRANCH   4   6
ENDBRANCH   3   4
ENDBRANCH   2   3
TORSDOF 10
ENDMDL
MODEL       70
REMARK 921   NORMALIZED FREE ENERGY PREDICTED BY IDOCK:   -4.40 KCAL/MOL
REMARK 922        TOTAL FREE ENERGY PREDICTED BY IDOCK:   -8.53 KCAL/MOL
REMARK 923 INTER-LIGAND FREE ENERGY PREDICTED BY IDOCK:   -6.52 KCAL/MOL
REMARK 924 INTRA-LIGAND FREE ENERGY PREDICTED BY IDOCK:   -2.02 KCAL/MOL
REMARK 927      BINDING AFFINITY PREDICTED BY RF-SCORE:    0.00 PKD
ROOT
HETATM    1  C   UNL     1     -11.969  15.787  64.187  1.00  0.00     0.012 C  
HETATM    2  C   UNL     1     -11.086  16.849  64.830  1.00  0.00     0.036 C  
ENDROOT
BRANCH   2   3
HETATM    3  O   UNL     1      -9.891  16.253  65.353  1.00  0.00    -0.496 OA 
BRANCH   3   4
HETATM    4  C   UNL     1      -9.906  15.893  66.658  1.00  0.00    -0.254 C  
HETATM    5  O   UNL     1     -10.757  16.283  67.441  1.00  0.00    -0.319 OA 
BRANCH   4   6
HETATM    6  C   UNL     1      -8.793  14.936  66.996  1.00  0.00    -0.255 C  
HETATM    7  C   UNL     1      -7.502  15.331  67.169  1.00  0.00    -0.167 C  
HETATM    8  C   UNL     1      -7.934  12.507  67.312  1.00  0.00    -0.173 C  
HETATM    9  N   UNL     1      -6.529  14.404  67.495  1.00  0.00    -0.311 NA 
HETATM   10  C   UNL     1      -6.698  13.036  67.494  1.00  0.00    -0.152 C  
HETATM   11  C   UNL     1      -9.165  13.431  67.151  1.00  0.00    -0.240 C  
HETATM   12  C   UNL     1      -5.440  12.233  67.732  1.00  0.00    -0.087 C  
BRANCH   7  13
HETATM   13  C   UNL     1      -7.001  16.759  67.014  1.00  0.00    -0.207 C  
BRANCH  13  14
HETATM   14  O   UNL     1      -7.375  17.603  68.117  1.00  0.00    -0.213 OA 
BRANCH  14  15
HETATM   15  C   UNL     1      -7.445  18.961  67.635  1.00  0.00    -0.226 C  
BRANCH  15  16
HETATM   16  C   UNL     1      -8.809  19.246  67.008  1.00  0.00    -0.293 C  
HETATM   17  N   UNL     1      -9.887  19.013  67.970  1.00  0.00    -0.332 NA 
HETATM   18  H2  UNL     1      -9.748  19.547  68.828  1.00  0.00     0.000 HD 
HETATM   19  H1  UNL     1     -10.797  19.203  67.552  1.00  0.00     0.000 HD 
ENDBRANCH  15  16
ENDBRANCH  14  15
ENDBRANCH  13  14
ENDBRANCH   7  13
BRANCH   8  20
HETATM   20  C   UNL     1      -8.091  11.023  67.281  1.00  0.00    -0.126 C  
HETATM   21  O   UNL     1      -7.627  10.302  66.409  1.00  0.00    -0.107 OA 
BRANCH  20  22
HETATM   22  O   UNL     1      -8.807  10.574  68.340  1.00  0.00    -0.129 OA 
HETATM   23  C   UNL     1      -8.027  10.283  69.506  1.00  0.00    -0.165 C  
ENDBRANCH  20  22
ENDBRANCH   8  20
BRANCH  11  24
HETATM   24  C   UNL     1     -10.137  12.948  66.064  1.00  0.00    -0.290 A  
HETATM   25  C   UNL     1      -9.666  12.697  64.760  1.00  0.00     0.053 A  
HETATM   26  C   UNL     1     -10.550  12.353  63.732  1.00  0.00    -0.486 A  
HETATM   27  C   UNL     1     -11.914  12.241  63.982  1.00  0.00    -0.551 A  
HETATM   28  C   UNL     1     -12.400  12.471  65.267  1.00  0.00    -0.469 A  
HETATM   29  C   UNL     1     -11.526  12.826  66.300  1.00  0.00    -0.354 A  
HETATM   30 CL   UNL     1     -12.247  13.148  67.843  1.00  0.00    -0.221 Cl 
ENDBRANCH  11  24
ENDBRANCH   4   6
ENDBRANCH   3   4
ENDBRANCH   2   3
TORSDOF 10
ENDMDL
MODEL       71
REMARK 921   NORMALIZED FREE ENERGY PREDICTED BY IDOCK:   -4.39 KCAL/MOL
REMARK 922        TOTAL FREE ENERGY PREDICTED BY IDOCK:   -8.52 KCAL/MOL
REMARK 923 INTER-LIGAND FREE ENERGY PREDICTED BY IDOCK:   -6.85 KCAL/MOL
REMARK 924 INTRA-LIGAND FREE ENERGY PREDICTED BY IDOCK:   -1.66 KCAL/MOL
REMARK 927      BINDING AFFINITY PREDICTED BY RF-SCORE:    0.00 PKD
ROOT
HETATM    1  C   UNL     1     -12.141  13.140  63.208  1.00  0.00    -0.460 C  
HETATM    2  C   UNL     1     -10.868  12.395  63.589  1.00  0.00    -0.462 C  
ENDROOT
BRANCH   2   3
HETATM    3  O   UNL     1     -11.133  11.463  64.646  1.00  0.00    -0.290 OA 
BRANCH   3   4
HETATM    4  C   UNL     1     -11.324  11.978  65.883  1.00  0.00    -0.337 C  
HETATM    5  O   UNL     1     -12.375  12.491  66.231  1.00  0.00    -0.570 OA 
BRANCH   4   6
HETATM    6  C   UNL     1     -10.116  11.795  66.766  1.00  0.00    -0.235 C  
HETATM    7  C   UNL     1      -9.914  10.686  67.526  1.00  0.00    -0.171 C  
HETATM    8  C   UNL     1      -7.962  12.750  67.856  1.00  0.00    -0.158 C  
HETATM    9  N   UNL     1      -8.776  10.571  68.303  1.00  0.00    -0.130 NA 
HETATM   10  C   UNL     1      -7.865  11.580  68.536  1.00  0.00    -0.140 C  
HETATM   11  C   UNL     1      -9.064  12.945  66.787  1.00  0.00    -0.211 C  
HETATM   12  C   UNL     1      -6.789  11.253  69.546  1.00  0.00    -0.115 C  
BRANCH   7  13
HETATM   13  C   UNL     1     -10.876   9.510  67.622  1.00  0.00    -0.187 C  
BRANCH  13  14
HETATM   14  O   UNL     1     -10.605   8.488  66.647  1.00  0.00    -0.255 OA 
BRANCH  14  15
HETATM   15  C   UNL     1     -10.417   7.242  67.348  1.00  0.00    -0.289 C  
BRANCH  15  16
HETATM   16  C   UNL     1      -9.016   6.685  67.103  1.00  0.00    -0.118 C  
HETATM   17  N   UNL     1      -7.995   7.571  67.664  1.00  0.00    -0.116 NA 
HETATM   18  H2  UNL     1      -8.158   7.755  68.654  1.00  0.00     0.000 HD 
HETATM   19  H1  UNL     1      -7.059   7.200  67.501  1.00  0.00     0.000 HD 
ENDBRANCH  15  16
ENDBRANCH  14  15
ENDBRANCH  13  14
ENDBRANCH   7  13
BRANCH   8  20
HETATM   20  C   UNL     1      -6.986  13.840  68.147  1.00  0.00    -0.120 C  
HETATM   21  O   UNL     1      -6.002  14.082  67.462  1.00  0.00    -0.334 OA 
BRANCH  20  22
HETATM   22  O   UNL     1      -7.327  14.532  69.261  1.00  0.00    -0.144 OA 
HETATM   23  C   UNL     1      -6.225  14.870  70.112  1.00  0.00    -0.165 C  
ENDBRANCH  20  22
ENDBRANCH   8  20
BRANCH  11  24
HETATM   24  C   UNL     1      -9.712  14.337  66.843  1.00  0.00    -0.268 A  
HETATM   25  C   UNL     1      -9.465  15.270  65.817  1.00  0.00    -0.310 A  
HETATM   26  C   UNL     1      -9.963  16.574  65.898  1.00  0.00    -0.342 A  
HETATM   27  C   UNL     1     -10.725  16.972  66.993  1.00  0.00    -0.149 A  
HETATM   28  C   UNL     1     -10.993  16.062  68.012  1.00  0.00    -0.341 A  
HETATM   29  C   UNL     1     -10.490  14.757  67.946  1.00  0.00    -0.246 A  
HETATM   30 CL   UNL     1     -10.835  13.729  69.297  1.00  0.00    -0.192 Cl 
ENDBRANCH  11  24
ENDBRANCH   4   6
ENDBRANCH   3   4
ENDBRANCH   2   3
TORSDOF 10
ENDMDL
MODEL       72
REMARK 921   NORMALIZED FREE ENERGY PREDICTED BY IDOCK:   -4.33 KCAL/MOL
REMARK 922        TOTAL FREE ENERGY PREDICTED BY IDOCK:   -8.41 KCAL/MOL
REMARK 923 INTER-LIGAND FREE ENERGY PREDICTED BY IDOCK:   -7.26 KCAL/MOL
REMARK 924 INTRA-LIGAND FREE ENERGY PREDICTED BY IDOCK:   -1.15 KCAL/MOL
REMARK 927      BINDING AFFINITY PREDICTED BY RF-SCORE:    0.00 PKD
ROOT
HETATM    1  C   UNL     1     -10.766  18.724  67.190  1.00  0.00    -0.469 C  
HETATM    2  C   UNL     1     -10.395  17.664  66.160  1.00  0.00    -0.334 C  
ENDROOT
BRANCH   2   3
HETATM    3  O   UNL     1     -10.452  16.358  66.747  1.00  0.00    -0.292 OA 
BRANCH   3   4
HETATM    4  C   UNL     1      -9.893  15.345  66.044  1.00  0.00    -0.326 C  
HETATM    5  O   UNL     1      -9.664  15.419  64.847  1.00  0.00    -0.157 OA 
BRANCH   4   6
HETATM    6  C   UNL     1      -9.555  14.165  66.918  1.00  0.00    -0.275 C  
HETATM    7  C   UNL     1      -8.386  14.063  67.607  1.00  0.00    -0.187 C  
HETATM    8  C   UNL     1     -10.102  11.782  67.789  1.00  0.00    -0.199 C  
HETATM    9  N   UNL     1      -8.143  12.961  68.407  1.00  0.00    -0.148 NA 
HETATM   10  C   UNL     1      -8.917  11.821  68.449  1.00  0.00    -0.168 C  
HETATM   11  C   UNL     1     -10.613  13.026  67.023  1.00  0.00    -0.262 C  
HETATM   12  C   UNL     1      -8.355  10.694  69.286  1.00  0.00    -0.112 C  
BRANCH   7  13
HETATM   13  C   UNL     1      -7.260  15.085  67.565  1.00  0.00    -0.201 C  
BRANCH  13  14
HETATM   14  O   UNL     1      -6.470  15.093  68.768  1.00  0.00    -0.084 OA 
BRANCH  14  15
HETATM   15  C   UNL     1      -6.699  16.346  69.443  1.00  0.00    -0.215 C  
BRANCH  15  16
HETATM   16  C   UNL     1      -7.651  17.232  68.641  1.00  0.00    -0.260 C  
HETATM   17  N   UNL     1      -7.208  18.627  68.658  1.00  0.00    -0.283 NA 
HETATM   18  H2  UNL     1      -6.246  18.721  68.335  1.00  0.00     0.000 HD 
HETATM   19  H1  UNL     1      -7.844  19.218  68.122  1.00  0.00     0.000 HD 
ENDBRANCH  15  16
ENDBRANCH  14  15
ENDBRANCH  13  14
ENDBRANCH   7  13
BRANCH   8  20
HETATM   20  C   UNL     1     -10.908  10.526  67.820  1.00  0.00    -0.294 C  
HETATM   21  O   UNL     1     -10.510   9.444  67.414  1.00  0.00    -0.251 OA 
BRANCH  20  22
HETATM   22  O   UNL     1     -12.134  10.734  68.358  1.00  0.00    -0.501 OA 
HETATM   23  C   UNL     1     -12.137  10.920  69.779  1.00  0.00    -0.338 C  
ENDBRANCH  20  22
ENDBRANCH   8  20
BRANCH  11  24
HETATM   24  C   UNL     1     -11.241  12.676  65.666  1.00  0.00    -0.344 A  
HETATM   25  C   UNL     1     -12.569  13.053  65.386  1.00  0.00    -0.481 A  
HETATM   26  C   UNL     1     -13.191  12.659  64.197  1.00  0.00     0.198 A  
HETATM   27  C   UNL     1     -12.502  11.894  63.260  1.00  0.00    -0.506 A  
HETATM   28  C   UNL     1     -11.185  11.522  63.509  1.00  0.00    -0.412 A  
HETATM   29  C   UNL     1     -10.556  11.901  64.701  1.00  0.00    -0.306 A  
HETATM   30 CL   UNL     1      -8.935  11.332  64.933  1.00  0.00    -0.053 Cl 
ENDBRANCH  11  24
ENDBRANCH   4   6
ENDBRANCH   3   4
ENDBRANCH   2   3
TORSDOF 10
ENDMDL
MODEL       73
REMARK 921   NORMALIZED FREE ENERGY PREDICTED BY IDOCK:   -4.33 KCAL/MOL
REMARK 922        TOTAL FREE ENERGY PREDICTED BY IDOCK:   -8.41 KCAL/MOL
REMARK 923 INTER-LIGAND FREE ENERGY PREDICTED BY IDOCK:   -6.74 KCAL/MOL
REMARK 924 INTRA-LIGAND FREE ENERGY PREDICTED BY IDOCK:   -1.68 KCAL/MOL
REMARK 927      BINDING AFFINITY PREDICTED BY RF-SCORE:    0.00 PKD
ROOT
HETATM    1  C   UNL     1     -10.849   7.681  69.828  1.00  0.00    -0.222 C  
HETATM    2  C   UNL     1      -9.714   8.425  69.135  1.00  0.00    -0.171 C  
ENDROOT
BRANCH   2   3
HETATM    3  O   UNL     1      -9.754   9.818  69.471  1.00  0.00    -0.186 OA 
BRANCH   3   4
HETATM    4  C   UNL     1      -8.906  10.634  68.800  1.00  0.00    -0.161 C  
HETATM    5  O   UNL     1      -7.890  11.088  69.302  1.00  0.00    -0.129 OA 
BRANCH   4   6
HETATM    6  C   UNL     1      -9.344  10.862  67.377  1.00  0.00    -0.166 C  
HETATM    7  C   UNL     1      -8.636  10.421  66.303  1.00  0.00    -0.142 C  
HETATM    8  C   UNL     1     -10.946  11.984  65.670  1.00  0.00    -0.343 C  
HETATM    9  N   UNL     1      -9.102  10.648  65.020  1.00  0.00    -0.195 NA 
HETATM   10  C   UNL     1     -10.166  11.460  64.691  1.00  0.00    -0.294 C  
HETATM   11  C   UNL     1     -10.677  11.639  67.154  1.00  0.00    -0.288 C  
HETATM   12  C   UNL     1     -10.379  11.670  63.209  1.00  0.00    -0.444 C  
BRANCH   7  13
HETATM   13  C   UNL     1      -7.308   9.682  66.380  1.00  0.00    -0.094 C  
BRANCH  13  14
HETATM   14  O   UNL     1      -6.180  10.537  66.125  1.00  0.00    -0.090 OA 
BRANCH  14  15
HETATM   15  C   UNL     1      -5.272  10.422  67.240  1.00  0.00    -0.040 C  
BRANCH  15  16
HETATM   16  C   UNL     1      -5.435   9.072  67.937  1.00  0.00    -0.035 C  
HETATM   17  N   UNL     1      -5.691   9.250  69.368  1.00  0.00    -0.035 NA 
HETATM   18  H2  UNL     1      -6.491   9.858  69.535  1.00  0.00     0.000 HD 
HETATM   19  H1  UNL     1      -5.799   8.349  69.834  1.00  0.00     0.000 HD 
ENDBRANCH  15  16
ENDBRANCH  14  15
ENDBRANCH  13  14
ENDBRANCH   7  13
BRANCH   8  20
HETATM   20  C   UNL     1     -12.073  12.887  65.293  1.00  0.00    -0.453 C  
HETATM   21  O   UNL     1     -13.208  12.504  65.049  1.00  0.00    -0.700 OA 
BRANCH  20  22
HETATM   22  O   UNL     1     -11.682  14.185  65.259  1.00  0.00    -0.330 OA 
HETATM   23  C   UNL     1     -12.260  14.952  64.196  1.00  0.00    -0.255 C  
ENDBRANCH  20  22
ENDBRANCH   8  20
BRANCH  11  24
HETATM   24  C   UNL     1     -10.815  12.853  68.084  1.00  0.00    -0.257 A  
HETATM   25  C   UNL     1     -11.871  12.912  69.015  1.00  0.00    -0.352 A  
HETATM   26  C   UNL     1     -12.072  14.051  69.801  1.00  0.00    -0.405 A  
HETATM   27  C   UNL     1     -11.222  15.147  69.686  1.00  0.00    -0.288 A  
HETATM   28  C   UNL     1     -10.164  15.106  68.783  1.00  0.00    -0.235 A  
HETATM   29  C   UNL     1      -9.959  13.975  67.984  1.00  0.00    -0.235 A  
HETATM   30 CL   UNL     1      -8.648  14.057  66.853  1.00  0.00    -0.193 Cl 
ENDBRANCH  11  24
ENDBRANCH   4   6
ENDBRANCH   3   4
ENDBRANCH   2   3
TORSDOF 10
ENDMDL
MODEL       74
REMARK 921   NORMALIZED FREE ENERGY PREDICTED BY IDOCK:   -4.32 KCAL/MOL
REMARK 922        TOTAL FREE ENERGY PREDICTED BY IDOCK:   -8.40 KCAL/MOL
REMARK 923 INTER-LIGAND FREE ENERGY PREDICTED BY IDOCK:   -6.80 KCAL/MOL
REMARK 924 INTRA-LIGAND FREE ENERGY PREDICTED BY IDOCK:   -1.60 KCAL/MOL
REMARK 927      BINDING AFFINITY PREDICTED BY RF-SCORE:    0.00 PKD
ROOT
HETATM    1  C   UNL     1     -10.379  11.061  64.117  1.00  0.00    -0.434 C  
HETATM    2  C   UNL     1      -9.343   9.996  64.454  1.00  0.00    -0.290 C  
ENDROOT
BRANCH   2   3
HETATM    3  O   UNL     1      -9.893   9.036  65.365  1.00  0.00    -0.080 OA 
BRANCH   3   4
HETATM    4  C   UNL     1      -9.038   8.470  66.249  1.00  0.00    -0.185 C  
HETATM    5  O   UNL     1      -7.832   8.428  66.067  1.00  0.00    -0.093 OA 
BRANCH   4   6
HETATM    6  C   UNL     1      -9.747   7.957  67.475  1.00  0.00    -0.204 C  
HETATM    7  C   UNL     1     -10.354   6.740  67.527  1.00  0.00    -0.210 C  
HETATM    8  C   UNL     1     -10.673   8.352  69.868  1.00  0.00    -0.227 C  
HETATM    9  N   UNL     1     -10.974   6.320  68.689  1.00  0.00    -0.331 NA 
HETATM   10  C   UNL     1     -11.206   7.106  69.798  1.00  0.00    -0.173 C  
HETATM   11  C   UNL     1      -9.769   8.882  68.729  1.00  0.00    -0.170 C  
HETATM   12  C   UNL     1     -12.042   6.460  70.880  1.00  0.00    -0.176 C  
BRANCH   7  13
HETATM   13  C   UNL     1     -10.434   5.758  66.367  1.00  0.00    -0.157 C  
BRANCH  13  14
HETATM   14  O   UNL     1     -10.149   4.405  66.763  1.00  0.00    -0.221 OA 
BRANCH  14  15
HETATM   15  C   UNL     1      -9.460   3.758  65.673  1.00  0.00    -0.170 C  
BRANCH  15  16
HETATM   16  C   UNL     1     -10.157   4.040  64.343  1.00  0.00    -0.190 C  
HETATM   17  N   UNL     1     -11.090   2.964  64.003  1.00  0.00    -0.587 NA 
HETATM   18  H2  UNL     1     -11.762   2.797  64.752  1.00  0.00     0.000 HD 
HETATM   19  H1  UNL     1     -11.556   3.152  63.116  1.00  0.00     0.000 HD 
ENDBRANCH  15  16
ENDBRANCH  14  15
ENDBRANCH  13  14
ENDBRANCH   7  13
BRANCH   8  20
HETATM   20  C   UNL     1     -10.964   9.198  71.062  1.00  0.00    -0.305 C  
HETATM   21  O   UNL     1     -10.239   9.273  72.044  1.00  0.00    -0.191 OA 
BRANCH  20  22
HETATM   22  O   UNL     1     -12.129   9.877  70.922  1.00  0.00    -0.302 OA 
HETATM   23  C   UNL     1     -13.000   9.804  72.057  1.00  0.00    -0.423 C  
ENDBRANCH  20  22
ENDBRANCH   8  20
BRANCH  11  24
HETATM   24  C   UNL     1     -10.051  10.350  68.376  1.00  0.00    -0.181 A  
HETATM   25  C   UNL     1     -11.323  10.727  67.901  1.00  0.00    -0.372 A  
HETATM   26  C   UNL     1     -11.571  12.037  67.479  1.00  0.00    -0.401 A  
HETATM   27  C   UNL     1     -10.566  12.999  67.533  1.00  0.00    -0.237 A  
HETATM   28  C   UNL     1      -9.306  12.651  68.012  1.00  0.00    -0.209 A  
HETATM   29  C   UNL     1      -9.043  11.340  68.426  1.00  0.00    -0.170 A  
HETATM   30 CL   UNL     1      -7.425  11.006  68.947  1.00  0.00    -0.114 Cl 
ENDBRANCH  11  24
ENDBRANCH   4   6
ENDBRANCH   3   4
ENDBRANCH   2   3
TORSDOF 10
ENDMDL
MODEL       75
REMARK 921   NORMALIZED FREE ENERGY PREDICTED BY IDOCK:   -4.31 KCAL/MOL
REMARK 922        TOTAL FREE ENERGY PREDICTED BY IDOCK:   -8.39 KCAL/MOL
REMARK 923 INTER-LIGAND FREE ENERGY PREDICTED BY IDOCK:   -7.15 KCAL/MOL
REMARK 924 INTRA-LIGAND FREE ENERGY PREDICTED BY IDOCK:   -1.24 KCAL/MOL
REMARK 927      BINDING AFFINITY PREDICTED BY RF-SCORE:    0.00 PKD
ROOT
HETATM    1  C   UNL     1      -9.785   6.627  70.366  1.00  0.00    -0.186 C  
HETATM    2  C   UNL     1      -9.516   8.118  70.527  1.00  0.00    -0.163 C  
ENDROOT
BRANCH   2   3
HETATM    3  O   UNL     1      -9.810   8.812  69.308  1.00  0.00    -0.173 OA 
BRANCH   3   4
HETATM    4  C   UNL     1      -9.315  10.066  69.182  1.00  0.00    -0.193 C  
HETATM    5  O   UNL     1      -8.262  10.415  69.691  1.00  0.00    -0.155 OA 
BRANCH   4   6
HETATM    6  C   UNL     1     -10.188  10.936  68.315  1.00  0.00    -0.191 C  
HETATM    7  C   UNL     1     -11.480  11.230  68.620  1.00  0.00    -0.297 C  
HETATM    8  C   UNL     1     -10.573  12.236  66.101  1.00  0.00    -0.281 C  
HETATM    9  N   UNL     1     -12.223  12.049  67.790  1.00  0.00    -0.368 NA 
HETATM   10  C   UNL     1     -11.834  12.479  66.539  1.00  0.00    -0.367 C  
HETATM   11  C   UNL     1      -9.553  11.515  67.014  1.00  0.00    -0.199 C  
HETATM   12  C   UNL     1     -12.889  13.236  65.764  1.00  0.00    -0.135 C  
BRANCH   7  13
HETATM   13  C   UNL     1     -12.227  10.704  69.837  1.00  0.00    -0.275 C  
BRANCH  13  14
HETATM   14  O   UNL     1     -12.520  11.734  70.798  1.00  0.00    -0.357 OA 
BRANCH  14  15
HETATM   15  C   UNL     1     -13.279  11.139  71.871  1.00  0.00    -0.382 C  
BRANCH  15  16
HETATM   16  C   UNL     1     -13.285   9.615  71.754  1.00  0.00    -0.430 C  
HETATM   17  N   UNL     1     -14.190   9.019  72.738  1.00  0.00    -1.052 NA 
HETATM   18  H2  UNL     1     -15.131   9.406  72.668  1.00  0.00     0.000 HD 
HETATM   19  H1  UNL     1     -14.195   8.002  72.660  1.00  0.00     0.000 HD 
ENDBRANCH  15  16
ENDBRANCH  14  15
ENDBRANCH  13  14
ENDBRANCH   7  13
BRANCH   8  20
HETATM   20  C   UNL     1     -10.183  12.681  64.731  1.00  0.00    -0.283 C  
HETATM   21  O   UNL     1      -9.669  13.762  64.481  1.00  0.00    -0.026 OA 
BRANCH  20  22
HETATM   22  O   UNL     1     -10.466  11.738  63.800  1.00  0.00    -0.332 OA 
HETATM   23  C   UNL     1      -9.382  11.434  62.914  1.00  0.00    -0.323 C  
ENDBRANCH  20  22
ENDBRANCH   8  20
BRANCH  11  24
HETATM   24  C   UNL     1      -8.703  10.480  66.261  1.00  0.00    -0.159 A  
HETATM   25  C   UNL     1      -9.304   9.312  65.751  1.00  0.00    -0.306 A  
HETATM   26  C   UNL     1      -8.533   8.313  65.150  1.00  0.00    -0.164 A  
HETATM   27  C   UNL     1      -7.154   8.459  65.033  1.00  0.00    -0.079 A  
HETATM   28  C   UNL     1      -6.540   9.611  65.518  1.00  0.00    -0.080 A  
HETATM   29  C   UNL     1      -7.301  10.613  66.131  1.00  0.00    -0.138 A  
HETATM   30 CL   UNL     1      -6.427  11.975  66.750  1.00  0.00    -0.055 Cl 
ENDBRANCH  11  24
ENDBRANCH   4   6
ENDBRANCH   3   4
ENDBRANCH   2   3
TORSDOF 10
ENDMDL
MODEL       76
REMARK 921   NORMALIZED FREE ENERGY PREDICTED BY IDOCK:   -4.30 KCAL/MOL
REMARK 922        TOTAL FREE ENERGY PREDICTED BY IDOCK:   -8.37 KCAL/MOL
REMARK 923 INTER-LIGAND FREE ENERGY PREDICTED BY IDOCK:   -6.67 KCAL/MOL
REMARK 924 INTRA-LIGAND FREE ENERGY PREDICTED BY IDOCK:   -1.70 KCAL/MOL
REMARK 927      BINDING AFFINITY PREDICTED BY RF-SCORE:    0.00 PKD
ROOT
HETATM    1  C   UNL     1      -8.741   8.334  72.771  1.00  0.00    -0.288 C  
HETATM    2  C   UNL     1      -8.572   8.504  71.266  1.00  0.00    -0.176 C  
ENDROOT
BRANCH   2   3
HETATM    3  O   UNL     1      -9.293   9.656  70.811  1.00  0.00    -0.207 OA 
BRANCH   3   4
HETATM    4  C   UNL     1     -10.329   9.436  69.967  1.00  0.00    -0.233 C  
HETATM    5  O   UNL     1     -11.244   8.672  70.229  1.00  0.00    -0.249 OA 
BRANCH   4   6
HETATM    6  C   UNL     1     -10.231  10.274  68.718  1.00  0.00    -0.205 C  
HETATM    7  C   UNL     1     -10.930  11.427  68.541  1.00  0.00    -0.221 C  
HETATM    8  C   UNL     1      -9.380  10.593  66.286  1.00  0.00    -0.199 C  
HETATM    9  N   UNL     1     -10.782  12.159  67.377  1.00  0.00    -0.228 NA 
HETATM   10  C   UNL     1     -10.104  11.740  66.252  1.00  0.00    -0.217 C  
HETATM   11  C   UNL     1      -9.272   9.774  67.595  1.00  0.00    -0.143 C  
HETATM   12  C   UNL     1     -10.220  12.655  65.054  1.00  0.00    -0.294 C  
BRANCH   7  13
HETATM   13  C   UNL     1     -11.920  12.006  69.541  1.00  0.00    -0.283 C  
BRANCH  13  14
HETATM   14  O   UNL     1     -11.931  13.445  69.544  1.00  0.00    -0.308 OA 
BRANCH  14  15
HETATM   15  C   UNL     1     -12.583  13.883  70.754  1.00  0.00    -0.354 C  
BRANCH  15  16
HETATM   16  C   UNL     1     -12.925  12.693  71.649  1.00  0.00    -0.299 C  
HETATM   17  N   UNL     1     -13.729  13.116  72.798  1.00  0.00    -0.693 NA 
HETATM   18  H2  UNL     1     -14.565  13.620  72.506  1.00  0.00     0.000 HD 
HETATM   19  H1  UNL     1     -13.957  12.322  73.395  1.00  0.00     0.000 HD 
ENDBRANCH  15  16
ENDBRANCH  14  15
ENDBRANCH  13  14
ENDBRANCH   7  13
BRANCH   8  20
HETATM   20  C   UNL     1      -8.680  10.141  65.049  1.00  0.00    -0.173 C  
HETATM   21  O   UNL     1      -9.248   9.676  64.070  1.00  0.00    -0.250 OA 
BRANCH  20  22
HETATM   22  O   UNL     1      -7.339  10.311  65.142  1.00  0.00    -0.139 OA 
HETATM   23  C   UNL     1      -6.564   9.220  64.631  1.00  0.00    -0.077 C  
ENDBRANCH  20  22
ENDBRANCH   8  20
BRANCH  11  24
HETATM   24  C   UNL     1      -9.376   8.259  67.361  1.00  0.00    -0.171 A  
HETATM   25  C   UNL     1     -10.601   7.691  66.959  1.00  0.00    -0.406 A  
HETATM   26  C   UNL     1     -10.744   6.305  66.838  1.00  0.00    -0.411 A  
HETATM   27  C   UNL     1      -9.670   5.459  67.101  1.00  0.00    -0.159 A  
HETATM   28  C   UNL     1      -8.447   6.000  67.486  1.00  0.00    -0.107 A  
HETATM   29  C   UNL     1      -8.296   7.385  67.622  1.00  0.00    -0.118 A  
HETATM   30 CL   UNL     1      -6.747   7.942  68.164  1.00  0.00    -0.062 Cl 
ENDBRANCH  11  24
ENDBRANCH   4   6
ENDBRANCH   3   4
ENDBRANCH   2   3
TORSDOF 10
ENDMDL
MODEL       77
REMARK 921   NORMALIZED FREE ENERGY PREDICTED BY IDOCK:   -4.29 KCAL/MOL
REMARK 922        TOTAL FREE ENERGY PREDICTED BY IDOCK:   -8.36 KCAL/MOL
REMARK 923 INTER-LIGAND FREE ENERGY PREDICTED BY IDOCK:   -6.78 KCAL/MOL
REMARK 924 INTRA-LIGAND FREE ENERGY PREDICTED BY IDOCK:   -1.57 KCAL/MOL
REMARK 927      BINDING AFFINITY PREDICTED BY RF-SCORE:    0.00 PKD
ROOT
HETATM    1  C   UNL     1     -13.196  10.785  71.848  1.00  0.00    -0.524 C  
HETATM    2  C   UNL     1     -12.687  10.483  70.445  1.00  0.00    -0.252 C  
ENDROOT
BRANCH   2   3
HETATM    3  O   UNL     1     -11.674  11.424  70.068  1.00  0.00    -0.297 OA 
BRANCH   3   4
HETATM    4  C   UNL     1     -11.511  11.653  68.744  1.00  0.00    -0.285 C  
HETATM    5  O   UNL     1     -12.266  11.201  67.898  1.00  0.00    -0.521 OA 
BRANCH   4   6
HETATM    6  C   UNL     1     -10.337  12.554  68.463  1.00  0.00    -0.233 C  
HETATM    7  C   UNL     1     -10.459  13.895  68.272  1.00  0.00    -0.250 C  
HETATM    8  C   UNL     1      -7.816  12.860  67.924  1.00  0.00    -0.151 C  
HETATM    9  N   UNL     1      -9.339  14.671  68.035  1.00  0.00    -0.194 NA 
HETATM   10  C   UNL     1      -8.072  14.186  67.788  1.00  0.00    -0.166 C  
HETATM   11  C   UNL     1      -8.927  11.893  68.398  1.00  0.00    -0.163 C  
HETATM   12  C   UNL     1      -7.049  15.230  67.402  1.00  0.00    -0.223 C  
BRANCH   7  13
HETATM   13  C   UNL     1     -11.777  14.657  68.276  1.00  0.00    -0.328 C  
BRANCH  13  14
HETATM   14  O   UNL     1     -11.789  15.742  69.221  1.00  0.00    -0.365 OA 
BRANCH  14  15
HETATM   15  C   UNL     1     -11.786  15.178  70.548  1.00  0.00    -0.318 C  
BRANCH  15  16
HETATM   16  C   UNL     1     -13.171  14.648  70.917  1.00  0.00    -0.337 C  
HETATM   17  N   UNL     1     -13.858  15.567  71.827  1.00  0.00    -0.489 NA 
HETATM   18  H2  UNL     1     -13.906  16.510  71.443  1.00  0.00     0.000 HD 
HETATM   19  H1  UNL     1     -14.782  15.213  72.073  1.00  0.00     0.000 HD 
ENDBRANCH  15  16
ENDBRANCH  14  15
ENDBRANCH  13  14
ENDBRANCH   7  13
BRANCH   8  20
HETATM   20  C   UNL     1      -6.446  12.352  67.620  1.00  0.00    -0.130 C  
HETATM   21  O   UNL     1      -6.115  11.870  66.546  1.00  0.00    -0.155 OA 
BRANCH  20  22
HETATM   22  O   UNL     1      -5.614  12.493  68.680  1.00  0.00    -0.053 OA 
HETATM   23  C   UNL     1      -5.647  11.405  69.611  1.00  0.00    -0.064 C  
ENDBRANCH  20  22
ENDBRANCH   8  20
BRANCH  11  24
HETATM   24  C   UNL     1      -8.932  10.565  67.626  1.00  0.00    -0.138 A  
HETATM   25  C   UNL     1      -9.206  10.555  66.244  1.00  0.00    -0.192 A  
HETATM   26  C   UNL     1      -9.314   9.350  65.543  1.00  0.00    -0.315 A  
HETATM   27  C   UNL     1      -9.141   8.134  66.197  1.00  0.00    -0.232 A  
HETATM   28  C   UNL     1      -8.856   8.121  67.560  1.00  0.00    -0.137 A  
HETATM   29  C   UNL     1      -8.756   9.320  68.274  1.00  0.00    -0.129 A  
HETATM   30 CL   UNL     1      -8.458   9.182  69.975  1.00  0.00    -0.144 Cl 
ENDBRANCH  11  24
ENDBRANCH   4   6
ENDBRANCH   3   4
ENDBRANCH   2   3
TORSDOF 10
ENDMDL
MODEL       78
REMARK 921   NORMALIZED FREE ENERGY PREDICTED BY IDOCK:   -4.29 KCAL/MOL
REMARK 922        TOTAL FREE ENERGY PREDICTED BY IDOCK:   -8.36 KCAL/MOL
REMARK 923 INTER-LIGAND FREE ENERGY PREDICTED BY IDOCK:   -6.47 KCAL/MOL
REMARK 924 INTRA-LIGAND FREE ENERGY PREDICTED BY IDOCK:   -1.89 KCAL/MOL
REMARK 927      BINDING AFFINITY PREDICTED BY RF-SCORE:    0.00 PKD
ROOT
HETATM    1  C   UNL     1     -10.380   7.921  66.750  1.00  0.00    -0.357 C  
HETATM    2  C   UNL     1     -10.797   8.675  68.006  1.00  0.00     0.025 C  
ENDROOT
BRANCH   2   3
HETATM    3  O   UNL     1     -11.071  10.048  67.695  1.00  0.00    -0.285 OA 
BRANCH   3   4
HETATM    4  C   UNL     1     -10.919  10.945  68.698  1.00  0.00    -0.227 C  
HETATM    5  O   UNL     1     -11.289  10.728  69.841  1.00  0.00    -0.265 OA 
BRANCH   4   6
HETATM    6  C   UNL     1     -10.209  12.193  68.241  1.00  0.00    -0.209 C  
HETATM    7  C   UNL     1     -10.824  13.180  67.534  1.00  0.00    -0.255 C  
HETATM    8  C   UNL     1      -8.017  13.551  67.942  1.00  0.00    -0.162 C  
HETATM    9  N   UNL     1     -10.120  14.309  67.158  1.00  0.00    -0.252 NA 
HETATM   10  C   UNL     1      -8.756  14.474  67.276  1.00  0.00    -0.210 C  
HETATM   11  C   UNL     1      -8.702  12.335  68.611  1.00  0.00     0.021 C  
HETATM   12  C   UNL     1      -8.205  15.734  66.648  1.00  0.00    -0.305 C  
BRANCH   7  13
HETATM   13  C   UNL     1     -12.276  13.150  67.081  1.00  0.00    -0.191 C  
BRANCH  13  14
HETATM   14  O   UNL     1     -12.431  13.464  65.686  1.00  0.00    -0.456 OA 
BRANCH  14  15
HETATM   15  C   UNL     1     -12.073  12.293  64.923  1.00  0.00    -0.356 C  
BRANCH  15  16
HETATM   16  C   UNL     1     -12.070  12.597  63.426  1.00  0.00    -0.525 C  
HETATM   17  N   UNL     1     -12.411  13.999  63.177  1.00  0.00    -1.094 NA 
HETATM   18  H2  UNL     1     -11.799  14.633  63.691  1.00  0.00     0.000 HD 
HETATM   19  H1  UNL     1     -12.409  14.203  62.178  1.00  0.00     0.000 HD 
ENDBRANCH  15  16
ENDBRANCH  14  15
ENDBRANCH  13  14
ENDBRANCH   7  13
BRANCH   8  20
HETATM   20  C   UNL     1      -6.539  13.732  68.030  1.00  0.00    -0.142 C  
HETATM   21  O   UNL     1      -5.743  13.288  67.214  1.00  0.00    -0.352 OA 
BRANCH  20  22
HETATM   22  O   UNL     1      -6.187  14.452  69.123  1.00  0.00    -0.090 OA 
HETATM   23  C   UNL     1      -5.789  13.663  70.251  1.00  0.00    -0.155 C  
ENDBRANCH  20  22
ENDBRANCH   8  20
BRANCH  11  24
HETATM   24  C   UNL     1      -7.920  11.027  68.415  1.00  0.00    -0.131 A  
HETATM   25  C   UNL     1      -7.290  10.411  69.515  1.00  0.00    -0.144 A  
HETATM   26  C   UNL     1      -6.492   9.276  69.341  1.00  0.00    -0.044 A  
HETATM   27  C   UNL     1      -6.315   8.724  68.076  1.00  0.00    -0.056 A  
HETATM   28  C   UNL     1      -6.939   9.308  66.977  1.00  0.00    -0.085 A  
HETATM   29  C   UNL     1      -7.731  10.451  67.137  1.00  0.00    -0.100 A  
HETATM   30 CL   UNL     1      -8.411  11.127  65.694  1.00  0.00    -0.066 Cl 
ENDBRANCH  11  24
ENDBRANCH   4   6
ENDBRANCH   3   4
ENDBRANCH   2   3
TORSDOF 10
ENDMDL
MODEL       79
REMARK 921   NORMALIZED FREE ENERGY PREDICTED BY IDOCK:   -4.28 KCAL/MOL
REMARK 922        TOTAL FREE ENERGY PREDICTED BY IDOCK:   -8.33 KCAL/MOL
REMARK 923 INTER-LIGAND FREE ENERGY PREDICTED BY IDOCK:   -7.28 KCAL/MOL
REMARK 924 INTRA-LIGAND FREE ENERGY PREDICTED BY IDOCK:   -1.05 KCAL/MOL
REMARK 927      BINDING AFFINITY PREDICTED BY RF-SCORE:    0.00 PKD
ROOT
HETATM    1  C   UNL     1     -12.406  15.565  70.451  1.00  0.00    -0.451 C  
HETATM    2  C   UNL     1     -11.972  14.109  70.339  1.00  0.00    -0.330 C  
ENDROOT
BRANCH   2   3
HETATM    3  O   UNL     1     -11.569  13.811  68.996  1.00  0.00    -0.267 OA 
BRANCH   3   4
HETATM    4  C   UNL     1     -10.248  13.598  68.786  1.00  0.00    -0.149 C  
HETATM    5  O   UNL     1      -9.380  14.097  69.483  1.00  0.00     0.348 OA 
BRANCH   4   6
HETATM    6  C   UNL     1     -10.002  12.650  67.641  1.00  0.00    -0.216 C  
HETATM    7  C   UNL     1     -10.029  13.038  66.338  1.00  0.00    -0.277 C  
HETATM    8  C   UNL     1      -9.647  10.235  66.758  1.00  0.00    -0.214 C  
HETATM    9  N   UNL     1      -9.777  12.122  65.333  1.00  0.00    -0.207 NA 
HETATM   10  C   UNL     1      -9.668  10.758  65.507  1.00  0.00    -0.239 C  
HETATM   11  C   UNL     1      -9.701  11.162  67.996  1.00  0.00    -0.183 C  
HETATM   12  C   UNL     1      -9.548   9.956  64.231  1.00  0.00    -0.220 C  
BRANCH   7  13
HETATM   13  C   UNL     1     -10.342  14.447  65.856  1.00  0.00    -0.314 C  
BRANCH  13  14
HETATM   14  O   UNL     1     -10.766  14.484  64.481  1.00  0.00    -0.356 OA 
BRANCH  14  15
HETATM   15  C   UNL     1     -12.139  14.048  64.427  1.00  0.00    -0.458 C  
BRANCH  15  16
HETATM   16  C   UNL     1     -12.406  13.246  63.154  1.00  0.00    -0.079 C  
HETATM   17  N   UNL     1     -12.447  11.810  63.439  1.00  0.00    -0.814 NA 
HETATM   18  H2  UNL     1     -13.123  11.591  64.171  1.00  0.00     0.000 HD 
HETATM   19  H1  UNL     1     -12.625  11.275  62.590  1.00  0.00     0.000 HD 
ENDBRANCH  15  16
ENDBRANCH  14  15
ENDBRANCH  13  14
ENDBRANCH   7  13
BRANCH   8  20
HETATM   20  C   UNL     1      -9.562   8.754  66.923  1.00  0.00    -0.190 C  
HETATM   21  O   UNL     1     -10.520   7.999  66.852  1.00  0.00    -0.330 OA 
BRANCH  20  22
HETATM   22  O   UNL     1      -8.289   8.351  67.158  1.00  0.00    -0.120 OA 
HETATM   23  C   UNL     1      -7.824   7.313  66.287  1.00  0.00    -0.106 C  
ENDBRANCH  20  22
ENDBRANCH   8  20
BRANCH  11  24
HETATM   24  C   UNL     1     -10.615  10.624  69.107  1.00  0.00    -0.256 A  
HETATM   25  C   UNL     1     -11.996  10.904  69.081  1.00  0.00    -0.359 A  
HETATM   26  C   UNL     1     -12.828  10.509  70.132  1.00  0.00    -0.122 A  
HETATM   27  C   UNL     1     -12.308   9.818  71.223  1.00  0.00    -0.465 A  
HETATM   28  C   UNL     1     -10.949   9.518  71.263  1.00  0.00    -0.440 A  
HETATM   29  C   UNL     1     -10.105   9.919  70.221  1.00  0.00    -0.237 A  
HETATM   30 CL   UNL     1      -8.423   9.545  70.405  1.00  0.00    -0.233 Cl 
ENDBRANCH  11  24
ENDBRANCH   4   6
ENDBRANCH   3   4
ENDBRANCH   2   3
TORSDOF 10
ENDMDL
MODEL       80
REMARK 921   NORMALIZED FREE ENERGY PREDICTED BY IDOCK:   -4.27 KCAL/MOL
REMARK 922        TOTAL FREE ENERGY PREDICTED BY IDOCK:   -8.33 KCAL/MOL
REMARK 923 INTER-LIGAND FREE ENERGY PREDICTED BY IDOCK:   -6.49 KCAL/MOL
REMARK 924 INTRA-LIGAND FREE ENERGY PREDICTED BY IDOCK:   -1.83 KCAL/MOL
REMARK 927      BINDING AFFINITY PREDICTED BY RF-SCORE:    0.00 PKD
ROOT
HETATM    1  C   UNL     1      -7.284  16.950  69.058  1.00  0.00    -0.232 C  
HETATM    2  C   UNL     1      -6.363  15.826  69.516  1.00  0.00    -0.171 C  
ENDROOT
BRANCH   2   3
HETATM    3  O   UNL     1      -6.937  14.551  69.198  1.00  0.00    -0.116 OA 
BRANCH   3   4
HETATM    4  C   UNL     1      -6.843  14.141  67.911  1.00  0.00    -0.165 C  
HETATM    5  O   UNL     1      -6.099  14.670  67.101  1.00  0.00    -0.216 OA 
BRANCH   4   6
HETATM    6  C   UNL     1      -7.719  12.947  67.631  1.00  0.00    -0.162 C  
HETATM    7  C   UNL     1      -7.234  11.765  67.164  1.00  0.00    -0.147 C  
HETATM    8  C   UNL     1     -10.081  11.893  67.410  1.00  0.00    -0.211 C  
HETATM    9  N   UNL     1      -8.089  10.700  66.943  1.00  0.00    -0.120 NA 
HETATM   10  C   UNL     1      -9.466  10.763  66.981  1.00  0.00    -0.164 C  
HETATM   11  C   UNL     1      -9.246  13.101  67.901  1.00  0.00    -0.207 C  
HETATM   12  C   UNL     1     -10.178   9.501  66.548  1.00  0.00    -0.307 C  
BRANCH   7  13
HETATM   13  C   UNL     1      -5.775  11.495  66.829  1.00  0.00    -0.139 C  
BRANCH  13  14
HETATM   14  O   UNL     1      -5.590  10.273  66.091  1.00  0.00    -0.053 OA 
BRANCH  14  15
HETATM   15  C   UNL     1      -5.425  10.615  64.699  1.00  0.00    -0.106 C  
BRANCH  15  16
HETATM   16  C   UNL     1      -6.453   9.887  63.834  1.00  0.00    -0.126 C  
HETATM   17  N   UNL     1      -7.676  10.679  63.696  1.00  0.00    -0.352 NA 
HETATM   18  H2  UNL     1      -7.480  11.615  63.341  1.00  0.00     0.000 HD 
HETATM   19  H1  UNL     1      -8.362  10.194  63.119  1.00  0.00     0.000 HD 
ENDBRANCH  15  16
ENDBRANCH  14  15
ENDBRANCH  13  14
ENDBRANCH   7  13
BRANCH   8  20
HETATM   20  C   UNL     1     -11.572  11.951  67.412  1.00  0.00    -0.297 C  
HETATM   21  O   UNL     1     -12.242  12.438  66.511  1.00  0.00    -0.586 OA 
BRANCH  20  22
HETATM   22  O   UNL     1     -12.092  11.396  68.533  1.00  0.00    -0.550 OA 
HETATM   23  C   UNL     1     -12.260  12.307  69.626  1.00  0.00    -0.111 C  
ENDBRANCH  20  22
ENDBRANCH   8  20
BRANCH  11  24
HETATM   24  C   UNL     1      -9.799  14.448  67.412  1.00  0.00    -0.224 A  
HETATM   25  C   UNL     1      -9.718  14.789  66.048  1.00  0.00    -0.350 A  
HETATM   26  C   UNL     1     -10.125  16.050  65.598  1.00  0.00    -0.384 A  
HETATM   27  C   UNL     1     -10.630  16.989  66.492  1.00  0.00    -0.172 A  
HETATM   28  C   UNL     1     -10.732  16.668  67.843  1.00  0.00    -0.344 A  
HETATM   29  C   UNL     1     -10.318  15.413  68.305  1.00  0.00    -0.238 A  
HETATM   30 CL   UNL     1     -10.435  15.144  70.013  1.00  0.00    -0.243 Cl 
ENDBRANCH  11  24
ENDBRANCH   4   6
ENDBRANCH   3   4
ENDBRANCH   2   3
TORSDOF 10
ENDMDL
MODEL       81
REMARK 921   NORMALIZED FREE ENERGY PREDICTED BY IDOCK:   -4.26 KCAL/MOL
REMARK 922        TOTAL FREE ENERGY PREDICTED BY IDOCK:   -8.31 KCAL/MOL
REMARK 923 INTER-LIGAND FREE ENERGY PREDICTED BY IDOCK:   -6.67 KCAL/MOL
REMARK 924 INTRA-LIGAND FREE ENERGY PREDICTED BY IDOCK:   -1.64 KCAL/MOL
REMARK 927      BINDING AFFINITY PREDICTED BY RF-SCORE:    0.00 PKD
ROOT
HETATM    1  C   UNL     1      -5.289   8.103  70.151  1.00  0.00    -0.023 C  
HETATM    2  C   UNL     1      -6.430   8.927  70.735  1.00  0.00    -0.052 C  
ENDROOT
BRANCH   2   3
HETATM    3  O   UNL     1      -7.387   8.070  71.372  1.00  0.00    -0.062 OA 
BRANCH   3   4
HETATM    4  C   UNL     1      -8.456   7.689  70.632  1.00  0.00    -0.127 C  
HETATM    5  O   UNL     1      -8.411   6.769  69.831  1.00  0.00    -0.136 OA 
BRANCH   4   6
HETATM    6  C   UNL     1      -9.686   8.497  70.955  1.00  0.00    -0.231 C  
HETATM    7  C   UNL     1     -10.583   8.133  71.910  1.00  0.00    -0.260 C  
HETATM    8  C   UNL     1     -11.289  10.466  70.414  1.00  0.00    -0.417 C  
HETATM    9  N   UNL     1     -11.685   8.928  72.170  1.00  0.00    -0.362 NA 
HETATM   10  C   UNL     1     -12.084  10.010  71.414  1.00  0.00    -0.407 C  
HETATM   11  C   UNL     1      -9.914   9.809  70.144  1.00  0.00    -0.315 C  
HETATM   12  C   UNL     1     -13.409  10.618  71.813  1.00  0.00    -0.437 C  
BRANCH   7  13
HETATM   13  C   UNL     1     -10.496   6.865  72.747  1.00  0.00    -0.224 C  
BRANCH  13  14
HETATM   14  O   UNL     1     -10.914   5.692  72.025  1.00  0.00    -0.245 OA 
BRANCH  14  15
HETATM   15  C   UNL     1     -10.252   4.551  72.608  1.00  0.00    -0.179 C  
BRANCH  15  16
HETATM   16  C   UNL     1      -9.798   3.573  71.525  1.00  0.00    -0.149 C  
HETATM   17  N   UNL     1      -9.883   4.186  70.198  1.00  0.00    -0.209 NA 
HETATM   18  H2  UNL     1      -9.365   5.063  70.154  1.00  0.00     0.000 HD 
HETATM   19  H1  UNL     1      -9.580   3.534  69.475  1.00  0.00     0.000 HD 
ENDBRANCH  15  16
ENDBRANCH  14  15
ENDBRANCH  13  14
ENDBRANCH   7  13
BRANCH   8  20
HETATM   20  C   UNL     1     -11.755  11.617  69.586  1.00  0.00    -0.350 C  
HETATM   21  O   UNL     1     -11.675  12.788  69.931  1.00  0.00    -0.302 OA 
BRANCH  20  22
HETATM   22  O   UNL     1     -12.274  11.205  68.404  1.00  0.00    -0.610 OA 
HETATM   23  C   UNL     1     -11.858  11.977  67.271  1.00  0.00    -0.187 C  
ENDBRANCH  20  22
ENDBRANCH   8  20
BRANCH  11  24
HETATM   24  C   UNL     1      -9.619   9.635  68.646  1.00  0.00    -0.154 A  
HETATM   25  C   UNL     1     -10.300   8.652  67.903  1.00  0.00    -0.286 A  
HETATM   26  C   UNL     1      -9.976   8.411  66.564  1.00  0.00    -0.335 A  
HETATM   27  C   UNL     1      -8.977   9.150  65.936  1.00  0.00    -0.231 A  
HETATM   28  C   UNL     1      -8.300  10.137  66.647  1.00  0.00    -0.123 A  
HETATM   29  C   UNL     1      -8.610  10.378  67.991  1.00  0.00    -0.123 A  
HETATM   30 CL   UNL     1      -7.663  11.588  68.794  1.00  0.00    -0.137 Cl 
ENDBRANCH  11  24
ENDBRANCH   4   6
ENDBRANCH   3   4
ENDBRANCH   2   3
TORSDOF 10
ENDMDL
MODEL       82
REMARK 921   NORMALIZED FREE ENERGY PREDICTED BY IDOCK:   -4.25 KCAL/MOL
REMARK 922        TOTAL FREE ENERGY PREDICTED BY IDOCK:   -8.30 KCAL/MOL
REMARK 923 INTER-LIGAND FREE ENERGY PREDICTED BY IDOCK:   -6.86 KCAL/MOL
REMARK 924 INTRA-LIGAND FREE ENERGY PREDICTED BY IDOCK:   -1.44 KCAL/MOL
REMARK 927      BINDING AFFINITY PREDICTED BY RF-SCORE:    0.00 PKD
ROOT
HETATM    1  C   UNL     1      -8.363   8.298  71.845  1.00  0.00    -0.206 C  
HETATM    2  C   UNL     1      -8.451   8.178  70.329  1.00  0.00    -0.126 C  
ENDROOT
BRANCH   2   3
HETATM    3  O   UNL     1      -8.561   9.476  69.732  1.00  0.00    -0.155 OA 
BRANCH   3   4
HETATM    4  C   UNL     1      -9.487   9.625  68.756  1.00  0.00    -0.148 C  
HETATM    5  O   UNL     1      -9.866   8.699  68.057  1.00  0.00    -0.157 OA 
BRANCH   4   6
HETATM    6  C   UNL     1     -10.011  11.036  68.681  1.00  0.00    -0.205 C  
HETATM    7  C   UNL     1     -11.057  11.480  69.429  1.00  0.00    -0.226 C  
HETATM    8  C   UNL     1     -10.022  13.374  67.553  1.00  0.00    -0.230 C  
HETATM    9  N   UNL     1     -11.479  12.793  69.327  1.00  0.00    -0.288 NA 
HETATM   10  C   UNL     1     -11.048  13.697  68.379  1.00  0.00    -0.264 C  
HETATM   11  C   UNL     1      -9.301  12.012  67.695  1.00  0.00    -0.185 C  
HETATM   12  C   UNL     1     -11.776  15.022  68.378  1.00  0.00    -0.341 C  
BRANCH   7  13
HETATM   13  C   UNL     1     -11.856  10.624  70.401  1.00  0.00    -0.349 C  
BRANCH  13  14
HETATM   14  O   UNL     1     -13.128  11.204  70.738  1.00  0.00    -0.199 OA 
BRANCH  14  15
HETATM   15  C   UNL     1     -13.016  11.796  72.048  1.00  0.00    -0.265 C  
BRANCH  15  16
HETATM   16  C   UNL     1     -13.750  13.135  72.106  1.00  0.00    -0.495 C  
HETATM   17  N   UNL     1     -12.834  14.246  71.842  1.00  0.00    -0.335 NA 
HETATM   18  H2  UNL     1     -12.340  14.126  70.959  1.00  0.00     0.000 HD 
HETATM   19  H1  UNL     1     -13.323  15.140  71.881  1.00  0.00     0.000 HD 
ENDBRANCH  15  16
ENDBRANCH  14  15
ENDBRANCH  13  14
ENDBRANCH   7  13
BRANCH   8  20
HETATM   20  C   UNL     1      -9.594  14.354  66.512  1.00  0.00    -0.293 C  
HETATM   21  O   UNL     1      -8.683  15.157  66.659  1.00  0.00    -0.262 OA 
BRANCH  20  22
HETATM   22  O   UNL     1     -10.336  14.242  65.384  1.00  0.00    -0.327 OA 
HETATM   23  C   UNL     1     -10.904  15.474  64.922  1.00  0.00    -0.427 C  
ENDBRANCH  20  22
ENDBRANCH   8  20
BRANCH  11  24
HETATM   24  C   UNL     1      -8.986  11.358  66.341  1.00  0.00    -0.196 A  
HETATM   25  C   UNL     1     -10.029  11.066  65.441  1.00  0.00    -0.313 A  
HETATM   26  C   UNL     1      -9.776  10.382  64.248  1.00  0.00    -0.389 A  
HETATM   27  C   UNL     1      -8.482   9.986  63.922  1.00  0.00    -0.179 A  
HETATM   28  C   UNL     1      -7.434  10.276  64.790  1.00  0.00    -0.103 A  
HETATM   29  C   UNL     1      -7.677  10.951  65.992  1.00  0.00    -0.107 A  
HETATM   30 CL   UNL     1      -6.309  11.206  67.024  1.00  0.00    -0.086 Cl 
ENDBRANCH  11  24
ENDBRANCH   4   6
ENDBRANCH   3   4
ENDBRANCH   2   3
TORSDOF 10
ENDMDL
MODEL       83
REMARK 921   NORMALIZED FREE ENERGY PREDICTED BY IDOCK:   -4.25 KCAL/MOL
REMARK 922        TOTAL FREE ENERGY PREDICTED BY IDOCK:   -8.29 KCAL/MOL
REMARK 923 INTER-LIGAND FREE ENERGY PREDICTED BY IDOCK:   -6.32 KCAL/MOL
REMARK 924 INTRA-LIGAND FREE ENERGY PREDICTED BY IDOCK:   -1.96 KCAL/MOL
REMARK 927      BINDING AFFINITY PREDICTED BY RF-SCORE:    0.00 PKD
ROOT
HETATM    1  C   UNL     1     -12.209  12.781  70.559  1.00  0.00    -0.389 C  
HETATM    2  C   UNL     1     -12.625  11.344  70.850  1.00  0.00    -0.356 C  
ENDROOT
BRANCH   2   3
HETATM    3  O   UNL     1     -12.140  10.469  69.824  1.00  0.00    -0.274 OA 
BRANCH   3   4
HETATM    4  C   UNL     1     -10.986   9.808  70.077  1.00  0.00    -0.277 C  
HETATM    5  O   UNL     1     -10.471   9.777  71.183  1.00  0.00    -0.274 OA 
BRANCH   4   6
HETATM    6  C   UNL     1     -10.461   9.094  68.858  1.00  0.00    -0.239 C  
HETATM    7  C   UNL     1     -10.268   7.749  68.811  1.00  0.00    -0.201 C  
HETATM    8  C   UNL     1      -9.432   9.173  66.476  1.00  0.00    -0.266 C  
HETATM    9  N   UNL     1      -9.800   7.152  67.655  1.00  0.00    -0.141 NA 
HETATM   10  C   UNL     1      -9.320   7.823  66.550  1.00  0.00    -0.189 C  
HETATM   11  C   UNL     1     -10.136   9.963  67.605  1.00  0.00    -0.241 C  
HETATM   12  C   UNL     1      -8.719   6.944  65.476  1.00  0.00    -0.041 C  
BRANCH   7  13
HETATM   13  C   UNL     1     -10.514   6.794  69.970  1.00  0.00    -0.210 C  
BRANCH  13  14
HETATM   14  O   UNL     1      -9.387   6.699  70.861  1.00  0.00    -0.157 OA 
BRANCH  14  15
HETATM   15  C   UNL     1      -9.891   6.460  72.191  1.00  0.00    -0.158 C  
BRANCH  15  16
HETATM   16  C   UNL     1     -11.413   6.580  72.227  1.00  0.00    -0.289 C  
HETATM   17  N   UNL     1     -11.828   7.738  73.022  1.00  0.00    -0.631 NA 
HETATM   18  H2  UNL     1     -11.391   8.597  72.692  1.00  0.00     0.000 HD 
HETATM   19  H1  UNL     1     -12.844   7.818  73.047  1.00  0.00     0.000 HD 
ENDBRANCH  15  16
ENDBRANCH  14  15
ENDBRANCH  13  14
ENDBRANCH   7  13
BRANCH   8  20
HETATM   20  C   UNL     1      -8.877   9.882  65.286  1.00  0.00    -0.181 C  
HETATM   21  O   UNL     1      -7.734  10.311  65.214  1.00  0.00    -0.141 OA 
BRANCH  20  22
HETATM   22  O   UNL     1      -9.795   9.989  64.295  1.00  0.00    -0.280 OA 
HETATM   23  C   UNL     1     -10.395  11.285  64.178  1.00  0.00    -0.351 C  
ENDBRANCH  20  22
ENDBRANCH   8  20
BRANCH  11  24
HETATM   24  C   UNL     1      -9.409  11.268  67.964  1.00  0.00    -0.166 A  
HETATM   25  C   UNL     1     -10.029  12.509  67.720  1.00  0.00    -0.210 A  
HETATM   26  C   UNL     1      -9.347  13.709  67.947  1.00  0.00    -0.206 A  
HETATM   27  C   UNL     1      -8.041  13.698  68.430  1.00  0.00    -0.146 A  
HETATM   28  C   UNL     1      -7.414  12.483  68.691  1.00  0.00    -0.090 A  
HETATM   29  C   UNL     1      -8.084  11.276  68.457  1.00  0.00    -0.148 A  
HETATM   30 CL   UNL     1      -7.186   9.825  68.760  1.00  0.00    -0.071 Cl 
ENDBRANCH  11  24
ENDBRANCH   4   6
ENDBRANCH   3   4
ENDBRANCH   2   3
TORSDOF 10
ENDMDL
MODEL       84
REMARK 921   NORMALIZED FREE ENERGY PREDICTED BY IDOCK:   -4.24 KCAL/MOL
REMARK 922        TOTAL FREE ENERGY PREDICTED BY IDOCK:   -8.27 KCAL/MOL
REMARK 923 INTER-LIGAND FREE ENERGY PREDICTED BY IDOCK:   -6.06 KCAL/MOL
REMARK 924 INTRA-LIGAND FREE ENERGY PREDICTED BY IDOCK:   -2.22 KCAL/MOL
REMARK 927      BINDING AFFINITY PREDICTED BY RF-SCORE:    0.00 PKD
ROOT
HETATM    1  C   UNL     1      -9.453   5.066  70.928  1.00  0.00    -0.222 C  
HETATM    2  C   UNL     1      -8.820   4.520  69.654  1.00  0.00    -0.084 C  
ENDROOT
BRANCH   2   3
HETATM    3  O   UNL     1      -8.671   5.565  68.684  1.00  0.00    -0.108 OA 
BRANCH   3   4
HETATM    4  C   UNL     1      -9.776   5.909  67.980  1.00  0.00    -0.119 C  
HETATM    5  O   UNL     1     -10.775   5.209  67.936  1.00  0.00    -0.034 OA 
BRANCH   4   6
HETATM    6  C   UNL     1      -9.630   7.254  67.316  1.00  0.00    -0.191 C  
HETATM    7  C   UNL     1      -8.928   7.442  66.167  1.00  0.00    -0.149 C  
HETATM    8  C   UNL     1      -9.971   9.827  67.352  1.00  0.00    -0.239 C  
HETATM    9  N   UNL     1      -8.846   8.700  65.599  1.00  0.00    -0.185 NA 
HETATM   10  C   UNL     1      -9.273   9.871  66.189  1.00  0.00    -0.168 C  
HETATM   11  C   UNL     1     -10.330   8.468  67.999  1.00  0.00    -0.272 C  
HETATM   12  C   UNL     1      -8.930  11.134  65.433  1.00  0.00    -0.154 C  
BRANCH   7  13
HETATM   13  C   UNL     1      -8.172   6.352  65.421  1.00  0.00    -0.142 C  
BRANCH  13  14
HETATM   14  O   UNL     1      -8.948   5.762  64.362  1.00  0.00     0.149 OA 
BRANCH  14  15
HETATM   15  C   UNL     1      -8.743   4.335  64.401  1.00  0.00    -0.139 C  
BRANCH  15  16
HETATM   16  C   UNL     1      -9.970   3.625  64.973  1.00  0.00    -0.110 C  
HETATM   17  N   UNL     1     -11.166   4.459  64.840  1.00  0.00    -1.034 NA 
HETATM   18  H2  UNL     1     -11.316   4.751  63.875  1.00  0.00     0.000 HD 
HETATM   19  H1  UNL     1     -11.985   3.985  65.221  1.00  0.00     0.000 HD 
ENDBRANCH  15  16
ENDBRANCH  14  15
ENDBRANCH  13  14
ENDBRANCH   7  13
BRANCH   8  20
HETATM   20  C   UNL     1     -10.395  11.107  67.991  1.00  0.00    -0.185 C  
HETATM   21  O   UNL     1      -9.686  11.772  68.732  1.00  0.00    -0.168 OA 
BRANCH  20  22
HETATM   22  O   UNL     1     -11.662  11.441  67.646  1.00  0.00    -0.546 OA 
HETATM   23  C   UNL     1     -11.805  12.767  67.122  1.00  0.00    -0.350 C  
ENDBRANCH  20  22
ENDBRANCH   8  20
BRANCH  11  24
HETATM   24  C   UNL     1     -10.156   8.468  69.525  1.00  0.00    -0.200 A  
HETATM   25  C   UNL     1     -11.280   8.321  70.362  1.00  0.00    -0.222 A  
HETATM   26  C   UNL     1     -11.157   8.417  71.752  1.00  0.00    -0.358 A  
HETATM   27  C   UNL     1      -9.916   8.649  72.336  1.00  0.00    -0.320 A  
HETATM   28  C   UNL     1      -8.790   8.784  71.529  1.00  0.00    -0.295 A  
HETATM   29  C   UNL     1      -8.903   8.700  70.137  1.00  0.00    -0.141 A  
HETATM   30 CL   UNL     1      -7.446   8.942  69.229  1.00  0.00    -0.073 Cl 
ENDBRANCH  11  24
ENDBRANCH   4   6
ENDBRANCH   3   4
ENDBRANCH   2   3
TORSDOF 10
ENDMDL
MODEL       85
REMARK 921   NORMALIZED FREE ENERGY PREDICTED BY IDOCK:   -4.21 KCAL/MOL
REMARK 922        TOTAL FREE ENERGY PREDICTED BY IDOCK:   -8.23 KCAL/MOL
REMARK 923 INTER-LIGAND FREE ENERGY PREDICTED BY IDOCK:   -6.32 KCAL/MOL
REMARK 924 INTRA-LIGAND FREE ENERGY PREDICTED BY IDOCK:   -1.91 KCAL/MOL
REMARK 927      BINDING AFFINITY PREDICTED BY RF-SCORE:    0.00 PKD
ROOT
HETATM    1  C   UNL     1     -11.535   6.716  70.001  1.00  0.00    -0.434 C  
HETATM    2  C   UNL     1     -10.793   8.015  70.291  1.00  0.00    -0.241 C  
ENDROOT
BRANCH   2   3
HETATM    3  O   UNL     1     -10.899   8.909  69.175  1.00  0.00    -0.182 OA 
BRANCH   3   4
HETATM    4  C   UNL     1      -9.816   9.672  68.897  1.00  0.00    -0.174 C  
HETATM    5  O   UNL     1      -9.053  10.076  69.760  1.00  0.00    -0.215 OA 
BRANCH   4   6
HETATM    6  C   UNL     1      -9.654   9.910  67.418  1.00  0.00    -0.185 C  
HETATM    7  C   UNL     1     -10.340  10.870  66.742  1.00  0.00    -0.241 C  
HETATM    8  C   UNL     1      -8.684   9.195  65.119  1.00  0.00    -0.228 C  
HETATM    9  N   UNL     1     -10.134  11.049  65.386  1.00  0.00    -0.255 NA 
HETATM   10  C   UNL     1      -9.402  10.209  64.573  1.00  0.00    -0.289 C  
HETATM   11  C   UNL     1      -8.644   9.002  66.654  1.00  0.00    -0.134 C  
HETATM   12  C   UNL     1      -9.457  10.535  63.098  1.00  0.00    -0.367 C  
BRANCH   7  13
HETATM   13  C   UNL     1     -11.376  11.798  67.360  1.00  0.00    -0.311 C  
BRANCH  13  14
HETATM   14  O   UNL     1     -11.141  13.182  67.045  1.00  0.00    -0.268 OA 
BRANCH  14  15
HETATM   15  C   UNL     1     -12.395  13.764  66.634  1.00  0.00    -0.357 C  
BRANCH  15  16
HETATM   16  C   UNL     1     -12.513  13.782  65.110  1.00  0.00    -0.450 C  
HETATM   17  N   UNL     1     -13.112  12.540  64.617  1.00  0.00    -0.837 NA 
HETATM   18  H2  UNL     1     -14.009  12.352  65.062  1.00  0.00     0.000 HD 
HETATM   19  H1  UNL     1     -13.191  12.551  63.601  1.00  0.00     0.000 HD 
ENDBRANCH  15  16
ENDBRANCH  14  15
ENDBRANCH  13  14
ENDBRANCH   7  13
BRANCH   8  20
HETATM   20  C   UNL     1      -7.927   8.277  64.219  1.00  0.00    -0.148 C  
HETATM   21  O   UNL     1      -8.449   7.521  63.412  1.00  0.00     0.084 OA 
BRANCH  20  22
HETATM   22  O   UNL     1      -6.589   8.387  64.404  1.00  0.00    -0.066 OA 
HETATM   23  C   UNL     1      -5.918   9.197  63.431  1.00  0.00    -0.088 C  
ENDBRANCH  20  22
ENDBRANCH   8  20
BRANCH  11  24
HETATM   24  C   UNL     1      -8.741   7.528  67.073  1.00  0.00    -0.127 A  
HETATM   25  C   UNL     1      -9.799   6.728  66.597  1.00  0.00    -0.214 A  
HETATM   26  C   UNL     1      -9.962   5.413  67.044  1.00  0.00    -0.204 A  
HETATM   27  C   UNL     1      -9.072   4.864  67.963  1.00  0.00    -0.131 A  
HETATM   28  C   UNL     1      -8.012   5.632  68.437  1.00  0.00    -0.100 A  
HETATM   29  C   UNL     1      -7.845   6.952  68.004  1.00  0.00    -0.114 A  
HETATM   30 CL   UNL     1      -6.527   7.833  68.704  1.00  0.00    -0.047 Cl 
ENDBRANCH  11  24
ENDBRANCH   4   6
ENDBRANCH   3   4
ENDBRANCH   2   3
TORSDOF 10
ENDMDL
MODEL       86
REMARK 921   NORMALIZED FREE ENERGY PREDICTED BY IDOCK:   -4.21 KCAL/MOL
REMARK 922        TOTAL FREE ENERGY PREDICTED BY IDOCK:   -8.22 KCAL/MOL
REMARK 923 INTER-LIGAND FREE ENERGY PREDICTED BY IDOCK:   -6.78 KCAL/MOL
REMARK 924 INTRA-LIGAND FREE ENERGY PREDICTED BY IDOCK:   -1.44 KCAL/MOL
REMARK 927      BINDING AFFINITY PREDICTED BY RF-SCORE:    0.00 PKD
ROOT
HETATM    1  C   UNL     1     -12.017  13.804  63.922  1.00  0.00    -0.414 C  
HETATM    2  C   UNL     1     -10.654  13.708  64.596  1.00  0.00    -0.430 C  
ENDROOT
BRANCH   2   3
HETATM    3  O   UNL     1     -10.710  14.266  65.915  1.00  0.00    -0.291 OA 
BRANCH   3   4
HETATM    4  C   UNL     1      -9.781  13.837  66.802  1.00  0.00    -0.275 C  
HETATM    5  O   UNL     1      -8.647  14.286  66.840  1.00  0.00    -0.209 OA 
BRANCH   4   6
HETATM    6  C   UNL     1     -10.332  12.796  67.741  1.00  0.00    -0.222 C  
HETATM    7  C   UNL     1     -10.942  13.106  68.916  1.00  0.00    -0.230 C  
HETATM    8  C   UNL     1     -10.609  10.308  68.427  1.00  0.00    -0.247 C  
HETATM    9  N   UNL     1     -11.442  12.103  69.727  1.00  0.00    -0.233 NA 
HETATM   10  C   UNL     1     -11.226  10.753  69.550  1.00  0.00    -0.281 C  
HETATM   11  C   UNL     1     -10.185  11.302  67.320  1.00  0.00    -0.226 C  
HETATM   12  C   UNL     1     -11.747   9.868  70.660  1.00  0.00    -0.404 C  
BRANCH   7  13
HETATM   13  C   UNL     1     -11.120  14.516  69.459  1.00  0.00    -0.253 C  
BRANCH  13  14
HETATM   14  O   UNL     1     -12.463  15.008  69.301  1.00  0.00    -0.127 OA 
BRANCH  14  15
HETATM   15  C   UNL     1     -13.063  15.092  70.610  1.00  0.00    -0.319 C  
BRANCH  15  16
HETATM   16  C   UNL     1     -11.999  15.314  71.684  1.00  0.00    -0.372 C  
HETATM   17  N   UNL     1     -12.541  15.055  73.019  1.00  0.00    -0.405 NA 
HETATM   18  H2  UNL     1     -12.953  14.125  73.084  1.00  0.00     0.000 HD 
HETATM   19  H1  UNL     1     -11.831  15.204  73.736  1.00  0.00     0.000 HD 
ENDBRANCH  15  16
ENDBRANCH  14  15
ENDBRANCH  13  14
ENDBRANCH   7  13
BRANCH   8  20
HETATM   20  C   UNL     1     -10.356   8.846  68.270  1.00  0.00    -0.206 C  
HETATM   21  O   UNL     1     -10.899   8.140  67.432  1.00  0.00    -0.226 OA 
BRANCH  20  22
HETATM   22  O   UNL     1      -9.447   8.397  69.170  1.00  0.00    -0.154 OA 
HETATM   23  C   UNL     1      -9.502   6.987  69.418  1.00  0.00    -0.145 C  
ENDBRANCH  20  22
ENDBRANCH   8  20
BRANCH  11  24
HETATM   24  C   UNL     1      -8.800  10.988  66.733  1.00  0.00    -0.158 A  
HETATM   25  C   UNL     1      -7.639  11.255  67.485  1.00  0.00    -0.110 A  
HETATM   26  C   UNL     1      -6.368  11.070  66.932  1.00  0.00    -0.104 A  
HETATM   27  C   UNL     1      -6.226  10.605  65.628  1.00  0.00    -0.115 A  
HETATM   28  C   UNL     1      -7.360  10.322  64.871  1.00  0.00    -0.110 A  
HETATM   29  C   UNL     1      -8.637  10.515  65.410  1.00  0.00    -0.180 A  
HETATM   30 CL   UNL     1      -9.975  10.187  64.359  1.00  0.00    -0.333 Cl 
ENDBRANCH  11  24
ENDBRANCH   4   6
ENDBRANCH   3   4
ENDBRANCH   2   3
TORSDOF 10
ENDMDL
MODEL       87
REMARK 921   NORMALIZED FREE ENERGY PREDICTED BY IDOCK:   -4.19 KCAL/MOL
REMARK 922        TOTAL FREE ENERGY PREDICTED BY IDOCK:   -8.19 KCAL/MOL
REMARK 923 INTER-LIGAND FREE ENERGY PREDICTED BY IDOCK:   -6.55 KCAL/MOL
REMARK 924 INTRA-LIGAND FREE ENERGY PREDICTED BY IDOCK:   -1.64 KCAL/MOL
REMARK 927      BINDING AFFINITY PREDICTED BY RF-SCORE:    0.00 PKD
ROOT
HETATM    1  C   UNL     1     -11.251  13.700  67.102  1.00  0.00    -0.327 C  
HETATM    2  C   UNL     1     -10.645  13.136  68.381  1.00  0.00    -0.251 C  
ENDROOT
BRANCH   2   3
HETATM    3  O   UNL     1     -10.351  11.742  68.220  1.00  0.00    -0.192 OA 
BRANCH   3   4
HETATM    4  C   UNL     1      -9.043  11.392  68.186  1.00  0.00    -0.174 C  
HETATM    5  O   UNL     1      -8.169  12.048  68.730  1.00  0.00    -0.091 OA 
BRANCH   4   6
HETATM    6  C   UNL     1      -8.822  10.095  67.452  1.00  0.00    -0.135 C  
HETATM    7  C   UNL     1      -8.920   9.982  66.100  1.00  0.00    -0.149 C  
HETATM    8  C   UNL     1      -8.437   7.528  67.487  1.00  0.00    -0.119 C  
HETATM    9  N   UNL     1      -8.688   8.766  65.483  1.00  0.00    -0.176 NA 
HETATM   10  C   UNL     1      -8.530   7.560  66.134  1.00  0.00    -0.144 C  
HETATM   11  C   UNL     1      -8.461   8.842  68.305  1.00  0.00    -0.130 C  
HETATM   12  C   UNL     1      -8.446   6.350  65.232  1.00  0.00    -0.102 C  
BRANCH   7  13
HETATM   13  C   UNL     1      -9.297  11.116  65.157  1.00  0.00    -0.213 C  
BRANCH  13  14
HETATM   14  O   UNL     1     -10.503  10.850  64.420  1.00  0.00    -0.355 OA 
BRANCH  14  15
HETATM   15  C   UNL     1     -10.653  11.881  63.423  1.00  0.00    -0.430 C  
BRANCH  15  16
HETATM   16  C   UNL     1     -12.105  12.347  63.335  1.00  0.00    -0.524 C  
HETATM   17  N   UNL     1     -12.181  13.804  63.213  1.00  0.00    -1.096 NA 
HETATM   18  H2  UNL     1     -11.628  14.146  62.428  1.00  0.00     0.000 HD 
HETATM   19  H1  UNL     1     -13.150  14.116  63.154  1.00  0.00     0.000 HD 
ENDBRANCH  15  16
ENDBRANCH  14  15
ENDBRANCH  13  14
ENDBRANCH   7  13
BRANCH   8  20
HETATM   20  C   UNL     1      -8.300   6.210  68.173  1.00  0.00    -0.114 C  
HETATM   21  O   UNL     1      -9.244   5.508  68.507  1.00  0.00    -0.115 OA 
BRANCH  20  22
HETATM   22  O   UNL     1      -7.000   5.886  68.377  1.00  0.00    -0.067 OA 
HETATM   23  C   UNL     1      -6.591   5.904  69.750  1.00  0.00    -0.047 C  
ENDBRANCH  20  22
ENDBRANCH   8  20
BRANCH  11  24
HETATM   24  C   UNL     1      -9.306   8.735  69.583  1.00  0.00    -0.158 A  
HETATM   25  C   UNL     1     -10.696   8.522  69.492  1.00  0.00    -0.181 A  
HETATM   26  C   UNL     1     -11.498   8.521  70.638  1.00  0.00    -0.249 A  
HETATM   27  C   UNL     1     -10.933   8.718  71.895  1.00  0.00    -0.435 A  
HETATM   28  C   UNL     1      -9.560   8.916  72.009  1.00  0.00    -0.277 A  
HETATM   29  C   UNL     1      -8.750   8.930  70.868  1.00  0.00    -0.210 A  
HETATM   30 CL   UNL     1      -7.065   9.244  71.123  1.00  0.00    -0.089 Cl 
ENDBRANCH  11  24
ENDBRANCH   4   6
ENDBRANCH   3   4
ENDBRANCH   2   3
TORSDOF 10
ENDMDL
MODEL       88
REMARK 921   NORMALIZED FREE ENERGY PREDICTED BY IDOCK:   -4.18 KCAL/MOL
REMARK 922        TOTAL FREE ENERGY PREDICTED BY IDOCK:   -8.19 KCAL/MOL
REMARK 923 INTER-LIGAND FREE ENERGY PREDICTED BY IDOCK:   -6.60 KCAL/MOL
REMARK 924 INTRA-LIGAND FREE ENERGY PREDICTED BY IDOCK:   -1.59 KCAL/MOL
REMARK 927      BINDING AFFINITY PREDICTED BY RF-SCORE:    0.00 PKD
ROOT
HETATM    1  C   UNL     1      -6.472   9.540  66.214  1.00  0.00    -0.070 C  
HETATM    2  C   UNL     1      -7.599  10.038  65.319  1.00  0.00    -0.137 C  
ENDROOT
BRANCH   2   3
HETATM    3  O   UNL     1      -8.703  10.492  66.113  1.00  0.00    -0.148 OA 
BRANCH   3   4
HETATM    4  C   UNL     1      -9.711   9.612  66.322  1.00  0.00    -0.240 C  
HETATM    5  O   UNL     1      -9.863   8.609  65.643  1.00  0.00    -0.033 OA 
BRANCH   4   6
HETATM    6  C   UNL     1     -10.565   9.998  67.500  1.00  0.00    -0.336 C  
HETATM    7  C   UNL     1     -11.238  11.178  67.575  1.00  0.00    -0.301 C  
HETATM    8  C   UNL     1     -11.412   9.538  69.911  1.00  0.00    -0.100 C  
HETATM    9  N   UNL     1     -12.021  11.466  68.678  1.00  0.00    -0.517 NA 
HETATM   10  C   UNL     1     -12.058  10.729  69.843  1.00  0.00    -0.337 C  
HETATM   11  C   UNL     1     -10.669   8.978  68.674  1.00  0.00    -0.137 C  
HETATM   12  C   UNL     1     -12.873  11.337  70.962  1.00  0.00    -0.395 C  
BRANCH   7  13
HETATM   13  C   UNL     1     -11.195  12.272  66.517  1.00  0.00    -0.324 C  
BRANCH  13  14
HETATM   14  O   UNL     1     -10.478  13.440  66.953  1.00  0.00    -0.269 OA 
BRANCH  14  15
HETATM   15  C   UNL     1     -11.099  14.594  66.351  1.00  0.00    -0.334 C  
BRANCH  15  16
HETATM   16  C   UNL     1     -11.524  14.296  64.914  1.00  0.00    -0.378 C  
HETATM   17  N   UNL     1     -12.073  15.492  64.272  1.00  0.00    -0.708 NA 
HETATM   18  H2  UNL     1     -11.424  16.276  64.317  1.00  0.00     0.000 HD 
HETATM   19  H1  UNL     1     -12.357  15.294  63.313  1.00  0.00     0.000 HD 
ENDBRANCH  15  16
ENDBRANCH  14  15
ENDBRANCH  13  14
ENDBRANCH   7  13
BRANCH   8  20
HETATM   20  C   UNL     1     -11.437   8.772  71.191  1.00  0.00    -0.286 C  
HETATM   21  O   UNL     1     -12.252   7.898  71.453  1.00  0.00    -0.303 OA 
BRANCH  20  22
HETATM   22  O   UNL     1     -10.444   9.161  72.026  1.00  0.00    -0.322 OA 
HETATM   23  C   UNL     1      -9.776   8.087  72.699  1.00  0.00    -0.264 C  
ENDBRANCH  20  22
ENDBRANCH   8  20
BRANCH  11  24
HETATM   24  C   UNL     1      -9.315   8.344  69.026  1.00  0.00    -0.147 A  
HETATM   25  C   UNL     1      -9.184   6.942  69.072  1.00  0.00    -0.137 A  
HETATM   26  C   UNL     1      -7.988   6.346  69.487  1.00  0.00    -0.113 A  
HETATM   27  C   UNL     1      -6.898   7.131  69.852  1.00  0.00    -0.056 A  
HETATM   28  C   UNL     1      -7.001   8.518  69.801  1.00  0.00    -0.047 A  
HETATM   29  C   UNL     1      -8.196   9.125  69.398  1.00  0.00    -0.118 A  
HETATM   30 CL   UNL     1      -8.230  10.857  69.429  1.00  0.00    -0.046 Cl 
ENDBRANCH  11  24
ENDBRANCH   4   6
ENDBRANCH   3   4
ENDBRANCH   2   3
TORSDOF 10
ENDMDL
MODEL       89
REMARK 921   NORMALIZED FREE ENERGY PREDICTED BY IDOCK:   -4.18 KCAL/MOL
REMARK 922        TOTAL FREE ENERGY PREDICTED BY IDOCK:   -8.18 KCAL/MOL
REMARK 923 INTER-LIGAND FREE ENERGY PREDICTED BY IDOCK:   -6.74 KCAL/MOL
REMARK 924 INTRA-LIGAND FREE ENERGY PREDICTED BY IDOCK:   -1.44 KCAL/MOL
REMARK 927      BINDING AFFINITY PREDICTED BY RF-SCORE:    0.00 PKD
ROOT
HETATM    1  C   UNL     1      -6.802   6.837  68.813  1.00  0.00    -0.066 C  
HETATM    2  C   UNL     1      -7.966   6.506  67.887  1.00  0.00    -0.109 C  
ENDROOT
BRANCH   2   3
HETATM    3  O   UNL     1      -8.423   7.689  67.219  1.00  0.00    -0.120 OA 
BRANCH   3   4
HETATM    4  C   UNL     1      -9.731   7.729  66.869  1.00  0.00    -0.216 C  
HETATM    5  O   UNL     1     -10.350   6.738  66.515  1.00  0.00    -0.157 OA 
BRANCH   4   6
HETATM    6  C   UNL     1     -10.317   9.109  67.018  1.00  0.00    -0.333 C  
HETATM    7  C   UNL     1     -10.225  10.062  66.051  1.00  0.00    -0.207 C  
HETATM    8  C   UNL     1     -11.461  10.920  68.484  1.00  0.00    -0.380 C  
HETATM    9  N   UNL     1     -10.799  11.305  66.242  1.00  0.00    -0.264 NA 
HETATM   10  C   UNL     1     -11.330  11.764  67.430  1.00  0.00    -0.311 C  
HETATM   11  C   UNL     1     -11.060   9.431  68.349  1.00  0.00     0.019 C  
HETATM   12  C   UNL     1     -11.754  13.215  67.424  1.00  0.00    -0.419 C  
BRANCH   7  13
HETATM   13  C   UNL     1      -9.501   9.888  64.724  1.00  0.00    -0.291 C  
BRANCH  13  14
HETATM   14  O   UNL     1     -10.081  10.671  63.666  1.00  0.00    -0.326 OA 
BRANCH  14  15
HETATM   15  C   UNL     1      -9.052  10.934  62.690  1.00  0.00    -0.336 C  
BRANCH  15  16
HETATM   16  C   UNL     1      -7.825  10.059  62.944  1.00  0.00    -0.140 C  
HETATM   17  N   UNL     1      -6.599  10.747  62.534  1.00  0.00    -0.315 NA 
HETATM   18  H2  UNL     1      -6.511  11.658  62.983  1.00  0.00     0.000 HD 
HETATM   19  H1  UNL     1      -5.780  10.163  62.703  1.00  0.00     0.000 HD 
ENDBRANCH  15  16
ENDBRANCH  14  15
ENDBRANCH  13  14
ENDBRANCH   7  13
BRANCH   8  20
HETATM   20  C   UNL     1     -12.007  11.446  69.769  1.00  0.00    -0.353 C  
HETATM   21  O   UNL     1     -11.610  12.463  70.319  1.00  0.00    -0.180 OA 
BRANCH  20  22
HETATM   22  O   UNL     1     -12.998  10.657  70.250  1.00  0.00    -0.268 OA 
HETATM   23  C   UNL     1     -12.999  10.505  71.675  1.00  0.00    -0.476 C  
ENDBRANCH  20  22
ENDBRANCH   8  20
BRANCH  11  24
HETATM   24  C   UNL     1     -10.317   8.899  69.584  1.00  0.00    -0.214 A  
HETATM   25  C   UNL     1     -10.900   7.889  70.375  1.00  0.00    -0.244 A  
HETATM   26  C   UNL     1     -10.287   7.461  71.557  1.00  0.00    -0.216 A  
HETATM   27  C   UNL     1      -9.080   8.018  71.968  1.00  0.00    -0.217 A  
HETATM   28  C   UNL     1      -8.479   9.007  71.195  1.00  0.00    -0.234 A  
HETATM   29  C   UNL     1      -9.089   9.451  70.016  1.00  0.00    -0.220 A  
HETATM   30 CL   UNL     1      -8.284  10.728  69.164  1.00  0.00    -0.147 Cl 
ENDBRANCH  11  24
ENDBRANCH   4   6
ENDBRANCH   3   4
ENDBRANCH   2   3
TORSDOF 10
ENDMDL
MODEL       90
REMARK 921   NORMALIZED FREE ENERGY PREDICTED BY IDOCK:   -4.18 KCAL/MOL
REMARK 922        TOTAL FREE ENERGY PREDICTED BY IDOCK:   -8.17 KCAL/MOL
REMARK 923 INTER-LIGAND FREE ENERGY PREDICTED BY IDOCK:   -6.47 KCAL/MOL
REMARK 924 INTRA-LIGAND FREE ENERGY PREDICTED BY IDOCK:   -1.71 KCAL/MOL
REMARK 927      BINDING AFFINITY PREDICTED BY RF-SCORE:    0.00 PKD
ROOT
HETATM    1  C   UNL     1     -10.804   6.210  66.858  1.00  0.00    -0.411 C  
HETATM    2  C   UNL     1     -10.624   7.723  66.832  1.00  0.00    -0.277 C  
ENDROOT
BRANCH   2   3
HETATM    3  O   UNL     1      -9.307   8.075  67.273  1.00  0.00    -0.137 OA 
BRANCH   3   4
HETATM    4  C   UNL     1      -9.196   9.173  68.058  1.00  0.00    -0.134 C  
HETATM    5  O   UNL     1      -8.339  10.024  67.887  1.00  0.00    -0.116 OA 
BRANCH   4   6
HETATM    6  C   UNL     1     -10.273   9.228  69.111  1.00  0.00    -0.214 C  
HETATM    7  C   UNL     1     -11.209  10.213  69.164  1.00  0.00    -0.183 C  
HETATM    8  C   UNL     1     -11.312   8.329  71.314  1.00  0.00    -0.308 C  
HETATM    9  N   UNL     1     -12.182  10.197  70.147  1.00  0.00    -0.172 NA 
HETATM   10  C   UNL     1     -12.205   9.347  71.232  1.00  0.00    -0.345 C  
HETATM   11  C   UNL     1     -10.294   8.087  70.173  1.00  0.00    -0.215 C  
HETATM   12  C   UNL     1     -13.287   9.632  72.249  1.00  0.00    -0.498 C  
BRANCH   7  13
HETATM   13  C   UNL     1     -11.280  11.398  68.212  1.00  0.00    -0.263 C  
BRANCH  13  14
HETATM   14  O   UNL     1     -10.487  12.514  68.652  1.00  0.00    -0.230 OA 
BRANCH  14  15
HETATM   15  C   UNL     1      -9.921  13.146  67.485  1.00  0.00    -0.223 C  
BRANCH  15  16
HETATM   16  C   UNL     1     -10.386  12.447  66.208  1.00  0.00    -0.244 C  
HETATM   17  N   UNL     1     -10.007  13.218  65.022  1.00  0.00    -0.546 NA 
HETATM   18  H2  UNL     1      -9.007  13.411  65.002  1.00  0.00     0.000 HD 
HETATM   19  H1  UNL     1     -10.317  12.752  64.170  1.00  0.00     0.000 HD 
ENDBRANCH  15  16
ENDBRANCH  14  15
ENDBRANCH  13  14
ENDBRANCH   7  13
BRANCH   8  20
HETATM   20  C   UNL     1     -11.332   7.441  72.513  1.00  0.00    -0.313 C  
HETATM   21  O   UNL     1     -10.808   7.719  73.583  1.00  0.00    -0.259 OA 
BRANCH  20  22
HETATM   22  O   UNL     1     -12.006   6.291  72.271  1.00  0.00    -0.312 OA 
HETATM   23  C   UNL     1     -11.444   5.130  72.896  1.00  0.00    -0.254 C  
ENDBRANCH  20  22
ENDBRANCH   8  20
BRANCH  11  24
HETATM   24  C   UNL     1      -8.890   7.736  70.690  1.00  0.00    -0.144 A  
HETATM   25  C   UNL     1      -8.057   8.747  71.208  1.00  0.00    -0.195 A  
HETATM   26  C   UNL     1      -6.741   8.466  71.590  1.00  0.00    -0.073 A  
HETATM   27  C   UNL     1      -6.233   7.176  71.477  1.00  0.00    -0.037 A  
HETATM   28  C   UNL     1      -7.043   6.158  70.980  1.00  0.00    -0.070 A  
HETATM   29  C   UNL     1      -8.358   6.430  70.584  1.00  0.00    -0.133 A  
HETATM   30 CL   UNL     1      -9.255   5.102  69.926  1.00  0.00    -0.161 Cl 
ENDBRANCH  11  24
ENDBRANCH   4   6
ENDBRANCH   3   4
ENDBRANCH   2   3
TORSDOF 10
ENDMDL
MODEL       91
REMARK 921   NORMALIZED FREE ENERGY PREDICTED BY IDOCK:   -4.17 KCAL/MOL
REMARK 922        TOTAL FREE ENERGY PREDICTED BY IDOCK:   -8.17 KCAL/MOL
REMARK 923 INTER-LIGAND FREE ENERGY PREDICTED BY IDOCK:   -6.60 KCAL/MOL
REMARK 924 INTRA-LIGAND FREE ENERGY PREDICTED BY IDOCK:   -1.57 KCAL/MOL
REMARK 927      BINDING AFFINITY PREDICTED BY RF-SCORE:    0.00 PKD
ROOT
HETATM    1  C   UNL     1     -12.112  14.487  71.167  1.00  0.00    -0.408 C  
HETATM    2  C   UNL     1     -12.739  13.124  70.904  1.00  0.00    -0.233 C  
ENDROOT
BRANCH   2   3
HETATM    3  O   UNL     1     -11.740  12.192  70.470  1.00  0.00    -0.205 OA 
BRANCH   3   4
HETATM    4  C   UNL     1     -12.170  10.964  70.094  1.00  0.00    -0.343 C  
HETATM    5  O   UNL     1     -13.274  10.533  70.385  1.00  0.00    -0.235 OA 
BRANCH   4   6
HETATM    6  C   UNL     1     -11.152  10.241  69.251  1.00  0.00    -0.293 C  
HETATM    7  C   UNL     1     -10.386   9.221  69.724  1.00  0.00    -0.218 C  
HETATM    8  C   UNL     1      -9.802  10.029  67.043  1.00  0.00    -0.238 C  
HETATM    9  N   UNL     1      -9.481   8.586  68.894  1.00  0.00    -0.146 NA 
HETATM   10  C   UNL     1      -9.130   9.006  67.628  1.00  0.00    -0.133 C  
HETATM   11  C   UNL     1     -10.992  10.700  67.770  1.00  0.00    -0.364 C  
HETATM   12  C   UNL     1      -8.002   8.232  66.985  1.00  0.00    -0.100 C  
BRANCH   7  13
HETATM   13  C   UNL     1     -10.419   8.699  71.153  1.00  0.00    -0.227 C  
BRANCH  13  14
HETATM   14  O   UNL     1      -9.301   9.153  71.937  1.00  0.00    -0.349 OA 
BRANCH  14  15
HETATM   15  C   UNL     1      -8.475   8.009  72.239  1.00  0.00    -0.155 C  
BRANCH  15  16
HETATM   16  C   UNL     1      -7.065   8.194  71.682  1.00  0.00    -0.075 C  
HETATM   17  N   UNL     1      -6.860   7.368  70.490  1.00  0.00    -0.051 NA 
HETATM   18  H2  UNL     1      -7.571   7.547  69.782  1.00  0.00     0.000 HD 
HETATM   19  H1  UNL     1      -5.919   7.491  70.118  1.00  0.00     0.000 HD 
ENDBRANCH  15  16
ENDBRANCH  14  15
ENDBRANCH  13  14
ENDBRANCH   7  13
BRANCH   8  20
HETATM   20  C   UNL     1      -9.384  10.490  65.687  1.00  0.00    -0.200 C  
HETATM   21  O   UNL     1      -8.319  11.040  65.447  1.00  0.00    -0.114 OA 
BRANCH  20  22
HETATM   22  O   UNL     1     -10.330  10.220  64.755  1.00  0.00    -0.277 OA 
HETATM   23  C   UNL     1     -10.681  11.334  63.924  1.00  0.00    -0.384 C  
ENDBRANCH  20  22
ENDBRANCH   8  20
BRANCH  11  24
HETATM   24  C   UNL     1     -10.997  12.229  67.623  1.00  0.00    -0.287 A  
HETATM   25  C   UNL     1     -12.106  12.878  67.044  1.00  0.00    -0.296 A  
HETATM   26  C   UNL     1     -12.090  14.256  66.811  1.00  0.00    -0.446 A  
HETATM   27  C   UNL     1     -10.977  15.018  67.158  1.00  0.00    -0.329 A  
HETATM   28  C   UNL     1      -9.876  14.400  67.743  1.00  0.00    -0.221 A  
HETATM   29  C   UNL     1      -9.877  13.019  67.972  1.00  0.00    -0.224 A  
HETATM   30 CL   UNL     1      -8.431  12.348  68.650  1.00  0.00    -0.049 Cl 
ENDBRANCH  11  24
ENDBRANCH   4   6
ENDBRANCH   3   4
ENDBRANCH   2   3
TORSDOF 10
ENDMDL
MODEL       92
REMARK 921   NORMALIZED FREE ENERGY PREDICTED BY IDOCK:   -4.16 KCAL/MOL
REMARK 922        TOTAL FREE ENERGY PREDICTED BY IDOCK:   -8.15 KCAL/MOL
REMARK 923 INTER-LIGAND FREE ENERGY PREDICTED BY IDOCK:   -6.78 KCAL/MOL
REMARK 924 INTRA-LIGAND FREE ENERGY PREDICTED BY IDOCK:   -1.38 KCAL/MOL
REMARK 927      BINDING AFFINITY PREDICTED BY RF-SCORE:    0.00 PKD
ROOT
HETATM    1  C   UNL     1      -6.497   5.743  69.077  1.00  0.00    -0.049 C  
HETATM    2  C   UNL     1      -7.732   5.722  68.186  1.00  0.00    -0.096 C  
ENDROOT
BRANCH   2   3
HETATM    3  O   UNL     1      -8.363   7.009  68.178  1.00  0.00    -0.121 OA 
BRANCH   3   4
HETATM    4  C   UNL     1      -9.684   7.042  67.880  1.00  0.00    -0.124 C  
HETATM    5  O   UNL     1     -10.197   6.288  67.070  1.00  0.00    -0.159 OA 
BRANCH   4   6
HETATM    6  C   UNL     1     -10.423   8.072  68.694  1.00  0.00    -0.196 C  
HETATM    7  C   UNL     1     -10.463   9.391  68.364  1.00  0.00    -0.218 C  
HETATM    8  C   UNL     1     -11.740   8.723  70.835  1.00  0.00    -0.299 C  
HETATM    9  N   UNL     1     -11.174  10.283  69.145  1.00  0.00    -0.229 NA 
HETATM   10  C   UNL     1     -11.730   9.999  70.375  1.00  0.00    -0.286 C  
HETATM   11  C   UNL     1     -11.171   7.574  69.968  1.00  0.00    -0.173 C  
HETATM   12  C   UNL     1     -12.321  11.186  71.102  1.00  0.00    -0.451 C  
BRANCH   7  13
HETATM   13  C   UNL     1      -9.751  10.010  67.170  1.00  0.00    -0.174 C  
BRANCH  13  14
HETATM   14  O   UNL     1     -10.526  11.042  66.534  1.00  0.00    -0.241 OA 
BRANCH  14  15
HETATM   15  C   UNL     1      -9.727  11.610  65.476  1.00  0.00    -0.232 C  
BRANCH  15  16
HETATM   16  C   UNL     1     -10.614  12.221  64.392  1.00  0.00    -0.327 C  
HETATM   17  N   UNL     1     -10.955  11.227  63.372  1.00  0.00    -0.759 NA 
HETATM   18  H2  UNL     1     -11.380  10.397  63.783  1.00  0.00     0.000 HD 
HETATM   19  H1  UNL     1     -11.547  11.635  62.649  1.00  0.00     0.000 HD 
ENDBRANCH  15  16
ENDBRANCH  14  15
ENDBRANCH  13  14
ENDBRANCH   7  13
BRANCH   8  20
HETATM   20  C   UNL     1     -12.316   8.443  72.182  1.00  0.00    -0.370 C  
HETATM   21  O   UNL     1     -11.649   8.192  73.176  1.00  0.00    -0.256 OA 
BRANCH  20  22
HETATM   22  O   UNL     1     -13.670   8.504  72.169  1.00  0.00    -0.366 OA 
HETATM   23  C   UNL     1     -14.311   7.363  71.585  1.00  0.00    -0.461 C  
ENDBRANCH  20  22
ENDBRANCH   8  20
BRANCH  11  24
HETATM   24  C   UNL     1     -10.346   6.565  70.781  1.00  0.00    -0.241 A  
HETATM   25  C   UNL     1     -10.823   5.252  70.966  1.00  0.00    -0.125 A  
HETATM   26  C   UNL     1     -10.136   4.348  71.784  1.00  0.00    -0.238 A  
HETATM   27  C   UNL     1      -8.959   4.727  72.422  1.00  0.00    -0.138 A  
HETATM   28  C   UNL     1      -8.462   6.015  72.242  1.00  0.00    -0.117 A  
HETATM   29  C   UNL     1      -9.147   6.931  71.435  1.00  0.00    -0.148 A  
HETATM   30 CL   UNL     1      -8.469   8.523  71.330  1.00  0.00    -0.181 Cl 
ENDBRANCH  11  24
ENDBRANCH   4   6
ENDBRANCH   3   4
ENDBRANCH   2   3
TORSDOF 10
ENDMDL
MODEL       93
REMARK 921   NORMALIZED FREE ENERGY PREDICTED BY IDOCK:   -4.16 KCAL/MOL
REMARK 922        TOTAL FREE ENERGY PREDICTED BY IDOCK:   -8.15 KCAL/MOL
REMARK 923 INTER-LIGAND FREE ENERGY PREDICTED BY IDOCK:   -6.23 KCAL/MOL
REMARK 924 INTRA-LIGAND FREE ENERGY PREDICTED BY IDOCK:   -1.92 KCAL/MOL
REMARK 927      BINDING AFFINITY PREDICTED BY RF-SCORE:    0.00 PKD
ROOT
HETATM    1  C   UNL     1     -14.196   7.807  71.697  1.00  0.00    -0.572 C  
HETATM    2  C   UNL     1     -13.002   6.887  71.476  1.00  0.00    -0.306 C  
ENDROOT
BRANCH   2   3
HETATM    3  O   UNL     1     -12.139   7.425  70.465  1.00  0.00    -0.186 OA 
BRANCH   3   4
HETATM    4  C   UNL     1     -10.817   7.158  70.582  1.00  0.00    -0.245 C  
HETATM    5  O   UNL     1     -10.056   7.860  71.229  1.00  0.00    -0.179 OA 
BRANCH   4   6
HETATM    6  C   UNL     1     -10.429   5.889  69.870  1.00  0.00    -0.337 C  
HETATM    7  C   UNL     1     -10.088   4.746  70.523  1.00  0.00    -0.220 C  
HETATM    8  C   UNL     1      -9.841   4.632  67.676  1.00  0.00    -0.194 C  
HETATM    9  N   UNL     1      -9.758   3.608  69.810  1.00  0.00    -0.153 NA 
HETATM   10  C   UNL     1      -9.558   3.552  68.446  1.00  0.00    -0.086 C  
HETATM   11  C   UNL     1     -10.429   5.915  68.311  1.00  0.00    -0.293 C  
HETATM   12  C   UNL     1      -9.050   2.226  67.926  1.00  0.00    -0.220 C  
BRANCH   7  13
HETATM   13  C   UNL     1     -10.016   4.597  72.036  1.00  0.00    -0.189 C  
BRANCH  13  14
HETATM   14  O   UNL     1      -8.696   4.838  72.556  1.00  0.00    -0.114 OA 
BRANCH  14  15
HETATM   15  C   UNL     1      -8.823   5.687  73.716  1.00  0.00    -0.124 C  
BRANCH  15  16
HETATM   16  C   UNL     1     -10.285   5.806  74.146  1.00  0.00    -0.276 C  
HETATM   17  N   UNL     1     -10.721   7.203  74.136  1.00  0.00    -0.541 NA 
HETATM   18  H2  UNL     1     -10.560   7.641  73.230  1.00  0.00     0.000 HD 
HETATM   19  H1  UNL     1     -11.697   7.283  74.423  1.00  0.00     0.000 HD 
ENDBRANCH  15  16
ENDBRANCH  14  15
ENDBRANCH  13  14
ENDBRANCH   7  13
BRANCH   8  20
HETATM   20  C   UNL     1      -9.586   4.561  66.207  1.00  0.00    -0.189 C  
HETATM   21  O   UNL     1     -10.456   4.379  65.367  1.00  0.00    -0.264 OA 
BRANCH  20  22
HETATM   22  O   UNL     1      -8.272   4.726  65.919  1.00  0.00    -0.110 OA 
HETATM   23  C   UNL     1      -7.823   4.013  64.761  1.00  0.00    -0.085 C  
ENDBRANCH  20  22
ENDBRANCH   8  20
BRANCH  11  24
HETATM   24  C   UNL     1      -9.811   7.201  67.742  1.00  0.00    -0.175 A  
HETATM   25  C   UNL     1     -10.596   8.075  66.965  1.00  0.00    -0.364 A  
HETATM   26  C   UNL     1     -10.029   9.199  66.355  1.00  0.00    -0.358 A  
HETATM   27  C   UNL     1      -8.676   9.481  66.515  1.00  0.00    -0.147 A  
HETATM   28  C   UNL     1      -7.884   8.638  67.291  1.00  0.00    -0.097 A  
HETATM   29  C   UNL     1      -8.439   7.505  67.896  1.00  0.00    -0.122 A  
HETATM   30 CL   UNL     1      -7.348   6.496  68.788  1.00  0.00    -0.084 Cl 
ENDBRANCH  11  24
ENDBRANCH   4   6
ENDBRANCH   3   4
ENDBRANCH   2   3
TORSDOF 10
ENDMDL
MODEL       94
REMARK 921   NORMALIZED FREE ENERGY PREDICTED BY IDOCK:   -4.15 KCAL/MOL
REMARK 922        TOTAL FREE ENERGY PREDICTED BY IDOCK:   -8.13 KCAL/MOL
REMARK 923 INTER-LIGAND FREE ENERGY PREDICTED BY IDOCK:   -6.21 KCAL/MOL
REMARK 924 INTRA-LIGAND FREE ENERGY PREDICTED BY IDOCK:   -1.91 KCAL/MOL
REMARK 927      BINDING AFFINITY PREDICTED BY RF-SCORE:    0.00 PKD
ROOT
HETATM    1  C   UNL     1      -8.144   6.242  67.838  1.00  0.00    -0.114 C  
HETATM    2  C   UNL     1      -7.936   6.075  66.338  1.00  0.00    -0.105 C  
ENDROOT
BRANCH   2   3
HETATM    3  O   UNL     1      -8.668   7.076  65.619  1.00  0.00    -0.140 OA 
BRANCH   3   4
HETATM    4  C   UNL     1      -8.026   8.240  65.363  1.00  0.00    -0.127 C  
HETATM    5  O   UNL     1      -6.818   8.369  65.483  1.00  0.00    -0.067 OA 
BRANCH   4   6
HETATM    6  C   UNL     1      -8.967   9.312  64.876  1.00  0.00    -0.229 C  
HETATM    7  C   UNL     1      -9.136   9.609  63.560  1.00  0.00    -0.173 C  
HETATM    8  C   UNL     1     -10.566  11.295  65.374  1.00  0.00    -0.312 C  
HETATM    9  N   UNL     1     -10.028  10.593  63.176  1.00  0.00    -0.298 NA 
HETATM   10  C   UNL     1     -10.667  11.466  64.032  1.00  0.00    -0.387 C  
HETATM   11  C   UNL     1      -9.773  10.099  65.953  1.00  0.00    -0.292 C  
HETATM   12  C   UNL     1     -11.471  12.553  63.356  1.00  0.00    -0.523 C  
BRANCH   7  13
HETATM   13  C   UNL     1      -8.388   8.941  62.415  1.00  0.00    -0.194 C  
BRANCH  13  14
HETATM   14  O   UNL     1      -6.959   9.046  62.547  1.00  0.00    -0.094 OA 
BRANCH  14  15
HETATM   15  C   UNL     1      -6.592  10.424  62.335  1.00  0.00    -0.139 C  
BRANCH  15  16
HETATM   16  C   UNL     1      -5.256  10.742  63.006  1.00  0.00    -0.170 C  
HETATM   17  N   UNL     1      -5.435  10.980  64.440  1.00  0.00    -0.469 NA 
HETATM   18  H2  UNL     1      -5.909  10.201  64.895  1.00  0.00     0.000 HD 
HETATM   19  H1  UNL     1      -4.544  11.192  64.888  1.00  0.00     0.000 HD 
ENDBRANCH  15  16
ENDBRANCH  14  15
ENDBRANCH  13  14
ENDBRANCH   7  13
BRANCH   8  20
HETATM   20  C   UNL     1     -11.237  12.271  66.281  1.00  0.00    -0.323 C  
HETATM   21  O   UNL     1     -12.271  12.041  66.893  1.00  0.00    -0.529 OA 
BRANCH  20  22
HETATM   22  O   UNL     1     -10.558  13.442  66.347  1.00  0.00    -0.280 OA 
HETATM   23  C   UNL     1     -10.575  14.068  67.635  1.00  0.00    -0.249 C  
ENDBRANCH  20  22
ENDBRANCH   8  20
BRANCH  11  24
HETATM   24  C   UNL     1      -8.917  10.482  67.169  1.00  0.00    -0.147 A  
HETATM   25  C   UNL     1      -7.808  11.336  67.009  1.00  0.00    -0.150 A  
HETATM   26  C   UNL     1      -6.958  11.617  68.083  1.00  0.00    -0.071 A  
HETATM   27  C   UNL     1      -7.199  11.066  69.338  1.00  0.00    -0.114 A  
HETATM   28  C   UNL     1      -8.297  10.231  69.523  1.00  0.00    -0.162 A  
HETATM   29  C   UNL     1      -9.149   9.933  68.452  1.00  0.00    -0.123 A  
HETATM   30 CL   UNL     1     -10.448   8.836  68.782  1.00  0.00    -0.231 Cl 
ENDBRANCH  11  24
ENDBRANCH   4   6
ENDBRANCH   3   4
ENDBRANCH   2   3
TORSDOF 10
ENDMDL
MODEL       95
REMARK 921   NORMALIZED FREE ENERGY PREDICTED BY IDOCK:   -4.13 KCAL/MOL
REMARK 922        TOTAL FREE ENERGY PREDICTED BY IDOCK:   -8.10 KCAL/MOL
REMARK 923 INTER-LIGAND FREE ENERGY PREDICTED BY IDOCK:   -6.50 KCAL/MOL
REMARK 924 INTRA-LIGAND FREE ENERGY PREDICTED BY IDOCK:   -1.60 KCAL/MOL
REMARK 927      BINDING AFFINITY PREDICTED BY RF-SCORE:    0.00 PKD
ROOT
HETATM    1  C   UNL     1      -9.335   6.908  66.840  1.00  0.00    -0.177 C  
HETATM    2  C   UNL     1     -10.639   7.556  67.286  1.00  0.00    -0.324 C  
ENDROOT
BRANCH   2   3
HETATM    3  O   UNL     1     -10.543   8.983  67.195  1.00  0.00    -0.272 OA 
BRANCH   3   4
HETATM    4  C   UNL     1     -10.623   9.678  68.354  1.00  0.00    -0.225 C  
HETATM    5  O   UNL     1     -11.654   9.763  69.003  1.00  0.00     0.038 OA 
BRANCH   4   6
HETATM    6  C   UNL     1      -9.298  10.275  68.751  1.00  0.00    -0.166 C  
HETATM    7  C   UNL     1      -8.568   9.826  69.807  1.00  0.00    -0.201 C  
HETATM    8  C   UNL     1      -7.495  12.124  68.484  1.00  0.00    -0.117 C  
HETATM    9  N   UNL     1      -7.350  10.407  70.110  1.00  0.00    -0.196 NA 
HETATM   10  C   UNL     1      -6.852  11.558  69.537  1.00  0.00    -0.075 C  
HETATM   11  C   UNL     1      -8.761  11.460  67.892  1.00  0.00    -0.145 C  
HETATM   12  C   UNL     1      -5.571  12.077  70.150  1.00  0.00    -0.139 C  
BRANCH   7  13
HETATM   13  C   UNL     1      -8.993   8.704  70.743  1.00  0.00    -0.175 C  
BRANCH  13  14
HETATM   14  O   UNL     1      -9.605   9.189  71.952  1.00  0.00    -0.310 OA 
BRANCH  14  15
HETATM   15  C   UNL     1     -10.860   8.499  72.123  1.00  0.00    -0.357 C  
BRANCH  15  16
HETATM   16  C   UNL     1     -10.925   7.258  71.235  1.00  0.00    -0.243 C  
HETATM   17  N   UNL     1     -12.188   7.210  70.495  1.00  0.00    -0.593 NA 
HETATM   18  H2  UNL     1     -12.345   8.063  69.961  1.00  0.00     0.000 HD 
HETATM   19  H1  UNL     1     -12.232   6.381  69.902  1.00  0.00     0.000 HD 
ENDBRANCH  15  16
ENDBRANCH  14  15
ENDBRANCH  13  14
ENDBRANCH   7  13
BRANCH   8  20
HETATM   20  C   UNL     1      -6.957  13.387  67.901  1.00  0.00    -0.141 C  
HETATM   21  O   UNL     1      -5.987  13.443  67.159  1.00  0.00    -0.285 OA 
BRANCH  20  22
HETATM   22  O   UNL     1      -7.679  14.465  68.293  1.00  0.00    -0.112 OA 
HETATM   23  C   UNL     1      -7.145  15.159  69.427  1.00  0.00    -0.189 C  
ENDBRANCH  20  22
ENDBRANCH   8  20
BRANCH  11  24
HETATM   24  C   UNL     1      -9.857  12.476  67.536  1.00  0.00    -0.198 A  
HETATM   25  C   UNL     1     -10.485  13.220  68.554  1.00  0.00    -0.259 A  
HETATM   26  C   UNL     1     -11.552  14.076  68.263  1.00  0.00    -0.364 A  
HETATM   27  C   UNL     1     -12.007  14.218  66.955  1.00  0.00    -0.467 A  
HETATM   28  C   UNL     1     -11.392  13.502  65.931  1.00  0.00    -0.321 A  
HETATM   29  C   UNL     1     -10.330  12.635  66.213  1.00  0.00    -0.252 A  
HETATM   30 CL   UNL     1      -9.680  11.751  64.871  1.00  0.00    -0.236 Cl 
ENDBRANCH  11  24
ENDBRANCH   4   6
ENDBRANCH   3   4
ENDBRANCH   2   3
TORSDOF 10
ENDMDL
MODEL       96
REMARK 921   NORMALIZED FREE ENERGY PREDICTED BY IDOCK:   -4.12 KCAL/MOL
REMARK 922        TOTAL FREE ENERGY PREDICTED BY IDOCK:   -8.08 KCAL/MOL
REMARK 923 INTER-LIGAND FREE ENERGY PREDICTED BY IDOCK:   -6.52 KCAL/MOL
REMARK 924 INTRA-LIGAND FREE ENERGY PREDICTED BY IDOCK:   -1.56 KCAL/MOL
REMARK 927      BINDING AFFINITY PREDICTED BY RF-SCORE:    0.00 PKD
ROOT
HETATM    1  C   UNL     1      -9.184  17.156  67.146  1.00  0.00    -0.242 C  
HETATM    2  C   UNL     1      -8.496  16.296  66.093  1.00  0.00    -0.278 C  
ENDROOT
BRANCH   2   3
HETATM    3  O   UNL     1      -8.677  14.905  66.391  1.00  0.00    -0.230 OA 
BRANCH   3   4
HETATM    4  C   UNL     1      -9.737  14.289  65.817  1.00  0.00    -0.234 C  
HETATM    5  O   UNL     1     -10.531  14.873  65.098  1.00  0.00    -0.372 OA 
BRANCH   4   6
HETATM    6  C   UNL     1      -9.779  12.817  66.137  1.00  0.00    -0.246 C  
HETATM    7  C   UNL     1      -9.938  11.856  65.188  1.00  0.00    -0.247 C  
HETATM    8  C   UNL     1      -9.866  10.896  67.881  1.00  0.00    -0.189 C  
HETATM    9  N   UNL     1      -9.951  10.520  65.544  1.00  0.00    -0.262 NA 
HETATM   10  C   UNL     1      -9.995  10.040  66.837  1.00  0.00    -0.209 C  
HETATM   11  C   UNL     1      -9.626  12.405  67.632  1.00  0.00    -0.193 C  
HETATM   12  C   UNL     1     -10.161   8.543  66.960  1.00  0.00    -0.347 C  
BRANCH   7  13
HETATM   13  C   UNL     1     -10.131  12.124  63.702  1.00  0.00    -0.385 C  
BRANCH  13  14
HETATM   14  O   UNL     1     -11.388  11.629  63.206  1.00  0.00    -0.347 OA 
BRANCH  14  15
HETATM   15  C   UNL     1     -12.357  12.692  63.308  1.00  0.00    -0.354 C  
BRANCH  15  16
HETATM   16  C   UNL     1     -13.125  12.604  64.626  1.00  0.00     0.057 C  
HETATM   17  N   UNL     1     -13.237  13.921  65.256  1.00  0.00    -0.721 NA 
HETATM   18  H2  UNL     1     -13.651  14.606  64.624  1.00  0.00     0.000 HD 
HETATM   19  H1  UNL     1     -13.750  13.863  66.135  1.00  0.00     0.000 HD 
ENDBRANCH  15  16
ENDBRANCH  14  15
ENDBRANCH  13  14
ENDBRANCH   7  13
BRANCH   8  20
HETATM   20  C   UNL     1      -9.950  10.361  69.271  1.00  0.00    -0.228 C  
HETATM   21  O   UNL     1     -10.987   9.989  69.803  1.00  0.00    -0.243 OA 
BRANCH  20  22
HETATM   22  O   UNL     1      -8.735  10.335  69.871  1.00  0.00    -0.131 OA 
HETATM   23  C   UNL     1      -8.491   9.170  70.669  1.00  0.00    -0.209 C  
ENDBRANCH  20  22
ENDBRANCH   8  20
BRANCH  11  24
HETATM   24  C   UNL     1     -10.436  13.303  68.578  1.00  0.00    -0.259 A  
HETATM   25  C   UNL     1     -11.842  13.220  68.596  1.00  0.00    -0.380 A  
HETATM   26  C   UNL     1     -12.603  14.097  69.376  1.00  0.00     0.063 A  
HETATM   27  C   UNL     1     -11.982  15.064  70.161  1.00  0.00    -0.366 A  
HETATM   28  C   UNL     1     -10.593  15.155  70.170  1.00  0.00    -0.227 A  
HETATM   29  C   UNL     1      -9.822  14.290  69.385  1.00  0.00     0.231 A  
HETATM   30 CL   UNL     1      -8.107  14.532  69.427  1.00  0.00     0.024 Cl 
ENDBRANCH  11  24
ENDBRANCH   4   6
ENDBRANCH   3   4
ENDBRANCH   2   3
TORSDOF 10
ENDMDL
MODEL       97
REMARK 921   NORMALIZED FREE ENERGY PREDICTED BY IDOCK:   -4.10 KCAL/MOL
REMARK 922        TOTAL FREE ENERGY PREDICTED BY IDOCK:   -8.06 KCAL/MOL
REMARK 923 INTER-LIGAND FREE ENERGY PREDICTED BY IDOCK:   -6.60 KCAL/MOL
REMARK 924 INTRA-LIGAND FREE ENERGY PREDICTED BY IDOCK:   -1.46 KCAL/MOL
REMARK 927      BINDING AFFINITY PREDICTED BY RF-SCORE:    0.00 PKD
ROOT
HETATM    1  C   UNL     1     -10.618  11.307  63.285  1.00  0.00    -0.326 C  
HETATM    2  C   UNL     1      -9.662  10.338  63.970  1.00  0.00    -0.278 C  
ENDROOT
BRANCH   2   3
HETATM    3  O   UNL     1     -10.203   9.909  65.226  1.00  0.00    -0.269 OA 
BRANCH   3   4
HETATM    4  C   UNL     1      -9.433  10.103  66.323  1.00  0.00    -0.180 C  
HETATM    5  O   UNL     1      -8.213  10.062  66.289  1.00  0.00    -0.120 OA 
BRANCH   4   6
HETATM    6  C   UNL     1     -10.255  10.416  67.546  1.00  0.00    -0.251 C  
HETATM    7  C   UNL     1     -10.810  11.637  67.774  1.00  0.00    -0.217 C  
HETATM    8  C   UNL     1     -11.161   9.735  69.881  1.00  0.00    -0.293 C  
HETATM    9  N   UNL     1     -11.569  11.856  68.909  1.00  0.00    -0.285 NA 
HETATM   10  C   UNL     1     -11.686  10.983  69.970  1.00  0.00    -0.355 C  
HETATM   11  C   UNL     1     -10.466   9.269  68.579  1.00  0.00    -0.240 C  
HETATM   12  C   UNL     1     -12.447  11.519  71.161  1.00  0.00    -0.442 C  
BRANCH   7  13
HETATM   13  C   UNL     1     -10.652  12.848  66.865  1.00  0.00    -0.253 C  
BRANCH  13  14
HETATM   14  O   UNL     1     -10.279  14.038  67.583  1.00  0.00    -0.238 OA 
BRANCH  14  15
HETATM   15  C   UNL     1     -11.350  14.995  67.445  1.00  0.00    -0.332 C  
BRANCH  15  16
HETATM   16  C   UNL     1     -11.600  15.726  68.763  1.00  0.00    -0.395 C  
HETATM   17  N   UNL     1     -11.302  14.860  69.906  1.00  0.00    -0.265 NA 
HETATM   18  H2  UNL     1     -10.356  14.485  69.858  1.00  0.00     0.000 HD 
HETATM   19  H1  UNL     1     -11.469  15.348  70.786  1.00  0.00     0.000 HD 
ENDBRANCH  15  16
ENDBRANCH  14  15
ENDBRANCH  13  14
ENDBRANCH   7  13
BRANCH   8  20
HETATM   20  C   UNL     1     -11.271   8.818  71.053  1.00  0.00    -0.273 C  
HETATM   21  O   UNL     1     -10.454   8.763  71.961  1.00  0.00    -0.326 OA 
BRANCH  20  22
HETATM   22  O   UNL     1     -12.389   8.056  70.987  1.00  0.00    -0.263 OA 
HETATM   23  C   UNL     1     -12.275   6.776  71.622  1.00  0.00    -0.365 C  
ENDBRANCH  20  22
ENDBRANCH   8  20
BRANCH  11  24
HETATM   24  C   UNL     1      -9.183   8.466  68.841  1.00  0.00    -0.147 A  
HETATM   25  C   UNL     1      -9.180   7.068  68.666  1.00  0.00    -0.131 A  
HETATM   26  C   UNL     1      -8.053   6.307  68.994  1.00  0.00    -0.110 A  
HETATM   27  C   UNL     1      -6.906   6.921  69.488  1.00  0.00    -0.051 A  
HETATM   28  C   UNL     1      -6.882   8.303  69.656  1.00  0.00    -0.044 A  
HETATM   29  C   UNL     1      -8.008   9.073  69.342  1.00  0.00    -0.100 A  
HETATM   30 CL   UNL     1      -7.888  10.775  69.645  1.00  0.00    -0.056 Cl 
ENDBRANCH  11  24
ENDBRANCH   4   6
ENDBRANCH   3   4
ENDBRANCH   2   3
TORSDOF 10
ENDMDL
MODEL       98
REMARK 921   NORMALIZED FREE ENERGY PREDICTED BY IDOCK:   -4.09 KCAL/MOL
REMARK 922        TOTAL FREE ENERGY PREDICTED BY IDOCK:   -8.04 KCAL/MOL
REMARK 923 INTER-LIGAND FREE ENERGY PREDICTED BY IDOCK:   -5.94 KCAL/MOL
REMARK 924 INTRA-LIGAND FREE ENERGY PREDICTED BY IDOCK:   -2.10 KCAL/MOL
REMARK 927      BINDING AFFINITY PREDICTED BY RF-SCORE:    0.00 PKD
ROOT
HETATM    1  C   UNL     1      -8.418   8.478  67.550  1.00  0.00    -0.128 C  
HETATM    2  C   UNL     1      -9.932   8.602  67.660  1.00  0.00    -0.194 C  
ENDROOT
BRANCH   2   3
HETATM    3  O   UNL     1     -10.392   8.021  68.887  1.00  0.00    -0.208 OA 
BRANCH   3   4
HETATM    4  C   UNL     1     -10.941   6.785  68.812  1.00  0.00    -0.209 C  
HETATM    5  O   UNL     1     -11.370   6.315  67.770  1.00  0.00    -0.250 OA 
BRANCH   4   6
HETATM    6  C   UNL     1     -10.907   6.068  70.136  1.00  0.00    -0.409 C  
HETATM    7  C   UNL     1     -11.658   6.448  71.205  1.00  0.00    -0.318 C  
HETATM    8  C   UNL     1      -9.857   4.282  71.701  1.00  0.00    -0.257 C  
HETATM    9  N   UNL     1     -11.595   5.737  72.389  1.00  0.00    -0.296 NA 
HETATM   10  C   UNL     1     -10.682   4.743  72.674  1.00  0.00    -0.199 C  
HETATM   11  C   UNL     1      -9.962   4.834  70.259  1.00  0.00    -0.320 C  
HETATM   12  C   UNL     1     -10.717   4.227  74.094  1.00  0.00    -0.303 C  
BRANCH   7  13
HETATM   13  C   UNL     1     -12.592   7.649  71.228  1.00  0.00    -0.289 C  
BRANCH  13  14
HETATM   14  O   UNL     1     -11.944   8.850  71.684  1.00  0.00    -0.301 OA 
BRANCH  14  15
HETATM   15  C   UNL     1     -12.829   9.959  71.426  1.00  0.00    -0.405 C  
BRANCH  15  16
HETATM   16  C   UNL     1     -12.178  10.966  70.479  1.00  0.00    -0.367 C  
HETATM   17  N   UNL     1     -12.407  10.595  69.082  1.00  0.00    -0.755 NA 
HETATM   18  H2  UNL     1     -13.400  10.478  68.881  1.00  0.00     0.000 HD 
HETATM   19  H1  UNL     1     -11.973  11.267  68.450  1.00  0.00     0.000 HD 
ENDBRANCH  15  16
ENDBRANCH  14  15
ENDBRANCH  13  14
ENDBRANCH   7  13
BRANCH   8  20
HETATM   20  C   UNL     1      -8.854   3.230  72.038  1.00  0.00    -0.087 C  
HETATM   21  O   UNL     1      -8.999   2.040  71.795  1.00  0.00    -0.070 OA 
BRANCH  20  22
HETATM   22  O   UNL     1      -7.762   3.756  72.644  1.00  0.00    -0.065 OA 
HETATM   23  C   UNL     1      -6.511   3.271  72.141  1.00  0.00    -0.015 C  
ENDBRANCH  20  22
ENDBRANCH   8  20
BRANCH  11  24
HETATM   24  C   UNL     1      -8.591   5.075  69.609  1.00  0.00    -0.099 A  
HETATM   25  C   UNL     1      -8.179   4.282  68.520  1.00  0.00    -0.087 A  
HETATM   26  C   UNL     1      -6.897   4.417  67.978  1.00  0.00    -0.055 A  
HETATM   27  C   UNL     1      -6.005   5.350  68.500  1.00  0.00    -0.021 A  
HETATM   28  C   UNL     1      -6.396   6.154  69.567  1.00  0.00    -0.038 A  
HETATM   29  C   UNL     1      -7.673   6.019  70.124  1.00  0.00    -0.096 A  
HETATM   30 CL   UNL     1      -8.031   7.029  71.486  1.00  0.00    -0.102 Cl 
ENDBRANCH  11  24
ENDBRANCH   4   6
ENDBRANCH   3   4
ENDBRANCH   2   3
TORSDOF 10
ENDMDL
MODEL       99
REMARK 921   NORMALIZED FREE ENERGY PREDICTED BY IDOCK:   -4.05 KCAL/MOL
REMARK 922        TOTAL FREE ENERGY PREDICTED BY IDOCK:   -7.98 KCAL/MOL
REMARK 923 INTER-LIGAND FREE ENERGY PREDICTED BY IDOCK:   -6.47 KCAL/MOL
REMARK 924 INTRA-LIGAND FREE ENERGY PREDICTED BY IDOCK:   -1.51 KCAL/MOL
REMARK 927      BINDING AFFINITY PREDICTED BY RF-SCORE:    0.00 PKD
ROOT
HETATM    1  C   UNL     1     -11.061  14.969  69.704  1.00  0.00    -0.291 C  
HETATM    2  C   UNL     1     -11.927  13.750  69.414  1.00  0.00    -0.347 C  
ENDROOT
BRANCH   2   3
HETATM    3  O   UNL     1     -11.162  12.547  69.567  1.00  0.00    -0.197 OA 
BRANCH   3   4
HETATM    4  C   UNL     1     -11.705  11.408  69.075  1.00  0.00    -0.343 C  
HETATM    5  O   UNL     1     -12.910  11.238  68.980  1.00  0.00     0.001 OA 
BRANCH   4   6
HETATM    6  C   UNL     1     -10.654  10.426  68.628  1.00  0.00    -0.234 C  
HETATM    7  C   UNL     1     -10.213   9.403  69.409  1.00  0.00    -0.207 C  
HETATM    8  C   UNL     1      -8.867   9.677  66.900  1.00  0.00    -0.143 C  
HETATM    9  N   UNL     1      -9.257   8.525  68.932  1.00  0.00    -0.146 NA 
HETATM   10  C   UNL     1      -8.543   8.682  67.763  1.00  0.00    -0.136 C  
HETATM   11  C   UNL     1     -10.064  10.612  67.197  1.00  0.00    -0.248 C  
HETATM   12  C   UNL     1      -7.444   7.668  67.542  1.00  0.00    -0.104 C  
BRANCH   7  13
HETATM   13  C   UNL     1     -10.681   9.132  70.831  1.00  0.00    -0.275 C  
BRANCH  13  14
HETATM   14  O   UNL     1     -10.126   7.922  71.378  1.00  0.00    -0.174 OA 
BRANCH  14  15
HETATM   15  C   UNL     1     -10.698   7.721  72.686  1.00  0.00    -0.343 C  
BRANCH  15  16
HETATM   16  C   UNL     1     -10.772   6.233  73.026  1.00  0.00    -0.253 C  
HETATM   17  N   UNL     1     -12.103   5.696  72.737  1.00  0.00    -0.514 NA 
HETATM   18  H2  UNL     1     -12.380   5.876  71.773  1.00  0.00     0.000 HD 
HETATM   19  H1  UNL     1     -12.152   4.703  72.964  1.00  0.00     0.000 HD 
ENDBRANCH  15  16
ENDBRANCH  14  15
ENDBRANCH  13  14
ENDBRANCH   7  13
BRANCH   8  20
HETATM   20  C   UNL     1      -8.060   9.849  65.657  1.00  0.00    -0.128 C  
HETATM   21  O   UNL     1      -6.978  10.416  65.613  1.00  0.00    -0.128 OA 
BRANCH  20  22
HETATM   22  O   UNL     1      -8.674   9.296  64.582  1.00  0.00    -0.185 OA 
HETATM   23  C   UNL     1      -8.145   9.711  63.317  1.00  0.00    -0.149 C  
ENDBRANCH  20  22
ENDBRANCH   8  20
BRANCH  11  24
HETATM   24  C   UNL     1      -9.769  12.083  66.867  1.00  0.00    -0.213 A  
HETATM   25  C   UNL     1      -8.638  12.716  67.419  1.00  0.00    -0.189 A  
HETATM   26  C   UNL     1      -8.406  14.079  67.211  1.00  0.00    -0.209 A  
HETATM   27  C   UNL     1      -9.285  14.836  66.442  1.00  0.00    -0.301 A  
HETATM   28  C   UNL     1     -10.402  14.228  65.875  1.00  0.00    -0.325 A  
HETATM   29  C   UNL     1     -10.650  12.867  66.086  1.00  0.00    -0.271 A  
HETATM   30 CL   UNL     1     -12.100  12.230  65.383  1.00  0.00    -0.419 Cl 
ENDBRANCH  11  24
ENDBRANCH   4   6
ENDBRANCH   3   4
ENDBRANCH   2   3
TORSDOF 10
ENDMDL
MODEL      100
REMARK 921   NORMALIZED FREE ENERGY PREDICTED BY IDOCK:   -4.05 KCAL/MOL
REMARK 922        TOTAL FREE ENERGY PREDICTED BY IDOCK:   -7.97 KCAL/MOL
REMARK 923 INTER-LIGAND FREE ENERGY PREDICTED BY IDOCK:   -6.89 KCAL/MOL
REMARK 924 INTRA-LIGAND FREE ENERGY PREDICTED BY IDOCK:   -1.08 KCAL/MOL
REMARK 927      BINDING AFFINITY PREDICTED BY RF-SCORE:    0.00 PKD
ROOT
HETATM    1  C   UNL     1     -10.276  18.736  68.467  1.00  0.00    -0.397 C  
HETATM    2  C   UNL     1     -10.639  17.840  67.290  1.00  0.00    -0.316 C  
ENDROOT
BRANCH   2   3
HETATM    3  O   UNL     1     -10.218  16.493  67.541  1.00  0.00    -0.269 OA 
BRANCH   3   4
HETATM    4  C   UNL     1      -9.706  15.806  66.492  1.00  0.00    -0.265 C  
HETATM    5  O   UNL     1      -9.901  16.130  65.332  1.00  0.00    -0.474 OA 
BRANCH   4   6
HETATM    6  C   UNL     1      -8.848  14.650  66.936  1.00  0.00    -0.267 C  
HETATM    7  C   UNL     1      -7.523  14.775  67.221  1.00  0.00    -0.141 C  
HETATM    8  C   UNL     1      -8.541  12.105  67.348  1.00  0.00    -0.175 C  
HETATM    9  N   UNL     1      -6.794  13.678  67.640  1.00  0.00    -0.170 NA 
HETATM   10  C   UNL     1      -7.242  12.373  67.634  1.00  0.00    -0.130 C  
HETATM   11  C   UNL     1      -9.536  13.258  67.070  1.00  0.00    -0.243 C  
HETATM   12  C   UNL     1      -6.202  11.336  67.991  1.00  0.00    -0.049 C  
BRANCH   7  13
HETATM   13  C   UNL     1      -6.726  16.066  67.099  1.00  0.00    -0.170 C  
BRANCH  13  14
HETATM   14  O   UNL     1      -7.267  17.132  67.900  1.00  0.00    -0.163 OA 
BRANCH  14  15
HETATM   15  C   UNL     1      -6.948  16.859  69.280  1.00  0.00    -0.211 C  
BRANCH  15  16
HETATM   16  C   UNL     1      -5.439  16.916  69.511  1.00  0.00    -0.164 C  
HETATM   17  N   UNL     1      -5.131  17.508  70.814  1.00  0.00    -0.256 NA 
HETATM   18  H2  UNL     1      -5.609  17.021  71.571  1.00  0.00     0.000 HD 
HETATM   19  H1  UNL     1      -4.124  17.546  70.969  1.00  0.00     0.000 HD 
ENDBRANCH  15  16
ENDBRANCH  14  15
ENDBRANCH  13  14
ENDBRANCH   7  13
BRANCH   8  20
HETATM   20  C   UNL     1      -8.997  10.685  67.314  1.00  0.00    -0.136 C  
HETATM   21  O   UNL     1      -8.476   9.812  66.635  1.00  0.00    -0.123 OA 
BRANCH  20  22
HETATM   22  O   UNL     1     -10.058  10.482  68.133  1.00  0.00    -0.152 OA 
HETATM   23  C   UNL     1      -9.713  10.160  69.486  1.00  0.00    -0.229 C  
ENDBRANCH  20  22
ENDBRANCH   8  20
BRANCH  11  24
HETATM   24  C   UNL     1     -10.489  12.956  65.904  1.00  0.00    -0.294 A  
HETATM   25  C   UNL     1      -9.972  12.533  64.663  1.00  0.00    -0.176 A  
HETATM   26  C   UNL     1     -10.813  12.349  63.561  1.00  0.00    -0.487 A  
HETATM   27  C   UNL     1     -12.183  12.570  63.673  1.00  0.00    -0.642 A  
HETATM   28  C   UNL     1     -12.717  12.975  64.893  1.00  0.00    -0.456 A  
HETATM   29  C   UNL     1     -11.883  13.173  66.000  1.00  0.00    -0.407 A  
HETATM   30 CL   UNL     1     -12.647  13.734  67.450  1.00  0.00     0.069 Cl 
ENDBRANCH  11  24
ENDBRANCH   4   6
ENDBRANCH   3   4
ENDBRANCH   2   3
TORSDOF 10
ENDMDL
MODEL      101
REMARK 921   NORMALIZED FREE ENERGY PREDICTED BY IDOCK:   -4.05 KCAL/MOL
REMARK 922        TOTAL FREE ENERGY PREDICTED BY IDOCK:   -7.97 KCAL/MOL
REMARK 923 INTER-LIGAND FREE ENERGY PREDICTED BY IDOCK:   -5.98 KCAL/MOL
REMARK 924 INTRA-LIGAND FREE ENERGY PREDICTED BY IDOCK:   -1.99 KCAL/MOL
REMARK 927      BINDING AFFINITY PREDICTED BY RF-SCORE:    0.00 PKD
ROOT
HETATM    1  C   UNL     1      -9.993   4.886  70.698  1.00  0.00    -0.305 C  
HETATM    2  C   UNL     1     -10.725   5.524  69.525  1.00  0.00    -0.262 C  
ENDROOT
BRANCH   2   3
HETATM    3  O   UNL     1      -9.823   5.738  68.432  1.00  0.00    -0.127 OA 
BRANCH   3   4
HETATM    4  C   UNL     1     -10.178   6.671  67.517  1.00  0.00    -0.181 C  
HETATM    5  O   UNL     1     -11.304   6.744  67.051  1.00  0.00    -0.337 OA 
BRANCH   4   6
HETATM    6  C   UNL     1      -9.046   7.612  67.197  1.00  0.00    -0.146 C  
HETATM    7  C   UNL     1      -7.941   7.233  66.501  1.00  0.00    -0.115 C  
HETATM    8  C   UNL     1      -7.890   9.919  67.483  1.00  0.00    -0.098 C  
HETATM    9  N   UNL     1      -6.943   8.150  66.225  1.00  0.00    -0.062 NA 
HETATM   10  C   UNL     1      -6.862   9.422  66.751  1.00  0.00    -0.080 C  
HETATM   11  C   UNL     1      -9.176   9.084  67.695  1.00  0.00    -0.150 C  
HETATM   12  C   UNL     1      -5.593  10.174  66.420  1.00  0.00    -0.052 C  
BRANCH   7  13
HETATM   13  C   UNL     1      -7.676   5.825  65.989  1.00  0.00    -0.095 C  
BRANCH  13  14
HETATM   14  O   UNL     1      -8.543   5.456  64.902  1.00  0.00    -0.149 OA 
BRANCH  14  15
HETATM   15  C   UNL     1      -8.930   4.079  65.089  1.00  0.00    -0.133 C  
BRANCH  15  16
HETATM   16  C   UNL     1     -10.221   3.768  64.333  1.00  0.00    -0.222 C  
HETATM   17  N   UNL     1     -11.364   4.444  64.950  1.00  0.00    -1.085 NA 
HETATM   18  H2  UNL     1     -11.208   5.449  65.031  1.00  0.00     0.000 HD 
HETATM   19  H1  UNL     1     -12.226   4.237  64.446  1.00  0.00     0.000 HD 
ENDBRANCH  15  16
ENDBRANCH  14  15
ENDBRANCH  13  14
ENDBRANCH   7  13
BRANCH   8  20
HETATM   20  C   UNL     1      -7.768  11.285  68.071  1.00  0.00    -0.108 C  
HETATM   21  O   UNL     1      -7.140  11.542  69.088  1.00  0.00    -0.112 OA 
BRANCH  20  22
HETATM   22  O   UNL     1      -8.437  12.207  67.335  1.00  0.00    -0.156 OA 
HETATM   23  C   UNL     1      -9.360  13.008  68.083  1.00  0.00    -0.217 C  
ENDBRANCH  20  22
ENDBRANCH   8  20
BRANCH  11  24
HETATM   24  C   UNL     1      -9.718   9.176  69.129  1.00  0.00    -0.163 A  
HETATM   25  C   UNL     1      -9.044   8.524  70.181  1.00  0.00    -0.154 A  
HETATM   26  C   UNL     1      -9.574   8.512  71.475  1.00  0.00    -0.297 A  
HETATM   27  C   UNL     1     -10.776   9.156  71.751  1.00  0.00    -0.405 A  
HETATM   28  C   UNL     1     -11.452   9.819  70.731  1.00  0.00    -0.417 A  
HETATM   29  C   UNL     1     -10.937   9.828  69.430  1.00  0.00    -0.212 A  
HETATM   30 CL   UNL     1     -11.892  10.631  68.227  1.00  0.00    -0.143 Cl 
ENDBRANCH  11  24
ENDBRANCH   4   6
ENDBRANCH   3   4
ENDBRANCH   2   3
TORSDOF 10
ENDMDL
MODEL      102
REMARK 921   NORMALIZED FREE ENERGY PREDICTED BY IDOCK:   -4.04 KCAL/MOL
REMARK 922        TOTAL FREE ENERGY PREDICTED BY IDOCK:   -7.96 KCAL/MOL
REMARK 923 INTER-LIGAND FREE ENERGY PREDICTED BY IDOCK:   -5.91 KCAL/MOL
REMARK 924 INTRA-LIGAND FREE ENERGY PREDICTED BY IDOCK:   -2.04 KCAL/MOL
REMARK 927      BINDING AFFINITY PREDICTED BY RF-SCORE:    0.00 PKD
ROOT
HETATM    1  C   UNL     1      -8.524   6.256  65.537  1.00  0.00    -0.145 C  
HETATM    2  C   UNL     1      -9.576   6.210  66.638  1.00  0.00    -0.152 C  
ENDROOT
BRANCH   2   3
HETATM    3  O   UNL     1      -9.073   6.818  67.834  1.00  0.00    -0.118 OA 
BRANCH   3   4
HETATM    4  C   UNL     1      -9.687   7.950  68.252  1.00  0.00    -0.160 C  
HETATM    5  O   UNL     1     -10.901   8.069  68.285  1.00  0.00    -0.072 OA 
BRANCH   4   6
HETATM    6  C   UNL     1      -8.702   8.996  68.705  1.00  0.00    -0.136 C  
HETATM    7  C   UNL     1      -8.341   9.162  70.006  1.00  0.00    -0.150 C  
HETATM    8  C   UNL     1      -7.230  11.071  68.190  1.00  0.00    -0.083 C  
HETATM    9  N   UNL     1      -7.418  10.131  70.355  1.00  0.00    -0.260 NA 
HETATM   10  C   UNL     1      -6.930  11.107  69.513  1.00  0.00    -0.111 C  
HETATM   11  C   UNL     1      -8.080   9.915  67.610  1.00  0.00    -0.110 C  
HETATM   12  C   UNL     1      -6.052  12.145  70.173  1.00  0.00    -0.121 C  
BRANCH   7  13
HETATM   13  C   UNL     1      -8.897   8.357  71.172  1.00  0.00    -0.164 C  
BRANCH  13  14
HETATM   14  O   UNL     1      -9.965   9.034  71.857  1.00  0.00    -0.332 OA 
BRANCH  14  15
HETATM   15  C   UNL     1     -10.927   8.043  72.274  1.00  0.00    -0.314 C  
BRANCH  15  16
HETATM   16  C   UNL     1     -12.201   8.134  71.435  1.00  0.00    -0.297 C  
HETATM   17  N   UNL     1     -12.182   9.324  70.583  1.00  0.00    -0.483 NA 
HETATM   18  H2  UNL     1     -11.346   9.357  70.001  1.00  0.00     0.000 HD 
HETATM   19  H1  UNL     1     -13.032   9.385  70.023  1.00  0.00     0.000 HD 
ENDBRANCH  15  16
ENDBRANCH  14  15
ENDBRANCH  13  14
ENDBRANCH   7  13
BRANCH   8  20
HETATM   20  C   UNL     1      -6.719  12.156  67.302  1.00  0.00    -0.144 C  
HETATM   21  O   UNL     1      -5.735  12.050  66.584  1.00  0.00    -0.277 OA 
BRANCH  20  22
HETATM   22  O   UNL     1      -7.483  13.272  67.386  1.00  0.00    -0.162 OA 
HETATM   23  C   UNL     1      -6.748  14.479  67.622  1.00  0.00    -0.173 C  
ENDBRANCH  20  22
ENDBRANCH   8  20
BRANCH  11  24
HETATM   24  C   UNL     1      -9.117  10.393  66.582  1.00  0.00    -0.169 A  
HETATM   25  C   UNL     1      -8.955  10.074  65.220  1.00  0.00    -0.220 A  
HETATM   26  C   UNL     1      -9.832  10.582  64.255  1.00  0.00    -0.402 A  
HETATM   27  C   UNL     1     -10.891  11.405  64.628  1.00  0.00    -0.359 A  
HETATM   28  C   UNL     1     -11.078  11.722  65.970  1.00  0.00    -0.363 A  
HETATM   29  C   UNL     1     -10.200  11.228  66.942  1.00  0.00    -0.219 A  
HETATM   30 CL   UNL     1     -10.492  11.735  68.573  1.00  0.00    -0.217 Cl 
ENDBRANCH  11  24
ENDBRANCH   4   6
ENDBRANCH   3   4
ENDBRANCH   2   3
TORSDOF 10
ENDMDL
MODEL      103
REMARK 921   NORMALIZED FREE ENERGY PREDICTED BY IDOCK:   -4.01 KCAL/MOL
REMARK 922        TOTAL FREE ENERGY PREDICTED BY IDOCK:   -7.92 KCAL/MOL
REMARK 923 INTER-LIGAND FREE ENERGY PREDICTED BY IDOCK:   -6.21 KCAL/MOL
REMARK 924 INTRA-LIGAND FREE ENERGY PREDICTED BY IDOCK:   -1.71 KCAL/MOL
REMARK 927      BINDING AFFINITY PREDICTED BY RF-SCORE:    0.00 PKD
ROOT
HETATM    1  C   UNL     1      -7.861  14.850  67.201  1.00  0.00    -0.203 C  
HETATM    2  C   UNL     1      -6.866  13.716  67.412  1.00  0.00    -0.033 C  
ENDROOT
BRANCH   2   3
HETATM    3  O   UNL     1      -7.439  12.699  68.243  1.00  0.00    -0.106 OA 
BRANCH   3   4
HETATM    4  C   UNL     1      -8.089  11.689  67.617  1.00  0.00    -0.140 C  
HETATM    5  O   UNL     1      -7.943  11.446  66.430  1.00  0.00    -0.156 OA 
BRANCH   4   6
HETATM    6  C   UNL     1      -8.954  10.897  68.563  1.00  0.00    -0.157 C  
HETATM    7  C   UNL     1      -8.678   9.615  68.924  1.00  0.00    -0.132 C  
HETATM    8  C   UNL     1     -11.134  10.660  69.952  1.00  0.00    -0.364 C  
HETATM    9  N   UNL     1      -9.504   8.948  69.810  1.00  0.00    -0.166 NA 
HETATM   10  C   UNL     1     -10.727   9.402  70.256  1.00  0.00    -0.253 C  
HETATM   11  C   UNL     1     -10.215  11.607  69.144  1.00  0.00     0.007 C  
HETATM   12  C   UNL     1     -11.509   8.419  71.097  1.00  0.00    -0.314 C  
BRANCH   7  13
HETATM   13  C   UNL     1      -7.503   8.799  68.405  1.00  0.00    -0.091 C  
BRANCH  13  14
HETATM   14  O   UNL     1      -7.793   7.392  68.326  1.00  0.00    -0.117 OA 
BRANCH  14  15
HETATM   15  C   UNL     1      -8.301   7.116  67.005  1.00  0.00    -0.118 C  
BRANCH  15  16
HETATM   16  C   UNL     1      -7.542   7.920  65.950  1.00  0.00    -0.083 C  
HETATM   17  N   UNL     1      -8.458   8.459  64.944  1.00  0.00    -0.287 NA 
HETATM   18  H2  UNL     1      -9.204   9.008  65.369  1.00  0.00     0.000 HD 
HETATM   19  H1  UNL     1      -7.951   8.996  64.240  1.00  0.00     0.000 HD 
ENDBRANCH  15  16
ENDBRANCH  14  15
ENDBRANCH  13  14
ENDBRANCH   7  13
BRANCH   8  20
HETATM   20  C   UNL     1     -12.476  11.120  70.416  1.00  0.00    -0.299 C  
HETATM   21  O   UNL     1     -13.516  10.504  70.228  1.00  0.00     0.025 OA 
BRANCH  20  22
HETATM   22  O   UNL     1     -12.398  12.302  71.075  1.00  0.00    -0.351 OA 
HETATM   23  C   UNL     1     -13.406  12.492  72.075  1.00  0.00    -0.426 C  
ENDBRANCH  20  22
ENDBRANCH   8  20
BRANCH  11  24
HETATM   24  C   UNL     1     -10.975  12.419  68.085  1.00  0.00    -0.263 A  
HETATM   25  C   UNL     1     -11.454  11.785  66.921  1.00  0.00    -0.364 A  
HETATM   26  C   UNL     1     -12.061  12.523  65.900  1.00  0.00    -0.420 A  
HETATM   27  C   UNL     1     -12.214  13.901  66.020  1.00  0.00    -0.495 A  
HETATM   28  C   UNL     1     -11.761  14.546  67.168  1.00  0.00    -0.420 A  
HETATM   29  C   UNL     1     -11.142  13.819  68.191  1.00  0.00    -0.259 A  
HETATM   30 CL   UNL     1     -10.565  14.732  69.546  1.00  0.00    -0.229 Cl 
ENDBRANCH  11  24
ENDBRANCH   4   6
ENDBRANCH   3   4
ENDBRANCH   2   3
TORSDOF 10
ENDMDL
MODEL      104
REMARK 921   NORMALIZED FREE ENERGY PREDICTED BY IDOCK:   -4.01 KCAL/MOL
REMARK 922        TOTAL FREE ENERGY PREDICTED BY IDOCK:   -7.91 KCAL/MOL
REMARK 923 INTER-LIGAND FREE ENERGY PREDICTED BY IDOCK:   -6.87 KCAL/MOL
REMARK 924 INTRA-LIGAND FREE ENERGY PREDICTED BY IDOCK:   -1.04 KCAL/MOL
REMARK 927      BINDING AFFINITY PREDICTED BY RF-SCORE:    0.00 PKD
ROOT
HETATM    1  C   UNL     1     -11.695  13.556  64.263  1.00  0.00    -0.455 C  
HETATM    2  C   UNL     1     -10.406  13.298  65.034  1.00  0.00    -0.340 C  
ENDROOT
BRANCH   2   3
HETATM    3  O   UNL     1     -10.418  14.012  66.277  1.00  0.00    -0.278 OA 
BRANCH   3   4
HETATM    4  C   UNL     1      -9.801  13.422  67.328  1.00  0.00    -0.233 C  
HETATM    5  O   UNL     1      -8.623  13.103  67.309  1.00  0.00    -0.194 OA 
BRANCH   4   6
HETATM    6  C   UNL     1     -10.722  13.261  68.509  1.00  0.00    -0.280 C  
HETATM    7  C   UNL     1     -11.058  14.289  69.334  1.00  0.00    -0.246 C  
HETATM    8  C   UNL     1     -12.087  11.733  70.105  1.00  0.00    -0.398 C  
HETATM    9  N   UNL     1     -11.924  14.079  70.392  1.00  0.00    -0.323 NA 
HETATM   10  C   UNL     1     -12.368  12.847  70.826  1.00  0.00    -0.299 C  
HETATM   11  C   UNL     1     -11.307  11.840  68.772  1.00  0.00    -0.325 C  
HETATM   12  C   UNL     1     -13.181  12.870  72.100  1.00  0.00    -0.552 C  
BRANCH   7  13
HETATM   13  C   UNL     1     -10.533  15.711  69.209  1.00  0.00    -0.247 C  
BRANCH  13  14
HETATM   14  O   UNL     1     -11.312  16.514  68.304  1.00  0.00    -0.331 OA 
BRANCH  14  15
HETATM   15  C   UNL     1     -10.400  17.296  67.505  1.00  0.00    -0.346 C  
BRANCH  15  16
HETATM   16  C   UNL     1      -8.953  17.038  67.921  1.00  0.00    -0.228 C  
HETATM   17  N   UNL     1      -8.145  18.252  67.785  1.00  0.00    -0.246 NA 
HETATM   18  H2  UNL     1      -8.551  19.034  68.299  1.00  0.00     0.000 HD 
HETATM   19  H1  UNL     1      -7.179  18.080  68.063  1.00  0.00     0.000 HD 
ENDBRANCH  15  16
ENDBRANCH  14  15
ENDBRANCH  13  14
ENDBRANCH   7  13
BRANCH   8  20
HETATM   20  C   UNL     1     -12.548  10.407  70.609  1.00  0.00    -0.348 C  
HETATM   21  O   UNL     1     -13.576   9.853  70.244  1.00  0.00     0.132 OA 
BRANCH  20  22
HETATM   22  O   UNL     1     -11.687   9.891  71.519  1.00  0.00    -0.380 OA 
HETATM   23  C   UNL     1     -12.237   8.849  72.335  1.00  0.00    -0.295 C  
ENDBRANCH  20  22
ENDBRANCH   8  20
BRANCH  11  24
HETATM   24  C   UNL     1     -10.258  10.730  68.603  1.00  0.00    -0.198 A  
HETATM   25  C   UNL     1      -9.351  10.453  69.644  1.00  0.00    -0.096 A  
HETATM   26  C   UNL     1      -8.327   9.517  69.474  1.00  0.00    -0.145 A  
HETATM   27  C   UNL     1      -8.192   8.829  68.271  1.00  0.00    -0.118 A  
HETATM   28  C   UNL     1      -9.086   9.076  67.233  1.00  0.00    -0.151 A  
HETATM   29  C   UNL     1     -10.108  10.020  67.389  1.00  0.00    -0.208 A  
HETATM   30 CL   UNL     1     -11.125  10.289  66.012  1.00  0.00     0.254 Cl 
ENDBRANCH  11  24
ENDBRANCH   4   6
ENDBRANCH   3   4
ENDBRANCH   2   3
TORSDOF 10
ENDMDL
MODEL      105
REMARK 921   NORMALIZED FREE ENERGY PREDICTED BY IDOCK:   -3.99 KCAL/MOL
REMARK 922        TOTAL FREE ENERGY PREDICTED BY IDOCK:   -7.88 KCAL/MOL
REMARK 923 INTER-LIGAND FREE ENERGY PREDICTED BY IDOCK:   -7.29 KCAL/MOL
REMARK 924 INTRA-LIGAND FREE ENERGY PREDICTED BY IDOCK:   -0.59 KCAL/MOL
REMARK 927      BINDING AFFINITY PREDICTED BY RF-SCORE:    0.00 PKD
ROOT
HETATM    1  C   UNL     1     -12.574  15.520  70.625  1.00  0.00    -0.493 C  
HETATM    2  C   UNL     1     -11.118  15.967  70.659  1.00  0.00    -0.330 C  
ENDROOT
BRANCH   2   3
HETATM    3  O   UNL     1     -10.257  14.888  70.276  1.00  0.00     0.006 OA 
BRANCH   3   4
HETATM    4  C   UNL     1      -9.308  15.161  69.348  1.00  0.00    -0.175 C  
HETATM    5  O   UNL     1      -8.283  15.769  69.611  1.00  0.00    -0.193 OA 
BRANCH   4   6
HETATM    6  C   UNL     1      -9.652  14.587  67.999  1.00  0.00    -0.217 C  
HETATM    7  C   UNL     1      -9.184  13.387  67.561  1.00  0.00    -0.219 C  
HETATM    8  C   UNL     1     -10.738  14.847  65.655  1.00  0.00    -0.352 C  
HETATM    9  N   UNL     1      -9.551  12.907  66.317  1.00  0.00    -0.263 NA 
HETATM   10  C   UNL     1     -10.232  13.624  65.356  1.00  0.00    -0.313 C  
HETATM   11  C   UNL     1     -10.594  15.426  67.083  1.00  0.00    -0.305 C  
HETATM   12  C   UNL     1     -10.376  12.931  64.020  1.00  0.00    -0.346 C  
BRANCH   7  13
HETATM   13  C   UNL     1      -8.235  12.488  68.339  1.00  0.00    -0.136 C  
BRANCH  13  14
HETATM   14  O   UNL     1      -7.902  11.282  67.629  1.00  0.00    -0.110 OA 
BRANCH  14  15
HETATM   15  C   UNL     1      -8.152  10.164  68.506  1.00  0.00    -0.106 C  
BRANCH  15  16
HETATM   16  C   UNL     1      -9.618  10.126  68.935  1.00  0.00    -0.184 C  
HETATM   17  N   UNL     1      -9.743   9.714  70.334  1.00  0.00    -0.273 NA 
HETATM   18  H2  UNL     1      -9.186  10.304  70.952  1.00  0.00     0.000 HD 
HETATM   19  H1  UNL     1     -10.721   9.689  70.621  1.00  0.00     0.000 HD 
ENDBRANCH  15  16
ENDBRANCH  14  15
ENDBRANCH  13  14
ENDBRANCH   7  13
BRANCH   8  20
HETATM   20  C   UNL     1     -11.443  15.620  64.591  1.00  0.00    -0.303 C  
HETATM   21  O   UNL     1     -11.053  16.691  64.147  1.00  0.00    -1.005 OA 
BRANCH  20  22
HETATM   22  O   UNL     1     -12.567  14.987  64.176  1.00  0.00    -0.770 OA 
HETATM   23  C   UNL     1     -13.302  14.334  65.218  1.00  0.00     0.427 C  
ENDBRANCH  20  22
ENDBRANCH   8  20
BRANCH  11  24
HETATM   24  C   UNL     1     -10.243  16.922  67.089  1.00  0.00    -0.297 A  
HETATM   25  C   UNL     1     -11.216  17.871  67.460  1.00  0.00     0.308 A  
HETATM   26  C   UNL     1     -10.948  19.242  67.377  1.00  0.00    -0.445 A  
HETATM   27  C   UNL     1      -9.708  19.693  66.936  1.00  0.00    -0.482 A  
HETATM   28  C   UNL     1      -8.727  18.772  66.578  1.00  0.00    -0.317 A  
HETATM   29  C   UNL     1      -8.988  17.399  66.646  1.00  0.00    -0.252 A  
HETATM   30 CL   UNL     1      -7.716  16.346  66.120  1.00  0.00    -0.142 Cl 
ENDBRANCH  11  24
ENDBRANCH   4   6
ENDBRANCH   3   4
ENDBRANCH   2   3
TORSDOF 10
ENDMDL
MODEL      106
REMARK 921   NORMALIZED FREE ENERGY PREDICTED BY IDOCK:   -3.98 KCAL/MOL
REMARK 922        TOTAL FREE ENERGY PREDICTED BY IDOCK:   -7.87 KCAL/MOL
REMARK 923 INTER-LIGAND FREE ENERGY PREDICTED BY IDOCK:   -7.11 KCAL/MOL
REMARK 924 INTRA-LIGAND FREE ENERGY PREDICTED BY IDOCK:   -0.75 KCAL/MOL
REMARK 927      BINDING AFFINITY PREDICTED BY RF-SCORE:    0.00 PKD
ROOT
HETATM    1  C   UNL     1     -10.011  10.819  63.198  1.00  0.00    -0.341 C  
HETATM    2  C   UNL     1      -8.997  11.078  64.305  1.00  0.00    -0.038 C  
ENDROOT
BRANCH   2   3
HETATM    3  O   UNL     1      -9.573  10.789  65.585  1.00  0.00    -0.194 OA 
BRANCH   3   4
HETATM    4  C   UNL     1      -8.953  11.313  66.669  1.00  0.00    -0.176 C  
HETATM    5  O   UNL     1      -7.779  11.648  66.660  1.00  0.00    -0.139 OA 
BRANCH   4   6
HETATM    6  C   UNL     1      -9.890  11.471  67.838  1.00  0.00    -0.192 C  
HETATM    7  C   UNL     1     -10.580  10.432  68.381  1.00  0.00    -0.208 C  
HETATM    8  C   UNL     1     -11.171  12.996  69.504  1.00  0.00    -0.146 C  
HETATM    9  N   UNL     1     -11.413  10.640  69.466  1.00  0.00    -0.269 NA 
HETATM   10  C   UNL     1     -11.770  11.872  69.972  1.00  0.00    -0.286 C  
HETATM   11  C   UNL     1     -10.055  12.901  68.435  1.00  0.00    -0.227 C  
HETATM   12  C   UNL     1     -12.817  11.839  71.062  1.00  0.00    -0.309 C  
BRANCH   7  13
HETATM   13  C   UNL     1     -10.535   8.998  67.874  1.00  0.00    -0.234 C  
BRANCH  13  14
HETATM   14  O   UNL     1      -9.389   8.273  68.354  1.00  0.00    -0.136 OA 
BRANCH  14  15
HETATM   15  C   UNL     1      -9.788   7.538  69.529  1.00  0.00    -0.169 C  
BRANCH  15  16
HETATM   16  C   UNL     1     -10.857   6.502  69.186  1.00  0.00    -0.302 C  
HETATM   17  N   UNL     1     -12.011   6.626  70.079  1.00  0.00    -0.636 NA 
HETATM   18  H2  UNL     1     -12.389   7.572  70.076  1.00  0.00     0.000 HD 
HETATM   19  H1  UNL     1     -12.725   5.935  69.851  1.00  0.00     0.000 HD 
ENDBRANCH  15  16
ENDBRANCH  14  15
ENDBRANCH  13  14
ENDBRANCH   7  13
BRANCH   8  20
HETATM   20  C   UNL     1     -11.595  14.321  70.041  1.00  0.00    -0.261 C  
HETATM   21  O   UNL     1     -10.837  15.126  70.564  1.00  0.00    -0.263 OA 
BRANCH  20  22
HETATM   22  O   UNL     1     -12.925  14.524  69.876  1.00  0.00    -0.092 OA 
HETATM   23  C   UNL     1     -13.575  15.144  70.992  1.00  0.00    -0.409 C  
ENDBRANCH  20  22
ENDBRANCH   8  20
BRANCH  11  24
HETATM   24  C   UNL     1     -10.172  13.984  67.352  1.00  0.00    -0.248 A  
HETATM   25  C   UNL     1      -9.281  15.075  67.348  1.00  0.00    -0.200 A  
HETATM   26  C   UNL     1      -9.432  16.121  66.432  1.00  0.00    -0.323 A  
HETATM   27  C   UNL     1     -10.462  16.097  65.496  1.00  0.00    -0.407 A  
HETATM   28  C   UNL     1     -11.345  15.021  65.473  1.00  0.00    -0.312 A  
HETATM   29  C   UNL     1     -11.210  13.974  66.392  1.00  0.00    -0.319 A  
HETATM   30 CL   UNL     1     -12.401  12.718  66.311  1.00  0.00    -0.278 Cl 
ENDBRANCH  11  24
ENDBRANCH   4   6
ENDBRANCH   3   4
ENDBRANCH   2   3
TORSDOF 10
ENDMDL
MODEL      107
REMARK 921   NORMALIZED FREE ENERGY PREDICTED BY IDOCK:   -3.96 KCAL/MOL
REMARK 922        TOTAL FREE ENERGY PREDICTED BY IDOCK:   -7.83 KCAL/MOL
REMARK 923 INTER-LIGAND FREE ENERGY PREDICTED BY IDOCK:   -6.67 KCAL/MOL
REMARK 924 INTRA-LIGAND FREE ENERGY PREDICTED BY IDOCK:   -1.16 KCAL/MOL
REMARK 927      BINDING AFFINITY PREDICTED BY RF-SCORE:    0.00 PKD
ROOT
HETATM    1  C   UNL     1     -13.204  10.124  71.100  1.00  0.00    -0.438 C  
HETATM    2  C   UNL     1     -11.702   9.879  71.037  1.00  0.00    -0.382 C  
ENDROOT
BRANCH   2   3
HETATM    3  O   UNL     1     -11.198  10.204  69.735  1.00  0.00    -0.246 OA 
BRANCH   3   4
HETATM    4  C   UNL     1      -9.871  10.025  69.530  1.00  0.00    -0.229 C  
HETATM    5  O   UNL     1      -9.054  10.042  70.436  1.00  0.00    -0.077 OA 
BRANCH   4   6
HETATM    6  C   UNL     1      -9.552   9.761  68.081  1.00  0.00    -0.158 C  
HETATM    7  C   UNL     1      -9.902  10.611  67.077  1.00  0.00    -0.185 C  
HETATM    8  C   UNL     1      -8.666   8.175  66.226  1.00  0.00    -0.172 C  
HETATM    9  N   UNL     1      -9.564  10.319  65.768  1.00  0.00    -0.207 NA 
HETATM   10  C   UNL     1      -9.040   9.121  65.329  1.00  0.00    -0.195 C  
HETATM   11  C   UNL     1      -8.782   8.448  67.746  1.00  0.00    -0.137 C  
HETATM   12  C   UNL     1      -8.904   8.992  63.829  1.00  0.00    -0.023 C  
BRANCH   7  13
HETATM   13  C   UNL     1     -10.681  11.904  67.265  1.00  0.00    -0.236 C  
BRANCH  13  14
HETATM   14  O   UNL     1     -11.865  11.963  66.449  1.00  0.00    -0.561 OA 
BRANCH  14  15
HETATM   15  C   UNL     1     -11.595  12.839  65.335  1.00  0.00    -0.358 C  
BRANCH  15  16
HETATM   16  C   UNL     1     -12.227  12.299  64.053  1.00  0.00    -0.475 C  
HETATM   17  N   UNL     1     -11.218  11.674  63.196  1.00  0.00    -0.795 NA 
HETATM   18  H2  UNL     1     -10.698  10.951  63.692  1.00  0.00     0.000 HD 
HETATM   19  H1  UNL     1     -11.639  11.314  62.340  1.00  0.00     0.000 HD 
ENDBRANCH  15  16
ENDBRANCH  14  15
ENDBRANCH  13  14
ENDBRANCH   7  13
BRANCH   8  20
HETATM   20  C   UNL     1      -8.132   6.874  65.728  1.00  0.00    -0.123 C  
HETATM   21  O   UNL     1      -6.943   6.636  65.568  1.00  0.00    -0.057 OA 
BRANCH  20  22
HETATM   22  O   UNL     1      -9.127   5.989  65.479  1.00  0.00    -0.092 OA 
HETATM   23  C   UNL     1      -8.856   5.076  64.408  1.00  0.00    -0.084 C  
ENDBRANCH  20  22
ENDBRANCH   8  20
BRANCH  11  24
HETATM   24  C   UNL     1      -9.309   7.238  68.531  1.00  0.00    -0.141 A  
HETATM   25  C   UNL     1     -10.696   7.053  68.693  1.00  0.00    -0.225 A  
HETATM   26  C   UNL     1     -11.193   6.015  69.488  1.00  0.00    -0.416 A  
HETATM   27  C   UNL     1     -10.323   5.135  70.125  1.00  0.00    -0.340 A  
HETATM   28  C   UNL     1      -8.949   5.291  69.968  1.00  0.00    -0.154 A  
HETATM   29  C   UNL     1      -8.440   6.333  69.184  1.00  0.00    -0.120 A  
HETATM   30 CL   UNL     1      -6.714   6.468  69.107  1.00  0.00    -0.047 Cl 
ENDBRANCH  11  24
ENDBRANCH   4   6
ENDBRANCH   3   4
ENDBRANCH   2   3
TORSDOF 10
ENDMDL
MODEL      108
REMARK 921   NORMALIZED FREE ENERGY PREDICTED BY IDOCK:   -3.96 KCAL/MOL
REMARK 922        TOTAL FREE ENERGY PREDICTED BY IDOCK:   -7.83 KCAL/MOL
REMARK 923 INTER-LIGAND FREE ENERGY PREDICTED BY IDOCK:   -6.34 KCAL/MOL
REMARK 924 INTRA-LIGAND FREE ENERGY PREDICTED BY IDOCK:   -1.50 KCAL/MOL
REMARK 927      BINDING AFFINITY PREDICTED BY RF-SCORE:    0.00 PKD
ROOT
HETATM    1  C   UNL     1      -8.159   7.840  65.268  1.00  0.00    -0.133 C  
HETATM    2  C   UNL     1      -8.316   6.975  66.513  1.00  0.00    -0.121 C  
ENDROOT
BRANCH   2   3
HETATM    3  O   UNL     1      -9.273   7.558  67.407  1.00  0.00    -0.130 OA 
BRANCH   3   4
HETATM    4  C   UNL     1      -8.786   8.330  68.407  1.00  0.00    -0.133 C  
HETATM    5  O   UNL     1      -7.724   8.098  68.963  1.00  0.00    -0.095 OA 
BRANCH   4   6
HETATM    6  C   UNL     1      -9.678   9.508  68.701  1.00  0.00    -0.163 C  
HETATM    7  C   UNL     1      -9.467  10.747  68.182  1.00  0.00    -0.158 C  
HETATM    8  C   UNL     1     -11.639  10.566  70.034  1.00  0.00    -0.392 C  
HETATM    9  N   UNL     1     -10.333  11.784  68.477  1.00  0.00    -0.213 NA 
HETATM   10  C   UNL     1     -11.336  11.739  69.423  1.00  0.00    -0.272 C  
HETATM   11  C   UNL     1     -10.895   9.266  69.645  1.00  0.00    -0.228 C  
HETATM   12  C   UNL     1     -12.044  13.051  69.671  1.00  0.00    -0.304 C  
BRANCH   7  13
HETATM   13  C   UNL     1      -8.302  11.124  67.278  1.00  0.00    -0.135 C  
BRANCH  13  14
HETATM   14  O   UNL     1      -7.030  11.038  67.944  1.00  0.00    -0.071 OA 
BRANCH  14  15
HETATM   15  C   UNL     1      -7.020  12.007  69.012  1.00  0.00    -0.094 C  
BRANCH  15  16
HETATM   16  C   UNL     1      -7.151  13.426  68.460  1.00  0.00    -0.108 C  
HETATM   17  N   UNL     1      -8.092  14.213  69.259  1.00  0.00    -0.344 NA 
HETATM   18  H2  UNL     1      -7.838  14.215  70.246  1.00  0.00     0.000 HD 
HETATM   19  H1  UNL     1      -8.180  15.160  68.892  1.00  0.00     0.000 HD 
ENDBRANCH  15  16
ENDBRANCH  14  15
ENDBRANCH  13  14
ENDBRANCH   7  13
BRANCH   8  20
HETATM   20  C   UNL     1     -12.704  10.546  71.078  1.00  0.00    -0.408 C  
HETATM   21  O   UNL     1     -12.749  11.314  72.029  1.00  0.00    -0.269 OA 
BRANCH  20  22
HETATM   22  O   UNL     1     -13.619   9.575  70.840  1.00  0.00    -0.226 OA 
HETATM   23  C   UNL     1     -14.034   8.851  72.005  1.00  0.00    -0.437 C  
ENDBRANCH  20  22
ENDBRANCH   8  20
BRANCH  11  24
HETATM   24  C   UNL     1     -10.536   8.396  70.859  1.00  0.00    -0.235 A  
HETATM   25  C   UNL     1      -9.768   8.936  71.910  1.00  0.00    -0.349 A  
HETATM   26  C   UNL     1      -9.347   8.135  72.976  1.00  0.00    -0.335 A  
HETATM   27  C   UNL     1      -9.690   6.787  73.025  1.00  0.00    -0.182 A  
HETATM   28  C   UNL     1     -10.460   6.236  72.005  1.00  0.00    -0.239 A  
HETATM   29  C   UNL     1     -10.878   7.026  70.927  1.00  0.00    -0.241 A  
HETATM   30 CL   UNL     1     -11.780   6.221  69.686  1.00  0.00    -0.322 Cl 
ENDBRANCH  11  24
ENDBRANCH   4   6
ENDBRANCH   3   4
ENDBRANCH   2   3
TORSDOF 10
ENDMDL
MODEL      109
REMARK 921   NORMALIZED FREE ENERGY PREDICTED BY IDOCK:   -3.93 KCAL/MOL
REMARK 922        TOTAL FREE ENERGY PREDICTED BY IDOCK:   -7.79 KCAL/MOL
REMARK 923 INTER-LIGAND FREE ENERGY PREDICTED BY IDOCK:   -5.95 KCAL/MOL
REMARK 924 INTRA-LIGAND FREE ENERGY PREDICTED BY IDOCK:   -1.84 KCAL/MOL
REMARK 927      BINDING AFFINITY PREDICTED BY RF-SCORE:    0.00 PKD
ROOT
HETATM    1  C   UNL     1     -12.702   9.456  71.643  1.00  0.00    -0.459 C  
HETATM    2  C   UNL     1     -11.219   9.640  71.349  1.00  0.00    -0.356 C  
ENDROOT
BRANCH   2   3
HETATM    3  O   UNL     1     -10.972   9.521  69.942  1.00  0.00    -0.231 OA 
BRANCH   3   4
HETATM    4  C   UNL     1      -9.701   9.244  69.564  1.00  0.00    -0.173 C  
HETATM    5  O   UNL     1      -8.743   9.903  69.935  1.00  0.00    -0.205 OA 
BRANCH   4   6
HETATM    6  C   UNL     1      -9.624   8.020  68.689  1.00  0.00    -0.150 C  
HETATM    7  C   UNL     1     -10.010   8.014  67.385  1.00  0.00    -0.207 C  
HETATM    8  C   UNL     1      -9.200   5.473  68.418  1.00  0.00    -0.124 C  
HETATM    9  N   UNL     1      -9.897   6.860  66.630  1.00  0.00    -0.175 NA 
HETATM   10  C   UNL     1      -9.584   5.612  67.125  1.00  0.00    -0.131 C  
HETATM   11  C   UNL     1      -9.067   6.714  69.334  1.00  0.00    -0.143 C  
HETATM   12  C   UNL     1      -9.678   4.483  66.124  1.00  0.00    -0.215 C  
BRANCH   7  13
HETATM   13  C   UNL     1     -10.599   9.207  66.647  1.00  0.00    -0.087 C  
BRANCH  13  14
HETATM   14  O   UNL     1      -9.600   9.994  65.975  1.00  0.00    -0.191 OA 
BRANCH  14  15
HETATM   15  C   UNL     1     -10.152  11.305  65.735  1.00  0.00    -0.247 C  
BRANCH  15  16
HETATM   16  C   UNL     1     -10.587  11.455  64.278  1.00  0.00    -0.355 C  
HETATM   17  N   UNL     1      -9.728  12.407  63.571  1.00  0.00    -0.663 NA 
HETATM   18  H2  UNL     1      -8.743  12.154  63.646  1.00  0.00     0.000 HD 
HETATM   19  H1  UNL     1     -10.018  12.508  62.599  1.00  0.00     0.000 HD 
ENDBRANCH  15  16
ENDBRANCH  14  15
ENDBRANCH  13  14
ENDBRANCH   7  13
BRANCH   8  20
HETATM   20  C   UNL     1      -8.897   4.109  68.942  1.00  0.00    -0.102 C  
HETATM   21  O   UNL     1      -9.749   3.287  69.250  1.00  0.00    -0.107 OA 
BRANCH  20  22
HETATM   22  O   UNL     1      -7.562   3.892  69.030  1.00  0.00    -0.054 OA 
HETATM   23  C   UNL     1      -7.077   3.708  70.366  1.00  0.00    -0.037 C  
ENDBRANCH  20  22
ENDBRANCH   8  20
BRANCH  11  24
HETATM   24  C   UNL     1      -9.615   6.474  70.748  1.00  0.00    -0.190 A  
HETATM   25  C   UNL     1     -10.968   6.127  70.930  1.00  0.00    -0.359 A  
HETATM   26  C   UNL     1     -11.510   6.002  72.214  1.00  0.00    -0.364 A  
HETATM   27  C   UNL     1     -10.717   6.207  73.338  1.00  0.00    -0.280 A  
HETATM   28  C   UNL     1      -9.374   6.537  73.182  1.00  0.00    -0.146 A  
HETATM   29  C   UNL     1      -8.823   6.676  71.903  1.00  0.00    -0.132 A  
HETATM   30 CL   UNL     1      -7.157   7.148  71.827  1.00  0.00    -0.068 Cl 
ENDBRANCH  11  24
ENDBRANCH   4   6
ENDBRANCH   3   4
ENDBRANCH   2   3
TORSDOF 10
ENDMDL
MODEL      110
REMARK 921   NORMALIZED FREE ENERGY PREDICTED BY IDOCK:   -3.89 KCAL/MOL
REMARK 922        TOTAL FREE ENERGY PREDICTED BY IDOCK:   -7.72 KCAL/MOL
REMARK 923 INTER-LIGAND FREE ENERGY PREDICTED BY IDOCK:   -6.43 KCAL/MOL
REMARK 924 INTRA-LIGAND FREE ENERGY PREDICTED BY IDOCK:   -1.29 KCAL/MOL
REMARK 927      BINDING AFFINITY PREDICTED BY RF-SCORE:    0.00 PKD
ROOT
HETATM    1  C   UNL     1     -14.320   7.365  71.546  1.00  0.00    -0.594 C  
HETATM    2  C   UNL     1     -12.804   7.507  71.603  1.00  0.00    -0.358 C  
ENDROOT
BRANCH   2   3
HETATM    3  O   UNL     1     -12.390   8.699  70.923  1.00  0.00    -0.202 OA 
BRANCH   3   4
HETATM    4  C   UNL     1     -11.141   9.152  71.186  1.00  0.00    -0.323 C  
HETATM    5  O   UNL     1     -10.683   9.208  72.315  1.00  0.00    -0.195 OA 
BRANCH   4   6
HETATM    6  C   UNL     1     -10.396   9.522  69.930  1.00  0.00    -0.265 C  
HETATM    7  C   UNL     1     -10.794  10.521  69.097  1.00  0.00    -0.237 C  
HETATM    8  C   UNL     1      -8.523   9.031  68.200  1.00  0.00    -0.129 C  
HETATM    9  N   UNL     1     -10.055  10.822  67.967  1.00  0.00    -0.171 NA 
HETATM   10  C   UNL     1      -9.007  10.072  67.477  1.00  0.00    -0.134 C  
HETATM   11  C   UNL     1      -9.110   8.706  69.595  1.00  0.00    -0.149 C  
HETATM   12  C   UNL     1      -8.464  10.524  66.140  1.00  0.00    -0.154 C  
BRANCH   7  13
HETATM   13  C   UNL     1     -12.043  11.368  69.290  1.00  0.00    -0.289 C  
BRANCH  13  14
HETATM   14  O   UNL     1     -11.752  12.682  69.801  1.00  0.00    -0.309 OA 
BRANCH  14  15
HETATM   15  C   UNL     1     -12.034  13.637  68.758  1.00  0.00    -0.359 C  
BRANCH  15  16
HETATM   16  C   UNL     1     -11.899  15.067  69.279  1.00  0.00    -0.315 C  
HETATM   17  N   UNL     1     -12.887  15.340  70.324  1.00  0.00    -0.646 NA 
HETATM   18  H2  UNL     1     -12.834  14.657  71.079  1.00  0.00     0.000 HD 
HETATM   19  H1  UNL     1     -12.797  16.294  70.671  1.00  0.00     0.000 HD 
ENDBRANCH  15  16
ENDBRANCH  14  15
ENDBRANCH  13  14
ENDBRANCH   7  13
BRANCH   8  20
HETATM   20  C   UNL     1      -7.410   8.213  67.636  1.00  0.00    -0.093 C  
HETATM   21  O   UNL     1      -6.252   8.266  68.025  1.00  0.00    -0.049 OA 
BRANCH  20  22
HETATM   22  O   UNL     1      -7.843   7.399  66.642  1.00  0.00    -0.104 OA 
HETATM   23  C   UNL     1      -7.497   6.019  66.810  1.00  0.00    -0.087 C  
ENDBRANCH  20  22
ENDBRANCH   8  20
BRANCH  11  24
HETATM   24  C   UNL     1      -9.289   7.199  69.831  1.00  0.00    -0.150 A  
HETATM   25  C   UNL     1      -8.529   6.547  70.823  1.00  0.00    -0.134 A  
HETATM   26  C   UNL     1      -8.604   5.160  70.987  1.00  0.00    -0.130 A  
HETATM   27  C   UNL     1      -9.442   4.398  70.179  1.00  0.00    -0.245 A  
HETATM   28  C   UNL     1     -10.212   5.023  69.202  1.00  0.00    -0.227 A  
HETATM   29  C   UNL     1     -10.137   6.409  69.022  1.00  0.00    -0.165 A  
HETATM   30 CL   UNL     1     -11.094   7.072  67.738  1.00  0.00    -0.214 Cl 
ENDBRANCH  11  24
ENDBRANCH   4   6
ENDBRANCH   3   4
ENDBRANCH   2   3
TORSDOF 10
ENDMDL
MODEL      111
REMARK 921   NORMALIZED FREE ENERGY PREDICTED BY IDOCK:   -3.89 KCAL/MOL
REMARK 922        TOTAL FREE ENERGY PREDICTED BY IDOCK:   -7.72 KCAL/MOL
REMARK 923 INTER-LIGAND FREE ENERGY PREDICTED BY IDOCK:   -5.80 KCAL/MOL
REMARK 924 INTRA-LIGAND FREE ENERGY PREDICTED BY IDOCK:   -1.92 KCAL/MOL
REMARK 927      BINDING AFFINITY PREDICTED BY RF-SCORE:    0.00 PKD
ROOT
HETATM    1  C   UNL     1     -12.904  11.347  71.516  1.00  0.00    -0.508 C  
HETATM    2  C   UNL     1     -12.383  10.563  70.319  1.00  0.00    -0.298 C  
ENDROOT
BRANCH   2   3
HETATM    3  O   UNL     1     -11.081  11.033  69.945  1.00  0.00    -0.259 OA 
BRANCH   3   4
HETATM    4  C   UNL     1     -10.877  11.290  68.631  1.00  0.00    -0.204 C  
HETATM    5  O   UNL     1     -11.704  11.032  67.771  1.00  0.00    -0.573 OA 
BRANCH   4   6
HETATM    6  C   UNL     1      -9.551  11.962  68.384  1.00  0.00    -0.196 C  
HETATM    7  C   UNL     1      -8.359  11.317  68.498  1.00  0.00    -0.155 C  
HETATM    8  C   UNL     1      -8.171  14.113  67.927  1.00  0.00    -0.155 C  
HETATM    9  N   UNL     1      -7.177  11.986  68.241  1.00  0.00    -0.083 NA 
HETATM   10  C   UNL     1      -7.058  13.346  68.041  1.00  0.00    -0.125 C  
HETATM   11  C   UNL     1      -9.577  13.466  67.976  1.00  0.00    -0.219 C  
HETATM   12  C   UNL     1      -5.640  13.858  67.936  1.00  0.00    -0.103 C  
BRANCH   7  13
HETATM   13  C   UNL     1      -8.194   9.864  68.919  1.00  0.00    -0.118 C  
BRANCH  13  14
HETATM   14  O   UNL     1      -7.922   8.990  67.809  1.00  0.00    -0.101 OA 
BRANCH  14  15
HETATM   15  C   UNL     1      -9.108   8.209  67.556  1.00  0.00    -0.137 C  
BRANCH  15  16
HETATM   16  C   UNL     1      -9.637   7.588  68.848  1.00  0.00    -0.149 C  
HETATM   17  N   UNL     1     -11.098   7.505  68.828  1.00  0.00    -0.421 NA 
HETATM   18  H2  UNL     1     -11.436   7.006  68.006  1.00  0.00     0.000 HD 
HETATM   19  H1  UNL     1     -11.452   7.090  69.690  1.00  0.00     0.000 HD 
ENDBRANCH  15  16
ENDBRANCH  14  15
ENDBRANCH  13  14
ENDBRANCH   7  13
BRANCH   8  20
HETATM   20  C   UNL     1      -8.020  15.586  67.744  1.00  0.00    -0.143 C  
HETATM   21  O   UNL     1      -7.859  16.379  68.661  1.00  0.00    -0.186 OA 
BRANCH  20  22
HETATM   22  O   UNL     1      -8.082  15.936  66.436  1.00  0.00    -0.265 OA 
HETATM   23  C   UNL     1      -9.337  16.491  66.027  1.00  0.00    -0.267 C  
ENDBRANCH  20  22
ENDBRANCH   8  20
BRANCH  11  24
HETATM   24  C   UNL     1     -10.582  14.284  68.800  1.00  0.00    -0.255 A  
HETATM   25  C   UNL     1     -10.293  14.612  70.140  1.00  0.00     0.267 A  
HETATM   26  C   UNL     1     -11.236  15.269  70.937  1.00  0.00    -0.367 A  
HETATM   27  C   UNL     1     -12.478  15.623  70.416  1.00  0.00    -0.409 A  
HETATM   28  C   UNL     1     -12.779  15.321  69.091  1.00  0.00     0.348 A  
HETATM   29  C   UNL     1     -11.847  14.654  68.287  1.00  0.00    -0.298 A  
HETATM   30 CL   UNL     1     -12.351  14.276  66.673  1.00  0.00    -0.422 Cl 
ENDBRANCH  11  24
ENDBRANCH   4   6
ENDBRANCH   3   4
ENDBRANCH   2   3
TORSDOF 10
ENDMDL
MODEL      112
REMARK 921   NORMALIZED FREE ENERGY PREDICTED BY IDOCK:   -3.89 KCAL/MOL
REMARK 922        TOTAL FREE ENERGY PREDICTED BY IDOCK:   -7.72 KCAL/MOL
REMARK 923 INTER-LIGAND FREE ENERGY PREDICTED BY IDOCK:   -6.15 KCAL/MOL
REMARK 924 INTRA-LIGAND FREE ENERGY PREDICTED BY IDOCK:   -1.57 KCAL/MOL
REMARK 927      BINDING AFFINITY PREDICTED BY RF-SCORE:    0.00 PKD
ROOT
HETATM    1  C   UNL     1      -9.247   3.743  64.715  1.00  0.00    -0.146 C  
HETATM    2  C   UNL     1     -10.302   4.435  65.569  1.00  0.00    -0.224 C  
ENDROOT
BRANCH   2   3
HETATM    3  O   UNL     1      -9.684   5.108  66.674  1.00  0.00    -0.140 OA 
BRANCH   3   4
HETATM    4  C   UNL     1     -10.320   6.201  67.158  1.00  0.00    -0.230 C  
HETATM    5  O   UNL     1     -11.461   6.497  66.841  1.00  0.00    -0.212 OA 
BRANCH   4   6
HETATM    6  C   UNL     1      -9.474   6.956  68.151  1.00  0.00    -0.122 C  
HETATM    7  C   UNL     1      -9.649   6.865  69.496  1.00  0.00    -0.148 C  
HETATM    8  C   UNL     1      -7.665   8.747  68.660  1.00  0.00    -0.098 C  
HETATM    9  N   UNL     1      -8.828   7.571  70.356  1.00  0.00    -0.144 NA 
HETATM   10  C   UNL     1      -7.921   8.538  69.976  1.00  0.00    -0.109 C  
HETATM   11  C   UNL     1      -8.351   7.876  67.581  1.00  0.00    -0.124 C  
HETATM   12  C   UNL     1      -7.256   9.277  71.115  1.00  0.00    -0.055 C  
BRANCH   7  13
HETATM   13  C   UNL     1     -10.726   6.033  70.178  1.00  0.00    -0.311 C  
BRANCH  13  14
HETATM   14  O   UNL     1     -12.001   6.698  70.220  1.00  0.00    -0.387 OA 
BRANCH  14  15
HETATM   15  C   UNL     1     -12.226   7.147  71.572  1.00  0.00    -0.360 C  
BRANCH  15  16
HETATM   16  C   UNL     1     -13.411   8.109  71.637  1.00  0.00    -0.332 C  
HETATM   17  N   UNL     1     -13.517   8.721  72.963  1.00  0.00    -0.938 NA 
HETATM   18  H2  UNL     1     -12.647   9.176  73.238  1.00  0.00     0.000 HD 
HETATM   19  H1  UNL     1     -14.307   9.363  73.006  1.00  0.00     0.000 HD 
ENDBRANCH  15  16
ENDBRANCH  14  15
ENDBRANCH  13  14
ENDBRANCH   7  13
BRANCH   8  20
HETATM   20  C   UNL     1      -6.704   9.820  68.270  1.00  0.00    -0.060 C  
HETATM   21  O   UNL     1      -5.521   9.628  68.029  1.00  0.00    -0.040 OA 
BRANCH  20  22
HETATM   22  O   UNL     1      -7.306  11.033  68.213  1.00  0.00    -0.081 OA 
HETATM   23  C   UNL     1      -6.971  11.810  67.057  1.00  0.00    -0.135 C  
ENDBRANCH  20  22
ENDBRANCH   8  20
BRANCH  11  24
HETATM   24  C   UNL     1      -8.815   8.689  66.363  1.00  0.00    -0.167 A  
HETATM   25  C   UNL     1      -8.146   8.555  65.131  1.00  0.00    -0.142 A  
HETATM   26  C   UNL     1      -8.488   9.358  64.038  1.00  0.00    -0.203 A  
HETATM   27  C   UNL     1      -9.509  10.298  64.145  1.00  0.00    -0.358 A  
HETATM   28  C   UNL     1     -10.193  10.437  65.349  1.00  0.00    -0.329 A  
HETATM   29  C   UNL     1      -9.851   9.647  66.452  1.00  0.00    -0.244 A  
HETATM   30 CL   UNL     1     -10.729   9.946  67.916  1.00  0.00    -0.303 Cl 
ENDBRANCH  11  24
ENDBRANCH   4   6
ENDBRANCH   3   4
ENDBRANCH   2   3
TORSDOF 10
ENDMDL
MODEL      113
REMARK 921   NORMALIZED FREE ENERGY PREDICTED BY IDOCK:   -3.86 KCAL/MOL
REMARK 922        TOTAL FREE ENERGY PREDICTED BY IDOCK:   -7.67 KCAL/MOL
REMARK 923 INTER-LIGAND FREE ENERGY PREDICTED BY IDOCK:   -6.08 KCAL/MOL
REMARK 924 INTRA-LIGAND FREE ENERGY PREDICTED BY IDOCK:   -1.60 KCAL/MOL
REMARK 927      BINDING AFFINITY PREDICTED BY RF-SCORE:    0.00 PKD
ROOT
HETATM    1  C   UNL     1     -13.176  11.324  71.827  1.00  0.00    -0.480 C  
HETATM    2  C   UNL     1     -12.205  11.508  70.669  1.00  0.00    -0.378 C  
ENDROOT
BRANCH   2   3
HETATM    3  O   UNL     1     -12.030  10.272  69.964  1.00  0.00    -0.250 OA 
BRANCH   3   4
HETATM    4  C   UNL     1     -10.829   9.660  70.088  1.00  0.00    -0.280 C  
HETATM    5  O   UNL     1     -10.228   9.593  71.149  1.00  0.00    -0.272 OA 
BRANCH   4   6
HETATM    6  C   UNL     1     -10.367   9.047  68.792  1.00  0.00    -0.236 C  
HETATM    7  C   UNL     1     -10.008   7.740  68.675  1.00  0.00    -0.182 C  
HETATM    8  C   UNL     1      -9.652   9.309  66.310  1.00  0.00    -0.313 C  
HETATM    9  N   UNL     1      -9.609   7.234  67.451  1.00  0.00    -0.137 NA 
HETATM   10  C   UNL     1      -9.358   7.984  66.322  1.00  0.00    -0.184 C  
HETATM   11  C   UNL     1     -10.311   9.976  67.541  1.00  0.00    -0.282 C  
HETATM   12  C   UNL     1      -8.781   7.215  65.155  1.00  0.00     0.136 C  
BRANCH   7  13
HETATM   13  C   UNL     1      -9.986   6.739  69.820  1.00  0.00    -0.177 C  
BRANCH  13  14
HETATM   14  O   UNL     1     -10.619   5.492  69.482  1.00  0.00    -0.290 OA 
BRANCH  14  15
HETATM   15  C   UNL     1      -9.664   4.433  69.702  1.00  0.00    -0.219 C  
BRANCH  15  16
HETATM   16  C   UNL     1      -9.435   3.632  68.421  1.00  0.00    -0.150 C  
HETATM   17  N   UNL     1      -8.441   4.285  67.566  1.00  0.00    -0.099 NA 
HETATM   18  H2  UNL     1      -7.569   4.455  68.065  1.00  0.00     0.000 HD 
HETATM   19  H1  UNL     1      -8.288   3.751  66.711  1.00  0.00     0.000 HD 
ENDBRANCH  15  16
ENDBRANCH  14  15
ENDBRANCH  13  14
ENDBRANCH   7  13
BRANCH   8  20
HETATM   20  C   UNL     1      -9.342  10.109  65.089  1.00  0.00    -0.235 C  
HETATM   21  O   UNL     1      -8.209  10.379  64.715  1.00  0.00    -0.163 OA 
BRANCH  20  22
HETATM   22  O   UNL     1     -10.469  10.496  64.445  1.00  0.00    -0.304 OA 
HETATM   23  C   UNL     1     -10.324  11.680  63.652  1.00  0.00    -0.419 C  
ENDBRANCH  20  22
ENDBRANCH   8  20
BRANCH  11  24
HETATM   24  C   UNL     1      -9.722  11.358  67.858  1.00  0.00    -0.186 A  
HETATM   25  C   UNL     1     -10.498  12.517  67.659  1.00  0.00    -0.228 A  
HETATM   26  C   UNL     1      -9.948  13.790  67.847  1.00  0.00    -0.240 A  
HETATM   27  C   UNL     1      -8.623  13.934  68.248  1.00  0.00    -0.177 A  
HETATM   28  C   UNL     1      -7.842  12.802  68.464  1.00  0.00    -0.099 A  
HETATM   29  C   UNL     1      -8.379  11.524  68.269  1.00  0.00    -0.154 A  
HETATM   30 CL   UNL     1      -7.300  10.190  68.509  1.00  0.00    -0.080 Cl 
ENDBRANCH  11  24
ENDBRANCH   4   6
ENDBRANCH   3   4
ENDBRANCH   2   3
TORSDOF 10
ENDMDL
MODEL      114
REMARK 921   NORMALIZED FREE ENERGY PREDICTED BY IDOCK:   -3.86 KCAL/MOL
REMARK 922        TOTAL FREE ENERGY PREDICTED BY IDOCK:   -7.67 KCAL/MOL
REMARK 923 INTER-LIGAND FREE ENERGY PREDICTED BY IDOCK:   -6.02 KCAL/MOL
REMARK 924 INTRA-LIGAND FREE ENERGY PREDICTED BY IDOCK:   -1.65 KCAL/MOL
REMARK 927      BINDING AFFINITY PREDICTED BY RF-SCORE:    0.00 PKD
ROOT
HETATM    1  C   UNL     1      -7.800   6.193  68.269  1.00  0.00    -0.104 C  
HETATM    2  C   UNL     1      -8.118   6.136  66.780  1.00  0.00    -0.109 C  
ENDROOT
BRANCH   2   3
HETATM    3  O   UNL     1      -8.992   7.212  66.417  1.00  0.00    -0.145 OA 
BRANCH   3   4
HETATM    4  C   UNL     1      -8.413   8.401  66.124  1.00  0.00    -0.131 C  
HETATM    5  O   UNL     1      -7.233   8.506  65.830  1.00  0.00    -0.074 OA 
BRANCH   4   6
HETATM    6  C   UNL     1      -9.401   9.538  66.161  1.00  0.00    -0.254 C  
HETATM    7  C   UNL     1      -9.606  10.377  65.110  1.00  0.00    -0.271 C  
HETATM    8  C   UNL     1     -11.060  11.033  67.484  1.00  0.00    -0.366 C  
HETATM    9  N   UNL     1     -10.540  11.393  65.202  1.00  0.00    -0.293 NA 
HETATM   10  C   UNL     1     -11.193  11.773  66.355  1.00  0.00    -0.323 C  
HETATM   11  C   UNL     1     -10.214   9.737  67.476  1.00  0.00    -0.271 C  
HETATM   12  C   UNL     1     -12.049  13.013  66.229  1.00  0.00    -0.453 C  
BRANCH   7  13
HETATM   13  C   UNL     1      -8.857  10.313  63.787  1.00  0.00    -0.221 C  
BRANCH  13  14
HETATM   14  O   UNL     1      -9.105   9.094  63.065  1.00  0.00    -0.115 OA 
BRANCH  14  15
HETATM   15  C   UNL     1      -7.899   8.742  62.357  1.00  0.00    -0.135 C  
BRANCH  15  16
HETATM   16  C   UNL     1      -7.696   7.227  62.346  1.00  0.00    -0.117 C  
HETATM   17  N   UNL     1      -8.497   6.585  63.390  1.00  0.00    -0.329 NA 
HETATM   18  H2  UNL     1      -9.482   6.833  63.315  1.00  0.00     0.000 HD 
HETATM   19  H1  UNL     1      -8.361   5.574  63.384  1.00  0.00     0.000 HD 
ENDBRANCH  15  16
ENDBRANCH  14  15
ENDBRANCH  13  14
ENDBRANCH   7  13
BRANCH   8  20
HETATM   20  C   UNL     1     -11.749  11.481  68.730  1.00  0.00    -0.334 C  
HETATM   21  O   UNL     1     -11.587  12.577  69.248  1.00  0.00    -0.284 OA 
BRANCH  20  22
HETATM   22  O   UNL     1     -12.577  10.524  69.214  1.00  0.00    -0.195 OA 
HETATM   23  C   UNL     1     -12.687  10.499  70.643  1.00  0.00    -0.355 C  
ENDBRANCH  20  22
ENDBRANCH   8  20
BRANCH  11  24
HETATM   24  C   UNL     1      -9.349   9.580  68.735  1.00  0.00    -0.146 A  
HETATM   25  C   UNL     1      -8.199  10.377  68.904  1.00  0.00    -0.132 A  
HETATM   26  C   UNL     1      -7.344  10.182  69.993  1.00  0.00    -0.172 A  
HETATM   27  C   UNL     1      -7.620   9.200  70.940  1.00  0.00    -0.146 A  
HETATM   28  C   UNL     1      -8.757   8.410  70.801  1.00  0.00    -0.167 A  
HETATM   29  C   UNL     1      -9.615   8.589  69.709  1.00  0.00    -0.170 A  
HETATM   30 CL   UNL     1     -10.967   7.511  69.605  1.00  0.00    -0.208 Cl 
ENDBRANCH  11  24
ENDBRANCH   4   6
ENDBRANCH   3   4
ENDBRANCH   2   3
TORSDOF 10
ENDMDL
MODEL      115
REMARK 921   NORMALIZED FREE ENERGY PREDICTED BY IDOCK:   -3.85 KCAL/MOL
REMARK 922        TOTAL FREE ENERGY PREDICTED BY IDOCK:   -7.65 KCAL/MOL
REMARK 923 INTER-LIGAND FREE ENERGY PREDICTED BY IDOCK:   -6.26 KCAL/MOL
REMARK 924 INTRA-LIGAND FREE ENERGY PREDICTED BY IDOCK:   -1.39 KCAL/MOL
REMARK 927      BINDING AFFINITY PREDICTED BY RF-SCORE:    0.00 PKD
ROOT
HETATM    1  C   UNL     1     -10.753   9.157  70.020  1.00  0.00    -0.254 C  
HETATM    2  C   UNL     1      -9.416   9.374  69.321  1.00  0.00    -0.164 C  
ENDROOT
BRANCH   2   3
HETATM    3  O   UNL     1      -8.929  10.697  69.579  1.00  0.00    -0.104 OA 
BRANCH   3   4
HETATM    4  C   UNL     1      -8.135  11.253  68.632  1.00  0.00    -0.145 C  
HETATM    5  O   UNL     1      -7.018  11.678  68.875  1.00  0.00    -0.094 OA 
BRANCH   4   6
HETATM    6  C   UNL     1      -8.777  11.231  67.269  1.00  0.00    -0.145 C  
HETATM    7  C   UNL     1      -8.275  10.521  66.224  1.00  0.00    -0.147 C  
HETATM    8  C   UNL     1     -10.556  12.132  65.607  1.00  0.00    -0.297 C  
HETATM    9  N   UNL     1      -8.921  10.529  65.001  1.00  0.00    -0.192 NA 
HETATM   10  C   UNL     1      -9.972  11.355  64.661  1.00  0.00    -0.268 C  
HETATM   11  C   UNL     1     -10.079  12.068  67.078  1.00  0.00    -0.221 C  
HETATM   12  C   UNL     1     -10.402  11.283  63.213  1.00  0.00    -0.406 C  
BRANCH   7  13
HETATM   13  C   UNL     1      -6.998   9.694  66.268  1.00  0.00    -0.092 C  
BRANCH  13  14
HETATM   14  O   UNL     1      -7.253   8.283  66.386  1.00  0.00    -0.073 OA 
BRANCH  14  15
HETATM   15  C   UNL     1      -7.082   7.688  65.083  1.00  0.00    -0.060 C  
BRANCH  15  16
HETATM   16  C   UNL     1      -6.133   8.524  64.224  1.00  0.00    -0.066 C  
HETATM   17  N   UNL     1      -6.794   8.968  62.995  1.00  0.00    -0.090 NA 
HETATM   18  H2  UNL     1      -7.661   9.467  63.193  1.00  0.00     0.000 HD 
HETATM   19  H1  UNL     1      -6.162   9.525  62.422  1.00  0.00     0.000 HD 
ENDBRANCH  15  16
ENDBRANCH  14  15
ENDBRANCH  13  14
ENDBRANCH   7  13
BRANCH   8  20
HETATM   20  C   UNL     1     -11.670  13.042  65.211  1.00  0.00    -0.353 C  
HETATM   21  O   UNL     1     -12.848  12.716  65.187  1.00  0.00    -0.721 OA 
BRANCH  20  22
HETATM   22  O   UNL     1     -11.215  14.276  64.883  1.00  0.00    -0.344 OA 
HETATM   23  C   UNL     1     -12.222  15.172  64.396  1.00  0.00    -0.275 C  
ENDBRANCH  20  22
ENDBRANCH   8  20
BRANCH  11  24
HETATM   24  C   UNL     1      -9.994  13.451  67.740  1.00  0.00    -0.233 A  
HETATM   25  C   UNL     1      -9.088  14.412  67.250  1.00  0.00    -0.221 A  
HETATM   26  C   UNL     1      -8.925  15.640  67.899  1.00  0.00    -0.180 A  
HETATM   27  C   UNL     1      -9.665  15.941  69.039  1.00  0.00    -0.243 A  
HETATM   28  C   UNL     1     -10.577  15.011  69.532  1.00  0.00    -0.264 A  
HETATM   29  C   UNL     1     -10.740  13.774  68.897  1.00  0.00    -0.227 A  
HETATM   30 CL   UNL     1     -11.857  12.672  69.632  1.00  0.00    -0.385 Cl 
ENDBRANCH  11  24
ENDBRANCH   4   6
ENDBRANCH   3   4
ENDBRANCH   2   3
TORSDOF 10
ENDMDL
MODEL      116
REMARK 921   NORMALIZED FREE ENERGY PREDICTED BY IDOCK:   -3.83 KCAL/MOL
REMARK 922        TOTAL FREE ENERGY PREDICTED BY IDOCK:   -7.63 KCAL/MOL
REMARK 923 INTER-LIGAND FREE ENERGY PREDICTED BY IDOCK:   -6.00 KCAL/MOL
REMARK 924 INTRA-LIGAND FREE ENERGY PREDICTED BY IDOCK:   -1.63 KCAL/MOL
REMARK 927      BINDING AFFINITY PREDICTED BY RF-SCORE:    0.00 PKD
ROOT
HETATM    1  C   UNL     1     -13.753   8.974  72.060  1.00  0.00    -0.516 C  
HETATM    2  C   UNL     1     -12.915  10.221  71.809  1.00  0.00    -0.469 C  
ENDROOT
BRANCH   2   3
HETATM    3  O   UNL     1     -12.127  10.060  70.622  1.00  0.00    -0.282 OA 
BRANCH   3   4
HETATM    4  C   UNL     1     -11.002   9.314  70.731  1.00  0.00    -0.284 C  
HETATM    5  O   UNL     1     -10.303   9.314  71.731  1.00  0.00    -0.328 OA 
BRANCH   4   6
HETATM    6  C   UNL     1     -10.760   8.471  69.506  1.00  0.00    -0.181 C  
HETATM    7  C   UNL     1     -10.949   7.124  69.484  1.00  0.00    -0.191 C  
HETATM    8  C   UNL     1      -9.879   8.236  67.075  1.00  0.00    -0.298 C  
HETATM    9  N   UNL     1     -10.725   6.408  68.321  1.00  0.00    -0.256 NA 
HETATM   10  C   UNL     1     -10.140   6.908  67.178  1.00  0.00    -0.209 C  
HETATM   11  C   UNL     1     -10.276   9.202  68.217  1.00  0.00    -0.242 C  
HETATM   12  C   UNL     1      -9.862   5.886  66.099  1.00  0.00    -0.058 C  
BRANCH   7  13
HETATM   13  C   UNL     1     -11.385   6.287  70.677  1.00  0.00    -0.343 C  
BRANCH  13  14
HETATM   14  O   UNL     1     -10.317   5.486  71.216  1.00  0.00    -0.215 OA 
BRANCH  14  15
HETATM   15  C   UNL     1     -10.044   5.950  72.554  1.00  0.00    -0.179 C  
BRANCH  15  16
HETATM   16  C   UNL     1     -10.677   5.023  73.591  1.00  0.00    -0.293 C  
HETATM   17  N   UNL     1     -10.708   3.641  73.107  1.00  0.00    -0.182 NA 
HETATM   18  H2  UNL     1      -9.782   3.318  72.829  1.00  0.00     0.000 HD 
HETATM   19  H1  UNL     1     -11.130   3.022  73.799  1.00  0.00     0.000 HD 
ENDBRANCH  15  16
ENDBRANCH  14  15
ENDBRANCH  13  14
ENDBRANCH   7  13
BRANCH   8  20
HETATM   20  C   UNL     1      -9.215   8.751  65.842  1.00  0.00    -0.220 C  
HETATM   21  O   UNL     1      -9.784   9.398  64.975  1.00  0.00    -0.184 OA 
BRANCH  20  22
HETATM   22  O   UNL     1      -7.903   8.416  65.805  1.00  0.00    -0.093 OA 
HETATM   23  C   UNL     1      -7.012   9.521  65.612  1.00  0.00    -0.092 C  
ENDBRANCH  20  22
ENDBRANCH   8  20
BRANCH  11  24
HETATM   24  C   UNL     1      -9.200  10.259  68.507  1.00  0.00    -0.144 A  
HETATM   25  C   UNL     1      -9.392  11.591  68.092  1.00  0.00    -0.185 A  
HETATM   26  C   UNL     1      -8.383  12.546  68.257  1.00  0.00    -0.167 A  
HETATM   27  C   UNL     1      -7.172  12.199  68.848  1.00  0.00    -0.079 A  
HETATM   28  C   UNL     1      -6.966  10.891  69.279  1.00  0.00    -0.112 A  
HETATM   29  C   UNL     1      -7.965   9.925  69.108  1.00  0.00    -0.112 A  
HETATM   30 CL   UNL     1      -7.578   8.317  69.627  1.00  0.00    -0.091 Cl 
ENDBRANCH  11  24
ENDBRANCH   4   6
ENDBRANCH   3   4
ENDBRANCH   2   3
TORSDOF 10
ENDMDL
MODEL      117
REMARK 921   NORMALIZED FREE ENERGY PREDICTED BY IDOCK:   -3.81 KCAL/MOL
REMARK 922        TOTAL FREE ENERGY PREDICTED BY IDOCK:   -7.59 KCAL/MOL
REMARK 923 INTER-LIGAND FREE ENERGY PREDICTED BY IDOCK:   -6.01 KCAL/MOL
REMARK 924 INTRA-LIGAND FREE ENERGY PREDICTED BY IDOCK:   -1.58 KCAL/MOL
REMARK 927      BINDING AFFINITY PREDICTED BY RF-SCORE:    0.00 PKD
ROOT
HETATM    1  C   UNL     1      -7.874  13.501  67.761  1.00  0.00    -0.167 C  
HETATM    2  C   UNL     1      -9.304  13.602  68.275  1.00  0.00    -0.204 C  
ENDROOT
BRANCH   2   3
HETATM    3  O   UNL     1      -9.709  12.361  68.868  1.00  0.00    -0.019 OA 
BRANCH   3   4
HETATM    4  C   UNL     1     -10.742  11.710  68.282  1.00  0.00    -0.213 C  
HETATM    5  O   UNL     1     -11.477  12.238  67.463  1.00  0.00    -0.302 OA 
BRANCH   4   6
HETATM    6  C   UNL     1     -10.830  10.272  68.724  1.00  0.00    -0.265 C  
HETATM    7  C   UNL     1     -11.368   9.894  69.915  1.00  0.00    -0.222 C  
HETATM    8  C   UNL     1     -10.241   7.769  68.368  1.00  0.00    -0.230 C  
HETATM    9  N   UNL     1     -11.436   8.555  70.255  1.00  0.00    -0.135 NA 
HETATM   10  C   UNL     1     -10.833   7.526  69.564  1.00  0.00    -0.175 C  
HETATM   11  C   UNL     1     -10.276   9.188  67.751  1.00  0.00    -0.278 C  
HETATM   12  C   UNL     1     -10.922   6.169  70.225  1.00  0.00    -0.417 C  
BRANCH   7  13
HETATM   13  C   UNL     1     -11.912  10.850  70.966  1.00  0.00    -0.270 C  
BRANCH  13  14
HETATM   14  O   UNL     1     -12.908  11.747  70.442  1.00  0.00    -0.037 OA 
BRANCH  14  15
HETATM   15  C   UNL     1     -12.728  13.031  71.072  1.00  0.00    -0.262 C  
BRANCH  15  16
HETATM   16  C   UNL     1     -13.660  13.185  72.273  1.00  0.00    -0.581 C  
HETATM   17  N   UNL     1     -13.331  14.387  73.041  1.00  0.00    -0.635 NA 
HETATM   18  H2  UNL     1     -13.332  15.221  72.454  1.00  0.00     0.000 HD 
HETATM   19  H1  UNL     1     -13.953  14.489  73.842  1.00  0.00     0.000 HD 
ENDBRANCH  15  16
ENDBRANCH  14  15
ENDBRANCH  13  14
ENDBRANCH   7  13
BRANCH   8  20
HETATM   20  C   UNL     1      -9.565   6.648  67.652  1.00  0.00    -0.124 C  
HETATM   21  O   UNL     1      -8.574   6.066  68.067  1.00  0.00    -0.115 OA 
BRANCH  20  22
HETATM   22  O   UNL     1     -10.189   6.352  66.485  1.00  0.00    -0.158 OA 
HETATM   23  C   UNL     1     -10.266   4.952  66.190  1.00  0.00    -0.277 C  
ENDBRANCH  20  22
ENDBRANCH   8  20
BRANCH  11  24
HETATM   24  C   UNL     1      -8.939   9.596  67.113  1.00  0.00    -0.148 A  
HETATM   25  C   UNL     1      -7.758   9.575  67.880  1.00  0.00    -0.087 A  
HETATM   26  C   UNL     1      -6.549  10.036  67.348  1.00  0.00    -0.069 A  
HETATM   27  C   UNL     1      -6.489  10.515  66.043  1.00  0.00    -0.127 A  
HETATM   28  C   UNL     1      -7.642  10.532  65.262  1.00  0.00    -0.074 A  
HETATM   29  C   UNL     1      -8.859  10.083  65.788  1.00  0.00    -0.150 A  
HETATM   30 CL   UNL     1     -10.240  10.205  64.748  1.00  0.00    -0.274 Cl 
ENDBRANCH  11  24
ENDBRANCH   4   6
ENDBRANCH   3   4
ENDBRANCH   2   3
TORSDOF 10
ENDMDL
MODEL      118
REMARK 921   NORMALIZED FREE ENERGY PREDICTED BY IDOCK:   -3.81 KCAL/MOL
REMARK 922        TOTAL FREE ENERGY PREDICTED BY IDOCK:   -7.59 KCAL/MOL
REMARK 923 INTER-LIGAND FREE ENERGY PREDICTED BY IDOCK:   -6.24 KCAL/MOL
REMARK 924 INTRA-LIGAND FREE ENERGY PREDICTED BY IDOCK:   -1.35 KCAL/MOL
REMARK 927      BINDING AFFINITY PREDICTED BY RF-SCORE:    0.00 PKD
ROOT
HETATM    1  C   UNL     1     -10.132   9.207  66.367  1.00  0.00    -0.345 C  
HETATM    2  C   UNL     1     -10.512   8.569  67.697  1.00  0.00    -0.241 C  
ENDROOT
BRANCH   2   3
HETATM    3  O   UNL     1      -9.866   7.298  67.842  1.00  0.00    -0.137 OA 
BRANCH   3   4
HETATM    4  C   UNL     1      -8.852   7.225  68.737  1.00  0.00    -0.127 C  
HETATM    5  O   UNL     1      -8.132   8.175  68.999  1.00  0.00    -0.112 OA 
BRANCH   4   6
HETATM    6  C   UNL     1      -8.762   5.867  69.384  1.00  0.00    -0.116 C  
HETATM    7  C   UNL     1      -8.422   4.741  68.701  1.00  0.00    -0.085 C  
HETATM    8  C   UNL     1      -9.141   4.326  71.438  1.00  0.00    -0.179 C  
HETATM    9  N   UNL     1      -8.342   3.526  69.357  1.00  0.00    -0.059 NA 
HETATM   10  C   UNL     1      -8.756   3.290  70.651  1.00  0.00    -0.075 C  
HETATM   11  C   UNL     1      -9.077   5.779  70.908  1.00  0.00    -0.157 C  
HETATM   12  C   UNL     1      -8.709   1.843  71.087  1.00  0.00    -0.104 C  
BRANCH   7  13
HETATM   13  C   UNL     1      -8.125   4.684  67.210  1.00  0.00    -0.102 C  
BRANCH  13  14
HETATM   14  O   UNL     1      -8.213   3.351  66.675  1.00  0.00    -0.093 OA 
BRANCH  14  15
HETATM   15  C   UNL     1      -9.268   3.335  65.691  1.00  0.00    -0.150 C  
BRANCH  15  16
HETATM   16  C   UNL     1     -10.191   4.540  65.862  1.00  0.00    -0.263 C  
HETATM   17  N   UNL     1     -11.371   4.422  65.003  1.00  0.00    -1.102 NA 
HETATM   18  H2  UNL     1     -11.865   3.544  65.160  1.00  0.00     0.000 HD 
HETATM   19  H1  UNL     1     -11.987   5.226  65.117  1.00  0.00     0.000 HD 
ENDBRANCH  15  16
ENDBRANCH  14  15
ENDBRANCH  13  14
ENDBRANCH   7  13
BRANCH   8  20
HETATM   20  C   UNL     1      -9.617   4.045  72.824  1.00  0.00    -0.132 C  
HETATM   21  O   UNL     1      -8.931   4.182  73.827  1.00  0.00    -0.093 OA 
BRANCH  20  22
HETATM   22  O   UNL     1     -10.905   3.623  72.834  1.00  0.00    -0.144 OA 
HETATM   23  C   UNL     1     -11.163   2.520  73.712  1.00  0.00    -0.197 C  
ENDBRANCH  20  22
ENDBRANCH   8  20
BRANCH  11  24
HETATM   24  C   UNL     1     -10.301   6.616  71.308  1.00  0.00    -0.230 A  
HETATM   25  C   UNL     1     -11.578   6.271  70.824  1.00  0.00    -0.347 A  
HETATM   26  C   UNL     1     -12.689   7.076  71.095  1.00  0.00    -0.361 A  
HETATM   27  C   UNL     1     -12.555   8.231  71.860  1.00  0.00    -0.379 A  
HETATM   28  C   UNL     1     -11.304   8.583  72.359  1.00  0.00    -0.412 A  
HETATM   29  C   UNL     1     -10.183   7.791  72.085  1.00  0.00    -0.213 A  
HETATM   30 CL   UNL     1      -8.668   8.357  72.707  1.00  0.00    -0.282 Cl 
ENDBRANCH  11  24
ENDBRANCH   4   6
ENDBRANCH   3   4
ENDBRANCH   2   3
TORSDOF 10
ENDMDL
MODEL      119
REMARK 921   NORMALIZED FREE ENERGY PREDICTED BY IDOCK:   -3.81 KCAL/MOL
REMARK 922        TOTAL FREE ENERGY PREDICTED BY IDOCK:   -7.59 KCAL/MOL
REMARK 923 INTER-LIGAND FREE ENERGY PREDICTED BY IDOCK:   -5.53 KCAL/MOL
REMARK 924 INTRA-LIGAND FREE ENERGY PREDICTED BY IDOCK:   -2.06 KCAL/MOL
REMARK 927      BINDING AFFINITY PREDICTED BY RF-SCORE:    0.00 PKD
ROOT
HETATM    1  C   UNL     1      -7.317  17.091  66.358  1.00  0.00    -0.328 C  
HETATM    2  C   UNL     1      -6.554  16.216  67.345  1.00  0.00    -0.185 C  
ENDROOT
BRANCH   2   3
HETATM    3  O   UNL     1      -6.723  14.831  67.018  1.00  0.00    -0.156 OA 
BRANCH   3   4
HETATM    4  C   UNL     1      -6.644  13.946  68.039  1.00  0.00    -0.143 C  
HETATM    5  O   UNL     1      -5.892  14.098  68.988  1.00  0.00    -0.085 OA 
BRANCH   4   6
HETATM    6  C   UNL     1      -7.616  12.806  67.878  1.00  0.00    -0.138 C  
HETATM    7  C   UNL     1      -7.315  11.665  67.202  1.00  0.00    -0.143 C  
HETATM    8  C   UNL     1     -10.007  11.832  68.156  1.00  0.00    -0.196 C  
HETATM    9  N   UNL     1      -8.246  10.647  67.104  1.00  0.00    -0.120 NA 
HETATM   10  C   UNL     1      -9.568  10.736  67.488  1.00  0.00    -0.158 C  
HETATM   11  C   UNL     1      -9.022  12.966  68.531  1.00  0.00    -0.047 C  
HETATM   12  C   UNL     1     -10.421   9.540  67.133  1.00  0.00    -0.322 C  
BRANCH   7  13
HETATM   13  C   UNL     1      -5.996  11.396  66.492  1.00  0.00    -0.130 C  
BRANCH  13  14
HETATM   14  O   UNL     1      -5.363  10.183  66.936  1.00  0.00    -0.040 OA 
BRANCH  14  15
HETATM   15  C   UNL     1      -5.228   9.309  65.796  1.00  0.00    -0.039 C  
BRANCH  15  16
HETATM   16  C   UNL     1      -5.821   7.932  66.093  1.00  0.00    -0.037 C  
HETATM   17  N   UNL     1      -7.280   7.954  65.975  1.00  0.00    -0.072 NA 
HETATM   18  H2  UNL     1      -7.579   8.305  65.065  1.00  0.00     0.000 HD 
HETATM   19  H1  UNL     1      -7.676   7.036  66.172  1.00  0.00     0.000 HD 
ENDBRANCH  15  16
ENDBRANCH  14  15
ENDBRANCH  13  14
ENDBRANCH   7  13
BRANCH   8  20
HETATM   20  C   UNL     1     -11.447  11.923  68.532  1.00  0.00    -0.295 C  
HETATM   21  O   UNL     1     -12.360  12.056  67.729  1.00  0.00    -0.340 OA 
BRANCH  20  22
HETATM   22  O   UNL     1     -11.620  11.837  69.874  1.00  0.00    -0.299 OA 
HETATM   23  C   UNL     1     -11.972  10.531  70.346  1.00  0.00    -0.335 C  
ENDBRANCH  20  22
ENDBRANCH   8  20
BRANCH  11  24
HETATM   24  C   UNL     1      -9.615  14.367  68.318  1.00  0.00    -0.211 A  
HETATM   25  C   UNL     1      -9.765  15.242  69.412  1.00  0.00    -0.248 A  
HETATM   26  C   UNL     1     -10.393  16.482  69.258  1.00  0.00    -0.318 A  
HETATM   27  C   UNL     1     -10.873  16.881  68.014  1.00  0.00    -0.338 A  
HETATM   28  C   UNL     1     -10.724  16.038  66.916  1.00  0.00    -0.262 A  
HETATM   29  C   UNL     1     -10.107  14.790  67.061  1.00  0.00    -0.245 A  
HETATM   30 CL   UNL     1     -10.029  13.799  65.642  1.00  0.00    -0.300 Cl 
ENDBRANCH  11  24
ENDBRANCH   4   6
ENDBRANCH   3   4
ENDBRANCH   2   3
TORSDOF 10
ENDMDL
MODEL      120
REMARK 921   NORMALIZED FREE ENERGY PREDICTED BY IDOCK:   -3.81 KCAL/MOL
REMARK 922        TOTAL FREE ENERGY PREDICTED BY IDOCK:   -7.59 KCAL/MOL
REMARK 923 INTER-LIGAND FREE ENERGY PREDICTED BY IDOCK:   -5.95 KCAL/MOL
REMARK 924 INTRA-LIGAND FREE ENERGY PREDICTED BY IDOCK:   -1.64 KCAL/MOL
REMARK 927      BINDING AFFINITY PREDICTED BY RF-SCORE:    0.00 PKD
ROOT
HETATM    1  C   UNL     1     -11.893   6.470  71.439  1.00  0.00    -0.384 C  
HETATM    2  C   UNL     1     -12.001   7.935  71.840  1.00  0.00    -0.305 C  
ENDROOT
BRANCH   2   3
HETATM    3  O   UNL     1     -11.770   8.780  70.705  1.00  0.00    -0.279 OA 
BRANCH   3   4
HETATM    4  C   UNL     1     -10.536   9.326  70.589  1.00  0.00    -0.262 C  
HETATM    5  O   UNL     1      -9.747   9.380  71.519  1.00  0.00    -0.226 OA 
BRANCH   4   6
HETATM    6  C   UNL     1     -10.254   9.799  69.187  1.00  0.00    -0.211 C  
HETATM    7  C   UNL     1     -10.959  10.794  68.584  1.00  0.00    -0.239 C  
HETATM    8  C   UNL     1      -9.003   9.523  66.929  1.00  0.00    -0.148 C  
HETATM    9  N   UNL     1     -10.640  11.194  67.299  1.00  0.00    -0.225 NA 
HETATM   10  C   UNL     1      -9.757  10.548  66.459  1.00  0.00    -0.192 C  
HETATM   11  C   UNL     1      -9.093   9.101  68.415  1.00  0.00    -0.132 C  
HETATM   12  C   UNL     1      -9.698  11.091  65.050  1.00  0.00    -0.303 C  
BRANCH   7  13
HETATM   13  C   UNL     1     -12.133  11.531  69.211  1.00  0.00    -0.278 C  
BRANCH  13  14
HETATM   14  O   UNL     1     -11.723  12.665  69.997  1.00  0.00    -0.293 OA 
BRANCH  14  15
HETATM   15  C   UNL     1     -12.406  13.829  69.489  1.00  0.00    -0.209 C  
BRANCH  15  16
HETATM   16  C   UNL     1     -11.773  15.111  70.029  1.00  0.00    -0.307 C  
HETATM   17  N   UNL     1     -11.395  14.956  71.435  1.00  0.00    -0.549 NA 
HETATM   18  H2  UNL     1     -10.789  14.148  71.575  1.00  0.00     0.000 HD 
HETATM   19  H1  UNL     1     -10.973  15.810  71.796  1.00  0.00     0.000 HD 
ENDBRANCH  15  16
ENDBRANCH  14  15
ENDBRANCH  13  14
ENDBRANCH   7  13
BRANCH   8  20
HETATM   20  C   UNL     1      -8.078   8.817  65.995  1.00  0.00    -0.112 C  
HETATM   21  O   UNL     1      -6.872   9.013  65.944  1.00  0.00    -0.077 OA 
BRANCH  20  22
HETATM   22  O   UNL     1      -8.740   7.929  65.214  1.00  0.00    -0.113 OA 
HETATM   23  C   UNL     1      -7.892   7.077  64.433  1.00  0.00    -0.111 C  
ENDBRANCH  20  22
ENDBRANCH   8  20
BRANCH  11  24
HETATM   24  C   UNL     1      -9.091   7.577  68.605  1.00  0.00    -0.134 A  
HETATM   25  C   UNL     1     -10.158   6.804  68.106  1.00  0.00    -0.182 A  
HETATM   26  C   UNL     1     -10.224   5.429  68.354  1.00  0.00    -0.229 A  
HETATM   27  C   UNL     1      -9.228   4.795  69.091  1.00  0.00    -0.175 A  
HETATM   28  C   UNL     1      -8.157   5.538  69.582  1.00  0.00    -0.101 A  
HETATM   29  C   UNL     1      -8.086   6.916  69.349  1.00  0.00    -0.127 A  
HETATM   30 CL   UNL     1      -6.741   7.749  70.057  1.00  0.00    -0.044 Cl 
ENDBRANCH  11  24
ENDBRANCH   4   6
ENDBRANCH   3   4
ENDBRANCH   2   3
TORSDOF 10
ENDMDL
MODEL      121
REMARK 921   NORMALIZED FREE ENERGY PREDICTED BY IDOCK:   -3.75 KCAL/MOL
REMARK 922        TOTAL FREE ENERGY PREDICTED BY IDOCK:   -7.51 KCAL/MOL
REMARK 923 INTER-LIGAND FREE ENERGY PREDICTED BY IDOCK:   -5.99 KCAL/MOL
REMARK 924 INTRA-LIGAND FREE ENERGY PREDICTED BY IDOCK:   -1.51 KCAL/MOL
REMARK 927      BINDING AFFINITY PREDICTED BY RF-SCORE:    0.00 PKD
ROOT
HETATM    1  C   UNL     1     -11.627  12.228  67.742  1.00  0.00    -0.416 C  
HETATM    2  C   UNL     1     -11.025  11.709  69.042  1.00  0.00    -0.233 C  
ENDROOT
BRANCH   2   3
HETATM    3  O   UNL     1     -10.735  10.310  68.933  1.00  0.00    -0.203 OA 
BRANCH   3   4
HETATM    4  C   UNL     1      -9.433   9.962  68.803  1.00  0.00    -0.157 C  
HETATM    5  O   UNL     1      -8.516  10.718  69.082  1.00  0.00    -0.152 OA 
BRANCH   4   6
HETATM    6  C   UNL     1      -9.269   8.542  68.328  1.00  0.00    -0.140 C  
HETATM    7  C   UNL     1      -9.555   8.146  67.059  1.00  0.00    -0.196 C  
HETATM    8  C   UNL     1      -8.786   6.042  68.838  1.00  0.00    -0.120 C  
HETATM    9  N   UNL     1      -9.367   6.829  66.680  1.00  0.00    -0.161 NA 
HETATM   10  C   UNL     1      -9.073   5.788  67.536  1.00  0.00    -0.106 C  
HETATM   11  C   UNL     1      -8.743   7.499  69.360  1.00  0.00    -0.137 C  
HETATM   12  C   UNL     1      -9.072   4.416  66.902  1.00  0.00    -0.136 C  
BRANCH   7  13
HETATM   13  C   UNL     1     -10.104   9.053  65.968  1.00  0.00    -0.084 C  
BRANCH  13  14
HETATM   14  O   UNL     1      -9.210   9.182  64.848  1.00  0.00    -0.192 OA 
BRANCH  14  15
HETATM   15  C   UNL     1      -8.977  10.587  64.623  1.00  0.00    -0.207 C  
BRANCH  15  16
HETATM   16  C   UNL     1     -10.292  11.324  64.369  1.00  0.00    -0.329 C  
HETATM   17  N   UNL     1     -10.752  11.115  62.995  1.00  0.00    -0.818 NA 
HETATM   18  H2  UNL     1     -10.827  10.124  62.769  1.00  0.00     0.000 HD 
HETATM   19  H1  UNL     1     -11.629  11.606  62.826  1.00  0.00     0.000 HD 
ENDBRANCH  15  16
ENDBRANCH  14  15
ENDBRANCH  13  14
ENDBRANCH   7  13
BRANCH   8  20
HETATM   20  C   UNL     1      -8.503   4.899  69.754  1.00  0.00    -0.083 C  
HETATM   21  O   UNL     1      -7.385   4.592  70.145  1.00  0.00    -0.049 OA 
BRANCH  20  22
HETATM   22  O   UNL     1      -9.638   4.245  70.102  1.00  0.00    -0.164 OA 
HETATM   23  C   UNL     1      -9.731   3.916  71.494  1.00  0.00    -0.177 C  
ENDBRANCH  20  22
ENDBRANCH   8  20
BRANCH  11  24
HETATM   24  C   UNL     1      -9.394   7.657  70.743  1.00  0.00    -0.162 A  
HETATM   25  C   UNL     1      -8.609   8.032  71.851  1.00  0.00    -0.180 A  
HETATM   26  C   UNL     1      -9.161   8.085  73.136  1.00  0.00    -0.341 A  
HETATM   27  C   UNL     1     -10.503   7.778  73.341  1.00  0.00    -0.271 A  
HETATM   28  C   UNL     1     -11.300   7.418  72.258  1.00  0.00    -0.323 A  
HETATM   29  C   UNL     1     -10.756   7.351  70.970  1.00  0.00    -0.231 A  
HETATM   30 CL   UNL     1     -11.824   6.833  69.707  1.00  0.00    -0.226 Cl 
ENDBRANCH  11  24
ENDBRANCH   4   6
ENDBRANCH   3   4
ENDBRANCH   2   3
TORSDOF 10
ENDMDL
MODEL      122
REMARK 921   NORMALIZED FREE ENERGY PREDICTED BY IDOCK:   -3.75 KCAL/MOL
REMARK 922        TOTAL FREE ENERGY PREDICTED BY IDOCK:   -7.50 KCAL/MOL
REMARK 923 INTER-LIGAND FREE ENERGY PREDICTED BY IDOCK:   -5.57 KCAL/MOL
REMARK 924 INTRA-LIGAND FREE ENERGY PREDICTED BY IDOCK:   -1.93 KCAL/MOL
REMARK 927      BINDING AFFINITY PREDICTED BY RF-SCORE:    0.00 PKD
ROOT
HETATM    1  C   UNL     1      -9.560   9.847  65.442  1.00  0.00    -0.350 C  
HETATM    2  C   UNL     1     -10.584   9.846  66.569  1.00  0.00    -0.086 C  
ENDROOT
BRANCH   2   3
HETATM    3  O   UNL     1     -10.012   9.289  67.760  1.00  0.00    -0.170 OA 
BRANCH   3   4
HETATM    4  C   UNL     1      -9.497  10.161  68.659  1.00  0.00    -0.164 C  
HETATM    5  O   UNL     1      -9.852  11.327  68.726  1.00  0.00    -0.205 OA 
BRANCH   4   6
HETATM    6  C   UNL     1      -8.491   9.508  69.571  1.00  0.00    -0.156 C  
HETATM    7  C   UNL     1      -7.225   9.199  69.179  1.00  0.00    -0.067 C  
HETATM    8  C   UNL     1      -7.915   8.353  71.823  1.00  0.00    -0.173 C  
HETATM    9  N   UNL     1      -6.344   8.615  70.070  1.00  0.00    -0.034 NA 
HETATM   10  C   UNL     1      -6.675   8.131  71.318  1.00  0.00    -0.046 C  
HETATM   11  C   UNL     1      -8.947   9.186  71.026  1.00  0.00    -0.281 C  
HETATM   12  C   UNL     1      -5.567   7.396  72.037  1.00  0.00    -0.036 C  
BRANCH   7  13
HETATM   13  C   UNL     1      -6.666   9.429  67.783  1.00  0.00    -0.067 C  
BRANCH  13  14
HETATM   14  O   UNL     1      -5.830  10.597  67.703  1.00  0.00    -0.044 OA 
BRANCH  14  15
HETATM   15  C   UNL     1      -6.404  11.491  66.727  1.00  0.00    -0.134 C  
BRANCH  15  16
HETATM   16  C   UNL     1      -6.852  12.797  67.382  1.00  0.00    -0.133 C  
HETATM   17  N   UNL     1      -8.212  13.149  66.970  1.00  0.00    -0.371 NA 
HETATM   18  H2  UNL     1      -8.869  12.391  67.154  1.00  0.00     0.000 HD 
HETATM   19  H1  UNL     1      -8.511  14.020  67.407  1.00  0.00     0.000 HD 
ENDBRANCH  15  16
ENDBRANCH  14  15
ENDBRANCH  13  14
ENDBRANCH   7  13
BRANCH   8  20
HETATM   20  C   UNL     1      -8.264   7.793  73.161  1.00  0.00    -0.149 C  
HETATM   21  O   UNL     1      -8.245   8.435  74.201  1.00  0.00    -0.286 OA 
BRANCH  20  22
HETATM   22  O   UNL     1      -8.607   6.484  73.080  1.00  0.00    -0.122 OA 
HETATM   23  C   UNL     1      -8.316   5.719  74.256  1.00  0.00    -0.109 C  
ENDBRANCH  20  22
ENDBRANCH   8  20
BRANCH  11  24
HETATM   24  C   UNL     1     -10.364   8.595  71.083  1.00  0.00    -0.294 A  
HETATM   25  C   UNL     1     -11.393   9.296  71.742  1.00  0.00    -0.437 A  
HETATM   26  C   UNL     1     -12.664   8.731  71.891  1.00  0.00    -0.427 A  
HETATM   27  C   UNL     1     -12.939   7.466  71.379  1.00  0.00    -0.403 A  
HETATM   28  C   UNL     1     -11.941   6.762  70.712  1.00  0.00    -0.433 A  
HETATM   29  C   UNL     1     -10.662   7.313  70.566  1.00  0.00    -0.232 A  
HETATM   30 CL   UNL     1      -9.482   6.324  69.772  1.00  0.00    -0.158 Cl 
ENDBRANCH  11  24
ENDBRANCH   4   6
ENDBRANCH   3   4
ENDBRANCH   2   3
TORSDOF 10
ENDMDL
MODEL      123
REMARK 921   NORMALIZED FREE ENERGY PREDICTED BY IDOCK:   -3.73 KCAL/MOL
REMARK 922        TOTAL FREE ENERGY PREDICTED BY IDOCK:   -7.47 KCAL/MOL
REMARK 923 INTER-LIGAND FREE ENERGY PREDICTED BY IDOCK:   -5.71 KCAL/MOL
REMARK 924 INTRA-LIGAND FREE ENERGY PREDICTED BY IDOCK:   -1.76 KCAL/MOL
REMARK 927      BINDING AFFINITY PREDICTED BY RF-SCORE:    0.00 PKD
ROOT
HETATM    1  C   UNL     1      -6.768  10.890  69.250  1.00  0.00    -0.086 C  
HETATM    2  C   UNL     1      -8.072  11.289  68.571  1.00  0.00    -0.148 C  
ENDROOT
BRANCH   2   3
HETATM    3  O   UNL     1      -9.192  10.777  69.304  1.00  0.00    -0.153 OA 
BRANCH   3   4
HETATM    4  C   UNL     1     -10.143  10.124  68.594  1.00  0.00    -0.172 C  
HETATM    5  O   UNL     1     -11.259  10.581  68.410  1.00  0.00    -0.264 OA 
BRANCH   4   6
HETATM    6  C   UNL     1      -9.638   8.820  68.035  1.00  0.00    -0.160 C  
HETATM    7  C   UNL     1      -9.623   8.539  66.704  1.00  0.00    -0.227 C  
HETATM    8  C   UNL     1      -8.791   6.393  68.402  1.00  0.00    -0.119 C  
HETATM    9  N   UNL     1      -9.131   7.328  66.252  1.00  0.00    -0.164 NA 
HETATM   10  C   UNL     1      -8.798   6.255  67.052  1.00  0.00    -0.108 C  
HETATM   11  C   UNL     1      -9.111   7.761  69.051  1.00  0.00    -0.144 C  
HETATM   12  C   UNL     1      -8.433   4.990  66.310  1.00  0.00    -0.112 C  
BRANCH   7  13
HETATM   13  C   UNL     1     -10.137   9.468  65.613  1.00  0.00    -0.087 C  
BRANCH  13  14
HETATM   14  O   UNL     1      -9.165  10.450  65.214  1.00  0.00    -0.172 OA 
BRANCH  14  15
HETATM   15  C   UNL     1      -9.859  11.691  64.969  1.00  0.00    -0.248 C  
BRANCH  15  16
HETATM   16  C   UNL     1     -10.016  11.939  63.470  1.00  0.00    -0.400 C  
HETATM   17  N   UNL     1     -11.287  12.608  63.181  1.00  0.00    -0.769 NA 
HETATM   18  H2  UNL     1     -11.390  13.468  63.718  1.00  0.00     0.000 HD 
HETATM   19  H1  UNL     1     -11.392  12.774  62.181  1.00  0.00     0.000 HD 
ENDBRANCH  15  16
ENDBRANCH  14  15
ENDBRANCH  13  14
ENDBRANCH   7  13
BRANCH   8  20
HETATM   20  C   UNL     1      -8.461   5.211  69.250  1.00  0.00    -0.093 C  
HETATM   21  O   UNL     1      -9.145   4.199  69.315  1.00  0.00    -0.103 OA 
BRANCH  20  22
HETATM   22  O   UNL     1      -7.307   5.395  69.936  1.00  0.00    -0.062 OA 
HETATM   23  C   UNL     1      -7.307   4.844  71.259  1.00  0.00    -0.069 C  
ENDBRANCH  20  22
ENDBRANCH   8  20
BRANCH  11  24
HETATM   24  C   UNL     1     -10.006   7.639  70.293  1.00  0.00    -0.189 A  
HETATM   25  C   UNL     1     -11.352   7.244  70.155  1.00  0.00    -0.236 A  
HETATM   26  C   UNL     1     -12.210   7.222  71.260  1.00  0.00    -0.389 A  
HETATM   27  C   UNL     1     -11.745   7.581  72.521  1.00  0.00    -0.310 A  
HETATM   28  C   UNL     1     -10.416   7.961  72.683  1.00  0.00    -0.384 A  
HETATM   29  C   UNL     1      -9.551   7.997  71.583  1.00  0.00    -0.167 A  
HETATM   30 CL   UNL     1      -7.935   8.543  71.890  1.00  0.00    -0.177 Cl 
ENDBRANCH  11  24
ENDBRANCH   4   6
ENDBRANCH   3   4
ENDBRANCH   2   3
TORSDOF 10
ENDMDL
MODEL      124
REMARK 921   NORMALIZED FREE ENERGY PREDICTED BY IDOCK:   -3.73 KCAL/MOL
REMARK 922        TOTAL FREE ENERGY PREDICTED BY IDOCK:   -7.47 KCAL/MOL
REMARK 923 INTER-LIGAND FREE ENERGY PREDICTED BY IDOCK:   -5.92 KCAL/MOL
REMARK 924 INTRA-LIGAND FREE ENERGY PREDICTED BY IDOCK:   -1.54 KCAL/MOL
REMARK 927      BINDING AFFINITY PREDICTED BY RF-SCORE:    0.00 PKD
ROOT
HETATM    1  C   UNL     1      -7.299   9.931  68.313  1.00  0.00    -0.079 C  
HETATM    2  C   UNL     1      -7.569  11.415  68.095  1.00  0.00    -0.114 C  
ENDROOT
BRANCH   2   3
HETATM    3  O   UNL     1      -8.545  11.597  67.061  1.00  0.00    -0.157 OA 
BRANCH   3   4
HETATM    4  C   UNL     1      -9.781  11.993  67.447  1.00  0.00    -0.182 C  
HETATM    5  O   UNL     1     -10.363  11.505  68.402  1.00  0.00    -0.188 OA 
BRANCH   4   6
HETATM    6  C   UNL     1     -10.307  13.119  66.596  1.00  0.00    -0.265 C  
HETATM    7  C   UNL     1     -10.852  12.927  65.364  1.00  0.00    -0.283 C  
HETATM    8  C   UNL     1     -10.604  15.662  66.163  1.00  0.00    -0.325 C  
HETATM    9  N   UNL     1     -11.333  14.002  64.639  1.00  0.00    -0.368 NA 
HETATM   10  C   UNL     1     -11.155  15.329  64.969  1.00  0.00    -0.426 C  
HETATM   11  C   UNL     1     -10.213  14.562  67.179  1.00  0.00    -0.260 C  
HETATM   12  C   UNL     1     -11.640  16.318  63.933  1.00  0.00     0.724 C  
BRANCH   7  13
HETATM   13  C   UNL     1     -10.973  11.579  64.668  1.00  0.00    -0.288 C  
BRANCH  13  14
HETATM   14  O   UNL     1     -10.710  11.657  63.256  1.00  0.00    -0.373 OA 
BRANCH  14  15
HETATM   15  C   UNL     1      -9.328  11.306  63.039  1.00  0.00    -0.341 C  
BRANCH  15  16
HETATM   16  C   UNL     1      -8.938  10.089  63.876  1.00  0.00    -0.242 C  
HETATM   17  N   UNL     1      -7.573  10.222  64.389  1.00  0.00    -0.257 NA 
HETATM   18  H2  UNL     1      -7.448  11.091  64.908  1.00  0.00     0.000 HD 
HETATM   19  H1  UNL     1      -7.312   9.410  64.948  1.00  0.00     0.000 HD 
ENDBRANCH  15  16
ENDBRANCH  14  15
ENDBRANCH  13  14
ENDBRANCH   7  13
BRANCH   8  20
HETATM   20  C   UNL     1     -10.390  17.103  66.485  1.00  0.00    -0.306 C  
HETATM   21  O   UNL     1      -9.835  17.899  65.741  1.00  0.00    -0.540 OA 
BRANCH  20  22
HETATM   22  O   UNL     1     -10.890  17.421  67.704  1.00  0.00    -0.338 OA 
HETATM   23  C   UNL     1     -10.089  18.345  68.452  1.00  0.00    -0.390 C  
ENDBRANCH  20  22
ENDBRANCH   8  20
BRANCH  11  24
HETATM   24  C   UNL     1      -8.866  14.834  67.866  1.00  0.00    -0.167 A  
HETATM   25  C   UNL     1      -7.668  14.733  67.132  1.00  0.00    -0.149 A  
HETATM   26  C   UNL     1      -6.427  14.879  67.760  1.00  0.00    -0.183 A  
HETATM   27  C   UNL     1      -6.354  15.140  69.125  1.00  0.00    -0.109 A  
HETATM   28  C   UNL     1      -7.525  15.258  69.867  1.00  0.00    -0.038 A  
HETATM   29  C   UNL     1      -8.772  15.103  69.251  1.00  0.00    -0.207 A  
HETATM   30 CL   UNL     1     -10.161  15.210  70.282  1.00  0.00    -0.073 Cl 
ENDBRANCH  11  24
ENDBRANCH   4   6
ENDBRANCH   3   4
ENDBRANCH   2   3
TORSDOF 10
ENDMDL
MODEL      125
REMARK 921   NORMALIZED FREE ENERGY PREDICTED BY IDOCK:   -3.71 KCAL/MOL
REMARK 922        TOTAL FREE ENERGY PREDICTED BY IDOCK:   -7.43 KCAL/MOL
REMARK 923 INTER-LIGAND FREE ENERGY PREDICTED BY IDOCK:   -5.73 KCAL/MOL
REMARK 924 INTRA-LIGAND FREE ENERGY PREDICTED BY IDOCK:   -1.71 KCAL/MOL
REMARK 927      BINDING AFFINITY PREDICTED BY RF-SCORE:    0.00 PKD
ROOT
HETATM    1  C   UNL     1     -11.125   6.096  68.562  1.00  0.00    -0.352 C  
HETATM    2  C   UNL     1     -10.589   6.127  67.136  1.00  0.00    -0.305 C  
ENDROOT
BRANCH   2   3
HETATM    3  O   UNL     1     -10.743   7.437  66.575  1.00  0.00    -0.119 OA 
BRANCH   3   4
HETATM    4  C   UNL     1      -9.609   8.098  66.242  1.00  0.00    -0.178 C  
HETATM    5  O   UNL     1      -8.545   7.531  66.055  1.00  0.00    -0.140 OA 
BRANCH   4   6
HETATM    6  C   UNL     1      -9.840   9.579  66.089  1.00  0.00    -0.343 C  
HETATM    7  C   UNL     1      -9.675  10.238  64.910  1.00  0.00    -0.320 C  
HETATM    8  C   UNL     1     -10.321  11.901  67.145  1.00  0.00    -0.235 C  
HETATM    9  N   UNL     1      -9.920  11.596  64.831  1.00  0.00    -0.249 NA 
HETATM   10  C   UNL     1     -10.155  12.428  65.906  1.00  0.00    -0.253 C  
HETATM   11  C   UNL     1     -10.290  10.368  67.355  1.00  0.00    -0.275 C  
HETATM   12  C   UNL     1     -10.237  13.900  65.573  1.00  0.00    -0.348 C  
BRANCH   7  13
HETATM   13  C   UNL     1      -9.209   9.594  63.612  1.00  0.00    -0.110 C  
BRANCH  13  14
HETATM   14  O   UNL     1      -7.866   9.084  63.695  1.00  0.00    -0.123 OA 
BRANCH  14  15
HETATM   15  C   UNL     1      -6.990  10.184  64.014  1.00  0.00    -0.101 C  
BRANCH  15  16
HETATM   16  C   UNL     1      -5.619   9.678  64.459  1.00  0.00    -0.071 C  
HETATM   17  N   UNL     1      -5.746   8.722  65.561  1.00  0.00    -0.046 NA 
HETATM   18  H2  UNL     1      -6.372   7.954  65.323  1.00  0.00     0.000 HD 
HETATM   19  H1  UNL     1      -4.831   8.384  65.858  1.00  0.00     0.000 HD 
ENDBRANCH  15  16
ENDBRANCH  14  15
ENDBRANCH  13  14
ENDBRANCH   7  13
BRANCH   8  20
HETATM   20  C   UNL     1     -10.542  12.821  68.299  1.00  0.00    -0.238 C  
HETATM   21  O   UNL     1      -9.662  13.491  68.822  1.00  0.00    -0.141 OA 
BRANCH  20  22
HETATM   22  O   UNL     1     -11.838  12.823  68.695  1.00  0.00    -0.304 OA 
HETATM   23  C   UNL     1     -12.039  12.491  70.074  1.00  0.00    -0.266 C  
ENDBRANCH  20  22
ENDBRANCH   8  20
BRANCH  11  24
HETATM   24  C   UNL     1      -9.517   9.953  68.616  1.00  0.00    -0.153 A  
HETATM   25  C   UNL     1     -10.189   9.308  69.673  1.00  0.00    -0.219 A  
HETATM   26  C   UNL     1      -9.526   9.011  70.869  1.00  0.00    -0.331 A  
HETATM   27  C   UNL     1      -8.183   9.338  71.031  1.00  0.00    -0.122 A  
HETATM   28  C   UNL     1      -7.496   9.962  69.994  1.00  0.00    -0.173 A  
HETATM   29  C   UNL     1      -8.152  10.274  68.797  1.00  0.00    -0.120 A  
HETATM   30 CL   UNL     1      -7.216  11.104  67.598  1.00  0.00    -0.091 Cl 
ENDBRANCH  11  24
ENDBRANCH   4   6
ENDBRANCH   3   4
ENDBRANCH   2   3
TORSDOF 10
ENDMDL
MODEL      126
REMARK 921   NORMALIZED FREE ENERGY PREDICTED BY IDOCK:   -3.71 KCAL/MOL
REMARK 922        TOTAL FREE ENERGY PREDICTED BY IDOCK:   -7.43 KCAL/MOL
REMARK 923 INTER-LIGAND FREE ENERGY PREDICTED BY IDOCK:   -6.03 KCAL/MOL
REMARK 924 INTRA-LIGAND FREE ENERGY PREDICTED BY IDOCK:   -1.41 KCAL/MOL
REMARK 927      BINDING AFFINITY PREDICTED BY RF-SCORE:    0.00 PKD
ROOT
HETATM    1  C   UNL     1      -9.981   9.871  65.871  1.00  0.00    -0.347 C  
HETATM    2  C   UNL     1     -10.882  10.104  67.077  1.00  0.00    -0.151 C  
ENDROOT
BRANCH   2   3
HETATM    3  O   UNL     1     -10.530   9.211  68.142  1.00  0.00    -0.211 OA 
BRANCH   3   4
HETATM    4  C   UNL     1      -9.843   9.739  69.183  1.00  0.00    -0.188 C  
HETATM    5  O   UNL     1      -9.865  10.929  69.453  1.00  0.00    -0.154 OA 
BRANCH   4   6
HETATM    6  C   UNL     1      -9.110   8.685  69.971  1.00  0.00    -0.157 C  
HETATM    7  C   UNL     1      -8.014   8.032  69.498  1.00  0.00    -0.115 C  
HETATM    8  C   UNL     1      -8.951   7.134  72.047  1.00  0.00    -0.141 C  
HETATM    9  N   UNL     1      -7.376   7.086  70.279  1.00  0.00    -0.082 NA 
HETATM   10  C   UNL     1      -7.851   6.585  71.472  1.00  0.00    -0.100 C  
HETATM   11  C   UNL     1      -9.651   8.350  71.394  1.00  0.00    -0.254 C  
HETATM   12  C   UNL     1      -7.048   5.445  72.055  1.00  0.00    -0.085 C  
BRANCH   7  13
HETATM   13  C   UNL     1      -7.407   8.240  68.118  1.00  0.00    -0.096 C  
BRANCH  13  14
HETATM   14  O   UNL     1      -7.961   7.356  67.127  1.00  0.00    -0.110 OA 
BRANCH  14  15
HETATM   15  C   UNL     1      -6.881   6.580  66.569  1.00  0.00    -0.065 C  
BRANCH  15  16
HETATM   16  C   UNL     1      -7.373   5.722  65.404  1.00  0.00    -0.076 C  
HETATM   17  N   UNL     1      -8.657   6.211  64.900  1.00  0.00    -0.336 NA 
HETATM   18  H2  UNL     1      -8.612   7.198  64.647  1.00  0.00     0.000 HD 
HETATM   19  H1  UNL     1      -8.986   5.639  64.122  1.00  0.00     0.000 HD 
ENDBRANCH  15  16
ENDBRANCH  14  15
ENDBRANCH  13  14
ENDBRANCH   7  13
BRANCH   8  20
HETATM   20  C   UNL     1      -9.468   6.555  73.321  1.00  0.00    -0.143 C  
HETATM   21  O   UNL     1      -9.545   7.171  74.375  1.00  0.00    -0.226 OA 
BRANCH  20  22
HETATM   22  O   UNL     1      -9.846   5.262  73.165  1.00  0.00    -0.151 OA 
HETATM   23  C   UNL     1     -11.208   4.994  73.518  1.00  0.00    -0.269 C  
ENDBRANCH  20  22
ENDBRANCH   8  20
BRANCH  11  24
HETATM   24  C   UNL     1     -11.183   8.251  71.435  1.00  0.00    -0.304 A  
HETATM   25  C   UNL     1     -11.931   9.197  72.163  1.00  0.00    -0.364 A  
HETATM   26  C   UNL     1     -13.318   9.067  72.295  1.00  0.00    -0.523 A  
HETATM   27  C   UNL     1     -13.987   8.004  71.697  1.00  0.00    -0.474 A  
HETATM   28  C   UNL     1     -13.270   7.065  70.961  1.00  0.00    -0.124 A  
HETATM   29  C   UNL     1     -11.881   7.179  70.832  1.00  0.00    -0.339 A  
HETATM   30 CL   UNL     1     -11.083   5.921  69.945  1.00  0.00    -0.445 Cl 
ENDBRANCH  11  24
ENDBRANCH   4   6
ENDBRANCH   3   4
ENDBRANCH   2   3
TORSDOF 10
ENDMDL
MODEL      127
REMARK 921   NORMALIZED FREE ENERGY PREDICTED BY IDOCK:   -3.69 KCAL/MOL
REMARK 922        TOTAL FREE ENERGY PREDICTED BY IDOCK:   -7.41 KCAL/MOL
REMARK 923 INTER-LIGAND FREE ENERGY PREDICTED BY IDOCK:   -5.76 KCAL/MOL
REMARK 924 INTRA-LIGAND FREE ENERGY PREDICTED BY IDOCK:   -1.65 KCAL/MOL
REMARK 927      BINDING AFFINITY PREDICTED BY RF-SCORE:    0.00 PKD
ROOT
HETATM    1  C   UNL     1      -9.415   9.702  64.986  1.00  0.00    -0.312 C  
HETATM    2  C   UNL     1      -8.124   9.204  65.624  1.00  0.00    -0.113 C  
ENDROOT
BRANCH   2   3
HETATM    3  O   UNL     1      -8.416   8.284  66.684  1.00  0.00    -0.117 OA 
BRANCH   3   4
HETATM    4  C   UNL     1      -8.051   8.654  67.934  1.00  0.00    -0.108 C  
HETATM    5  O   UNL     1      -6.888   8.683  68.302  1.00  0.00    -0.064 OA 
BRANCH   4   6
HETATM    6  C   UNL     1      -9.234   9.063  68.773  1.00  0.00    -0.133 C  
HETATM    7  C   UNL     1      -9.606  10.359  68.950  1.00  0.00    -0.192 C  
HETATM    8  C   UNL     1     -11.129   8.450  70.438  1.00  0.00    -0.240 C  
HETATM    9  N   UNL     1     -10.713  10.668  69.719  1.00  0.00    -0.253 NA 
HETATM   10  C   UNL     1     -11.412   9.775  70.504  1.00  0.00    -0.300 C  
HETATM   11  C   UNL     1     -10.055   7.926  69.454  1.00  0.00    -0.196 C  
HETATM   12  C   UNL     1     -12.487  10.388  71.372  1.00  0.00    -0.521 C  
BRANCH   7  13
HETATM   13  C   UNL     1      -8.874  11.561  68.370  1.00  0.00    -0.163 C  
BRANCH  13  14
HETATM   14  O   UNL     1      -9.681  12.310  67.444  1.00  0.00    -0.182 OA 
BRANCH  14  15
HETATM   15  C   UNL     1      -9.691  13.687  67.874  1.00  0.00    -0.234 C  
BRANCH  15  16
HETATM   16  C   UNL     1     -10.574  14.536  66.962  1.00  0.00    -0.278 C  
HETATM   17  N   UNL     1      -9.983  14.659  65.628  1.00  0.00    -0.349 NA 
HETATM   18  H2  UNL     1      -9.786  13.746  65.218  1.00  0.00     0.000 HD 
HETATM   19  H1  UNL     1     -10.572  15.225  65.018  1.00  0.00     0.000 HD 
ENDBRANCH  15  16
ENDBRANCH  14  15
ENDBRANCH  13  14
ENDBRANCH   7  13
BRANCH   8  20
HETATM   20  C   UNL     1     -11.874   7.505  71.320  1.00  0.00    -0.294 C  
HETATM   21  O   UNL     1     -12.843   6.850  70.961  1.00  0.00    -0.333 OA 
BRANCH  20  22
HETATM   22  O   UNL     1     -11.344   7.460  72.566  1.00  0.00    -0.284 OA 
HETATM   23  C   UNL     1     -11.076   6.139  73.051  1.00  0.00    -0.218 C  
ENDBRANCH  20  22
ENDBRANCH   8  20
BRANCH  11  24
HETATM   24  C   UNL     1      -9.160   6.840  70.069  1.00  0.00    -0.148 A  
HETATM   25  C   UNL     1      -9.263   5.507  69.623  1.00  0.00    -0.163 A  
HETATM   26  C   UNL     1      -8.530   4.487  70.237  1.00  0.00    -0.092 A  
HETATM   27  C   UNL     1      -7.673   4.772  71.296  1.00  0.00    -0.083 A  
HETATM   28  C   UNL     1      -7.545   6.084  71.744  1.00  0.00    -0.096 A  
HETATM   29  C   UNL     1      -8.282   7.111  71.144  1.00  0.00    -0.112 A  
HETATM   30 CL   UNL     1      -8.090   8.695  71.821  1.00  0.00    -0.186 Cl 
ENDBRANCH  11  24
ENDBRANCH   4   6
ENDBRANCH   3   4
ENDBRANCH   2   3
TORSDOF 10
ENDMDL
MODEL      128
REMARK 921   NORMALIZED FREE ENERGY PREDICTED BY IDOCK:   -3.68 KCAL/MOL
REMARK 922        TOTAL FREE ENERGY PREDICTED BY IDOCK:   -7.39 KCAL/MOL
REMARK 923 INTER-LIGAND FREE ENERGY PREDICTED BY IDOCK:   -5.47 KCAL/MOL
REMARK 924 INTRA-LIGAND FREE ENERGY PREDICTED BY IDOCK:   -1.92 KCAL/MOL
REMARK 927      BINDING AFFINITY PREDICTED BY RF-SCORE:    0.00 PKD
ROOT
HETATM    1  C   UNL     1     -11.853  12.791  69.439  1.00  0.00    -0.359 C  
HETATM    2  C   UNL     1     -11.494  11.841  68.303  1.00  0.00    -0.307 C  
ENDROOT
BRANCH   2   3
HETATM    3  O   UNL     1     -11.045  10.585  68.828  1.00  0.00    -0.234 OA 
BRANCH   3   4
HETATM    4  C   UNL     1      -9.731  10.294  68.680  1.00  0.00    -0.167 C  
HETATM    5  O   UNL     1      -8.842  11.036  69.066  1.00  0.00    -0.145 OA 
BRANCH   4   6
HETATM    6  C   UNL     1      -9.516   8.947  68.040  1.00  0.00    -0.158 C  
HETATM    7  C   UNL     1      -9.620   8.738  66.700  1.00  0.00    -0.220 C  
HETATM    8  C   UNL     1      -9.140   6.388  68.257  1.00  0.00    -0.114 C  
HETATM    9  N   UNL     1      -9.394   7.480  66.171  1.00  0.00    -0.120 NA 
HETATM   10  C   UNL     1      -9.238   6.323  66.906  1.00  0.00    -0.130 C  
HETATM   11  C   UNL     1      -9.157   7.757  68.980  1.00  0.00    -0.144 C  
HETATM   12  C   UNL     1      -9.162   5.052  66.092  1.00  0.00    -0.149 C  
BRANCH   7  13
HETATM   13  C   UNL     1      -9.996   9.803  65.680  1.00  0.00    -0.282 C  
BRANCH  13  14
HETATM   14  O   UNL     1      -9.367   9.597  64.402  1.00  0.00    -0.254 OA 
BRANCH  14  15
HETATM   15  C   UNL     1      -8.069  10.225  64.439  1.00  0.00    -0.149 C  
BRANCH  15  16
HETATM   16  C   UNL     1      -7.021   9.350  63.753  1.00  0.00    -0.095 C  
HETATM   17  N   UNL     1      -6.807   8.109  64.498  1.00  0.00    -0.067 NA 
HETATM   18  H2  UNL     1      -7.680   7.603  64.647  1.00  0.00     0.000 HD 
HETATM   19  H1  UNL     1      -6.107   7.524  64.041  1.00  0.00     0.000 HD 
ENDBRANCH  15  16
ENDBRANCH  14  15
ENDBRANCH  13  14
ENDBRANCH   7  13
BRANCH   8  20
HETATM   20  C   UNL     1      -9.005   5.122  69.035  1.00  0.00    -0.100 C  
HETATM   21  O   UNL     1      -9.932   4.361  69.275  1.00  0.00    -0.183 OA 
BRANCH  20  22
HETATM   22  O   UNL     1      -7.728   4.918  69.441  1.00  0.00    -0.066 OA 
HETATM   23  C   UNL     1      -7.549   4.909  70.862  1.00  0.00    -0.073 C  
ENDBRANCH  20  22
ENDBRANCH   8  20
BRANCH  11  24
HETATM   24  C   UNL     1      -9.998   7.744  70.265  1.00  0.00    -0.189 A  
HETATM   25  C   UNL     1     -11.368   7.422  70.206  1.00  0.00    -0.244 A  
HETATM   26  C   UNL     1     -12.173   7.502  71.347  1.00  0.00    -0.363 A  
HETATM   27  C   UNL     1     -11.630   7.890  72.568  1.00  0.00    -0.443 A  
HETATM   28  C   UNL     1     -10.275   8.199  72.652  1.00  0.00    -0.388 A  
HETATM   29  C   UNL     1      -9.463   8.134  71.514  1.00  0.00    -0.171 A  
HETATM   30 CL   UNL     1      -7.806   8.598  71.722  1.00  0.00    -0.157 Cl 
ENDBRANCH  11  24
ENDBRANCH   4   6
ENDBRANCH   3   4
ENDBRANCH   2   3
TORSDOF 10
ENDMDL
MODEL      129
REMARK 921   NORMALIZED FREE ENERGY PREDICTED BY IDOCK:   -3.68 KCAL/MOL
REMARK 922        TOTAL FREE ENERGY PREDICTED BY IDOCK:   -7.39 KCAL/MOL
REMARK 923 INTER-LIGAND FREE ENERGY PREDICTED BY IDOCK:   -5.96 KCAL/MOL
REMARK 924 INTRA-LIGAND FREE ENERGY PREDICTED BY IDOCK:   -1.43 KCAL/MOL
REMARK 927      BINDING AFFINITY PREDICTED BY RF-SCORE:    0.00 PKD
ROOT
HETATM    1  C   UNL     1     -10.416   6.673  68.383  1.00  0.00    -0.248 C  
HETATM    2  C   UNL     1     -10.825   7.092  66.977  1.00  0.00    -0.343 C  
ENDROOT
BRANCH   2   3
HETATM    3  O   UNL     1     -10.909   8.520  66.887  1.00  0.00    -0.190 OA 
BRANCH   3   4
HETATM    4  C   UNL     1      -9.858   9.162  66.323  1.00  0.00    -0.289 C  
HETATM    5  O   UNL     1      -8.918   8.571  65.816  1.00  0.00    -0.182 OA 
BRANCH   4   6
HETATM    6  C   UNL     1     -10.022  10.659  66.360  1.00  0.00    -0.273 C  
HETATM    7  C   UNL     1      -9.966  11.439  65.247  1.00  0.00    -0.258 C  
HETATM    8  C   UNL     1     -10.238  12.865  67.711  1.00  0.00    -0.224 C  
HETATM    9  N   UNL     1     -10.141  12.807  65.345  1.00  0.00    -0.281 NA 
HETATM   10  C   UNL     1     -10.196  13.521  66.524  1.00  0.00    -0.283 C  
HETATM   11  C   UNL     1     -10.269  11.318  67.750  1.00  0.00    -0.203 C  
HETATM   12  C   UNL     1     -10.235  15.024  66.363  1.00  0.00    -0.286 C  
BRANCH   7  13
HETATM   13  C   UNL     1      -9.699  10.927  63.839  1.00  0.00    -0.303 C  
BRANCH  13  14
HETATM   14  O   UNL     1     -10.374  11.698  62.829  1.00  0.00    -0.160 OA 
BRANCH  14  15
HETATM   15  C   UNL     1     -11.792  11.478  62.974  1.00  0.00     0.302 C  
BRANCH  15  16
HETATM   16  C   UNL     1     -12.516  12.785  63.295  1.00  0.00    -0.240 C  
HETATM   17  N   UNL     1     -13.195  12.702  64.590  1.00  0.00    -0.775 NA 
HETATM   18  H2  UNL     1     -12.553  12.435  65.335  1.00  0.00     0.000 HD 
HETATM   19  H1  UNL     1     -13.678  13.574  64.804  1.00  0.00     0.000 HD 
ENDBRANCH  15  16
ENDBRANCH  14  15
ENDBRANCH  13  14
ENDBRANCH   7  13
BRANCH   8  20
HETATM   20  C   UNL     1     -10.264  13.657  68.975  1.00  0.00     0.009 C  
HETATM   21  O   UNL     1      -9.364  14.399  69.340  1.00  0.00     0.080 OA 
BRANCH  20  22
HETATM   22  O   UNL     1     -11.411  13.454  69.668  1.00  0.00    -0.261 OA 
HETATM   23  C   UNL     1     -12.263  14.602  69.759  1.00  0.00    -0.302 C  
ENDBRANCH  20  22
ENDBRANCH   8  20
BRANCH  11  24
HETATM   24  C   UNL     1      -9.373  10.731  68.850  1.00  0.00    -0.183 A  
HETATM   25  C   UNL     1      -7.972  10.846  68.753  1.00  0.00    -0.139 A  
HETATM   26  C   UNL     1      -7.135  10.233  69.691  1.00  0.00    -0.125 A  
HETATM   27  C   UNL     1      -7.673   9.504  70.748  1.00  0.00    -0.094 A  
HETATM   28  C   UNL     1      -9.055   9.389  70.871  1.00  0.00    -0.220 A  
HETATM   29  C   UNL     1      -9.901   9.989  69.932  1.00  0.00    -0.224 A  
HETATM   30 CL   UNL     1     -11.601   9.730  70.150  1.00  0.00    -0.266 Cl 
ENDBRANCH  11  24
ENDBRANCH   4   6
ENDBRANCH   3   4
ENDBRANCH   2   3
TORSDOF 10
ENDMDL
MODEL      130
REMARK 921   NORMALIZED FREE ENERGY PREDICTED BY IDOCK:   -3.67 KCAL/MOL
REMARK 922        TOTAL FREE ENERGY PREDICTED BY IDOCK:   -7.38 KCAL/MOL
REMARK 923 INTER-LIGAND FREE ENERGY PREDICTED BY IDOCK:   -5.81 KCAL/MOL
REMARK 924 INTRA-LIGAND FREE ENERGY PREDICTED BY IDOCK:   -1.56 KCAL/MOL
REMARK 927      BINDING AFFINITY PREDICTED BY RF-SCORE:    0.00 PKD
ROOT
HETATM    1  C   UNL     1     -14.411   7.952  71.582  1.00  0.00    -0.595 C  
HETATM    2  C   UNL     1     -13.004   7.367  71.580  1.00  0.00    -0.366 C  
ENDROOT
BRANCH   2   3
HETATM    3  O   UNL     1     -12.098   8.253  70.910  1.00  0.00    -0.253 OA 
BRANCH   3   4
HETATM    4  C   UNL     1     -10.780   7.948  70.980  1.00  0.00    -0.220 C  
HETATM    5  O   UNL     1      -9.961   8.676  71.519  1.00  0.00    -0.220 OA 
BRANCH   4   6
HETATM    6  C   UNL     1     -10.474   6.608  70.364  1.00  0.00    -0.249 C  
HETATM    7  C   UNL     1     -10.229   5.491  71.101  1.00  0.00    -0.222 C  
HETATM    8  C   UNL     1      -9.944   5.161  68.275  1.00  0.00    -0.208 C  
HETATM    9  N   UNL     1      -9.971   4.285  70.475  1.00  0.00    -0.195 NA 
HETATM   10  C   UNL     1      -9.754   4.120  69.123  1.00  0.00    -0.135 C  
HETATM   11  C   UNL     1     -10.447   6.524  68.808  1.00  0.00    -0.245 C  
HETATM   12  C   UNL     1      -9.335   2.729  68.706  1.00  0.00    -0.234 C  
BRANCH   7  13
HETATM   13  C   UNL     1     -10.192   5.444  72.622  1.00  0.00    -0.185 C  
BRANCH  13  14
HETATM   14  O   UNL     1     -10.814   4.262  73.157  1.00  0.00    -0.200 OA 
BRANCH  14  15
HETATM   15  C   UNL     1      -9.831   3.557  73.942  1.00  0.00    -0.111 C  
BRANCH  15  16
HETATM   16  C   UNL     1      -9.915   2.052  73.696  1.00  0.00    -0.088 C  
HETATM   17  N   UNL     1     -10.373   1.769  72.335  1.00  0.00    -0.158 NA 
HETATM   18  H2  UNL     1      -9.790   2.232  71.638  1.00  0.00     0.000 HD 
HETATM   19  H1  UNL     1     -10.429   0.764  72.170  1.00  0.00     0.000 HD 
ENDBRANCH  15  16
ENDBRANCH  14  15
ENDBRANCH  13  14
ENDBRANCH   7  13
BRANCH   8  20
HETATM   20  C   UNL     1      -9.671   4.970  66.820  1.00  0.00    -0.174 C  
HETATM   21  O   UNL     1     -10.508   4.602  66.007  1.00  0.00    -0.290 OA 
BRANCH  20  22
HETATM   22  O   UNL     1      -8.383   5.256  66.511  1.00  0.00    -0.108 OA 
HETATM   23  C   UNL     1      -8.124   5.389  65.108  1.00  0.00    -0.121 C  
ENDBRANCH  20  22
ENDBRANCH   8  20
BRANCH  11  24
HETATM   24  C   UNL     1      -9.728   7.720  68.165  1.00  0.00    -0.171 A  
HETATM   25  C   UNL     1     -10.425   8.571  67.285  1.00  0.00    -0.366 A  
HETATM   26  C   UNL     1      -9.765   9.605  66.613  1.00  0.00    -0.266 A  
HETATM   27  C   UNL     1      -8.404   9.819  66.811  1.00  0.00    -0.124 A  
HETATM   28  C   UNL     1      -7.698   8.999  67.687  1.00  0.00    -0.097 A  
HETATM   29  C   UNL     1      -8.346   7.954  68.356  1.00  0.00    -0.124 A  
HETATM   30 CL   UNL     1      -7.358   6.960  69.375  1.00  0.00    -0.089 Cl 
ENDBRANCH  11  24
ENDBRANCH   4   6
ENDBRANCH   3   4
ENDBRANCH   2   3
TORSDOF 10
ENDMDL
MODEL      131
REMARK 921   NORMALIZED FREE ENERGY PREDICTED BY IDOCK:   -3.67 KCAL/MOL
REMARK 922        TOTAL FREE ENERGY PREDICTED BY IDOCK:   -7.37 KCAL/MOL
REMARK 923 INTER-LIGAND FREE ENERGY PREDICTED BY IDOCK:   -6.43 KCAL/MOL
REMARK 924 INTRA-LIGAND FREE ENERGY PREDICTED BY IDOCK:   -0.95 KCAL/MOL
REMARK 927      BINDING AFFINITY PREDICTED BY RF-SCORE:    0.00 PKD
ROOT
HETATM    1  C   UNL     1     -12.278  11.726  63.887  1.00  0.00    -0.403 C  
HETATM    2  C   UNL     1     -12.763  12.839  64.807  1.00  0.00    -0.393 C  
ENDROOT
BRANCH   2   3
HETATM    3  O   UNL     1     -11.661  13.405  65.528  1.00  0.00    -0.313 OA 
BRANCH   3   4
HETATM    4  C   UNL     1     -11.459  12.955  66.789  1.00  0.00    -0.340 C  
HETATM    5  O   UNL     1     -12.339  12.432  67.453  1.00  0.00    -0.343 OA 
BRANCH   4   6
HETATM    6  C   UNL     1     -10.031  13.137  67.235  1.00  0.00    -0.230 C  
HETATM    7  C   UNL     1      -9.293  14.238  66.929  1.00  0.00    -0.257 C  
HETATM    8  C   UNL     1      -7.881  12.186  68.336  1.00  0.00    -0.149 C  
HETATM    9  N   UNL     1      -7.991  14.352  67.383  1.00  0.00    -0.194 NA 
HETATM   10  C   UNL     1      -7.269  13.348  67.993  1.00  0.00    -0.123 C  
HETATM   11  C   UNL     1      -9.396  11.996  68.087  1.00  0.00    -0.199 C  
HETATM   12  C   UNL     1      -5.815  13.670  68.254  1.00  0.00    -0.103 C  
BRANCH   7  13
HETATM   13  C   UNL     1      -9.779  15.403  66.081  1.00  0.00    -0.318 C  
BRANCH  13  14
HETATM   14  O   UNL     1      -8.734  16.344  65.775  1.00  0.00    -0.432 OA 
BRANCH  14  15
HETATM   15  C   UNL     1      -9.164  17.647  66.219  1.00  0.00    -0.190 C  
BRANCH  15  16
HETATM   16  C   UNL     1      -7.976  18.600  66.342  1.00  0.00    -0.277 C  
HETATM   17  N   UNL     1      -8.378  19.978  66.052  1.00  0.00    -0.508 NA 
HETATM   18  H2  UNL     1      -9.159  20.273  66.637  1.00  0.00     0.000 HD 
HETATM   19  H1  UNL     1      -7.585  20.614  66.134  1.00  0.00     0.000 HD 
ENDBRANCH  15  16
ENDBRANCH  14  15
ENDBRANCH  13  14
ENDBRANCH   7  13
BRANCH   8  20
HETATM   20  C   UNL     1      -7.074  11.100  68.965  1.00  0.00    -0.113 C  
HETATM   21  O   UNL     1      -7.062  10.860  70.164  1.00  0.00    -0.158 OA 
BRANCH  20  22
HETATM   22  O   UNL     1      -6.358  10.411  68.043  1.00  0.00    -0.058 OA 
HETATM   23  C   UNL     1      -6.427   8.987  68.180  1.00  0.00    -0.060 C  
ENDBRANCH  20  22
ENDBRANCH   8  20
BRANCH  11  24
HETATM   24  C   UNL     1      -9.744  10.598  67.553  1.00  0.00    -0.189 A  
HETATM   25  C   UNL     1     -10.333   9.645  68.407  1.00  0.00    -0.233 A  
HETATM   26  C   UNL     1     -10.566   8.337  67.969  1.00  0.00    -0.188 A  
HETATM   27  C   UNL     1     -10.229   7.955  66.674  1.00  0.00    -0.303 A  
HETATM   28  C   UNL     1      -9.658   8.884  65.809  1.00  0.00    -0.245 A  
HETATM   29  C   UNL     1      -9.410  10.193  66.240  1.00  0.00    -0.172 A  
HETATM   30 CL   UNL     1      -8.642  11.248  65.099  1.00  0.00     0.066 Cl 
ENDBRANCH  11  24
ENDBRANCH   4   6
ENDBRANCH   3   4
ENDBRANCH   2   3
TORSDOF 10
ENDMDL
MODEL      132
REMARK 921   NORMALIZED FREE ENERGY PREDICTED BY IDOCK:   -3.63 KCAL/MOL
REMARK 922        TOTAL FREE ENERGY PREDICTED BY IDOCK:   -7.31 KCAL/MOL
REMARK 923 INTER-LIGAND FREE ENERGY PREDICTED BY IDOCK:   -6.53 KCAL/MOL
REMARK 924 INTRA-LIGAND FREE ENERGY PREDICTED BY IDOCK:   -0.79 KCAL/MOL
REMARK 927      BINDING AFFINITY PREDICTED BY RF-SCORE:    0.00 PKD
ROOT
HETATM    1  C   UNL     1     -12.381  10.916  70.760  1.00  0.00    -0.487 C  
HETATM    2  C   UNL     1     -11.677  10.934  69.409  1.00  0.00    -0.325 C  
ENDROOT
BRANCH   2   3
HETATM    3  O   UNL     1     -11.069   9.662  69.148  1.00  0.00    -0.192 OA 
BRANCH   3   4
HETATM    4  C   UNL     1      -9.724   9.648  68.987  1.00  0.00    -0.169 C  
HETATM    5  O   UNL     1      -8.950  10.011  69.858  1.00  0.00    -0.206 OA 
BRANCH   4   6
HETATM    6  C   UNL     1      -9.320   9.095  67.645  1.00  0.00    -0.154 C  
HETATM    7  C   UNL     1      -8.883   7.819  67.469  1.00  0.00    -0.124 C  
HETATM    8  C   UNL     1      -8.811   9.456  65.125  1.00  0.00    -0.233 C  
HETATM    9  N   UNL     1      -8.542   7.367  66.208  1.00  0.00    -0.135 NA 
HETATM   10  C   UNL     1      -8.427   8.155  65.082  1.00  0.00    -0.116 C  
HETATM   11  C   UNL     1      -9.421  10.051  66.417  1.00  0.00    -0.235 C  
HETATM   12  C   UNL     1      -7.888   7.452  63.858  1.00  0.00    -0.117 C  
BRANCH   7  13
HETATM   13  C   UNL     1      -8.707   6.799  68.585  1.00  0.00    -0.125 C  
BRANCH  13  14
HETATM   14  O   UNL     1      -9.197   5.494  68.228  1.00  0.00    -0.108 OA 
BRANCH  14  15
HETATM   15  C   UNL     1     -10.295   5.667  67.308  1.00  0.00    -0.241 C  
BRANCH  15  16
HETATM   16  C   UNL     1     -10.358   4.509  66.312  1.00  0.00    -0.191 C  
HETATM   17  N   UNL     1     -11.433   4.715  65.340  1.00  0.00    -1.028 NA 
HETATM   18  H2  UNL     1     -11.346   5.614  64.867  1.00  0.00     0.000 HD 
HETATM   19  H1  UNL     1     -11.475   3.943  64.675  1.00  0.00     0.000 HD 
ENDBRANCH  15  16
ENDBRANCH  14  15
ENDBRANCH  13  14
ENDBRANCH   7  13
BRANCH   8  20
HETATM   20  C   UNL     1      -8.648  10.300  63.905  1.00  0.00    -0.187 C  
HETATM   21  O   UNL     1      -7.586  10.791  63.547  1.00  0.00     0.068 OA 
BRANCH  20  22
HETATM   22  O   UNL     1      -9.820  10.454  63.243  1.00  0.00    -0.302 OA 
HETATM   23  C   UNL     1     -10.255  11.812  63.111  1.00  0.00    -0.337 C  
ENDBRANCH  20  22
ENDBRANCH   8  20
BRANCH  11  24
HETATM   24  C   UNL     1      -8.905  11.464  66.726  1.00  0.00    -0.179 A  
HETATM   25  C   UNL     1      -7.569  11.654  67.130  1.00  0.00    -0.152 A  
HETATM   26  C   UNL     1      -7.107  12.918  67.511  1.00  0.00    -0.153 A  
HETATM   27  C   UNL     1      -7.959  14.018  67.485  1.00  0.00    -0.199 A  
HETATM   28  C   UNL     1      -9.279  13.856  67.076  1.00  0.00    -0.257 A  
HETATM   29  C   UNL     1      -9.755  12.594  66.703  1.00  0.00    -0.249 A  
HETATM   30 CL   UNL     1     -11.430  12.499  66.268  1.00  0.00    -0.396 Cl 
ENDBRANCH  11  24
ENDBRANCH   4   6
ENDBRANCH   3   4
ENDBRANCH   2   3
TORSDOF 10
ENDMDL
MODEL      133
REMARK 921   NORMALIZED FREE ENERGY PREDICTED BY IDOCK:   -3.63 KCAL/MOL
REMARK 922        TOTAL FREE ENERGY PREDICTED BY IDOCK:   -7.31 KCAL/MOL
REMARK 923 INTER-LIGAND FREE ENERGY PREDICTED BY IDOCK:   -5.79 KCAL/MOL
REMARK 924 INTRA-LIGAND FREE ENERGY PREDICTED BY IDOCK:   -1.53 KCAL/MOL
REMARK 927      BINDING AFFINITY PREDICTED BY RF-SCORE:    0.00 PKD
ROOT
HETATM    1  C   UNL     1     -12.677  10.722  71.273  1.00  0.00    -0.546 C  
HETATM    2  C   UNL     1     -12.007  11.311  70.039  1.00  0.00    -0.368 C  
ENDROOT
BRANCH   2   3
HETATM    3  O   UNL     1     -11.573  10.265  69.160  1.00  0.00    -0.196 OA 
BRANCH   3   4
HETATM    4  C   UNL     1     -10.283   9.868  69.268  1.00  0.00    -0.209 C  
HETATM    5  O   UNL     1      -9.624  10.033  70.282  1.00  0.00    -0.196 OA 
BRANCH   4   6
HETATM    6  C   UNL     1      -9.797   9.172  68.023  1.00  0.00    -0.197 C  
HETATM    7  C   UNL     1      -9.423   7.865  68.002  1.00  0.00    -0.149 C  
HETATM    8  C   UNL     1      -9.050   9.269  65.539  1.00  0.00    -0.275 C  
HETATM    9  N   UNL     1      -9.002   7.279  66.822  1.00  0.00    -0.131 NA 
HETATM   10  C   UNL     1      -8.742   7.953  65.647  1.00  0.00    -0.116 C  
HETATM   11  C   UNL     1      -9.733  10.013  66.712  1.00  0.00    -0.239 C  
HETATM   12  C   UNL     1      -8.141   7.111  64.544  1.00  0.00    -0.069 C  
BRANCH   7  13
HETATM   13  C   UNL     1      -9.407   6.945  69.215  1.00  0.00    -0.144 C  
BRANCH  13  14
HETATM   14  O   UNL     1      -8.186   7.042  69.970  1.00  0.00    -0.128 OA 
BRANCH  14  15
HETATM   15  C   UNL     1      -7.676   5.708  70.166  1.00  0.00    -0.086 C  
BRANCH  15  16
HETATM   16  C   UNL     1      -7.649   5.347  71.651  1.00  0.00    -0.104 C  
HETATM   17  N   UNL     1      -8.999   5.359  72.217  1.00  0.00    -0.129 NA 
HETATM   18  H2  UNL     1      -9.631   4.753  71.694  1.00  0.00     0.000 HD 
HETATM   19  H1  UNL     1      -8.981   5.118  73.207  1.00  0.00     0.000 HD 
ENDBRANCH  15  16
ENDBRANCH  14  15
ENDBRANCH  13  14
ENDBRANCH   7  13
BRANCH   8  20
HETATM   20  C   UNL     1      -8.730   9.987  64.270  1.00  0.00    -0.206 C  
HETATM   21  O   UNL     1      -7.603  10.327  63.939  1.00  0.00    -0.142 OA 
BRANCH  20  22
HETATM   22  O   UNL     1      -9.842  10.211  63.529  1.00  0.00    -0.215 OA 
HETATM   23  C   UNL     1     -10.025  11.574  63.128  1.00  0.00    -0.377 C  
ENDBRANCH  20  22
ENDBRANCH   8  20
BRANCH  11  24
HETATM   24  C   UNL     1      -9.162  11.421  66.940  1.00  0.00    -0.183 A  
HETATM   25  C   UNL     1      -7.822  11.580  67.345  1.00  0.00    -0.143 A  
HETATM   26  C   UNL     1      -7.312  12.845  67.654  1.00  0.00    -0.145 A  
HETATM   27  C   UNL     1      -8.118  13.975  67.556  1.00  0.00    -0.197 A  
HETATM   28  C   UNL     1      -9.442  13.842  67.145  1.00  0.00    -0.246 A  
HETATM   29  C   UNL     1      -9.966  12.580  66.844  1.00  0.00    -0.224 A  
HETATM   30 CL   UNL     1     -11.641  12.526  66.401  1.00  0.00    -0.425 Cl 
ENDBRANCH  11  24
ENDBRANCH   4   6
ENDBRANCH   3   4
ENDBRANCH   2   3
TORSDOF 10
ENDMDL
MODEL      134
REMARK 921   NORMALIZED FREE ENERGY PREDICTED BY IDOCK:   -3.63 KCAL/MOL
REMARK 922        TOTAL FREE ENERGY PREDICTED BY IDOCK:   -7.30 KCAL/MOL
REMARK 923 INTER-LIGAND FREE ENERGY PREDICTED BY IDOCK:   -5.83 KCAL/MOL
REMARK 924 INTRA-LIGAND FREE ENERGY PREDICTED BY IDOCK:   -1.47 KCAL/MOL
REMARK 927      BINDING AFFINITY PREDICTED BY RF-SCORE:    0.00 PKD
ROOT
HETATM    1  C   UNL     1     -11.340   6.683  69.987  1.00  0.00    -0.440 C  
HETATM    2  C   UNL     1     -10.772   7.461  68.807  1.00  0.00    -0.118 C  
ENDROOT
BRANCH   2   3
HETATM    3  O   UNL     1      -9.842   8.451  69.265  1.00  0.00    -0.178 OA 
BRANCH   3   4
HETATM    4  C   UNL     1      -8.729   8.638  68.517  1.00  0.00    -0.139 C  
HETATM    5  O   UNL     1      -8.486   7.981  67.517  1.00  0.00    -0.125 OA 
BRANCH   4   6
HETATM    6  C   UNL     1      -7.878   9.767  69.038  1.00  0.00    -0.087 C  
HETATM    7  C   UNL     1      -7.195   9.700  70.213  1.00  0.00    -0.135 C  
HETATM    8  C   UNL     1      -7.051  12.222  68.872  1.00  0.00    -0.088 C  
HETATM    9  N   UNL     1      -6.417  10.765  70.628  1.00  0.00    -0.338 NA 
HETATM   10  C   UNL     1      -6.394  12.012  70.040  1.00  0.00    -0.053 C  
HETATM   11  C   UNL     1      -7.791  11.058  68.169  1.00  0.00    -0.116 C  
HETATM   12  C   UNL     1      -5.581  13.053  70.775  1.00  0.00    -0.183 C  
BRANCH   7  13
HETATM   13  C   UNL     1      -7.221   8.515  71.168  1.00  0.00    -0.076 C  
BRANCH  13  14
HETATM   14  O   UNL     1      -8.100   8.722  72.288  1.00  0.00    -0.356 OA 
BRANCH  14  15
HETATM   15  C   UNL     1      -8.753   7.470  72.580  1.00  0.00    -0.128 C  
BRANCH  15  16
HETATM   16  C   UNL     1      -9.425   7.512  73.951  1.00  0.00    -0.232 C  
HETATM   17  N   UNL     1     -10.867   7.286  73.835  1.00  0.00    -0.554 NA 
HETATM   18  H2  UNL     1     -11.073   6.418  73.341  1.00  0.00     0.000 HD 
HETATM   19  H1  UNL     1     -11.315   7.314  74.750  1.00  0.00     0.000 HD 
ENDBRANCH  15  16
ENDBRANCH  14  15
ENDBRANCH  13  14
ENDBRANCH   7  13
BRANCH   8  20
HETATM   20  C   UNL     1      -7.041  13.587  68.269  1.00  0.00    -0.110 C  
HETATM   21  O   UNL     1      -6.308  13.927  67.351  1.00  0.00    -0.320 OA 
BRANCH  20  22
HETATM   22  O   UNL     1      -7.945  14.402  68.864  1.00  0.00    -0.143 OA 
HETATM   23  C   UNL     1      -8.457  15.440  68.019  1.00  0.00    -0.146 C  
ENDBRANCH  20  22
ENDBRANCH   8  20
BRANCH  11  24
HETATM   24  C   UNL     1      -9.153  11.476  67.595  1.00  0.00    -0.168 A  
HETATM   25  C   UNL     1     -10.153  11.979  68.450  1.00  0.00    -0.211 A  
HETATM   26  C   UNL     1     -11.432  12.271  67.964  1.00  0.00    -0.378 A  
HETATM   27  C   UNL     1     -11.737  12.081  66.620  1.00  0.00    -0.331 A  
HETATM   28  C   UNL     1     -10.759  11.599  65.754  1.00  0.00    -0.331 A  
HETATM   29  C   UNL     1      -9.480  11.292  66.232  1.00  0.00    -0.204 A  
HETATM   30 CL   UNL     1      -8.362  10.642  65.078  1.00  0.00    -0.147 Cl 
ENDBRANCH  11  24
ENDBRANCH   4   6
ENDBRANCH   3   4
ENDBRANCH   2   3
TORSDOF 10
ENDMDL
MODEL      135
REMARK 921   NORMALIZED FREE ENERGY PREDICTED BY IDOCK:   -3.61 KCAL/MOL
REMARK 922        TOTAL FREE ENERGY PREDICTED BY IDOCK:   -7.28 KCAL/MOL
REMARK 923 INTER-LIGAND FREE ENERGY PREDICTED BY IDOCK:   -6.37 KCAL/MOL
REMARK 924 INTRA-LIGAND FREE ENERGY PREDICTED BY IDOCK:   -0.91 KCAL/MOL
REMARK 927      BINDING AFFINITY PREDICTED BY RF-SCORE:    0.00 PKD
ROOT
HETATM    1  C   UNL     1      -6.009  15.503  67.716  1.00  0.00    -0.169 C  
HETATM    2  C   UNL     1      -6.582  14.224  68.313  1.00  0.00    -0.113 C  
ENDROOT
BRANCH   2   3
HETATM    3  O   UNL     1      -7.302  13.488  67.315  1.00  0.00    -0.140 OA 
BRANCH   3   4
HETATM    4  C   UNL     1      -8.531  13.948  66.981  1.00  0.00    -0.134 C  
HETATM    5  O   UNL     1      -8.741  14.593  65.966  1.00  0.00     0.121 OA 
BRANCH   4   6
HETATM    6  C   UNL     1      -9.583  13.529  67.974  1.00  0.00    -0.221 C  
HETATM    7  C   UNL     1     -10.210  12.322  67.926  1.00  0.00    -0.200 C  
HETATM    8  C   UNL     1     -11.163  14.101  69.953  1.00  0.00    -0.163 C  
HETATM    9  N   UNL     1     -11.156  11.990  68.879  1.00  0.00    -0.235 NA 
HETATM   10  C   UNL     1     -11.684  12.856  69.813  1.00  0.00    -0.281 C  
HETATM   11  C   UNL     1      -9.949  14.542  69.100  1.00  0.00    -0.114 C  
HETATM   12  C   UNL     1     -12.818  12.295  70.640  1.00  0.00    -0.014 C  
BRANCH   7  13
HETATM   13  C   UNL     1      -9.971  11.260  66.864  1.00  0.00    -0.207 C  
BRANCH  13  14
HETATM   14  O   UNL     1      -9.982  11.795  65.528  1.00  0.00    -0.229 OA 
BRANCH  14  15
HETATM   15  C   UNL     1     -11.356  11.895  65.100  1.00  0.00    -0.269 C  
BRANCH  15  16
HETATM   16  C   UNL     1     -11.456  11.843  63.576  1.00  0.00    -0.430 C  
HETATM   17  N   UNL     1     -12.058  13.070  63.050  1.00  0.00    -0.804 NA 
HETATM   18  H2  UNL     1     -11.559  13.900  63.366  1.00  0.00     0.000 HD 
HETATM   19  H1  UNL     1     -12.125  13.036  62.033  1.00  0.00     0.000 HD 
ENDBRANCH  15  16
ENDBRANCH  14  15
ENDBRANCH  13  14
ENDBRANCH   7  13
BRANCH   8  20
HETATM   20  C   UNL     1     -11.770  15.033  70.947  1.00  0.00    -0.328 C  
HETATM   21  O   UNL     1     -11.238  15.356  72.000  1.00  0.00    -0.413 OA 
BRANCH  20  22
HETATM   22  O   UNL     1     -12.982  15.481  70.538  1.00  0.00    -0.427 OA 
HETATM   23  C   UNL     1     -14.015  15.387  71.526  1.00  0.00    -0.501 C  
ENDBRANCH  20  22
ENDBRANCH   8  20
BRANCH  11  24
HETATM   24  C   UNL     1     -10.076  15.982  68.580  1.00  0.00    -0.220 A  
HETATM   25  C   UNL     1      -9.336  17.017  69.185  1.00  0.00    -0.088 A  
HETATM   26  C   UNL     1      -9.511  18.348  68.793  1.00  0.00    -0.317 A  
HETATM   27  C   UNL     1     -10.414  18.674  67.785  1.00  0.00    -0.457 A  
HETATM   28  C   UNL     1     -11.145  17.666  67.164  1.00  0.00     0.190 A  
HETATM   29  C   UNL     1     -10.986  16.331  67.556  1.00  0.00    -0.207 A  
HETATM   30 CL   UNL     1     -11.990  15.167  66.756  1.00  0.00    -0.002 Cl 
ENDBRANCH  11  24
ENDBRANCH   4   6
ENDBRANCH   3   4
ENDBRANCH   2   3
TORSDOF 10
ENDMDL
MODEL      136
REMARK 921   NORMALIZED FREE ENERGY PREDICTED BY IDOCK:   -3.61 KCAL/MOL
REMARK 922        TOTAL FREE ENERGY PREDICTED BY IDOCK:   -7.28 KCAL/MOL
REMARK 923 INTER-LIGAND FREE ENERGY PREDICTED BY IDOCK:   -6.00 KCAL/MOL
REMARK 924 INTRA-LIGAND FREE ENERGY PREDICTED BY IDOCK:   -1.28 KCAL/MOL
REMARK 927      BINDING AFFINITY PREDICTED BY RF-SCORE:    0.00 PKD
ROOT
HETATM    1  C   UNL     1     -12.929   8.134  72.064  1.00  0.00    -0.329 C  
HETATM    2  C   UNL     1     -11.481   8.144  72.538  1.00  0.00    -0.404 C  
ENDROOT
BRANCH   2   3
HETATM    3  O   UNL     1     -10.752   9.195  71.890  1.00  0.00    -0.357 OA 
BRANCH   3   4
HETATM    4  C   UNL     1      -9.454   8.947  71.594  1.00  0.00    -0.281 C  
HETATM    5  O   UNL     1      -8.572   8.950  72.438  1.00  0.00    -0.399 OA 
BRANCH   4   6
HETATM    6  C   UNL     1      -9.255   8.629  70.135  1.00  0.00    -0.165 C  
HETATM    7  C   UNL     1      -9.778   9.385  69.132  1.00  0.00    -0.165 C  
HETATM    8  C   UNL     1      -8.412   7.021  68.279  1.00  0.00    -0.123 C  
HETATM    9  N   UNL     1      -9.545   9.048  67.812  1.00  0.00    -0.147 NA 
HETATM   10  C   UNL     1      -8.958   7.877  67.379  1.00  0.00    -0.127 C  
HETATM   11  C   UNL     1      -8.404   7.370  69.787  1.00  0.00    -0.134 C  
HETATM   12  C   UNL     1      -8.959   7.674  65.881  1.00  0.00    -0.144 C  
BRANCH   7  13
HETATM   13  C   UNL     1     -10.652  10.614  69.335  1.00  0.00    -0.239 C  
BRANCH  13  14
HETATM   14  O   UNL     1     -10.630  11.505  68.206  1.00  0.00    -0.184 OA 
BRANCH  14  15
HETATM   15  C   UNL     1     -11.806  12.337  68.272  1.00  0.00    -0.310 C  
BRANCH  15  16
HETATM   16  C   UNL     1     -11.425  13.814  68.360  1.00  0.00    -0.316 C  
HETATM   17  N   UNL     1     -12.454  14.579  69.067  1.00  0.00    -0.572 NA 
HETATM   18  H2  UNL     1     -12.650  14.186  69.987  1.00  0.00     0.000 HD 
HETATM   19  H1  UNL     1     -12.199  15.565  69.126  1.00  0.00     0.000 HD 
ENDBRANCH  15  16
ENDBRANCH  14  15
ENDBRANCH  13  14
ENDBRANCH   7  13
BRANCH   8  20
HETATM   20  C   UNL     1      -7.812   5.745  67.793  1.00  0.00    -0.098 C  
HETATM   21  O   UNL     1      -8.458   4.747  67.507  1.00  0.00    -0.105 OA 
BRANCH  20  22
HETATM   22  O   UNL     1      -6.462   5.829  67.705  1.00  0.00    -0.043 OA 
HETATM   23  C   UNL     1      -5.754   4.836  68.456  1.00  0.00    -0.017 C  
ENDBRANCH  20  22
ENDBRANCH   8  20
BRANCH  11  24
HETATM   24  C   UNL     1      -8.737   6.167  70.681  1.00  0.00    -0.139 A  
HETATM   25  C   UNL     1      -7.758   5.640  71.546  1.00  0.00    -0.107 A  
HETATM   26  C   UNL     1      -8.008   4.485  72.295  1.00  0.00    -0.097 A  
HETATM   27  C   UNL     1      -9.238   3.840  72.206  1.00  0.00    -0.163 A  
HETATM   28  C   UNL     1     -10.225   4.350  71.368  1.00  0.00    -0.153 A  
HETATM   29  C   UNL     1      -9.981   5.499  70.606  1.00  0.00    -0.207 A  
HETATM   30 CL   UNL     1     -11.259   6.011  69.553  1.00  0.00    -0.474 Cl 
ENDBRANCH  11  24
ENDBRANCH   4   6
ENDBRANCH   3   4
ENDBRANCH   2   3
TORSDOF 10
ENDMDL
MODEL      137
REMARK 921   NORMALIZED FREE ENERGY PREDICTED BY IDOCK:   -3.60 KCAL/MOL
REMARK 922        TOTAL FREE ENERGY PREDICTED BY IDOCK:   -7.26 KCAL/MOL
REMARK 923 INTER-LIGAND FREE ENERGY PREDICTED BY IDOCK:   -5.75 KCAL/MOL
REMARK 924 INTRA-LIGAND FREE ENERGY PREDICTED BY IDOCK:   -1.50 KCAL/MOL
REMARK 927      BINDING AFFINITY PREDICTED BY RF-SCORE:    0.00 PKD
ROOT
HETATM    1  C   UNL     1      -9.136   4.575  64.798  1.00  0.00    -0.152 C  
HETATM    2  C   UNL     1      -9.542   5.293  66.079  1.00  0.00    -0.149 C  
ENDROOT
BRANCH   2   3
HETATM    3  O   UNL     1      -9.062   6.644  66.065  1.00  0.00    -0.148 OA 
BRANCH   3   4
HETATM    4  C   UNL     1      -9.755   7.548  66.799  1.00  0.00    -0.216 C  
HETATM    5  O   UNL     1     -10.974   7.563  66.848  1.00  0.00    -0.292 OA 
BRANCH   4   6
HETATM    6  C   UNL     1      -8.846   8.474  67.564  1.00  0.00    -0.139 C  
HETATM    7  C   UNL     1      -8.622   8.357  68.901  1.00  0.00    -0.135 C  
HETATM    8  C   UNL     1      -7.379  10.613  67.659  1.00  0.00    -0.090 C  
HETATM    9  N   UNL     1      -7.762   9.229  69.542  1.00  0.00    -0.079 NA 
HETATM   10  C   UNL     1      -7.215  10.365  68.983  1.00  0.00    -0.088 C  
HETATM   11  C   UNL     1      -8.139   9.607  66.761  1.00  0.00    -0.113 C  
HETATM   12  C   UNL     1      -6.432  11.237  69.937  1.00  0.00    -0.132 C  
BRANCH   7  13
HETATM   13  C   UNL     1      -9.273   7.319  69.804  1.00  0.00    -0.140 C  
BRANCH  13  14
HETATM   14  O   UNL     1     -10.605   7.687  70.204  1.00  0.00    -0.226 OA 
BRANCH  14  15
HETATM   15  C   UNL     1     -10.742   7.403  71.612  1.00  0.00    -0.214 C  
BRANCH  15  16
HETATM   16  C   UNL     1     -10.810   5.897  71.860  1.00  0.00    -0.254 C  
HETATM   17  N   UNL     1     -11.760   5.586  72.930  1.00  0.00    -0.519 NA 
HETATM   18  H2  UNL     1     -12.682   5.979  72.741  1.00  0.00     0.000 HD 
HETATM   19  H1  UNL     1     -11.807   4.581  73.095  1.00  0.00     0.000 HD 
ENDBRANCH  15  16
ENDBRANCH  14  15
ENDBRANCH  13  14
ENDBRANCH   7  13
BRANCH   8  20
HETATM   20  C   UNL     1      -6.807  11.864  67.080  1.00  0.00    -0.144 C  
HETATM   21  O   UNL     1      -5.737  11.921  66.490  1.00  0.00    -0.265 OA 
BRANCH  20  22
HETATM   22  O   UNL     1      -7.620  12.928  67.288  1.00  0.00    -0.153 OA 
HETATM   23  C   UNL     1      -6.936  14.150  67.589  1.00  0.00    -0.184 C  
ENDBRANCH  20  22
ENDBRANCH   8  20
BRANCH  11  24
HETATM   24  C   UNL     1      -9.077  10.293  65.757  1.00  0.00    -0.202 A  
HETATM   25  C   UNL     1     -10.237  10.951  66.213  1.00  0.00    -0.300 A  
HETATM   26  C   UNL     1     -11.155  11.495  65.309  1.00  0.00    -0.257 A  
HETATM   27  C   UNL     1     -10.932  11.406  63.938  1.00  0.00    -0.442 A  
HETATM   28  C   UNL     1      -9.786  10.773  63.466  1.00  0.00    -0.401 A  
HETATM   29  C   UNL     1      -8.866  10.215  64.361  1.00  0.00    -0.211 A  
HETATM   30 CL   UNL     1      -7.507   9.399  63.661  1.00  0.00    -0.108 Cl 
ENDBRANCH  11  24
ENDBRANCH   4   6
ENDBRANCH   3   4
ENDBRANCH   2   3
TORSDOF 10
ENDMDL
MODEL      138
REMARK 921   NORMALIZED FREE ENERGY PREDICTED BY IDOCK:   -3.59 KCAL/MOL
REMARK 922        TOTAL FREE ENERGY PREDICTED BY IDOCK:   -7.25 KCAL/MOL
REMARK 923 INTER-LIGAND FREE ENERGY PREDICTED BY IDOCK:   -5.64 KCAL/MOL
REMARK 924 INTRA-LIGAND FREE ENERGY PREDICTED BY IDOCK:   -1.61 KCAL/MOL
REMARK 927      BINDING AFFINITY PREDICTED BY RF-SCORE:    0.00 PKD
ROOT
HETATM    1  C   UNL     1      -8.280  15.640  67.149  1.00  0.00    -0.244 C  
HETATM    2  C   UNL     1      -7.336  14.460  67.344  1.00  0.00    -0.142 C  
ENDROOT
BRANCH   2   3
HETATM    3  O   UNL     1      -7.887  13.532  68.287  1.00  0.00    -0.129 OA 
BRANCH   3   4
HETATM    4  C   UNL     1      -8.119  12.273  67.844  1.00  0.00    -0.155 C  
HETATM    5  O   UNL     1      -7.675  11.852  66.788  1.00  0.00    -0.135 OA 
BRANCH   4   6
HETATM    6  C   UNL     1      -8.935  11.469  68.822  1.00  0.00    -0.053 C  
HETATM    7  C   UNL     1      -8.480  10.326  69.404  1.00  0.00    -0.160 C  
HETATM    8  C   UNL     1     -11.185  11.010  70.032  1.00  0.00    -0.303 C  
HETATM    9  N   UNL     1      -9.272   9.641  70.308  1.00  0.00    -0.254 NA 
HETATM   10  C   UNL     1     -10.600   9.908  70.566  1.00  0.00    -0.293 C  
HETATM   11  C   UNL     1     -10.360  11.995  69.170  1.00  0.00     0.055 C  
HETATM   12  C   UNL     1     -11.288   8.919  71.479  1.00  0.00    -0.395 C  
BRANCH   7  13
HETATM   13  C   UNL     1      -7.126   9.688  69.127  1.00  0.00    -0.062 C  
BRANCH  13  14
HETATM   14  O   UNL     1      -6.063  10.285  69.891  1.00  0.00    -0.047 OA 
BRANCH  14  15
HETATM   15  C   UNL     1      -5.880   9.501  71.087  1.00  0.00    -0.075 C  
BRANCH  15  16
HETATM   16  C   UNL     1      -5.919   8.006  70.770  1.00  0.00    -0.033 C  
HETATM   17  N   UNL     1      -6.672   7.275  71.790  1.00  0.00    -0.051 NA 
HETATM   18  H2  UNL     1      -7.609   7.658  71.914  1.00  0.00     0.000 HD 
HETATM   19  H1  UNL     1      -6.699   6.277  71.579  1.00  0.00     0.000 HD 
ENDBRANCH  15  16
ENDBRANCH  14  15
ENDBRANCH  13  14
ENDBRANCH   7  13
BRANCH   8  20
HETATM   20  C   UNL     1     -12.632  11.262  70.297  1.00  0.00    -0.177 C  
HETATM   21  O   UNL     1     -13.531  10.490  69.994  1.00  0.00     0.105 OA 
BRANCH  20  22
HETATM   22  O   UNL     1     -12.826  12.451  70.918  1.00  0.00    -0.218 OA 
HETATM   23  C   UNL     1     -13.291  12.347  72.270  1.00  0.00    -0.321 C  
ENDBRANCH  20  22
ENDBRANCH   8  20
BRANCH  11  24
HETATM   24  C   UNL     1     -11.124  12.491  67.933  1.00  0.00    -0.286 A  
HETATM   25  C   UNL     1     -11.298  11.638  66.824  1.00  0.00    -0.354 A  
HETATM   26  C   UNL     1     -11.902  12.102  65.651  1.00  0.00    -0.343 A  
HETATM   27  C   UNL     1     -12.356  13.414  65.562  1.00  0.00    -0.528 A  
HETATM   28  C   UNL     1     -12.207  14.270  66.650  1.00  0.00    -0.411 A  
HETATM   29  C   UNL     1     -11.593  13.820  67.825  1.00  0.00    -0.346 A  
HETATM   30 CL   UNL     1     -11.407  14.987  69.092  1.00  0.00    -0.289 Cl 
ENDBRANCH  11  24
ENDBRANCH   4   6
ENDBRANCH   3   4
ENDBRANCH   2   3
TORSDOF 10
ENDMDL
MODEL      139
REMARK 921   NORMALIZED FREE ENERGY PREDICTED BY IDOCK:   -3.58 KCAL/MOL
REMARK 922        TOTAL FREE ENERGY PREDICTED BY IDOCK:   -7.22 KCAL/MOL
REMARK 923 INTER-LIGAND FREE ENERGY PREDICTED BY IDOCK:   -6.02 KCAL/MOL
REMARK 924 INTRA-LIGAND FREE ENERGY PREDICTED BY IDOCK:   -1.21 KCAL/MOL
REMARK 927      BINDING AFFINITY PREDICTED BY RF-SCORE:    0.00 PKD
ROOT
HETATM    1  C   UNL     1      -5.130   9.497  68.365  1.00  0.00    -0.033 C  
HETATM    2  C   UNL     1      -5.895  10.808  68.490  1.00  0.00    -0.043 C  
ENDROOT
BRANCH   2   3
HETATM    3  O   UNL     1      -6.926  10.880  67.496  1.00  0.00    -0.079 OA 
BRANCH   3   4
HETATM    4  C   UNL     1      -8.203  10.739  67.926  1.00  0.00    -0.113 C  
HETATM    5  O   UNL     1      -8.483  10.420  69.070  1.00  0.00    -0.136 OA 
BRANCH   4   6
HETATM    6  C   UNL     1      -9.204  11.067  66.849  1.00  0.00    -0.168 C  
HETATM    7  C   UNL     1      -9.417  10.270  65.767  1.00  0.00    -0.203 C  
HETATM    8  C   UNL     1     -10.882  12.727  65.769  1.00  0.00    -0.299 C  
HETATM    9  N   UNL     1     -10.364  10.619  64.821  1.00  0.00    -0.327 NA 
HETATM   10  C   UNL     1     -11.023  11.829  64.762  1.00  0.00    -0.303 C  
HETATM   11  C   UNL     1     -10.021  12.384  67.009  1.00  0.00    -0.218 C  
HETATM   12  C   UNL     1     -11.893  12.027  63.541  1.00  0.00    -0.587 C  
BRANCH   7  13
HETATM   13  C   UNL     1      -8.666   8.980  65.475  1.00  0.00    -0.181 C  
BRANCH  13  14
HETATM   14  O   UNL     1      -8.407   8.791  64.072  1.00  0.00    -0.168 OA 
BRANCH  14  15
HETATM   15  C   UNL     1      -7.241   9.565  63.726  1.00  0.00    -0.107 C  
BRANCH  15  16
HETATM   16  C   UNL     1      -7.437  10.277  62.388  1.00  0.00    -0.137 C  
HETATM   17  N   UNL     1      -8.372  11.396  62.523  1.00  0.00    -0.599 NA 
HETATM   18  H2  UNL     1      -8.081  12.043  63.255  1.00  0.00     0.000 HD 
HETATM   19  H1  UNL     1      -8.503  11.871  61.631  1.00  0.00     0.000 HD 
ENDBRANCH  15  16
ENDBRANCH  14  15
ENDBRANCH  13  14
ENDBRANCH   7  13
BRANCH   8  20
HETATM   20  C   UNL     1     -11.578  14.043  65.669  1.00  0.00    -0.331 C  
HETATM   21  O   UNL     1     -12.739  14.233  66.002  1.00  0.00    -0.430 OA 
BRANCH  20  22
HETATM   22  O   UNL     1     -10.762  15.002  65.168  1.00  0.00    -0.355 OA 
HETATM   23  C   UNL     1     -11.265  16.338  65.297  1.00  0.00    -0.033 C  
ENDBRANCH  20  22
ENDBRANCH   8  20
BRANCH  11  24
HETATM   24  C   UNL     1      -9.155  13.563  67.479  1.00  0.00    -0.214 A  
HETATM   25  C   UNL     1      -7.852  13.726  66.971  1.00  0.00     0.105 A  
HETATM   26  C   UNL     1      -7.012  14.732  67.459  1.00  0.00    -0.198 A  
HETATM   27  C   UNL     1      -7.456  15.602  68.451  1.00  0.00    -0.120 A  
HETATM   28  C   UNL     1      -8.745  15.468  68.958  1.00  0.00    -0.235 A  
HETATM   29  C   UNL     1      -9.590  14.457  68.485  1.00  0.00    -0.217 A  
HETATM   30 CL   UNL     1     -11.151  14.346  69.229  1.00  0.00    -0.287 Cl 
ENDBRANCH  11  24
ENDBRANCH   4   6
ENDBRANCH   3   4
ENDBRANCH   2   3
TORSDOF 10
ENDMDL
MODEL      140
REMARK 921   NORMALIZED FREE ENERGY PREDICTED BY IDOCK:   -3.56 KCAL/MOL
REMARK 922        TOTAL FREE ENERGY PREDICTED BY IDOCK:   -7.19 KCAL/MOL
REMARK 923 INTER-LIGAND FREE ENERGY PREDICTED BY IDOCK:   -5.33 KCAL/MOL
REMARK 924 INTRA-LIGAND FREE ENERGY PREDICTED BY IDOCK:   -1.86 KCAL/MOL
REMARK 927      BINDING AFFINITY PREDICTED BY RF-SCORE:    0.00 PKD
ROOT
HETATM    1  C   UNL     1     -12.510   9.801  70.833  1.00  0.00    -0.366 C  
HETATM    2  C   UNL     1     -11.039  10.175  70.701  1.00  0.00    -0.322 C  
ENDROOT
BRANCH   2   3
HETATM    3  O   UNL     1     -10.631  10.114  69.328  1.00  0.00    -0.202 OA 
BRANCH   3   4
HETATM    4  C   UNL     1      -9.302  10.023  69.087  1.00  0.00    -0.193 C  
HETATM    5  O   UNL     1      -8.468  10.614  69.754  1.00  0.00    -0.002 OA 
BRANCH   4   6
HETATM    6  C   UNL     1      -8.994   9.083  67.950  1.00  0.00    -0.135 C  
HETATM    7  C   UNL     1      -9.061   9.453  66.643  1.00  0.00    -0.149 C  
HETATM    8  C   UNL     1      -8.464   6.692  67.090  1.00  0.00    -0.113 C  
HETATM    9  N   UNL     1      -8.749   8.547  65.646  1.00  0.00    -0.175 NA 
HETATM   10  C   UNL     1      -8.535   7.198  65.833  1.00  0.00    -0.147 C  
HETATM   11  C   UNL     1      -8.578   7.627  68.318  1.00  0.00    -0.124 C  
HETATM   12  C   UNL     1      -8.366   6.392  64.565  1.00  0.00     0.017 C  
BRANCH   7  13
HETATM   13  C   UNL     1      -9.484  10.829  66.149  1.00  0.00    -0.187 C  
BRANCH  13  14
HETATM   14  O   UNL     1     -10.912  10.962  66.029  1.00  0.00    -0.143 OA 
BRANCH  14  15
HETATM   15  C   UNL     1     -11.202  12.325  65.654  1.00  0.00    -0.333 C  
BRANCH  15  16
HETATM   16  C   UNL     1     -11.298  13.220  66.888  1.00  0.00    -0.318 C  
HETATM   17  N   UNL     1     -12.472  14.092  66.811  1.00  0.00    -0.553 NA 
HETATM   18  H2  UNL     1     -13.328  13.559  66.666  1.00  0.00     0.000 HD 
HETATM   19  H1  UNL     1     -12.537  14.690  67.635  1.00  0.00     0.000 HD 
ENDBRANCH  15  16
ENDBRANCH  14  15
ENDBRANCH  13  14
ENDBRANCH   7  13
BRANCH   8  20
HETATM   20  C   UNL     1      -8.265   5.224  67.270  1.00  0.00    -0.104 C  
HETATM   21  O   UNL     1      -9.115   4.380  67.023  1.00  0.00    -0.118 OA 
BRANCH  20  22
HETATM   22  O   UNL     1      -7.025   4.942  67.739  1.00  0.00    -0.059 OA 
HETATM   23  C   UNL     1      -6.070   4.604  66.727  1.00  0.00    -0.031 C  
ENDBRANCH  20  22
ENDBRANCH   8  20
BRANCH  11  24
HETATM   24  C   UNL     1      -9.439   7.033  69.443  1.00  0.00    -0.145 A  
HETATM   25  C   UNL     1     -10.781   6.685  69.194  1.00  0.00    -0.304 A  
HETATM   26  C   UNL     1     -11.610   6.237  70.227  1.00  0.00    -0.379 A  
HETATM   27  C   UNL     1     -11.119   6.115  71.524  1.00  0.00    -0.342 A  
HETATM   28  C   UNL     1      -9.792   6.441  71.790  1.00  0.00    -0.178 A  
HETATM   29  C   UNL     1      -8.956   6.901  70.766  1.00  0.00    -0.150 A  
HETATM   30 CL   UNL     1      -7.342   7.333  71.223  1.00  0.00    -0.076 Cl 
ENDBRANCH  11  24
ENDBRANCH   4   6
ENDBRANCH   3   4
ENDBRANCH   2   3
TORSDOF 10
ENDMDL
MODEL      141
REMARK 921   NORMALIZED FREE ENERGY PREDICTED BY IDOCK:   -3.55 KCAL/MOL
REMARK 922        TOTAL FREE ENERGY PREDICTED BY IDOCK:   -7.19 KCAL/MOL
REMARK 923 INTER-LIGAND FREE ENERGY PREDICTED BY IDOCK:   -5.25 KCAL/MOL
REMARK 924 INTRA-LIGAND FREE ENERGY PREDICTED BY IDOCK:   -1.94 KCAL/MOL
REMARK 927      BINDING AFFINITY PREDICTED BY RF-SCORE:    0.00 PKD
ROOT
HETATM    1  C   UNL     1     -13.046  10.044  71.421  1.00  0.00    -0.512 C  
HETATM    2  C   UNL     1     -12.358  10.342  70.094  1.00  0.00    -0.142 C  
ENDROOT
BRANCH   2   3
HETATM    3  O   UNL     1     -11.032  10.837  70.321  1.00  0.00    -0.246 OA 
BRANCH   3   4
HETATM    4  C   UNL     1     -10.041   9.917  70.408  1.00  0.00    -0.195 C  
HETATM    5  O   UNL     1      -9.480   9.649  71.458  1.00  0.00    -0.066 OA 
BRANCH   4   6
HETATM    6  C   UNL     1      -9.766   9.253  69.084  1.00  0.00    -0.164 C  
HETATM    7  C   UNL     1      -9.942   7.921  68.872  1.00  0.00    -0.190 C  
HETATM    8  C   UNL     1      -8.829   9.361  66.666  1.00  0.00    -0.151 C  
HETATM    9  N   UNL     1      -9.687   7.374  67.627  1.00  0.00    -0.140 NA 
HETATM   10  C   UNL     1      -9.080   8.031  66.578  1.00  0.00    -0.173 C  
HETATM   11  C   UNL     1      -9.259  10.158  67.921  1.00  0.00    -0.144 C  
HETATM   12  C   UNL     1      -8.770   7.169  65.375  1.00  0.00     0.015 C  
BRANCH   7  13
HETATM   13  C   UNL     1     -10.398   6.924  69.928  1.00  0.00    -0.205 C  
BRANCH  13  14
HETATM   14  O   UNL     1     -11.830   6.803  69.998  1.00  0.00    -0.316 OA 
BRANCH  14  15
HETATM   15  C   UNL     1     -12.193   6.610  71.380  1.00  0.00    -0.324 C  
BRANCH  15  16
HETATM   16  C   UNL     1     -10.952   6.575  72.270  1.00  0.00    -0.249 C  
HETATM   17  N   UNL     1     -11.051   7.564  73.345  1.00  0.00    -0.565 NA 
HETATM   18  H2  UNL     1     -11.906   7.446  73.888  1.00  0.00     0.000 HD 
HETATM   19  H1  UNL     1     -10.223   7.541  73.939  1.00  0.00     0.000 HD 
ENDBRANCH  15  16
ENDBRANCH  14  15
ENDBRANCH  13  14
ENDBRANCH   7  13
BRANCH   8  20
HETATM   20  C   UNL     1      -8.141  10.045  65.532  1.00  0.00    -0.137 C  
HETATM   21  O   UNL     1      -8.708  10.756  64.713  1.00  0.00    -0.174 OA 
BRANCH  20  22
HETATM   22  O   UNL     1      -6.811   9.785  65.524  1.00  0.00    -0.085 OA 
HETATM   23  C   UNL     1      -6.209   9.805  64.224  1.00  0.00    -0.115 C  
ENDBRANCH  20  22
ENDBRANCH   8  20
BRANCH  11  24
HETATM   24  C   UNL     1      -8.198  11.170  68.379  1.00  0.00    -0.144 A  
HETATM   25  C   UNL     1      -7.061  10.727  69.083  1.00  0.00    -0.101 A  
HETATM   26  C   UNL     1      -6.134  11.641  69.595  1.00  0.00    -0.117 A  
HETATM   27  C   UNL     1      -6.313  13.008  69.408  1.00  0.00    -0.111 A  
HETATM   28  C   UNL     1      -7.423  13.467  68.703  1.00  0.00    -0.108 A  
HETATM   29  C   UNL     1      -8.362  12.562  68.196  1.00  0.00    -0.175 A  
HETATM   30 CL   UNL     1      -9.734  13.247  67.389  1.00  0.00    -0.216 Cl 
ENDBRANCH  11  24
ENDBRANCH   4   6
ENDBRANCH   3   4
ENDBRANCH   2   3
TORSDOF 10
ENDMDL
MODEL      142
REMARK 921   NORMALIZED FREE ENERGY PREDICTED BY IDOCK:   -3.52 KCAL/MOL
REMARK 922        TOTAL FREE ENERGY PREDICTED BY IDOCK:   -7.14 KCAL/MOL
REMARK 923 INTER-LIGAND FREE ENERGY PREDICTED BY IDOCK:   -7.33 KCAL/MOL
REMARK 924 INTRA-LIGAND FREE ENERGY PREDICTED BY IDOCK:    0.19 KCAL/MOL
REMARK 927      BINDING AFFINITY PREDICTED BY RF-SCORE:    0.00 PKD
ROOT
HETATM    1  C   UNL     1      -8.165   9.041  66.859  1.00  0.00    -0.116 C  
HETATM    2  C   UNL     1      -9.018   9.661  65.760  1.00  0.00    -0.169 C  
ENDROOT
BRANCH   2   3
HETATM    3  O   UNL     1      -9.587  10.897  66.209  1.00  0.00    -0.188 OA 
BRANCH   3   4
HETATM    4  C   UNL     1     -10.822  10.838  66.762  1.00  0.00    -0.194 C  
HETATM    5  O   UNL     1     -11.512   9.832  66.731  1.00  0.00     0.441 OA 
BRANCH   4   6
HETATM    6  C   UNL     1     -11.201  12.128  67.443  1.00  0.00    -0.362 C  
HETATM    7  C   UNL     1     -11.019  13.349  66.873  1.00  0.00    -0.284 C  
HETATM    8  C   UNL     1     -12.014  13.401  69.554  1.00  0.00    -0.377 C  
HETATM    9  N   UNL     1     -11.403  14.496  67.545  1.00  0.00    -0.324 NA 
HETATM   10  C   UNL     1     -11.812  14.549  68.861  1.00  0.00    -0.324 C  
HETATM   11  C   UNL     1     -11.833  12.027  68.864  1.00  0.00    -0.356 C  
HETATM   12  C   UNL     1     -12.028  15.941  69.410  1.00  0.00    -0.268 C  
BRANCH   7  13
HETATM   13  C   UNL     1     -10.385  13.588  65.511  1.00  0.00    -0.300 C  
BRANCH  13  14
HETATM   14  O   UNL     1     -11.218  14.371  64.638  1.00  0.00    -0.377 OA 
BRANCH  14  15
HETATM   15  C   UNL     1     -12.203  13.492  64.055  1.00  0.00    -0.402 C  
BRANCH  15  16
HETATM   16  C   UNL     1     -11.542  12.241  63.479  1.00  0.00    -0.486 C  
HETATM   17  N   UNL     1     -12.538  11.359  62.867  1.00  0.00    -0.847 NA 
HETATM   18  H2  UNL     1     -13.094  11.847  62.166  1.00  0.00     0.000 HD 
HETATM   19  H1  UNL     1     -12.097  10.523  62.482  1.00  0.00     0.000 HD 
ENDBRANCH  15  16
ENDBRANCH  14  15
ENDBRANCH  13  14
ENDBRANCH   7  13
BRANCH   8  20
HETATM   20  C   UNL     1     -12.424  13.482  70.987  1.00  0.00    -0.369 C  
HETATM   21  O   UNL     1     -13.371  12.874  71.466  1.00  0.00    -0.314 OA 
BRANCH  20  22
HETATM   22  O   UNL     1     -11.614  14.309  71.692  1.00  0.00    -0.004 OA 
HETATM   23  C   UNL     1     -12.256  14.980  72.783  1.00  0.00    -0.343 C  
ENDBRANCH  20  22
ENDBRANCH   8  20
BRANCH  11  24
HETATM   24  C   UNL     1     -11.119  11.000  69.756  1.00  0.00    -0.303 A  
HETATM   25  C   UNL     1      -9.721  10.845  69.673  1.00  0.00     0.206 A  
HETATM   26  C   UNL     1      -9.065   9.849  70.402  1.00  0.00    -0.021 A  
HETATM   27  C   UNL     1      -9.782   8.997  71.236  1.00  0.00    -0.371 A  
HETATM   28  C   UNL     1     -11.162   9.140  71.345  1.00  0.00    -0.419 A  
HETATM   29  C   UNL     1     -11.831  10.127  70.611  1.00  0.00    -0.342 A  
HETATM   30 CL   UNL     1     -13.555  10.176  70.778  1.00  0.00    -0.120 Cl 
ENDBRANCH  11  24
ENDBRANCH   4   6
ENDBRANCH   3   4
ENDBRANCH   2   3
TORSDOF 10
ENDMDL
MODEL      143
REMARK 921   NORMALIZED FREE ENERGY PREDICTED BY IDOCK:   -3.52 KCAL/MOL
REMARK 922        TOTAL FREE ENERGY PREDICTED BY IDOCK:   -7.14 KCAL/MOL
REMARK 923 INTER-LIGAND FREE ENERGY PREDICTED BY IDOCK:   -5.51 KCAL/MOL
REMARK 924 INTRA-LIGAND FREE ENERGY PREDICTED BY IDOCK:   -1.63 KCAL/MOL
REMARK 927      BINDING AFFINITY PREDICTED BY RF-SCORE:    0.00 PKD
ROOT
HETATM    1  C   UNL     1      -7.745   7.115  66.335  1.00  0.00    -0.100 C  
HETATM    2  C   UNL     1      -7.289   6.219  67.480  1.00  0.00    -0.080 C  
ENDROOT
BRANCH   2   3
HETATM    3  O   UNL     1      -8.293   6.169  68.503  1.00  0.00    -0.113 OA 
BRANCH   3   4
HETATM    4  C   UNL     1      -8.074   6.911  69.614  1.00  0.00    -0.126 C  
HETATM    5  O   UNL     1      -7.120   6.729  70.353  1.00  0.00    -0.064 OA 
BRANCH   4   6
HETATM    6  C   UNL     1      -9.107   7.995  69.785  1.00  0.00    -0.149 C  
HETATM    7  C   UNL     1      -8.901   9.284  69.404  1.00  0.00    -0.149 C  
HETATM    8  C   UNL     1     -11.387   8.798  70.731  1.00  0.00    -0.313 C  
HETATM    9  N   UNL     1      -9.897  10.228  69.573  1.00  0.00    -0.231 NA 
HETATM   10  C   UNL     1     -11.067  10.035  70.276  1.00  0.00    -0.318 C  
HETATM   11  C   UNL     1     -10.468   7.590  70.428  1.00  0.00    -0.227 C  
HETATM   12  C   UNL     1     -11.922  11.270  70.450  1.00  0.00    -0.471 C  
BRANCH   7  13
HETATM   13  C   UNL     1      -7.610   9.815  68.797  1.00  0.00    -0.076 C  
BRANCH  13  14
HETATM   14  O   UNL     1      -6.855  10.624  69.716  1.00  0.00    -0.114 OA 
BRANCH  14  15
HETATM   15  C   UNL     1      -6.649  11.916  69.109  1.00  0.00    -0.103 C  
BRANCH  15  16
HETATM   16  C   UNL     1      -7.174  11.932  67.673  1.00  0.00    -0.112 C  
HETATM   17  N   UNL     1      -7.023  13.260  67.076  1.00  0.00    -0.401 NA 
HETATM   18  H2  UNL     1      -6.060  13.590  67.129  1.00  0.00     0.000 HD 
HETATM   19  H1  UNL     1      -7.373  13.271  66.119  1.00  0.00     0.000 HD 
ENDBRANCH  15  16
ENDBRANCH  14  15
ENDBRANCH  13  14
ENDBRANCH   7  13
BRANCH   8  20
HETATM   20  C   UNL     1     -12.642   8.617  71.519  1.00  0.00    -0.322 C  
HETATM   21  O   UNL     1     -12.836   9.106  72.623  1.00  0.00    -0.361 OA 
BRANCH  20  22
HETATM   22  O   UNL     1     -13.540   7.848  70.857  1.00  0.00     0.021 OA 
HETATM   23  C   UNL     1     -14.328   6.998  71.698  1.00  0.00    -0.296 C  
ENDBRANCH  20  22
ENDBRANCH   8  20
BRANCH  11  24
HETATM   24  C   UNL     1     -10.297   6.652  71.632  1.00  0.00    -0.227 A  
HETATM   25  C   UNL     1     -10.866   5.364  71.608  1.00  0.00    -0.232 A  
HETATM   26  C   UNL     1     -10.806   4.532  72.732  1.00  0.00    -0.239 A  
HETATM   27  C   UNL     1     -10.171   4.960  73.893  1.00  0.00    -0.257 A  
HETATM   28  C   UNL     1      -9.589   6.224  73.935  1.00  0.00    -0.188 A  
HETATM   29  C   UNL     1      -9.652   7.069  72.820  1.00  0.00    -0.148 A  
HETATM   30 CL   UNL     1      -8.947   8.641  73.004  1.00  0.00    -0.111 Cl 
ENDBRANCH  11  24
ENDBRANCH   4   6
ENDBRANCH   3   4
ENDBRANCH   2   3
TORSDOF 10
ENDMDL
MODEL      144
REMARK 921   NORMALIZED FREE ENERGY PREDICTED BY IDOCK:   -3.44 KCAL/MOL
REMARK 922        TOTAL FREE ENERGY PREDICTED BY IDOCK:   -7.00 KCAL/MOL
REMARK 923 INTER-LIGAND FREE ENERGY PREDICTED BY IDOCK:   -5.44 KCAL/MOL
REMARK 924 INTRA-LIGAND FREE ENERGY PREDICTED BY IDOCK:   -1.56 KCAL/MOL
REMARK 927      BINDING AFFINITY PREDICTED BY RF-SCORE:    0.00 PKD
ROOT
HETATM    1  C   UNL     1      -5.728  10.472  69.465  1.00  0.00    -0.039 C  
HETATM    2  C   UNL     1      -7.041  11.199  69.202  1.00  0.00    -0.116 C  
ENDROOT
BRANCH   2   3
HETATM    3  O   UNL     1      -8.147  10.414  69.667  1.00  0.00    -0.161 OA 
BRANCH   3   4
HETATM    4  C   UNL     1      -9.165  10.214  68.797  1.00  0.00    -0.164 C  
HETATM    5  O   UNL     1     -10.280  10.680  68.967  1.00  0.00    -0.196 OA 
BRANCH   4   6
HETATM    6  C   UNL     1      -8.739   9.403  67.601  1.00  0.00    -0.116 C  
HETATM    7  C   UNL     1      -8.769   9.885  66.329  1.00  0.00    -0.139 C  
HETATM    8  C   UNL     1      -8.003   7.139  66.564  1.00  0.00    -0.112 C  
HETATM    9  N   UNL     1      -8.348   9.096  65.274  1.00  0.00    -0.137 NA 
HETATM   10  C   UNL     1      -8.049   7.752  65.355  1.00  0.00    -0.131 C  
HETATM   11  C   UNL     1      -8.240   7.950  67.862  1.00  0.00    -0.129 C  
HETATM   12  C   UNL     1      -7.764   7.078  64.032  1.00  0.00    -0.116 C  
BRANCH   7  13
HETATM   13  C   UNL     1      -9.263  11.269  65.935  1.00  0.00    -0.212 C  
BRANCH  13  14
HETATM   14  O   UNL     1     -10.676  11.300  65.663  1.00  0.00    -0.261 OA 
BRANCH  14  15
HETATM   15  C   UNL     1     -11.186  12.576  66.099  1.00  0.00    -0.321 C  
BRANCH  15  16
HETATM   16  C   UNL     1     -11.597  13.435  64.904  1.00  0.00    -0.330 C  
HETATM   17  N   UNL     1     -13.009  13.815  64.993  1.00  0.00    -0.755 NA 
HETATM   18  H2  UNL     1     -13.220  14.275  65.878  1.00  0.00     0.000 HD 
HETATM   19  H1  UNL     1     -13.283  14.388  64.196  1.00  0.00     0.000 HD 
ENDBRANCH  15  16
ENDBRANCH  14  15
ENDBRANCH  13  14
ENDBRANCH   7  13
BRANCH   8  20
HETATM   20  C   UNL     1      -7.711   5.678  66.626  1.00  0.00    -0.100 C  
HETATM   21  O   UNL     1      -8.526   4.803  66.368  1.00  0.00    -0.110 OA 
BRANCH  20  22
HETATM   22  O   UNL     1      -6.430   5.440  67.000  1.00  0.00    -0.041 OA 
HETATM   23  C   UNL     1      -5.696   4.597  66.104  1.00  0.00    -0.022 C  
ENDBRANCH  20  22
ENDBRANCH   8  20
BRANCH  11  24
HETATM   24  C   UNL     1      -9.110   7.202  68.883  1.00  0.00    -0.131 A  
HETATM   25  C   UNL     1      -8.585   6.871  70.148  1.00  0.00    -0.141 A  
HETATM   26  C   UNL     1      -9.325   6.105  71.054  1.00  0.00    -0.176 A  
HETATM   27  C   UNL     1     -10.603   5.663  70.726  1.00  0.00    -0.335 A  
HETATM   28  C   UNL     1     -11.148   5.990  69.487  1.00  0.00    -0.468 A  
HETATM   29  C   UNL     1     -10.412   6.747  68.568  1.00  0.00    -0.204 A  
HETATM   30 CL   UNL     1     -11.164   7.043  67.035  1.00  0.00    -0.280 Cl 
ENDBRANCH  11  24
ENDBRANCH   4   6
ENDBRANCH   3   4
ENDBRANCH   2   3
TORSDOF 10
ENDMDL
MODEL      145
REMARK 921   NORMALIZED FREE ENERGY PREDICTED BY IDOCK:   -3.43 KCAL/MOL
REMARK 922        TOTAL FREE ENERGY PREDICTED BY IDOCK:   -7.00 KCAL/MOL
REMARK 923 INTER-LIGAND FREE ENERGY PREDICTED BY IDOCK:   -5.54 KCAL/MOL
REMARK 924 INTRA-LIGAND FREE ENERGY PREDICTED BY IDOCK:   -1.46 KCAL/MOL
REMARK 927      BINDING AFFINITY PREDICTED BY RF-SCORE:    0.00 PKD
ROOT
HETATM    1  C   UNL     1      -9.253  13.511  67.301  1.00  0.00    -0.233 C  
HETATM    2  C   UNL     1      -8.841  12.187  67.931  1.00  0.00    -0.177 C  
ENDROOT
BRANCH   2   3
HETATM    3  O   UNL     1      -8.749  11.166  66.929  1.00  0.00    -0.144 OA 
BRANCH   3   4
HETATM    4  C   UNL     1      -7.547  10.562  66.778  1.00  0.00    -0.115 C  
HETATM    5  O   UNL     1      -6.490  11.129  67.005  1.00  0.00    -0.086 OA 
BRANCH   4   6
HETATM    6  C   UNL     1      -7.683   9.123  66.353  1.00  0.00    -0.096 C  
HETATM    7  C   UNL     1      -7.854   8.745  65.058  1.00  0.00    -0.111 C  
HETATM    8  C   UNL     1      -7.953   6.615  66.963  1.00  0.00    -0.109 C  
HETATM    9  N   UNL     1      -7.956   7.406  64.731  1.00  0.00    -0.129 NA 
HETATM   10  C   UNL     1      -8.084   6.372  65.635  1.00  0.00    -0.131 C  
HETATM   11  C   UNL     1      -7.619   8.038  67.470  1.00  0.00    -0.101 C  
HETATM   12  C   UNL     1      -8.337   5.013  65.024  1.00  0.00    -0.140 C  
BRANCH   7  13
HETATM   13  C   UNL     1      -7.967   9.703  63.880  1.00  0.00    -0.143 C  
BRANCH  13  14
HETATM   14  O   UNL     1      -9.319   9.847  63.408  1.00  0.00    -0.273 OA 
BRANCH  14  15
HETATM   15  C   UNL     1      -9.456  11.168  62.847  1.00  0.00    -0.359 C  
BRANCH  15  16
HETATM   16  C   UNL     1     -10.640  11.905  63.470  1.00  0.00    -0.453 C  
HETATM   17  N   UNL     1     -10.246  13.240  63.924  1.00  0.00    -0.735 NA 
HETATM   18  H2  UNL     1      -9.819  13.782  63.173  1.00  0.00     0.000 HD 
HETATM   19  H1  UNL     1     -11.036  13.732  64.340  1.00  0.00     0.000 HD 
ENDBRANCH  15  16
ENDBRANCH  14  15
ENDBRANCH  13  14
ENDBRANCH   7  13
BRANCH   8  20
HETATM   20  C   UNL     1      -8.127   5.488  67.926  1.00  0.00    -0.100 C  
HETATM   21  O   UNL     1      -7.203   4.869  68.433  1.00  0.00    -0.060 OA 
BRANCH  20  22
HETATM   22  O   UNL     1      -9.437   5.239  68.172  1.00  0.00    -0.114 OA 
HETATM   23  C   UNL     1      -9.679   4.391  69.302  1.00  0.00    -0.182 C  
ENDBRANCH  20  22
ENDBRANCH   8  20
BRANCH  11  24
HETATM   24  C   UNL     1      -8.419   8.430  68.721  1.00  0.00    -0.124 A  
HETATM   25  C   UNL     1      -7.758   8.608  69.953  1.00  0.00    -0.084 A  
HETATM   26  C   UNL     1      -8.478   8.868  71.123  1.00  0.00    -0.250 A  
HETATM   27  C   UNL     1      -9.866   8.967  71.090  1.00  0.00    -0.371 A  
HETATM   28  C   UNL     1     -10.539   8.808  69.882  1.00  0.00    -0.230 A  
HETATM   29  C   UNL     1      -9.829   8.538  68.706  1.00  0.00    -0.173 A  
HETATM   30 CL   UNL     1     -10.772   8.300  67.273  1.00  0.00    -0.319 Cl 
ENDBRANCH  11  24
ENDBRANCH   4   6
ENDBRANCH   3   4
ENDBRANCH   2   3
TORSDOF 10
ENDMDL
MODEL      146
REMARK 921   NORMALIZED FREE ENERGY PREDICTED BY IDOCK:   -3.41 KCAL/MOL
REMARK 922        TOTAL FREE ENERGY PREDICTED BY IDOCK:   -6.96 KCAL/MOL
REMARK 923 INTER-LIGAND FREE ENERGY PREDICTED BY IDOCK:   -5.10 KCAL/MOL
REMARK 924 INTRA-LIGAND FREE ENERGY PREDICTED BY IDOCK:   -1.86 KCAL/MOL
REMARK 927      BINDING AFFINITY PREDICTED BY RF-SCORE:    0.00 PKD
ROOT
HETATM    1  C   UNL     1      -8.162  12.557  67.424  1.00  0.00    -0.183 C  
HETATM    2  C   UNL     1      -9.606  12.426  67.891  1.00  0.00    -0.205 C  
ENDROOT
BRANCH   2   3
HETATM    3  O   UNL     1      -9.762  11.259  68.708  1.00  0.00    -0.205 OA 
BRANCH   3   4
HETATM    4  C   UNL     1     -10.262  10.153  68.108  1.00  0.00    -0.171 C  
HETATM    5  O   UNL     1     -11.389  10.108  67.640  1.00  0.00    -0.282 OA 
BRANCH   4   6
HETATM    6  C   UNL     1      -9.256   9.033  68.051  1.00  0.00    -0.143 C  
HETATM    7  C   UNL     1      -8.679   8.611  66.894  1.00  0.00    -0.124 C  
HETATM    8  C   UNL     1      -7.982   7.093  69.216  1.00  0.00    -0.119 C  
HETATM    9  N   UNL     1      -7.749   7.588  66.911  1.00  0.00    -0.108 NA 
HETATM   10  C   UNL     1      -7.457   6.795  68.001  1.00  0.00    -0.099 C  
HETATM   11  C   UNL     1      -8.874   8.345  69.397  1.00  0.00    -0.142 C  
HETATM   12  C   UNL     1      -6.518   5.643  67.724  1.00  0.00    -0.047 C  
BRANCH   7  13
HETATM   13  C   UNL     1      -8.988   9.173  65.514  1.00  0.00    -0.205 C  
BRANCH  13  14
HETATM   14  O   UNL     1      -8.146   8.619  64.486  1.00  0.00    -0.145 OA 
BRANCH  14  15
HETATM   15  C   UNL     1      -7.195   9.631  64.097  1.00  0.00    -0.122 C  
BRANCH  15  16
HETATM   16  C   UNL     1      -5.799   9.032  63.934  1.00  0.00    -0.071 C  
HETATM   17  N   UNL     1      -5.625   7.867  64.804  1.00  0.00    -0.043 NA 
HETATM   18  H2  UNL     1      -6.353   7.170  64.651  1.00  0.00     0.000 HD 
HETATM   19  H1  UNL     1      -4.693   7.467  64.696  1.00  0.00     0.000 HD 
ENDBRANCH  15  16
ENDBRANCH  14  15
ENDBRANCH  13  14
ENDBRANCH   7  13
BRANCH   8  20
HETATM   20  C   UNL     1      -7.680   6.203  70.375  1.00  0.00    -0.098 C  
HETATM   21  O   UNL     1      -8.274   5.161  70.614  1.00  0.00    -0.102 OA 
BRANCH  20  22
HETATM   22  O   UNL     1      -6.664   6.691  71.127  1.00  0.00    -0.055 OA 
HETATM   23  C   UNL     1      -6.367   5.919  72.297  1.00  0.00    -0.053 C  
ENDBRANCH  20  22
ENDBRANCH   8  20
BRANCH  11  24
HETATM   24  C   UNL     1     -10.094   8.086  70.294  1.00  0.00    -0.192 A  
HETATM   25  C   UNL     1     -10.245   8.797  71.501  1.00  0.00    -0.371 A  
HETATM   26  C   UNL     1     -11.293   8.506  72.379  1.00  0.00    -0.412 A  
HETATM   27  C   UNL     1     -12.217   7.512  72.070  1.00  0.00    -0.314 A  
HETATM   28  C   UNL     1     -12.095   6.805  70.877  1.00  0.00    -0.421 A  
HETATM   29  C   UNL     1     -11.043   7.081  69.996  1.00  0.00    -0.278 A  
HETATM   30 CL   UNL     1     -10.955   6.100  68.570  1.00  0.00    -0.393 Cl 
ENDBRANCH  11  24
ENDBRANCH   4   6
ENDBRANCH   3   4
ENDBRANCH   2   3
TORSDOF 10
ENDMDL
MODEL      147
REMARK 921   NORMALIZED FREE ENERGY PREDICTED BY IDOCK:   -3.39 KCAL/MOL
REMARK 922        TOTAL FREE ENERGY PREDICTED BY IDOCK:   -6.94 KCAL/MOL
REMARK 923 INTER-LIGAND FREE ENERGY PREDICTED BY IDOCK:   -5.54 KCAL/MOL
REMARK 924 INTRA-LIGAND FREE ENERGY PREDICTED BY IDOCK:   -1.39 KCAL/MOL
REMARK 927      BINDING AFFINITY PREDICTED BY RF-SCORE:    0.00 PKD
ROOT
HETATM    1  C   UNL     1     -14.313   8.456  71.588  1.00  0.00    -0.536 C  
HETATM    2  C   UNL     1     -13.137   7.489  71.638  1.00  0.00    -0.358 C  
ENDROOT
BRANCH   2   3
HETATM    3  O   UNL     1     -12.152   7.852  70.661  1.00  0.00    -0.152 OA 
BRANCH   3   4
HETATM    4  C   UNL     1     -11.098   8.582  71.096  1.00  0.00    -0.260 C  
HETATM    5  O   UNL     1     -11.225   9.667  71.642  1.00  0.00    -0.367 OA 
BRANCH   4   6
HETATM    6  C   UNL     1      -9.787   7.876  70.870  1.00  0.00    -0.192 C  
HETATM    7  C   UNL     1      -9.000   7.428  71.885  1.00  0.00    -0.125 C  
HETATM    8  C   UNL     1      -7.901   7.096  69.265  1.00  0.00    -0.117 C  
HETATM    9  N   UNL     1      -7.814   6.771  71.610  1.00  0.00    -0.100 NA 
HETATM   10  C   UNL     1      -7.230   6.669  70.364  1.00  0.00    -0.080 C  
HETATM   11  C   UNL     1      -9.337   7.659  69.393  1.00  0.00    -0.152 C  
HETATM   12  C   UNL     1      -5.857   6.038  70.350  1.00  0.00    -0.021 C  
BRANCH   7  13
HETATM   13  C   UNL     1      -9.306   7.605  73.365  1.00  0.00    -0.268 C  
BRANCH  13  14
HETATM   14  O   UNL     1     -10.563   7.020  73.747  1.00  0.00    -0.375 OA 
BRANCH  14  15
HETATM   15  C   UNL     1     -10.310   5.672  74.195  1.00  0.00    -0.281 C  
BRANCH  15  16
HETATM   16  C   UNL     1     -11.185   4.674  73.438  1.00  0.00    -0.338 C  
HETATM   17  N   UNL     1     -10.399   3.937  72.446  1.00  0.00    -0.158 NA 
HETATM   18  H2  UNL     1      -9.589   3.484  72.867  1.00  0.00     0.000 HD 
HETATM   19  H1  UNL     1     -10.982   3.271  71.940  1.00  0.00     0.000 HD 
ENDBRANCH  15  16
ENDBRANCH  14  15
ENDBRANCH  13  14
ENDBRANCH   7  13
BRANCH   8  20
HETATM   20  C   UNL     1      -7.237   7.007  67.932  1.00  0.00    -0.091 C  
HETATM   21  O   UNL     1      -6.223   7.618  67.626  1.00  0.00    -0.046 OA 
BRANCH  20  22
HETATM   22  O   UNL     1      -7.896   6.162  67.102  1.00  0.00    -0.100 OA 
HETATM   23  C   UNL     1      -7.508   4.788  67.221  1.00  0.00    -0.082 C  
ENDBRANCH  20  22
ENDBRANCH   8  20
BRANCH  11  24
HETATM   24  C   UNL     1      -9.574   8.897  68.515  1.00  0.00    -0.165 A  
HETATM   25  C   UNL     1     -10.445   8.820  67.410  1.00  0.00    -0.349 A  
HETATM   26  C   UNL     1     -10.599   9.905  66.542  1.00  0.00    -0.156 A  
HETATM   27  C   UNL     1      -9.900  11.089  66.761  1.00  0.00    -0.229 A  
HETATM   28  C   UNL     1      -9.045  11.192  67.854  1.00  0.00    -0.150 A  
HETATM   29  C   UNL     1      -8.876  10.108  68.724  1.00  0.00    -0.146 A  
HETATM   30 CL   UNL     1      -7.742  10.327  70.016  1.00  0.00    -0.151 Cl 
ENDBRANCH  11  24
ENDBRANCH   4   6
ENDBRANCH   3   4
ENDBRANCH   2   3
TORSDOF 10
ENDMDL
MODEL      148
REMARK 921   NORMALIZED FREE ENERGY PREDICTED BY IDOCK:   -3.35 KCAL/MOL
REMARK 922        TOTAL FREE ENERGY PREDICTED BY IDOCK:   -6.87 KCAL/MOL
REMARK 923 INTER-LIGAND FREE ENERGY PREDICTED BY IDOCK:   -7.26 KCAL/MOL
REMARK 924 INTRA-LIGAND FREE ENERGY PREDICTED BY IDOCK:    0.39 KCAL/MOL
REMARK 927      BINDING AFFINITY PREDICTED BY RF-SCORE:    0.00 PKD
ROOT
HETATM    1  C   UNL     1     -10.946   6.702  66.839  1.00  0.00    -0.396 C  
HETATM    2  C   UNL     1     -10.224   8.043  66.867  1.00  0.00    -0.315 C  
ENDROOT
BRANCH   2   3
HETATM    3  O   UNL     1      -9.705   8.301  68.178  1.00  0.00    -0.151 OA 
BRANCH   3   4
HETATM    4  C   UNL     1      -9.408   9.588  68.477  1.00  0.00    -0.137 C  
HETATM    5  O   UNL     1      -8.454  10.175  67.993  1.00  0.00    -0.116 OA 
BRANCH   4   6
HETATM    6  C   UNL     1     -10.411  10.197  69.421  1.00  0.00    -0.254 C  
HETATM    7  C   UNL     1     -11.101   9.471  70.341  1.00  0.00    -0.277 C  
HETATM    8  C   UNL     1     -11.822  12.234  70.195  1.00  0.00    -0.352 C  
HETATM    9  N   UNL     1     -11.997  10.093  71.192  1.00  0.00    -0.364 NA 
HETATM   10  C   UNL     1     -12.415  11.403  71.088  1.00  0.00    -0.360 C  
HETATM   11  C   UNL     1     -10.648  11.735  69.320  1.00  0.00    -0.052 C  
HETATM   12  C   UNL     1     -13.519  11.802  72.041  1.00  0.00    -0.319 C  
BRANCH   7  13
HETATM   13  C   UNL     1     -10.989   7.964  70.521  1.00  0.00    -0.248 C  
BRANCH  13  14
HETATM   14  O   UNL     1     -11.182   7.550  71.885  1.00  0.00    -0.237 OA 
BRANCH  14  15
HETATM   15  C   UNL     1     -11.994   6.358  71.879  1.00  0.00    -0.329 C  
BRANCH  15  16
HETATM   16  C   UNL     1     -11.427   5.307  72.831  1.00  0.00    -0.270 C  
HETATM   17  N   UNL     1     -10.267   4.636  72.241  1.00  0.00    -0.189 NA 
HETATM   18  H2  UNL     1      -9.554   5.304  71.950  1.00  0.00     0.000 HD 
HETATM   19  H1  UNL     1      -9.889   3.935  72.876  1.00  0.00     0.000 HD 
ENDBRANCH  15  16
ENDBRANCH  14  15
ENDBRANCH  13  14
ENDBRANCH   7  13
BRANCH   8  20
HETATM   20  C   UNL     1     -12.312  13.639  70.076  1.00  0.00    -0.278 C  
HETATM   21  O   UNL     1     -12.583  14.185  69.016  1.00  0.00    -0.076 OA 
BRANCH  20  22
HETATM   22  O   UNL     1     -12.424  14.233  71.289  1.00  0.00    -0.326 OA 
HETATM   23  C   UNL     1     -11.507  15.312  71.509  1.00  0.00    -0.396 C  
ENDBRANCH  20  22
ENDBRANCH   8  20
BRANCH  11  24
HETATM   24  C   UNL     1     -10.735  12.224  67.867  1.00  0.00    -0.243 A  
HETATM   25  C   UNL     1     -11.650  11.628  66.977  1.00  0.00    -0.268 A  
HETATM   26  C   UNL     1     -11.677  11.990  65.626  1.00  0.00    -0.312 A  
HETATM   27  C   UNL     1     -10.803  12.957  65.137  1.00  0.00    -0.320 A  
HETATM   28  C   UNL     1      -9.900  13.569  66.001  1.00  0.00    -0.277 A  
HETATM   29  C   UNL     1      -9.857  13.207  67.353  1.00  0.00    -0.226 A  
HETATM   30 CL   UNL     1      -8.654  13.989  68.323  1.00  0.00    -0.175 Cl 
ENDBRANCH  11  24
ENDBRANCH   4   6
ENDBRANCH   3   4
ENDBRANCH   2   3
TORSDOF 10
ENDMDL
MODEL      149
REMARK 921   NORMALIZED FREE ENERGY PREDICTED BY IDOCK:   -3.35 KCAL/MOL
REMARK 922        TOTAL FREE ENERGY PREDICTED BY IDOCK:   -6.87 KCAL/MOL
REMARK 923 INTER-LIGAND FREE ENERGY PREDICTED BY IDOCK:   -5.46 KCAL/MOL
REMARK 924 INTRA-LIGAND FREE ENERGY PREDICTED BY IDOCK:   -1.41 KCAL/MOL
REMARK 927      BINDING AFFINITY PREDICTED BY RF-SCORE:    0.00 PKD
ROOT
HETATM    1  C   UNL     1     -12.878  12.519  72.199  1.00  0.00    -0.189 C  
HETATM    2  C   UNL     1     -12.833  12.110  70.732  1.00  0.00    -0.024 C  
ENDROOT
BRANCH   2   3
HETATM    3  O   UNL     1     -11.495  11.763  70.352  1.00  0.00    -0.145 OA 
BRANCH   3   4
HETATM    4  C   UNL     1     -11.293  11.432  69.054  1.00  0.00    -0.280 C  
HETATM    5  O   UNL     1     -12.208  11.179  68.287  1.00  0.00    -0.613 OA 
BRANCH   4   6
HETATM    6  C   UNL     1      -9.834  11.464  68.681  1.00  0.00    -0.199 C  
HETATM    7  C   UNL     1      -9.252  12.520  68.053  1.00  0.00    -0.204 C  
HETATM    8  C   UNL     1      -7.542  10.264  68.462  1.00  0.00    -0.089 C  
HETATM    9  N   UNL     1      -7.902  12.495  67.752  1.00  0.00    -0.137 NA 
HETATM   10  C   UNL     1      -7.080  11.393  67.870  1.00  0.00    -0.075 C  
HETATM   11  C   UNL     1      -8.974  10.216  69.048  1.00  0.00    -0.168 C  
HETATM   12  C   UNL     1      -5.680  11.576  67.329  1.00  0.00    -0.090 C  
BRANCH   7  13
HETATM   13  C   UNL     1      -9.982  13.780  67.612  1.00  0.00    -0.238 C  
BRANCH  13  14
HETATM   14  O   UNL     1      -9.750  14.895  68.491  1.00  0.00    -0.202 OA 
BRANCH  14  15
HETATM   15  C   UNL     1     -10.325  16.069  67.882  1.00  0.00    -0.269 C  
BRANCH  15  16
HETATM   16  C   UNL     1     -11.530  16.562  68.682  1.00  0.00    -0.146 C  
HETATM   17  N   UNL     1     -11.322  16.363  70.117  1.00  0.00    -0.444 NA 
HETATM   18  H2  UNL     1     -10.457  16.797  70.436  1.00  0.00     0.000 HD 
HETATM   19  H1  UNL     1     -12.127  16.692  70.651  1.00  0.00     0.000 HD 
ENDBRANCH  15  16
ENDBRANCH  14  15
ENDBRANCH  13  14
ENDBRANCH   7  13
BRANCH   8  20
HETATM   20  C   UNL     1      -6.647   9.073  68.549  1.00  0.00    -0.055 C  
HETATM   21  O   UNL     1      -6.009   8.765  69.546  1.00  0.00    -0.036 OA 
BRANCH  20  22
HETATM   22  O   UNL     1      -6.632   8.373  67.388  1.00  0.00    -0.057 OA 
HETATM   23  C   UNL     1      -5.370   7.771  67.074  1.00  0.00    -0.031 C  
ENDBRANCH  20  22
ENDBRANCH   8  20
BRANCH  11  24
HETATM   24  C   UNL     1      -9.697   8.894  68.752  1.00  0.00    -0.170 A  
HETATM   25  C   UNL     1     -10.060   8.569  67.430  1.00  0.00    -0.298 A  
HETATM   26  C   UNL     1     -10.805   7.419  67.152  1.00  0.00    -0.340 A  
HETATM   27  C   UNL     1     -11.194   6.564  68.179  1.00  0.00    -0.250 A  
HETATM   28  C   UNL     1     -10.834   6.858  69.491  1.00  0.00    -0.287 A  
HETATM   29  C   UNL     1     -10.098   8.012  69.782  1.00  0.00    -0.196 A  
HETATM   30 CL   UNL     1      -9.758   8.308  71.456  1.00  0.00    -0.229 Cl 
ENDBRANCH  11  24
ENDBRANCH   4   6
ENDBRANCH   3   4
ENDBRANCH   2   3
TORSDOF 10
ENDMDL
MODEL      150
REMARK 921   NORMALIZED FREE ENERGY PREDICTED BY IDOCK:   -3.33 KCAL/MOL
REMARK 922        TOTAL FREE ENERGY PREDICTED BY IDOCK:   -6.84 KCAL/MOL
REMARK 923 INTER-LIGAND FREE ENERGY PREDICTED BY IDOCK:   -5.34 KCAL/MOL
REMARK 924 INTRA-LIGAND FREE ENERGY PREDICTED BY IDOCK:   -1.50 KCAL/MOL
REMARK 927      BINDING AFFINITY PREDICTED BY RF-SCORE:    0.00 PKD
ROOT
HETATM    1  C   UNL     1     -13.952   7.241  71.670  1.00  0.00    -0.488 C  
HETATM    2  C   UNL     1     -13.295   8.615  71.678  1.00  0.00    -0.350 C  
ENDROOT
BRANCH   2   3
HETATM    3  O   UNL     1     -12.353   8.723  70.604  1.00  0.00    -0.063 OA 
BRANCH   3   4
HETATM    4  C   UNL     1     -11.565   9.825  70.589  1.00  0.00    -0.313 C  
HETATM    5  O   UNL     1     -11.955  10.921  70.957  1.00  0.00    -0.326 OA 
BRANCH   4   6
HETATM    6  C   UNL     1     -10.168   9.517  70.116  1.00  0.00    -0.291 C  
HETATM    7  C   UNL     1      -9.746   9.753  68.844  1.00  0.00    -0.171 C  
HETATM    8  C   UNL     1      -7.838   8.451  70.530  1.00  0.00    -0.089 C  
HETATM    9  N   UNL     1      -8.444   9.464  68.477  1.00  0.00    -0.118 NA 
HETATM   10  C   UNL     1      -7.535   8.768  69.246  1.00  0.00    -0.078 C  
HETATM   11  C   UNL     1      -9.180   8.902  71.153  1.00  0.00    -0.324 C  
HETATM   12  C   UNL     1      -6.229   8.443  68.559  1.00  0.00    -0.053 C  
BRANCH   7  13
HETATM   13  C   UNL     1     -10.616  10.316  67.730  1.00  0.00    -0.250 C  
BRANCH  13  14
HETATM   14  O   UNL     1     -10.237   9.832  66.429  1.00  0.00    -0.242 OA 
BRANCH  14  15
HETATM   15  C   UNL     1     -10.331  10.930  65.500  1.00  0.00    -0.252 C  
BRANCH  15  16
HETATM   16  C   UNL     1     -10.013  12.256  66.189  1.00  0.00    -0.243 C  
HETATM   17  N   UNL     1     -10.436  13.390  65.364  1.00  0.00    -0.294 NA 
HETATM   18  H2  UNL     1     -11.422  13.324  65.111  1.00  0.00     0.000 HD 
HETATM   19  H1  UNL     1     -10.224  14.275  65.824  1.00  0.00     0.000 HD 
ENDBRANCH  15  16
ENDBRANCH  14  15
ENDBRANCH  13  14
ENDBRANCH   7  13
BRANCH   8  20
HETATM   20  C   UNL     1      -6.853   7.669  71.334  1.00  0.00    -0.049 C  
HETATM   21  O   UNL     1      -6.815   6.448  71.376  1.00  0.00    -0.063 OA 
BRANCH  20  22
HETATM   22  O   UNL     1      -6.004   8.481  72.011  1.00  0.00    -0.049 OA 
HETATM   23  C   UNL     1      -5.953   8.243  73.423  1.00  0.00    -0.081 C  
ENDBRANCH  20  22
ENDBRANCH   8  20
BRANCH  11  24
HETATM   24  C   UNL     1      -9.834   7.814  72.018  1.00  0.00    -0.226 A  
HETATM   25  C   UNL     1      -9.996   8.017  73.402  1.00  0.00    -0.160 A  
HETATM   26  C   UNL     1     -10.497   7.001  74.223  1.00  0.00     0.140 A  
HETATM   27  C   UNL     1     -10.858   5.771  73.682  1.00  0.00    -0.228 A  
HETATM   28  C   UNL     1     -10.719   5.553  72.314  1.00  0.00    -0.285 A  
HETATM   29  C   UNL     1     -10.208   6.558  71.485  1.00  0.00    -0.192 A  
HETATM   30 CL   UNL     1     -10.023   6.157  69.810  1.00  0.00    -0.200 Cl 
ENDBRANCH  11  24
ENDBRANCH   4   6
ENDBRANCH   3   4
ENDBRANCH   2   3
TORSDOF 10
ENDMDL
MODEL      151
REMARK 921   NORMALIZED FREE ENERGY PREDICTED BY IDOCK:   -3.32 KCAL/MOL
REMARK 922        TOTAL FREE ENERGY PREDICTED BY IDOCK:   -6.83 KCAL/MOL
REMARK 923 INTER-LIGAND FREE ENERGY PREDICTED BY IDOCK:   -5.13 KCAL/MOL
REMARK 924 INTRA-LIGAND FREE ENERGY PREDICTED BY IDOCK:   -1.70 KCAL/MOL
REMARK 927      BINDING AFFINITY PREDICTED BY RF-SCORE:    0.00 PKD
ROOT
HETATM    1  C   UNL     1      -7.463  13.660  67.345  1.00  0.00    -0.139 C  
HETATM    2  C   UNL     1      -8.905  13.366  67.737  1.00  0.00    -0.199 C  
ENDROOT
BRANCH   2   3
HETATM    3  O   UNL     1      -9.090  11.958  67.938  1.00  0.00    -0.169 OA 
BRANCH   3   4
HETATM    4  C   UNL     1      -9.850  11.304  67.028  1.00  0.00    -0.191 C  
HETATM    5  O   UNL     1     -10.392  11.869  66.092  1.00  0.00    -0.215 OA 
BRANCH   4   6
HETATM    6  C   UNL     1      -9.897   9.821  67.290  1.00  0.00    -0.228 C  
HETATM    7  C   UNL     1     -10.528   9.277  68.365  1.00  0.00    -0.206 C  
HETATM    8  C   UNL     1      -9.128   7.410  66.711  1.00  0.00    -0.178 C  
HETATM    9  N   UNL     1     -10.549   7.905  68.539  1.00  0.00    -0.154 NA 
HETATM   10  C   UNL     1      -9.820   6.996  67.801  1.00  0.00    -0.139 C  
HETATM   11  C   UNL     1      -9.185   8.890  66.262  1.00  0.00    -0.261 C  
HETATM   12  C   UNL     1      -9.895   5.567  68.288  1.00  0.00    -0.185 C  
BRANCH   7  13
HETATM   13  C   UNL     1     -11.229  10.072  69.456  1.00  0.00    -0.208 C  
BRANCH  13  14
HETATM   14  O   UNL     1     -10.568   9.973  70.730  1.00  0.00    -0.287 OA 
BRANCH  14  15
HETATM   15  C   UNL     1     -11.461   9.306  71.645  1.00  0.00    -0.398 C  
BRANCH  15  16
HETATM   16  C   UNL     1     -12.918   9.625  71.314  1.00  0.00    -0.360 C  
HETATM   17  N   UNL     1     -13.433  10.682  72.187  1.00  0.00    -0.525 NA 
HETATM   18  H2  UNL     1     -12.849  11.516  72.154  1.00  0.00     0.000 HD 
HETATM   19  H1  UNL     1     -14.406  10.895  71.966  1.00  0.00     0.000 HD 
ENDBRANCH  15  16
ENDBRANCH  14  15
ENDBRANCH  13  14
ENDBRANCH   7  13
BRANCH   8  20
HETATM   20  C   UNL     1      -8.319   6.417  65.946  1.00  0.00    -0.143 C  
HETATM   21  O   UNL     1      -7.172   6.100  66.229  1.00  0.00    -0.069 OA 
BRANCH  20  22
HETATM   22  O   UNL     1      -9.014   5.907  64.900  1.00  0.00     0.030 OA 
HETATM   23  C   UNL     1      -8.472   4.695  64.360  1.00  0.00    -0.130 C  
ENDBRANCH  20  22
ENDBRANCH   8  20
BRANCH  11  24
HETATM   24  C   UNL     1      -7.819   9.435  65.820  1.00  0.00    -0.099 A  
HETATM   25  C   UNL     1      -6.789   9.605  66.767  1.00  0.00    -0.084 A  
HETATM   26  C   UNL     1      -5.572  10.191  66.406  1.00  0.00    -0.052 A  
HETATM   27  C   UNL     1      -5.350  10.608  65.097  1.00  0.00    -0.151 A  
HETATM   28  C   UNL     1      -6.348  10.437  64.142  1.00  0.00    -0.040 A  
HETATM   29  C   UNL     1      -7.574   9.861  64.494  1.00  0.00    -0.139 A  
HETATM   30 CL   UNL     1      -8.764   9.752  63.239  1.00  0.00    -0.208 Cl 
ENDBRANCH  11  24
ENDBRANCH   4   6
ENDBRANCH   3   4
ENDBRANCH   2   3
TORSDOF 10
ENDMDL
MODEL      152
REMARK 921   NORMALIZED FREE ENERGY PREDICTED BY IDOCK:   -3.32 KCAL/MOL
REMARK 922        TOTAL FREE ENERGY PREDICTED BY IDOCK:   -6.82 KCAL/MOL
REMARK 923 INTER-LIGAND FREE ENERGY PREDICTED BY IDOCK:   -5.44 KCAL/MOL
REMARK 924 INTRA-LIGAND FREE ENERGY PREDICTED BY IDOCK:   -1.38 KCAL/MOL
REMARK 927      BINDING AFFINITY PREDICTED BY RF-SCORE:    0.00 PKD
ROOT
HETATM    1  C   UNL     1      -6.160  15.365  67.771  1.00  0.00    -0.173 C  
HETATM    2  C   UNL     1      -6.702  14.219  68.616  1.00  0.00    -0.092 C  
ENDROOT
BRANCH   2   3
HETATM    3  O   UNL     1      -7.426  13.294  67.795  1.00  0.00    -0.122 OA 
BRANCH   3   4
HETATM    4  C   UNL     1      -8.652  13.682  67.368  1.00  0.00    -0.209 C  
HETATM    5  O   UNL     1      -8.846  14.158  66.261  1.00  0.00    -0.046 OA 
BRANCH   4   6
HETATM    6  C   UNL     1      -9.722  13.412  68.394  1.00  0.00    -0.201 C  
HETATM    7  C   UNL     1     -10.407  12.238  68.459  1.00  0.00    -0.223 C  
HETATM    8  C   UNL     1     -11.267  14.246  70.306  1.00  0.00    -0.050 C  
HETATM    9  N   UNL     1     -11.367  12.045  69.436  1.00  0.00    -0.264 NA 
HETATM   10  C   UNL     1     -11.849  13.021  70.283  1.00  0.00    -0.217 C  
HETATM   11  C   UNL     1     -10.034  14.544  69.418  1.00  0.00     0.026 C  
HETATM   12  C   UNL     1     -13.008  12.597  71.156  1.00  0.00    -0.239 C  
BRANCH   7  13
HETATM   13  C   UNL     1     -10.223  11.069  67.503  1.00  0.00    -0.188 C  
BRANCH  13  14
HETATM   14  O   UNL     1     -10.823   9.854  67.987  1.00  0.00    -0.248 OA 
BRANCH  14  15
HETATM   15  C   UNL     1      -9.792   9.071  68.622  1.00  0.00    -0.165 C  
BRANCH  15  16
HETATM   16  C   UNL     1     -10.166   8.748  70.068  1.00  0.00    -0.198 C  
HETATM   17  N   UNL     1     -11.561   9.102  70.339  1.00  0.00    -0.425 NA 
HETATM   18  H2  UNL     1     -12.197   8.658  69.677  1.00  0.00     0.000 HD 
HETATM   19  H1  UNL     1     -11.812   8.887  71.303  1.00  0.00     0.000 HD 
ENDBRANCH  15  16
ENDBRANCH  14  15
ENDBRANCH  13  14
ENDBRANCH   7  13
BRANCH   8  20
HETATM   20  C   UNL     1     -11.825  15.298  71.205  1.00  0.00    -0.361 C  
HETATM   21  O   UNL     1     -11.301  15.657  72.250  1.00  0.00    -0.393 OA 
BRANCH  20  22
HETATM   22  O   UNL     1     -12.983  15.807  70.720  1.00  0.00    -0.479 OA 
HETATM   23  C   UNL     1     -14.068  15.815  71.656  1.00  0.00    -0.037 C  
ENDBRANCH  20  22
ENDBRANCH   8  20
BRANCH  11  24
HETATM   24  C   UNL     1     -10.091  15.933  68.763  1.00  0.00    -0.221 A  
HETATM   25  C   UNL     1      -9.344  16.998  69.304  1.00  0.00     0.018 A  
HETATM   26  C   UNL     1      -9.459  18.291  68.784  1.00  0.00    -0.298 A  
HETATM   27  C   UNL     1     -10.306  18.548  67.711  1.00  0.00    -0.435 A  
HETATM   28  C   UNL     1     -11.043  17.508  67.152  1.00  0.00     0.194 A  
HETATM   29  C   UNL     1     -10.945  16.212  67.671  1.00  0.00    -0.268 A  
HETATM   30 CL   UNL     1     -11.952  15.008  66.936  1.00  0.00    -0.126 Cl 
ENDBRANCH  11  24
ENDBRANCH   4   6
ENDBRANCH   3   4
ENDBRANCH   2   3
TORSDOF 10
ENDMDL
MODEL      153
REMARK 921   NORMALIZED FREE ENERGY PREDICTED BY IDOCK:   -3.29 KCAL/MOL
REMARK 922        TOTAL FREE ENERGY PREDICTED BY IDOCK:   -6.78 KCAL/MOL
REMARK 923 INTER-LIGAND FREE ENERGY PREDICTED BY IDOCK:   -6.29 KCAL/MOL
REMARK 924 INTRA-LIGAND FREE ENERGY PREDICTED BY IDOCK:   -0.48 KCAL/MOL
REMARK 927      BINDING AFFINITY PREDICTED BY RF-SCORE:    0.00 PKD
ROOT
HETATM    1  C   UNL     1      -5.137  16.396  69.053  1.00  0.00    -0.110 C  
HETATM    2  C   UNL     1      -5.448  15.023  69.635  1.00  0.00    -0.096 C  
ENDROOT
BRANCH   2   3
HETATM    3  O   UNL     1      -6.213  14.248  68.703  1.00  0.00    -0.080 OA 
BRANCH   3   4
HETATM    4  C   UNL     1      -7.552  14.204  68.896  1.00  0.00    -0.098 C  
HETATM    5  O   UNL     1      -8.115  14.843  69.771  1.00  0.00    -0.084 OA 
BRANCH   4   6
HETATM    6  C   UNL     1      -8.243  13.325  67.886  1.00  0.00    -0.163 C  
HETATM    7  C   UNL     1      -7.669  12.213  67.354  1.00  0.00    -0.165 C  
HETATM    8  C   UNL     1     -10.235  12.880  66.281  1.00  0.00    -0.285 C  
HETATM    9  N   UNL     1      -8.363  11.438  66.443  1.00  0.00    -0.163 NA 
HETATM   10  C   UNL     1      -9.563  11.780  65.857  1.00  0.00    -0.230 C  
HETATM   11  C   UNL     1      -9.684  13.731  67.452  1.00  0.00    -0.235 C  
HETATM   12  C   UNL     1     -10.041  10.839  64.775  1.00  0.00    -0.396 C  
BRANCH   7  13
HETATM   13  C   UNL     1      -6.261  11.727  67.667  1.00  0.00    -0.078 C  
BRANCH  13  14
HETATM   14  O   UNL     1      -6.247  10.438  68.306  1.00  0.00    -0.050 OA 
BRANCH  14  15
HETATM   15  C   UNL     1      -6.657  10.616  69.677  1.00  0.00    -0.106 C  
BRANCH  15  16
HETATM   16  C   UNL     1      -5.910   9.653  70.599  1.00  0.00    -0.066 C  
HETATM   17  N   UNL     1      -5.766  10.220  71.942  1.00  0.00    -0.299 NA 
HETATM   18  H2  UNL     1      -6.666  10.493  72.334  1.00  0.00     0.000 HD 
HETATM   19  H1  UNL     1      -5.267   9.578  72.557  1.00  0.00     0.000 HD 
ENDBRANCH  15  16
ENDBRANCH  14  15
ENDBRANCH  13  14
ENDBRANCH   7  13
BRANCH   8  20
HETATM   20  C   UNL     1     -11.515  13.251  65.611  1.00  0.00    -0.318 C  
HETATM   21  O   UNL     1     -12.610  13.215  66.154  1.00  0.00    -0.398 OA 
BRANCH  20  22
HETATM   22  O   UNL     1     -11.314  13.636  64.328  1.00  0.00    -0.379 OA 
HETATM   23  C   UNL     1     -12.279  13.132  63.397  1.00  0.00    -0.444 C  
ENDBRANCH  20  22
ENDBRANCH   8  20
BRANCH  11  24
HETATM   24  C   UNL     1      -9.825  15.241  67.210  1.00  0.00    -0.220 A  
HETATM   25  C   UNL     1      -8.937  15.900  66.337  1.00  0.00    -0.361 A  
HETATM   26  C   UNL     1      -8.985  17.289  66.180  1.00  0.00    -0.189 A  
HETATM   27  C   UNL     1      -9.921  18.047  66.877  1.00  0.00    -0.340 A  
HETATM   28  C   UNL     1     -10.817  17.415  67.735  1.00  0.00    -0.257 A  
HETATM   29  C   UNL     1     -10.772  16.027  67.908  1.00  0.00    -0.316 A  
HETATM   30 CL   UNL     1     -11.894  15.354  69.044  1.00  0.00    -0.366 Cl 
ENDBRANCH  11  24
ENDBRANCH   4   6
ENDBRANCH   3   4
ENDBRANCH   2   3
TORSDOF 10
ENDMDL
MODEL      154
REMARK 921   NORMALIZED FREE ENERGY PREDICTED BY IDOCK:   -3.29 KCAL/MOL
REMARK 922        TOTAL FREE ENERGY PREDICTED BY IDOCK:   -6.77 KCAL/MOL
REMARK 923 INTER-LIGAND FREE ENERGY PREDICTED BY IDOCK:   -5.75 KCAL/MOL
REMARK 924 INTRA-LIGAND FREE ENERGY PREDICTED BY IDOCK:   -1.03 KCAL/MOL
REMARK 927      BINDING AFFINITY PREDICTED BY RF-SCORE:    0.00 PKD
ROOT
HETATM    1  C   UNL     1     -13.169  12.155  71.891  1.00  0.00    -0.474 C  
HETATM    2  C   UNL     1     -12.952  11.009  70.912  1.00  0.00    -0.224 C  
ENDROOT
BRANCH   2   3
HETATM    3  O   UNL     1     -11.583  10.583  70.938  1.00  0.00    -0.338 OA 
BRANCH   3   4
HETATM    4  C   UNL     1     -11.340   9.282  70.650  1.00  0.00    -0.275 C  
HETATM    5  O   UNL     1     -12.101   8.382  70.967  1.00  0.00    -0.279 OA 
BRANCH   4   6
HETATM    6  C   UNL     1     -10.067   9.104  69.865  1.00  0.00    -0.219 C  
HETATM    7  C   UNL     1      -9.880   9.631  68.625  1.00  0.00    -0.161 C  
HETATM    8  C   UNL     1      -7.739   7.990  69.578  1.00  0.00    -0.103 C  
HETATM    9  N   UNL     1      -8.680   9.444  67.962  1.00  0.00    -0.124 NA 
HETATM   10  C   UNL     1      -7.669   8.598  68.367  1.00  0.00    -0.100 C  
HETATM   11  C   UNL     1      -8.927   8.275  70.530  1.00  0.00    -0.151 C  
HETATM   12  C   UNL     1      -6.525   8.451  67.390  1.00  0.00    -0.058 C  
BRANCH   7  13
HETATM   13  C   UNL     1     -10.920  10.428  67.853  1.00  0.00    -0.297 C  
BRANCH  13  14
HETATM   14  O   UNL     1     -10.473  11.755  67.523  1.00  0.00    -0.196 OA 
BRANCH  14  15
HETATM   15  C   UNL     1     -11.638  12.583  67.331  1.00  0.00    -0.370 C  
BRANCH  15  16
HETATM   16  C   UNL     1     -11.828  13.538  68.509  1.00  0.00    -0.362 C  
HETATM   17  N   UNL     1     -10.569  13.738  69.229  1.00  0.00    -0.440 NA 
HETATM   18  H2  UNL     1      -9.825  14.051  68.607  1.00  0.00     0.000 HD 
HETATM   19  H1  UNL     1     -10.695  14.375  70.015  1.00  0.00     0.000 HD 
ENDBRANCH  15  16
ENDBRANCH  14  15
ENDBRANCH  13  14
ENDBRANCH   7  13
BRANCH   8  20
HETATM   20  C   UNL     1      -6.651   7.053  69.982  1.00  0.00    -0.044 C  
HETATM   21  O   UNL     1      -5.759   7.334  70.770  1.00  0.00    -0.027 OA 
BRANCH  20  22
HETATM   22  O   UNL     1      -6.776   5.849  69.372  1.00  0.00    -0.055 OA 
HETATM   23  C   UNL     1      -5.533   5.219  69.039  1.00  0.00    -0.004 C  
ENDBRANCH  20  22
ENDBRANCH   8  20
BRANCH  11  24
HETATM   24  C   UNL     1      -9.447   7.011  71.230  1.00  0.00    -0.164 A  
HETATM   25  C   UNL     1      -9.961   5.944  70.467  1.00  0.00    -0.243 A  
HETATM   26  C   UNL     1     -10.531   4.827  71.088  1.00  0.00    -0.121 A  
HETATM   27  C   UNL     1     -10.589   4.744  72.476  1.00  0.00    -0.262 A  
HETATM   28  C   UNL     1     -10.074   5.781  73.250  1.00  0.00    -0.202 A  
HETATM   29  C   UNL     1      -9.512   6.908  72.639  1.00  0.00    -0.142 A  
HETATM   30 CL   UNL     1      -8.957   8.162  73.698  1.00  0.00    -0.314 Cl 
ENDBRANCH  11  24
ENDBRANCH   4   6
ENDBRANCH   3   4
ENDBRANCH   2   3
TORSDOF 10
ENDMDL
MODEL      155
REMARK 921   NORMALIZED FREE ENERGY PREDICTED BY IDOCK:   -3.28 KCAL/MOL
REMARK 922        TOTAL FREE ENERGY PREDICTED BY IDOCK:   -6.76 KCAL/MOL
REMARK 923 INTER-LIGAND FREE ENERGY PREDICTED BY IDOCK:   -5.21 KCAL/MOL
REMARK 924 INTRA-LIGAND FREE ENERGY PREDICTED BY IDOCK:   -1.55 KCAL/MOL
REMARK 927      BINDING AFFINITY PREDICTED BY RF-SCORE:    0.00 PKD
ROOT
HETATM    1  C   UNL     1      -5.596  10.473  69.522  1.00  0.00    -0.038 C  
HETATM    2  C   UNL     1      -7.038  10.944  69.659  1.00  0.00    -0.116 C  
ENDROOT
BRANCH   2   3
HETATM    3  O   UNL     1      -7.783  10.036  70.481  1.00  0.00    -0.264 OA 
BRANCH   3   4
HETATM    4  C   UNL     1      -8.914   9.515  69.949  1.00  0.00    -0.212 C  
HETATM    5  O   UNL     1     -10.008  10.041  70.078  1.00  0.00    -0.249 OA 
BRANCH   4   6
HETATM    6  C   UNL     1      -8.644   8.261  69.158  1.00  0.00    -0.138 C  
HETATM    7  C   UNL     1      -8.644   8.228  67.798  1.00  0.00    -0.131 C  
HETATM    8  C   UNL     1      -8.271   5.694  69.071  1.00  0.00    -0.100 C  
HETATM    9  N   UNL     1      -8.372   7.048  67.130  1.00  0.00    -0.120 NA 
HETATM   10  C   UNL     1      -8.266   5.805  67.719  1.00  0.00    -0.101 C  
HETATM   11  C   UNL     1      -8.351   6.958  69.961  1.00  0.00    -0.139 C  
HETATM   12  C   UNL     1      -8.121   4.649  66.756  1.00  0.00    -0.103 C  
BRANCH   7  13
HETATM   13  C   UNL     1      -8.948   9.417  66.899  1.00  0.00    -0.131 C  
BRANCH  13  14
HETATM   14  O   UNL     1     -10.353   9.565  66.627  1.00  0.00    -0.243 OA 
BRANCH  14  15
HETATM   15  C   UNL     1     -10.712  10.940  66.876  1.00  0.00    -0.264 C  
BRANCH  15  16
HETATM   16  C   UNL     1     -11.154  11.630  65.587  1.00  0.00    -0.249 C  
HETATM   17  N   UNL     1     -12.257  12.558  65.842  1.00  0.00    -0.624 NA 
HETATM   18  H2  UNL     1     -12.021  13.234  66.568  1.00  0.00     0.000 HD 
HETATM   19  H1  UNL     1     -12.552  13.019  64.981  1.00  0.00     0.000 HD 
ENDBRANCH  15  16
ENDBRANCH  14  15
ENDBRANCH  13  14
ENDBRANCH   7  13
BRANCH   8  20
HETATM   20  C   UNL     1      -8.189   4.337  69.687  1.00  0.00    -0.059 C  
HETATM   21  O   UNL     1      -9.135   3.568  69.784  1.00  0.00    -0.097 OA 
BRANCH  20  22
HETATM   22  O   UNL     1      -6.936   4.062  70.123  1.00  0.00    -0.040 OA 
HETATM   23  C   UNL     1      -6.394   2.828  69.634  1.00  0.00    -0.029 C  
ENDBRANCH  20  22
ENDBRANCH   8  20
BRANCH  11  24
HETATM   24  C   UNL     1      -9.287   6.783  71.166  1.00  0.00    -0.159 A  
HETATM   25  C   UNL     1      -8.783   6.916  72.474  1.00  0.00    -0.135 A  
HETATM   26  C   UNL     1      -9.595   6.663  73.585  1.00  0.00    -0.207 A  
HETATM   27  C   UNL     1     -10.924   6.286  73.416  1.00  0.00    -0.172 A  
HETATM   28  C   UNL     1     -11.447   6.162  72.132  1.00  0.00    -0.361 A  
HETATM   29  C   UNL     1     -10.640   6.401  71.014  1.00  0.00    -0.234 A  
HETATM   30 CL   UNL     1     -11.379   6.159  69.465  1.00  0.00    -0.491 Cl 
ENDBRANCH  11  24
ENDBRANCH   4   6
ENDBRANCH   3   4
ENDBRANCH   2   3
TORSDOF 10
ENDMDL
MODEL      156
REMARK 921   NORMALIZED FREE ENERGY PREDICTED BY IDOCK:   -3.27 KCAL/MOL
REMARK 922        TOTAL FREE ENERGY PREDICTED BY IDOCK:   -6.74 KCAL/MOL
REMARK 923 INTER-LIGAND FREE ENERGY PREDICTED BY IDOCK:   -6.03 KCAL/MOL
REMARK 924 INTRA-LIGAND FREE ENERGY PREDICTED BY IDOCK:   -0.72 KCAL/MOL
REMARK 927      BINDING AFFINITY PREDICTED BY RF-SCORE:    0.00 PKD
ROOT
HETATM    1  C   UNL     1     -10.298   5.887  66.529  1.00  0.00    -0.237 C  
HETATM    2  C   UNL     1     -10.275   7.397  66.334  1.00  0.00     0.060 C  
ENDROOT
BRANCH   2   3
HETATM    3  O   UNL     1      -8.928   7.858  66.170  1.00  0.00    -0.168 OA 
BRANCH   3   4
HETATM    4  C   UNL     1      -8.578   8.980  66.842  1.00  0.00    -0.123 C  
HETATM    5  O   UNL     1      -7.592   9.641  66.557  1.00  0.00    -0.096 OA 
BRANCH   4   6
HETATM    6  C   UNL     1      -9.566   9.323  67.927  1.00  0.00    -0.163 C  
HETATM    7  C   UNL     1     -10.310  10.462  67.919  1.00  0.00    -0.190 C  
HETATM    8  C   UNL     1     -10.618   8.830  70.248  1.00  0.00    -0.239 C  
HETATM    9  N   UNL     1     -11.213  10.711  68.937  1.00  0.00    -0.256 NA 
HETATM   10  C   UNL     1     -11.322   9.981  70.102  1.00  0.00    -0.291 C  
HETATM   11  C   UNL     1      -9.725   8.307  69.097  1.00  0.00    -0.171 C  
HETATM   12  C   UNL     1     -12.277  10.548  71.127  1.00  0.00    -0.496 C  
BRANCH   7  13
HETATM   13  C   UNL     1     -10.226  11.549  66.857  1.00  0.00    -0.217 C  
BRANCH  13  14
HETATM   14  O   UNL     1     -11.089  11.297  65.734  1.00  0.00    -0.206 OA 
BRANCH  14  15
HETATM   15  C   UNL     1     -11.846  12.497  65.475  1.00  0.00    -0.439 C  
BRANCH  15  16
HETATM   16  C   UNL     1     -11.512  13.065  64.096  1.00  0.00    -0.402 C  
HETATM   17  N   UNL     1     -11.624  14.525  64.090  1.00  0.00    -0.648 NA 
HETATM   18  H2  UNL     1     -11.052  14.949  64.820  1.00  0.00     0.000 HD 
HETATM   19  H1  UNL     1     -11.401  14.903  63.170  1.00  0.00     0.000 HD 
ENDBRANCH  15  16
ENDBRANCH  14  15
ENDBRANCH  13  14
ENDBRANCH   7  13
BRANCH   8  20
HETATM   20  C   UNL     1     -10.725   8.073  71.529  1.00  0.00    -0.227 C  
HETATM   21  O   UNL     1     -10.272   8.462  72.597  1.00  0.00    -0.302 OA 
BRANCH  20  22
HETATM   22  O   UNL     1     -11.389   6.903  71.364  1.00  0.00    -0.249 OA 
HETATM   23  C   UNL     1     -12.813   7.004  71.494  1.00  0.00    -0.372 C  
ENDBRANCH  20  22
ENDBRANCH   8  20
BRANCH  11  24
HETATM   24  C   UNL     1      -8.378   7.756  69.589  1.00  0.00    -0.129 A  
HETATM   25  C   UNL     1      -8.183   6.365  69.696  1.00  0.00    -0.126 A  
HETATM   26  C   UNL     1      -7.001   5.846  70.235  1.00  0.00    -0.062 A  
HETATM   27  C   UNL     1      -5.988   6.698  70.665  1.00  0.00    -0.027 A  
HETATM   28  C   UNL     1      -6.154   8.076  70.555  1.00  0.00    -0.033 A  
HETATM   29  C   UNL     1      -7.337   8.606  70.028  1.00  0.00    -0.052 A  
HETATM   30 CL   UNL     1      -7.459  10.334  69.994  1.00  0.00    -0.168 Cl 
ENDBRANCH  11  24
ENDBRANCH   4   6
ENDBRANCH   3   4
ENDBRANCH   2   3
TORSDOF 10
ENDMDL
MODEL      157
REMARK 921   NORMALIZED FREE ENERGY PREDICTED BY IDOCK:   -3.27 KCAL/MOL
REMARK 922        TOTAL FREE ENERGY PREDICTED BY IDOCK:   -6.74 KCAL/MOL
REMARK 923 INTER-LIGAND FREE ENERGY PREDICTED BY IDOCK:   -5.03 KCAL/MOL
REMARK 924 INTRA-LIGAND FREE ENERGY PREDICTED BY IDOCK:   -1.71 KCAL/MOL
REMARK 927      BINDING AFFINITY PREDICTED BY RF-SCORE:    0.00 PKD
ROOT
HETATM    1  C   UNL     1      -5.944   9.313  70.276  1.00  0.00    -0.037 C  
HETATM    2  C   UNL     1      -7.310   9.957  70.073  1.00  0.00    -0.156 C  
ENDROOT
BRANCH   2   3
HETATM    3  O   UNL     1      -8.271   9.379  70.966  1.00  0.00    -0.294 OA 
BRANCH   3   4
HETATM    4  C   UNL     1      -9.499   9.120  70.460  1.00  0.00    -0.242 C  
HETATM    5  O   UNL     1     -10.493   9.753  70.778  1.00  0.00    -0.303 OA 
BRANCH   4   6
HETATM    6  C   UNL     1      -9.471   8.009  69.442  1.00  0.00    -0.159 C  
HETATM    7  C   UNL     1      -9.919   8.159  68.167  1.00  0.00    -0.186 C  
HETATM    8  C   UNL     1      -9.074   5.513  68.849  1.00  0.00    -0.133 C  
HETATM    9  N   UNL     1      -9.850   7.104  67.275  1.00  0.00    -0.155 NA 
HETATM   10  C   UNL     1      -9.520   5.805  67.601  1.00  0.00    -0.112 C  
HETATM   11  C   UNL     1      -8.891   6.635  69.898  1.00  0.00    -0.144 C  
HETATM   12  C   UNL     1      -9.668   4.804  66.478  1.00  0.00    -0.206 C  
BRANCH   7  13
HETATM   13  C   UNL     1     -10.537   9.431  67.606  1.00  0.00    -0.271 C  
BRANCH  13  14
HETATM   14  O   UNL     1      -9.550  10.387  67.178  1.00  0.00    -0.160 OA 
BRANCH  14  15
HETATM   15  C   UNL     1     -10.004  10.972  65.940  1.00  0.00    -0.240 C  
BRANCH  15  16
HETATM   16  C   UNL     1      -9.363  10.274  64.741  1.00  0.00    -0.260 C  
HETATM   17  N   UNL     1      -7.919  10.514  64.706  1.00  0.00    -0.309 NA 
HETATM   18  H2  UNL     1      -7.471  10.245  65.582  1.00  0.00     0.000 HD 
HETATM   19  H1  UNL     1      -7.491  10.048  63.906  1.00  0.00     0.000 HD 
ENDBRANCH  15  16
ENDBRANCH  14  15
ENDBRANCH  13  14
ENDBRANCH   7  13
BRANCH   8  20
HETATM   20  C   UNL     1      -8.754   4.096  69.191  1.00  0.00    -0.086 C  
HETATM   21  O   UNL     1      -7.634   3.609  69.124  1.00  0.00    -0.052 OA 
BRANCH  20  22
HETATM   22  O   UNL     1      -9.858   3.416  69.587  1.00  0.00    -0.071 OA 
HETATM   23  C   UNL     1      -9.661   2.581  70.735  1.00  0.00    -0.105 C  
ENDBRANCH  20  22
ENDBRANCH   8  20
BRANCH  11  24
HETATM   24  C   UNL     1      -9.371   6.228  71.299  1.00  0.00    -0.164 A  
HETATM   25  C   UNL     1     -10.750   6.151  71.576  1.00  0.00    -0.303 A  
HETATM   26  C   UNL     1     -11.208   5.879  72.870  1.00  0.00    -0.291 A  
HETATM   27  C   UNL     1     -10.306   5.668  73.908  1.00  0.00    -0.284 A  
HETATM   28  C   UNL     1      -8.938   5.726  73.654  1.00  0.00    -0.127 A  
HETATM   29  C   UNL     1      -8.469   6.008  72.366  1.00  0.00    -0.116 A  
HETATM   30 CL   UNL     1      -6.750   6.114  72.178  1.00  0.00    -0.066 Cl 
ENDBRANCH  11  24
ENDBRANCH   4   6
ENDBRANCH   3   4
ENDBRANCH   2   3
TORSDOF 10
ENDMDL
MODEL      158
REMARK 921   NORMALIZED FREE ENERGY PREDICTED BY IDOCK:   -3.26 KCAL/MOL
REMARK 922        TOTAL FREE ENERGY PREDICTED BY IDOCK:   -6.72 KCAL/MOL
REMARK 923 INTER-LIGAND FREE ENERGY PREDICTED BY IDOCK:   -5.90 KCAL/MOL
REMARK 924 INTRA-LIGAND FREE ENERGY PREDICTED BY IDOCK:   -0.82 KCAL/MOL
REMARK 927      BINDING AFFINITY PREDICTED BY RF-SCORE:    0.00 PKD
ROOT
HETATM    1  C   UNL     1      -5.728   8.038  69.771  1.00  0.00    -0.023 C  
HETATM    2  C   UNL     1      -6.762   9.089  69.389  1.00  0.00    -0.048 C  
ENDROOT
BRANCH   2   3
HETATM    3  O   UNL     1      -8.087   8.589  69.614  1.00  0.00    -0.108 OA 
BRANCH   3   4
HETATM    4  C   UNL     1      -8.965   8.697  68.589  1.00  0.00    -0.142 C  
HETATM    5  O   UNL     1      -9.162   7.797  67.789  1.00  0.00    -0.136 OA 
BRANCH   4   6
HETATM    6  C   UNL     1      -9.683  10.022  68.595  1.00  0.00    -0.165 C  
HETATM    7  C   UNL     1     -10.812  10.250  69.318  1.00  0.00    -0.238 C  
HETATM    8  C   UNL     1      -9.984  12.421  67.650  1.00  0.00    -0.200 C  
HETATM    9  N   UNL     1     -11.415  11.495  69.294  1.00  0.00    -0.277 NA 
HETATM   10  C   UNL     1     -11.080  12.526  68.443  1.00  0.00    -0.258 C  
HETATM   11  C   UNL     1      -9.080  11.167  67.726  1.00  0.00    -0.149 C  
HETATM   12  C   UNL     1     -11.991  13.731  68.505  1.00  0.00    -0.402 C  
BRANCH   7  13
HETATM   13  C   UNL     1     -11.519   9.213  70.178  1.00  0.00    -0.087 C  
BRANCH  13  14
HETATM   14  O   UNL     1     -11.047   9.200  71.537  1.00  0.00    -0.313 OA 
BRANCH  14  15
HETATM   15  C   UNL     1     -12.178   8.960  72.399  1.00  0.00    -0.295 C  
BRANCH  15  16
HETATM   16  C   UNL     1     -13.426   8.630  71.581  1.00  0.00    -0.357 C  
HETATM   17  N   UNL     1     -14.114   7.458  72.127  1.00  0.00    -0.583 NA 
HETATM   18  H2  UNL     1     -14.332   7.575  73.115  1.00  0.00     0.000 HD 
HETATM   19  H1  UNL     1     -14.946   7.237  71.581  1.00  0.00     0.000 HD 
ENDBRANCH  15  16
ENDBRANCH  14  15
ENDBRANCH  13  14
ENDBRANCH   7  13
BRANCH   8  20
HETATM   20  C   UNL     1      -9.658  13.535  66.712  1.00  0.00    -0.267 C  
HETATM   21  O   UNL     1     -10.294  13.787  65.698  1.00  0.00    -0.292 OA 
BRANCH  20  22
HETATM   22  O   UNL     1      -8.573  14.234  67.125  1.00  0.00    -0.206 OA 
HETATM   23  C   UNL     1      -8.224  14.033  68.500  1.00  0.00    -0.136 C  
ENDBRANCH  20  22
ENDBRANCH   8  20
BRANCH  11  24
HETATM   24  C   UNL     1      -8.618  10.679  66.345  1.00  0.00    -0.151 A  
HETATM   25  C   UNL     1      -9.555  10.154  65.433  1.00  0.00    -0.325 A  
HETATM   26  C   UNL     1      -9.142   9.613  64.211  1.00  0.00    -0.267 A  
HETATM   27  C   UNL     1      -7.794   9.595  63.867  1.00  0.00    -0.136 A  
HETATM   28  C   UNL     1      -6.852  10.121  64.747  1.00  0.00    -0.121 A  
HETATM   29  C   UNL     1      -7.253  10.655  65.977  1.00  0.00    -0.131 A  
HETATM   30 CL   UNL     1      -5.991  11.227  67.017  1.00  0.00    -0.085 Cl 
ENDBRANCH  11  24
ENDBRANCH   4   6
ENDBRANCH   3   4
ENDBRANCH   2   3
TORSDOF 10
ENDMDL
MODEL      159
REMARK 921   NORMALIZED FREE ENERGY PREDICTED BY IDOCK:   -3.20 KCAL/MOL
REMARK 922        TOTAL FREE ENERGY PREDICTED BY IDOCK:   -6.62 KCAL/MOL
REMARK 923 INTER-LIGAND FREE ENERGY PREDICTED BY IDOCK:   -5.43 KCAL/MOL
REMARK 924 INTRA-LIGAND FREE ENERGY PREDICTED BY IDOCK:   -1.20 KCAL/MOL
REMARK 927      BINDING AFFINITY PREDICTED BY RF-SCORE:    0.00 PKD
ROOT
HETATM    1  C   UNL     1     -12.382  11.502  70.910  1.00  0.00    -0.460 C  
HETATM    2  C   UNL     1     -12.285  10.478  69.787  1.00  0.00    -0.181 C  
ENDROOT
BRANCH   2   3
HETATM    3  O   UNL     1     -11.115  10.718  68.994  1.00  0.00    -0.216 OA 
BRANCH   3   4
HETATM    4  C   UNL     1      -9.936  10.274  69.492  1.00  0.00    -0.228 C  
HETATM    5  O   UNL     1      -9.822   9.830  70.623  1.00  0.00    -0.244 OA 
BRANCH   4   6
HETATM    6  C   UNL     1      -8.826  10.354  68.476  1.00  0.00    -0.142 C  
HETATM    7  C   UNL     1      -8.479  11.507  67.844  1.00  0.00    -0.142 C  
HETATM    8  C   UNL     1      -7.064   9.178  66.975  1.00  0.00    -0.086 C  
HETATM    9  N   UNL     1      -7.438  11.517  66.933  1.00  0.00    -0.149 NA 
HETATM   10  C   UNL     1      -6.797  10.398  66.445  1.00  0.00    -0.112 C  
HETATM   11  C   UNL     1      -8.053   9.038  68.157  1.00  0.00    -0.105 C  
HETATM   12  C   UNL     1      -5.799  10.662  65.340  1.00  0.00    -0.118 C  
BRANCH   7  13
HETATM   13  C   UNL     1      -9.172  12.848  68.039  1.00  0.00    -0.212 C  
BRANCH  13  14
HETATM   14  O   UNL     1      -9.558  13.461  66.796  1.00  0.00    -0.247 OA 
BRANCH  14  15
HETATM   15  C   UNL     1     -10.698  14.306  67.052  1.00  0.00    -0.290 C  
BRANCH  15  16
HETATM   16  C   UNL     1     -10.903  14.505  68.553  1.00  0.00    -0.249 C  
HETATM   17  N   UNL     1     -12.324  14.438  68.900  1.00  0.00    -0.576 NA 
HETATM   18  H2  UNL     1     -12.752  13.573  68.574  1.00  0.00     0.000 HD 
HETATM   19  H1  UNL     1     -12.462  14.571  69.902  1.00  0.00     0.000 HD 
ENDBRANCH  15  16
ENDBRANCH  14  15
ENDBRANCH  13  14
ENDBRANCH   7  13
BRANCH   8  20
HETATM   20  C   UNL     1      -6.383   7.977  66.409  1.00  0.00    -0.047 C  
HETATM   21  O   UNL     1      -5.425   7.422  66.928  1.00  0.00    -0.022 OA 
BRANCH  20  22
HETATM   22  O   UNL     1      -6.961   7.575  65.250  1.00  0.00    -0.056 OA 
HETATM   23  C   UNL     1      -7.220   6.168  65.172  1.00  0.00    -0.070 C  
ENDBRANCH  20  22
ENDBRANCH   8  20
BRANCH  11  24
HETATM   24  C   UNL     1      -8.985   7.825  68.015  1.00  0.00    -0.126 A  
HETATM   25  C   UNL     1     -10.005   7.831  67.043  1.00  0.00    -0.314 A  
HETATM   26  C   UNL     1     -10.926   6.781  66.964  1.00  0.00    -0.439 A  
HETATM   27  C   UNL     1     -10.844   5.702  67.839  1.00  0.00    -0.171 A  
HETATM   28  C   UNL     1      -9.836   5.669  68.799  1.00  0.00    -0.193 A  
HETATM   29  C   UNL     1      -8.916   6.720  68.894  1.00  0.00    -0.131 A  
HETATM   30 CL   UNL     1      -7.741   6.603  70.163  1.00  0.00    -0.100 Cl 
ENDBRANCH  11  24
ENDBRANCH   4   6
ENDBRANCH   3   4
ENDBRANCH   2   3
TORSDOF 10
ENDMDL
MODEL      160
REMARK 921   NORMALIZED FREE ENERGY PREDICTED BY IDOCK:   -3.18 KCAL/MOL
REMARK 922        TOTAL FREE ENERGY PREDICTED BY IDOCK:   -6.60 KCAL/MOL
REMARK 923 INTER-LIGAND FREE ENERGY PREDICTED BY IDOCK:   -5.13 KCAL/MOL
REMARK 924 INTRA-LIGAND FREE ENERGY PREDICTED BY IDOCK:   -1.47 KCAL/MOL
REMARK 927      BINDING AFFINITY PREDICTED BY RF-SCORE:    0.00 PKD
ROOT
HETATM    1  C   UNL     1     -10.317  11.655  68.624  1.00  0.00    -0.229 C  
HETATM    2  C   UNL     1      -9.376  10.491  68.909  1.00  0.00    -0.187 C  
ENDROOT
BRANCH   2   3
HETATM    3  O   UNL     1     -10.120   9.342  69.335  1.00  0.00    -0.183 OA 
BRANCH   3   4
HETATM    4  C   UNL     1     -10.465   8.446  68.379  1.00  0.00    -0.164 C  
HETATM    5  O   UNL     1     -10.902   8.779  67.289  1.00  0.00    -0.214 OA 
BRANCH   4   6
HETATM    6  C   UNL     1     -10.198   7.027  68.808  1.00  0.00    -0.181 C  
HETATM    7  C   UNL     1     -10.925   6.393  69.767  1.00  0.00    -0.356 C  
HETATM    8  C   UNL     1      -8.715   4.897  68.737  1.00  0.00    -0.105 C  
HETATM    9  N   UNL     1     -10.640   5.082  70.104  1.00  0.00    -0.169 NA 
HETATM   10  C   UNL     1      -9.537   4.371  69.679  1.00  0.00    -0.205 C  
HETATM   11  C   UNL     1      -9.030   6.274  68.102  1.00  0.00    -0.115 C  
HETATM   12  C   UNL     1      -9.368   3.009  70.312  1.00  0.00    -0.228 C  
BRANCH   7  13
HETATM   13  C   UNL     1     -12.064   7.023  70.554  1.00  0.00    -0.229 C  
BRANCH  13  14
HETATM   14  O   UNL     1     -11.741   7.219  71.942  1.00  0.00    -0.270 OA 
BRANCH  14  15
HETATM   15  C   UNL     1     -11.816   8.632  72.222  1.00  0.00    -0.366 C  
BRANCH  15  16
HETATM   16  C   UNL     1     -13.098   9.233  71.649  1.00  0.00    -0.382 C  
HETATM   17  N   UNL     1     -14.183   9.183  72.631  1.00  0.00    -0.883 NA 
HETATM   18  H2  UNL     1     -13.918   9.628  73.509  1.00  0.00     0.000 HD 
HETATM   19  H1  UNL     1     -15.039   9.584  72.250  1.00  0.00     0.000 HD 
ENDBRANCH  15  16
ENDBRANCH  14  15
ENDBRANCH  13  14
ENDBRANCH   7  13
BRANCH   8  20
HETATM   20  C   UNL     1      -7.510   4.126  68.314  1.00  0.00    -0.063 C  
HETATM   21  O   UNL     1      -7.417   3.522  67.255  1.00  0.00    -0.072 OA 
BRANCH  20  22
HETATM   22  O   UNL     1      -6.529   4.180  69.249  1.00  0.00    -0.031 OA 
HETATM   23  C   UNL     1      -5.729   2.995  69.340  1.00  0.00    -0.022 C  
ENDBRANCH  20  22
ENDBRANCH   8  20
BRANCH  11  24
HETATM   24  C   UNL     1      -7.781   7.151  67.927  1.00  0.00    -0.113 A  
HETATM   25  C   UNL     1      -7.288   7.423  66.636  1.00  0.00    -0.084 A  
HETATM   26  C   UNL     1      -6.097   8.136  66.459  1.00  0.00    -0.049 A  
HETATM   27  C   UNL     1      -5.383   8.601  67.559  1.00  0.00    -0.035 A  
HETATM   28  C   UNL     1      -5.860   8.356  68.843  1.00  0.00    -0.040 A  
HETATM   29  C   UNL     1      -7.044   7.634  69.033  1.00  0.00    -0.078 A  
HETATM   30 CL   UNL     1      -7.511   7.336  70.675  1.00  0.00    -0.078 Cl 
ENDBRANCH  11  24
ENDBRANCH   4   6
ENDBRANCH   3   4
ENDBRANCH   2   3
TORSDOF 10
ENDMDL
MODEL      161
REMARK 921   NORMALIZED FREE ENERGY PREDICTED BY IDOCK:   -3.16 KCAL/MOL
REMARK 922        TOTAL FREE ENERGY PREDICTED BY IDOCK:   -6.56 KCAL/MOL
REMARK 923 INTER-LIGAND FREE ENERGY PREDICTED BY IDOCK:   -5.19 KCAL/MOL
REMARK 924 INTRA-LIGAND FREE ENERGY PREDICTED BY IDOCK:   -1.37 KCAL/MOL
REMARK 927      BINDING AFFINITY PREDICTED BY RF-SCORE:    0.00 PKD
ROOT
HETATM    1  C   UNL     1      -7.284  13.736  68.562  1.00  0.00    -0.108 C  
HETATM    2  C   UNL     1      -6.733  12.405  69.057  1.00  0.00    -0.100 C  
ENDROOT
BRANCH   2   3
HETATM    3  O   UNL     1      -7.608  11.333  68.684  1.00  0.00    -0.113 OA 
BRANCH   3   4
HETATM    4  C   UNL     1      -7.093  10.374  67.878  1.00  0.00    -0.083 C  
HETATM    5  O   UNL     1      -5.946  10.406  67.463  1.00  0.00    -0.052 OA 
BRANCH   4   6
HETATM    6  C   UNL     1      -8.080   9.269  67.609  1.00  0.00    -0.104 C  
HETATM    7  C   UNL     1      -9.126   9.400  66.749  1.00  0.00    -0.140 C  
HETATM    8  C   UNL     1      -9.030   6.917  68.167  1.00  0.00    -0.123 C  
HETATM    9  N   UNL     1      -9.988   8.340  66.534  1.00  0.00    -0.266 NA 
HETATM   10  C   UNL     1     -10.007   7.168  67.259  1.00  0.00    -0.186 C  
HETATM   11  C   UNL     1      -7.868   7.921  68.363  1.00  0.00    -0.120 C  
HETATM   12  C   UNL     1     -11.146   6.229  66.933  1.00  0.00    -0.329 C  
BRANCH   7  13
HETATM   13  C   UNL     1      -9.465  10.668  65.979  1.00  0.00    -0.193 C  
BRANCH  13  14
HETATM   14  O   UNL     1     -10.381  10.433  64.895  1.00  0.00    -0.317 OA 
BRANCH  14  15
HETATM   15  C   UNL     1      -9.999  11.286  63.797  1.00  0.00    -0.342 C  
BRANCH  15  16
HETATM   16  C   UNL     1     -11.097  12.305  63.492  1.00  0.00    -0.464 C  
HETATM   17  N   UNL     1     -12.322  11.637  63.048  1.00  0.00    -0.956 NA 
HETATM   18  H2  UNL     1     -12.634  10.938  63.721  1.00  0.00     0.000 HD 
HETATM   19  H1  UNL     1     -13.055  12.316  62.845  1.00  0.00     0.000 HD 
ENDBRANCH  15  16
ENDBRANCH  14  15
ENDBRANCH  13  14
ENDBRANCH   7  13
BRANCH   8  20
HETATM   20  C   UNL     1      -9.087   5.658  68.964  1.00  0.00    -0.111 C  
HETATM   21  O   UNL     1      -9.820   5.487  69.928  1.00  0.00    -0.166 OA 
BRANCH  20  22
HETATM   22  O   UNL     1      -8.228   4.725  68.486  1.00  0.00    -0.084 OA 
HETATM   23  C   UNL     1      -8.758   3.394  68.444  1.00  0.00    -0.102 C  
ENDBRANCH  20  22
ENDBRANCH   8  20
BRANCH  11  24
HETATM   24  C   UNL     1      -7.496   8.123  69.840  1.00  0.00    -0.069 A  
HETATM   25  C   UNL     1      -6.212   7.764  70.298  1.00  0.00    -0.033 A  
HETATM   26  C   UNL     1      -5.886   7.847  71.655  1.00  0.00    -0.035 A  
HETATM   27  C   UNL     1      -6.824   8.297  72.580  1.00  0.00    -0.107 A  
HETATM   28  C   UNL     1      -8.093   8.670  72.148  1.00  0.00    -0.110 A  
HETATM   29  C   UNL     1      -8.434   8.581  70.793  1.00  0.00    -0.149 A  
HETATM   30 CL   UNL     1     -10.059   9.014  70.377  1.00  0.00    -0.228 Cl 
ENDBRANCH  11  24
ENDBRANCH   4   6
ENDBRANCH   3   4
ENDBRANCH   2   3
TORSDOF 10
ENDMDL
MODEL      162
REMARK 921   NORMALIZED FREE ENERGY PREDICTED BY IDOCK:   -3.13 KCAL/MOL
REMARK 922        TOTAL FREE ENERGY PREDICTED BY IDOCK:   -6.52 KCAL/MOL
REMARK 923 INTER-LIGAND FREE ENERGY PREDICTED BY IDOCK:   -4.92 KCAL/MOL
REMARK 924 INTRA-LIGAND FREE ENERGY PREDICTED BY IDOCK:   -1.60 KCAL/MOL
REMARK 927      BINDING AFFINITY PREDICTED BY RF-SCORE:    0.00 PKD
ROOT
HETATM    1  C   UNL     1      -9.492   3.963  64.862  1.00  0.00    -0.170 C  
HETATM    2  C   UNL     1     -10.072   4.701  66.062  1.00  0.00    -0.264 C  
ENDROOT
BRANCH   2   3
HETATM    3  O   UNL     1      -9.448   5.983  66.206  1.00  0.00    -0.159 OA 
BRANCH   3   4
HETATM    4  C   UNL     1     -10.131   6.921  66.904  1.00  0.00    -0.218 C  
HETATM    5  O   UNL     1     -11.349   7.000  66.889  1.00  0.00    -0.199 OA 
BRANCH   4   6
HETATM    6  C   UNL     1      -9.217   7.799  67.719  1.00  0.00    -0.143 C  
HETATM    7  C   UNL     1      -9.166   7.759  69.078  1.00  0.00    -0.143 C  
HETATM    8  C   UNL     1      -7.535   9.771  67.866  1.00  0.00    -0.086 C  
HETATM    9  N   UNL     1      -8.293   8.580  69.767  1.00  0.00    -0.121 NA 
HETATM   10  C   UNL     1      -7.557   9.606  69.212  1.00  0.00    -0.091 C  
HETATM   11  C   UNL     1      -8.296   8.788  66.943  1.00  0.00    -0.108 C  
HETATM   12  C   UNL     1      -6.796  10.458  70.201  1.00  0.00    -0.155 C  
BRANCH   7  13
HETATM   13  C   UNL     1     -10.033   6.866  69.954  1.00  0.00    -0.176 C  
BRANCH  13  14
HETATM   14  O   UNL     1      -9.817   5.465  69.708  1.00  0.00    -0.166 OA 
BRANCH  14  15
HETATM   15  C   UNL     1      -8.558   5.097  70.308  1.00  0.00    -0.112 C  
BRANCH  15  16
HETATM   16  C   UNL     1      -8.627   5.206  71.830  1.00  0.00    -0.130 C  
HETATM   17  N   UNL     1      -7.454   5.905  72.358  1.00  0.00    -0.098 NA 
HETATM   18  H2  UNL     1      -7.332   6.818  71.921  1.00  0.00     0.000 HD 
HETATM   19  H1  UNL     1      -7.500   5.978  73.374  1.00  0.00     0.000 HD 
ENDBRANCH  15  16
ENDBRANCH  14  15
ENDBRANCH  13  14
ENDBRANCH   7  13
BRANCH   8  20
HETATM   20  C   UNL     1      -6.760  10.908  67.288  1.00  0.00    -0.082 C  
HETATM   21  O   UNL     1      -7.189  12.048  67.179  1.00  0.00    -0.139 OA 
BRANCH  20  22
HETATM   22  O   UNL     1      -5.520  10.521  66.901  1.00  0.00    -0.040 OA 
HETATM   23  C   UNL     1      -5.269  10.648  65.496  1.00  0.00    -0.124 C  
ENDBRANCH  20  22
ENDBRANCH   8  20
BRANCH  11  24
HETATM   24  C   UNL     1      -9.026   9.494  65.790  1.00  0.00    -0.219 A  
HETATM   25  C   UNL     1      -8.616   9.276  64.460  1.00  0.00    -0.217 A  
HETATM   26  C   UNL     1      -9.201   9.984  63.404  1.00  0.00    -0.317 A  
HETATM   27  C   UNL     1     -10.210  10.910  63.649  1.00  0.00    -0.395 A  
HETATM   28  C   UNL     1     -10.640  11.131  64.955  1.00  0.00    -0.356 A  
HETATM   29  C   UNL     1     -10.054  10.437  66.020  1.00  0.00    -0.243 A  
HETATM   30 CL   UNL     1     -10.626  10.834  67.607  1.00  0.00    -0.250 Cl 
ENDBRANCH  11  24
ENDBRANCH   4   6
ENDBRANCH   3   4
ENDBRANCH   2   3
TORSDOF 10
ENDMDL
MODEL      163
REMARK 921   NORMALIZED FREE ENERGY PREDICTED BY IDOCK:   -3.12 KCAL/MOL
REMARK 922        TOTAL FREE ENERGY PREDICTED BY IDOCK:   -6.49 KCAL/MOL
REMARK 923 INTER-LIGAND FREE ENERGY PREDICTED BY IDOCK:   -5.35 KCAL/MOL
REMARK 924 INTRA-LIGAND FREE ENERGY PREDICTED BY IDOCK:   -1.15 KCAL/MOL
REMARK 927      BINDING AFFINITY PREDICTED BY RF-SCORE:    0.00 PKD
ROOT
HETATM    1  C   UNL     1     -11.343  15.633  70.199  1.00  0.00    -0.354 C  
HETATM    2  C   UNL     1     -10.017  15.478  69.465  1.00  0.00    -0.280 C  
ENDROOT
BRANCH   2   3
HETATM    3  O   UNL     1     -10.237  14.971  68.142  1.00  0.00    -0.218 OA 
BRANCH   3   4
HETATM    4  C   UNL     1      -9.143  14.582  67.445  1.00  0.00    -0.196 C  
HETATM    5  O   UNL     1      -8.858  15.042  66.352  1.00  0.00    -0.273 OA 
BRANCH   4   6
HETATM    6  C   UNL     1      -8.320  13.570  68.199  1.00  0.00    -0.167 C  
HETATM    7  C   UNL     1      -7.145  13.877  68.812  1.00  0.00    -0.109 C  
HETATM    8  C   UNL     1      -7.867  11.111  68.898  1.00  0.00    -0.131 C  
HETATM    9  N   UNL     1      -6.445  12.905  69.503  1.00  0.00    -0.104 NA 
HETATM   10  C   UNL     1      -6.733  11.556  69.493  1.00  0.00    -0.106 C  
HETATM   11  C   UNL     1      -8.866  12.111  68.267  1.00  0.00    -0.182 C  
HETATM   12  C   UNL     1      -5.725  10.680  70.201  1.00  0.00    -0.076 C  
BRANCH   7  13
HETATM   13  C   UNL     1      -6.487  15.249  68.794  1.00  0.00    -0.097 C  
BRANCH  13  14
HETATM   14  O   UNL     1      -7.178  16.208  69.614  1.00  0.00    -0.185 OA 
BRANCH  14  15
HETATM   15  C   UNL     1      -6.818  17.528  69.155  1.00  0.00    -0.232 C  
BRANCH  15  16
HETATM   16  C   UNL     1      -7.963  18.160  68.365  1.00  0.00    -0.302 C  
HETATM   17  N   UNL     1      -7.900  17.775  66.954  1.00  0.00    -0.214 NA 
HETATM   18  H2  UNL     1      -7.879  16.762  66.840  1.00  0.00     0.000 HD 
HETATM   19  H1  UNL     1      -8.663  18.197  66.426  1.00  0.00     0.000 HD 
ENDBRANCH  15  16
ENDBRANCH  14  15
ENDBRANCH  13  14
ENDBRANCH   7  13
BRANCH   8  20
HETATM   20  C   UNL     1      -8.143   9.644  68.869  1.00  0.00    -0.098 C  
HETATM   21  O   UNL     1      -7.521   8.842  68.187  1.00  0.00    -0.090 OA 
BRANCH  20  22
HETATM   22  O   UNL     1      -9.165   9.312  69.694  1.00  0.00    -0.156 OA 
HETATM   23  C   UNL     1      -9.090   7.986  70.230  1.00  0.00    -0.148 C  
ENDBRANCH  20  22
ENDBRANCH   8  20
BRANCH  11  24
HETATM   24  C   UNL     1      -9.427  11.628  66.921  1.00  0.00    -0.195 A  
HETATM   25  C   UNL     1      -8.550  11.187  65.910  1.00  0.00    -0.135 A  
HETATM   26  C   UNL     1      -9.032  10.837  64.645  1.00  0.00    -0.191 A  
HETATM   27  C   UNL     1     -10.394  10.907  64.364  1.00  0.00    -0.430 A  
HETATM   28  C   UNL     1     -11.280  11.326  65.352  1.00  0.00    -0.066 A  
HETATM   29  C   UNL     1     -10.807  11.689  66.619  1.00  0.00    -0.283 A  
HETATM   30 CL   UNL     1     -11.991  12.253  67.752  1.00  0.00    -0.332 Cl 
ENDBRANCH  11  24
ENDBRANCH   4   6
ENDBRANCH   3   4
ENDBRANCH   2   3
TORSDOF 10
ENDMDL
MODEL      164
REMARK 921   NORMALIZED FREE ENERGY PREDICTED BY IDOCK:   -3.10 KCAL/MOL
REMARK 922        TOTAL FREE ENERGY PREDICTED BY IDOCK:   -6.48 KCAL/MOL
REMARK 923 INTER-LIGAND FREE ENERGY PREDICTED BY IDOCK:   -5.02 KCAL/MOL
REMARK 924 INTRA-LIGAND FREE ENERGY PREDICTED BY IDOCK:   -1.46 KCAL/MOL
REMARK 927      BINDING AFFINITY PREDICTED BY RF-SCORE:    0.00 PKD
ROOT
HETATM    1  C   UNL     1     -10.331   5.272  70.632  1.00  0.00    -0.324 C  
HETATM    2  C   UNL     1     -10.976   5.869  69.388  1.00  0.00    -0.350 C  
ENDROOT
BRANCH   2   3
HETATM    3  O   UNL     1      -9.980   6.150  68.396  1.00  0.00    -0.128 OA 
BRANCH   3   4
HETATM    4  C   UNL     1     -10.370   6.879  67.324  1.00  0.00    -0.251 C  
HETATM    5  O   UNL     1     -11.441   6.709  66.764  1.00  0.00    -0.139 OA 
BRANCH   4   6
HETATM    6  C   UNL     1      -9.358   7.933  66.956  1.00  0.00    -0.200 C  
HETATM    7  C   UNL     1      -8.164   7.643  66.373  1.00  0.00    -0.124 C  
HETATM    8  C   UNL     1      -8.555  10.401  67.024  1.00  0.00    -0.130 C  
HETATM    9  N   UNL     1      -7.285   8.658  66.043  1.00  0.00    -0.083 NA 
HETATM   10  C   UNL     1      -7.418   9.980  66.416  1.00  0.00    -0.104 C  
HETATM   11  C   UNL     1      -9.725   9.416  67.265  1.00  0.00    -0.215 C  
HETATM   12  C   UNL     1      -6.244  10.866  66.066  1.00  0.00    -0.115 C  
BRANCH   7  13
HETATM   13  C   UNL     1      -7.672   6.240  66.050  1.00  0.00    -0.092 C  
BRANCH  13  14
HETATM   14  O   UNL     1      -8.238   5.717  64.835  1.00  0.00    -0.125 OA 
BRANCH  14  15
HETATM   15  C   UNL     1      -7.232   4.917  64.183  1.00  0.00    -0.051 C  
BRANCH  15  16
HETATM   16  C   UNL     1      -5.921   4.944  64.967  1.00  0.00    -0.021 C  
HETATM   17  N   UNL     1      -5.511   3.591  65.350  1.00  0.00    -0.009 NA 
HETATM   18  H2  UNL     1      -5.453   2.973  64.541  1.00  0.00     0.000 HD 
HETATM   19  H1  UNL     1      -4.637   3.609  65.873  1.00  0.00     0.000 HD 
ENDBRANCH  15  16
ENDBRANCH  14  15
ENDBRANCH  13  14
ENDBRANCH   7  13
BRANCH   8  20
HETATM   20  C   UNL     1      -8.665  11.827  67.448  1.00  0.00    -0.162 C  
HETATM   21  O   UNL     1      -8.174  12.279  68.473  1.00  0.00    -0.153 OA 
BRANCH  20  22
HETATM   22  O   UNL     1      -9.373  12.560  66.556  1.00  0.00    -0.234 OA 
HETATM   23  C   UNL     1      -9.540  13.937  66.916  1.00  0.00    -0.269 C  
ENDBRANCH  20  22
ENDBRANCH   8  20
BRANCH  11  24
HETATM   24  C   UNL     1     -10.376   9.588  68.645  1.00  0.00    -0.229 A  
HETATM   25  C   UNL     1     -11.629  10.223  68.758  1.00  0.00    -0.118 A  
HETATM   26  C   UNL     1     -12.193  10.478  70.013  1.00  0.00    -0.323 A  
HETATM   27  C   UNL     1     -11.530  10.097  71.175  1.00  0.00    -0.387 A  
HETATM   28  C   UNL     1     -10.298   9.456  71.086  1.00  0.00    -0.377 A  
HETATM   29  C   UNL     1      -9.719   9.205  69.837  1.00  0.00    -0.191 A  
HETATM   30 CL   UNL     1      -8.156   8.456  69.847  1.00  0.00    -0.116 Cl 
ENDBRANCH  11  24
ENDBRANCH   4   6
ENDBRANCH   3   4
ENDBRANCH   2   3
TORSDOF 10
ENDMDL
MODEL      165
REMARK 921   NORMALIZED FREE ENERGY PREDICTED BY IDOCK:   -3.10 KCAL/MOL
REMARK 922        TOTAL FREE ENERGY PREDICTED BY IDOCK:   -6.47 KCAL/MOL
REMARK 923 INTER-LIGAND FREE ENERGY PREDICTED BY IDOCK:   -4.67 KCAL/MOL
REMARK 924 INTRA-LIGAND FREE ENERGY PREDICTED BY IDOCK:   -1.80 KCAL/MOL
REMARK 927      BINDING AFFINITY PREDICTED BY RF-SCORE:    0.00 PKD
ROOT
HETATM    1  C   UNL     1      -9.660   4.789  65.720  1.00  0.00    -0.187 C  
HETATM    2  C   UNL     1     -10.729   5.268  66.693  1.00  0.00    -0.200 C  
ENDROOT
BRANCH   2   3
HETATM    3  O   UNL     1     -10.254   5.174  68.042  1.00  0.00    -0.164 OA 
BRANCH   3   4
HETATM    4  C   UNL     1     -10.682   6.121  68.910  1.00  0.00    -0.312 C  
HETATM    5  O   UNL     1     -11.863   6.386  69.069  1.00  0.00     0.009 OA 
BRANCH   4   6
HETATM    6  C   UNL     1      -9.544   6.751  69.670  1.00  0.00    -0.150 C  
HETATM    7  C   UNL     1      -9.274   6.467  70.973  1.00  0.00    -0.160 C  
HETATM    8  C   UNL     1      -7.628   8.498  69.811  1.00  0.00    -0.083 C  
HETATM    9  N   UNL     1      -8.203   7.067  71.609  1.00  0.00    -0.104 NA 
HETATM   10  C   UNL     1      -7.448   8.101  71.095  1.00  0.00    -0.074 C  
HETATM   11  C   UNL     1      -8.647   7.769  68.902  1.00  0.00    -0.132 C  
HETATM   12  C   UNL     1      -6.433   8.690  72.049  1.00  0.00    -0.074 C  
BRANCH   7  13
HETATM   13  C   UNL     1     -10.088   5.521  71.844  1.00  0.00    -0.189 C  
BRANCH  13  14
HETATM   14  O   UNL     1     -10.851   6.210  72.851  1.00  0.00    -0.236 OA 
BRANCH  14  15
HETATM   15  C   UNL     1     -10.394   5.758  74.142  1.00  0.00    -0.282 C  
BRANCH  15  16
HETATM   16  C   UNL     1      -9.311   4.690  73.993  1.00  0.00    -0.117 C  
HETATM   17  N   UNL     1      -8.013   5.195  74.444  1.00  0.00    -0.096 NA 
HETATM   18  H2  UNL     1      -8.059   5.555  75.397  1.00  0.00     0.000 HD 
HETATM   19  H1  UNL     1      -7.290   4.483  74.345  1.00  0.00     0.000 HD 
ENDBRANCH  15  16
ENDBRANCH  14  15
ENDBRANCH  13  14
ENDBRANCH   7  13
BRANCH   8  20
HETATM   20  C   UNL     1      -6.824   9.639  69.285  1.00  0.00    -0.050 C  
HETATM   21  O   UNL     1      -5.786   9.513  68.650  1.00  0.00    -0.040 OA 
BRANCH  20  22
HETATM   22  O   UNL     1      -7.387  10.832  69.595  1.00  0.00    -0.145 OA 
HETATM   23  C   UNL     1      -7.371  11.791  68.531  1.00  0.00    -0.103 C  
ENDBRANCH  20  22
ENDBRANCH   8  20
BRANCH  11  24
HETATM   24  C   UNL     1      -9.464   8.732  68.028  1.00  0.00    -0.158 A  
HETATM   25  C   UNL     1      -9.253   8.770  66.635  1.00  0.00    -0.223 A  
HETATM   26  C   UNL     1      -9.914   9.708  65.835  1.00  0.00    -0.351 A  
HETATM   27  C   UNL     1     -10.804  10.616  66.400  1.00  0.00    -0.132 A  
HETATM   28  C   UNL     1     -11.038  10.587  67.772  1.00  0.00    -0.382 A  
HETATM   29  C   UNL     1     -10.374   9.660  68.584  1.00  0.00    -0.203 A  
HETATM   30 CL   UNL     1     -10.697   9.754  70.284  1.00  0.00    -0.331 Cl 
ENDBRANCH  11  24
ENDBRANCH   4   6
ENDBRANCH   3   4
ENDBRANCH   2   3
TORSDOF 10
ENDMDL
MODEL      166
REMARK 921   NORMALIZED FREE ENERGY PREDICTED BY IDOCK:   -3.05 KCAL/MOL
REMARK 922        TOTAL FREE ENERGY PREDICTED BY IDOCK:   -6.39 KCAL/MOL
REMARK 923 INTER-LIGAND FREE ENERGY PREDICTED BY IDOCK:   -4.96 KCAL/MOL
REMARK 924 INTRA-LIGAND FREE ENERGY PREDICTED BY IDOCK:   -1.43 KCAL/MOL
REMARK 927      BINDING AFFINITY PREDICTED BY RF-SCORE:    0.00 PKD
ROOT
HETATM    1  C   UNL     1     -11.286  15.628  70.594  1.00  0.00    -0.392 C  
HETATM    2  C   UNL     1     -10.061  15.832  69.713  1.00  0.00    -0.276 C  
ENDROOT
BRANCH   2   3
HETATM    3  O   UNL     1     -10.424  15.753  68.329  1.00  0.00    -0.246 OA 
BRANCH   3   4
HETATM    4  C   UNL     1      -9.422  15.539  67.443  1.00  0.00    -0.211 C  
HETATM    5  O   UNL     1      -9.055  16.386  66.644  1.00  0.00    -0.214 OA 
BRANCH   4   6
HETATM    6  C   UNL     1      -8.806  14.174  67.603  1.00  0.00    -0.194 C  
HETATM    7  C   UNL     1      -7.481  13.982  67.846  1.00  0.00    -0.149 C  
HETATM    8  C   UNL     1      -9.003  11.588  67.476  1.00  0.00    -0.159 C  
HETATM    9  N   UNL     1      -6.979  12.702  68.000  1.00  0.00    -0.086 NA 
HETATM   10  C   UNL     1      -7.676  11.538  67.751  1.00  0.00    -0.124 C  
HETATM   11  C   UNL     1      -9.753  12.942  67.483  1.00  0.00    -0.205 C  
HETATM   12  C   UNL     1      -6.858  10.269  67.841  1.00  0.00    -0.074 C  
BRANCH   7  13
HETATM   13  C   UNL     1      -6.446  15.092  67.952  1.00  0.00    -0.159 C  
BRANCH  13  14
HETATM   14  O   UNL     1      -5.459  14.838  68.968  1.00  0.00    -0.091 OA 
BRANCH  14  15
HETATM   15  C   UNL     1      -5.943  15.393  70.208  1.00  0.00    -0.120 C  
BRANCH  15  16
HETATM   16  C   UNL     1      -5.755  14.404  71.357  1.00  0.00    -0.155 C  
HETATM   17  N   UNL     1      -6.095  13.044  70.938  1.00  0.00    -0.536 NA 
HETATM   18  H2  UNL     1      -5.570  12.763  70.110  1.00  0.00     0.000 HD 
HETATM   19  H1  UNL     1      -5.969  12.383  71.704  1.00  0.00     0.000 HD 
ENDBRANCH  15  16
ENDBRANCH  14  15
ENDBRANCH  13  14
ENDBRANCH   7  13
BRANCH   8  20
HETATM   20  C   UNL     1      -9.730  10.320  67.176  1.00  0.00    -0.173 C  
HETATM   21  O   UNL     1     -10.092   9.519  68.026  1.00  0.00    -0.170 OA 
BRANCH  20  22
HETATM   22  O   UNL     1      -9.942  10.168  65.846  1.00  0.00    -0.240 OA 
HETATM   23  C   UNL     1      -9.097   9.196  65.217  1.00  0.00    -0.195 C  
ENDBRANCH  20  22
ENDBRANCH   8  20
BRANCH  11  24
HETATM   24  C   UNL     1     -10.754  13.077  66.326  1.00  0.00    -0.290 A  
HETATM   25  C   UNL     1     -10.293  13.085  64.994  1.00  0.00    -0.336 A  
HETATM   26  C   UNL     1     -11.175  13.307  63.931  1.00  0.00    -0.313 A  
HETATM   27  C   UNL     1     -12.531  13.513  64.170  1.00  0.00    -0.301 A  
HETATM   28  C   UNL     1     -13.010  13.495  65.477  1.00  0.00    -0.269 A  
HETATM   29  C   UNL     1     -12.135  13.286  66.549  1.00  0.00    -0.375 A  
HETATM   30 CL   UNL     1     -12.830  13.344  68.135  1.00  0.00     1.098 Cl 
ENDBRANCH  11  24
ENDBRANCH   4   6
ENDBRANCH   3   4
ENDBRANCH   2   3
TORSDOF 10
ENDMDL
MODEL      167
REMARK 921   NORMALIZED FREE ENERGY PREDICTED BY IDOCK:   -3.01 KCAL/MOL
REMARK 922        TOTAL FREE ENERGY PREDICTED BY IDOCK:   -6.33 KCAL/MOL
REMARK 923 INTER-LIGAND FREE ENERGY PREDICTED BY IDOCK:   -4.93 KCAL/MOL
REMARK 924 INTRA-LIGAND FREE ENERGY PREDICTED BY IDOCK:   -1.41 KCAL/MOL
REMARK 927      BINDING AFFINITY PREDICTED BY RF-SCORE:    0.00 PKD
ROOT
HETATM    1  C   UNL     1     -10.556  11.740  68.384  1.00  0.00    -0.239 C  
HETATM    2  C   UNL     1      -9.634  10.563  68.676  1.00  0.00    -0.171 C  
ENDROOT
BRANCH   2   3
HETATM    3  O   UNL     1     -10.318   9.578  69.463  1.00  0.00    -0.195 OA 
BRANCH   3   4
HETATM    4  C   UNL     1     -10.457   8.347  68.917  1.00  0.00    -0.189 C  
HETATM    5  O   UNL     1     -10.559   8.165  67.714  1.00  0.00    -0.222 OA 
BRANCH   4   6
HETATM    6  C   UNL     1     -10.420   7.258  69.957  1.00  0.00    -0.234 C  
HETATM    7  C   UNL     1     -11.505   6.899  70.695  1.00  0.00    -0.336 C  
HETATM    8  C   UNL     1      -9.076   5.556  71.384  1.00  0.00    -0.157 C  
HETATM    9  N   UNL     1     -11.410   5.879  71.624  1.00  0.00    -0.246 NA 
HETATM   10  C   UNL     1     -10.237   5.273  72.025  1.00  0.00    -0.203 C  
HETATM   11  C   UNL     1      -9.063   6.522  70.175  1.00  0.00    -0.155 C  
HETATM   12  C   UNL     1     -10.379   4.293  73.167  1.00  0.00    -0.237 C  
BRANCH   7  13
HETATM   13  C   UNL     1     -12.874   7.558  70.606  1.00  0.00     0.226 C  
BRANCH  13  14
HETATM   14  O   UNL     1     -13.682   7.323  71.772  1.00  0.00    -0.358 OA 
BRANCH  14  15
HETATM   15  C   UNL     1     -14.162   8.598  72.246  1.00  0.00    -0.417 C  
BRANCH  15  16
HETATM   16  C   UNL     1     -13.004   9.573  72.451  1.00  0.00    -0.317 C  
HETATM   17  N   UNL     1     -13.351  10.908  71.961  1.00  0.00    -0.525 NA 
HETATM   18  H2  UNL     1     -14.213  11.252  72.385  1.00  0.00     0.000 HD 
HETATM   19  H1  UNL     1     -12.579  11.560  72.098  1.00  0.00     0.000 HD 
ENDBRANCH  15  16
ENDBRANCH  14  15
ENDBRANCH  13  14
ENDBRANCH   7  13
BRANCH   8  20
HETATM   20  C   UNL     1      -7.813   4.914  71.855  1.00  0.00    -0.108 C  
HETATM   21  O   UNL     1      -7.221   4.035  71.245  1.00  0.00    -0.035 OA 
BRANCH  20  22
HETATM   22  O   UNL     1      -7.404   5.429  73.040  1.00  0.00    -0.088 OA 
HETATM   23  C   UNL     1      -6.747   4.490  73.901  1.00  0.00    -0.063 C  
ENDBRANCH  20  22
ENDBRANCH   8  20
BRANCH  11  24
HETATM   24  C   UNL     1      -7.866   7.483  70.190  1.00  0.00    -0.098 A  
HETATM   25  C   UNL     1      -6.907   7.432  69.159  1.00  0.00    -0.060 A  
HETATM   26  C   UNL     1      -5.759   8.229  69.205  1.00  0.00    -0.031 A  
HETATM   27  C   UNL     1      -5.547   9.100  70.270  1.00  0.00    -0.031 A  
HETATM   28  C   UNL     1      -6.488   9.177  71.294  1.00  0.00    -0.082 A  
HETATM   29  C   UNL     1      -7.635   8.376  71.262  1.00  0.00    -0.092 A  
HETATM   30 CL   UNL     1      -8.707   8.511  72.617  1.00  0.00    -0.262 Cl 
ENDBRANCH  11  24
ENDBRANCH   4   6
ENDBRANCH   3   4
ENDBRANCH   2   3
TORSDOF 10
ENDMDL
MODEL      168
REMARK 921   NORMALIZED FREE ENERGY PREDICTED BY IDOCK:   -2.97 KCAL/MOL
REMARK 922        TOTAL FREE ENERGY PREDICTED BY IDOCK:   -6.26 KCAL/MOL
REMARK 923 INTER-LIGAND FREE ENERGY PREDICTED BY IDOCK:   -4.67 KCAL/MOL
REMARK 924 INTRA-LIGAND FREE ENERGY PREDICTED BY IDOCK:   -1.59 KCAL/MOL
REMARK 927      BINDING AFFINITY PREDICTED BY RF-SCORE:    0.00 PKD
ROOT
HETATM    1  C   UNL     1     -14.409   7.887  71.466  1.00  0.00    -0.563 C  
HETATM    2  C   UNL     1     -12.936   7.659  71.781  1.00  0.00    -0.328 C  
ENDROOT
BRANCH   2   3
HETATM    3  O   UNL     1     -12.114   8.217  70.748  1.00  0.00    -0.206 OA 
BRANCH   3   4
HETATM    4  C   UNL     1     -10.854   8.575  71.094  1.00  0.00    -0.243 C  
HETATM    5  O   UNL     1     -10.617   9.457  71.904  1.00  0.00    -0.248 OA 
BRANCH   4   6
HETATM    6  C   UNL     1      -9.815   7.731  70.403  1.00  0.00    -0.183 C  
HETATM    7  C   UNL     1      -9.024   6.842  71.061  1.00  0.00    -0.145 C  
HETATM    8  C   UNL     1      -8.452   7.138  68.274  1.00  0.00    -0.124 C  
HETATM    9  N   UNL     1      -8.099   6.084  70.366  1.00  0.00    -0.110 NA 
HETATM   10  C   UNL     1      -7.755   6.264  69.042  1.00  0.00    -0.100 C  
HETATM   11  C   UNL     1      -9.663   7.904  68.861  1.00  0.00    -0.158 C  
HETATM   12  C   UNL     1      -6.605   5.412  68.557  1.00  0.00    -0.045 C  
BRANCH   7  13
HETATM   13  C   UNL     1      -9.048   6.602  72.563  1.00  0.00    -0.134 C  
BRANCH  13  14
HETATM   14  O   UNL     1      -8.090   5.615  72.985  1.00  0.00    -0.116 OA 
BRANCH  14  15
HETATM   15  C   UNL     1      -7.130   6.265  73.844  1.00  0.00    -0.083 C  
BRANCH  15  16
HETATM   16  C   UNL     1      -5.708   6.063  73.322  1.00  0.00    -0.037 C  
HETATM   17  N   UNL     1      -5.689   6.021  71.858  1.00  0.00    -0.030 NA 
HETATM   18  H2  UNL     1      -6.125   6.849  71.452  1.00  0.00     0.000 HD 
HETATM   19  H1  UNL     1      -4.741   5.886  71.509  1.00  0.00     0.000 HD 
ENDBRANCH  15  16
ENDBRANCH  14  15
ENDBRANCH  13  14
ENDBRANCH   7  13
BRANCH   8  20
HETATM   20  C   UNL     1      -8.042   7.342  66.854  1.00  0.00    -0.120 C  
HETATM   21  O   UNL     1      -8.595   6.818  65.897  1.00  0.00    -0.143 OA 
BRANCH  20  22
HETATM   22  O   UNL     1      -6.983   8.182  66.756  1.00  0.00    -0.070 OA 
HETATM   23  C   UNL     1      -6.989   9.012  65.588  1.00  0.00    -0.080 C  
ENDBRANCH  20  22
ENDBRANCH   8  20
BRANCH  11  24
HETATM   24  C   UNL     1      -9.708   9.375  68.424  1.00  0.00    -0.163 A  
HETATM   25  C   UNL     1     -10.747   9.831  67.589  1.00  0.00    -0.334 A  
HETATM   26  C   UNL     1     -10.752  11.141  67.099  1.00  0.00    -0.305 A  
HETATM   27  C   UNL     1      -9.733  12.026  67.440  1.00  0.00    -0.185 A  
HETATM   28  C   UNL     1      -8.704  11.601  68.275  1.00  0.00    -0.163 A  
HETATM   29  C   UNL     1      -8.683  10.289  68.762  1.00  0.00    -0.144 A  
HETATM   30 CL   UNL     1      -7.323   9.853  69.744  1.00  0.00    -0.111 Cl 
ENDBRANCH  11  24
ENDBRANCH   4   6
ENDBRANCH   3   4
ENDBRANCH   2   3
TORSDOF 10
ENDMDL
MODEL      169
REMARK 921   NORMALIZED FREE ENERGY PREDICTED BY IDOCK:   -2.96 KCAL/MOL
REMARK 922        TOTAL FREE ENERGY PREDICTED BY IDOCK:   -6.25 KCAL/MOL
REMARK 923 INTER-LIGAND FREE ENERGY PREDICTED BY IDOCK:   -4.83 KCAL/MOL
REMARK 924 INTRA-LIGAND FREE ENERGY PREDICTED BY IDOCK:   -1.42 KCAL/MOL
REMARK 927      BINDING AFFINITY PREDICTED BY RF-SCORE:    0.00 PKD
ROOT
HETATM    1  C   UNL     1     -12.530  13.540  66.289  1.00  0.00    -0.384 C  
HETATM    2  C   UNL     1     -11.105  13.037  66.478  1.00  0.00    -0.288 C  
ENDROOT
BRANCH   2   3
HETATM    3  O   UNL     1     -11.103  11.626  66.729  1.00  0.00    -0.284 OA 
BRANCH   3   4
HETATM    4  C   UNL     1      -9.980  10.946  66.398  1.00  0.00    -0.221 C  
HETATM    5  O   UNL     1      -9.735  10.591  65.256  1.00  0.00    -0.227 OA 
BRANCH   4   6
HETATM    6  C   UNL     1      -9.074  10.735  67.583  1.00  0.00    -0.148 C  
HETATM    7  C   UNL     1      -8.061  11.584  67.904  1.00  0.00    -0.132 C  
HETATM    8  C   UNL     1      -8.246   9.247  69.543  1.00  0.00    -0.121 C  
HETATM    9  N   UNL     1      -7.276  11.343  69.016  1.00  0.00    -0.117 NA 
HETATM   10  C   UNL     1      -7.297  10.189  69.771  1.00  0.00    -0.158 C  
HETATM   11  C   UNL     1      -9.335   9.478  68.468  1.00  0.00    -0.138 C  
HETATM   12  C   UNL     1      -6.232  10.102  70.841  1.00  0.00    -0.027 C  
BRANCH   7  13
HETATM   13  C   UNL     1      -7.681  12.824  67.108  1.00  0.00    -0.067 C  
BRANCH  13  14
HETATM   14  O   UNL     1      -6.536  13.505  67.652  1.00  0.00    -0.159 OA 
BRANCH  14  15
HETATM   15  C   UNL     1      -6.826  14.918  67.671  1.00  0.00    -0.181 C  
BRANCH  15  16
HETATM   16  C   UNL     1      -7.416  15.334  69.017  1.00  0.00    -0.163 C  
HETATM   17  N   UNL     1      -7.092  16.729  69.321  1.00  0.00    -0.225 NA 
HETATM   18  H2  UNL     1      -7.386  17.356  68.572  1.00  0.00     0.000 HD 
HETATM   19  H1  UNL     1      -7.486  17.008  70.220  1.00  0.00     0.000 HD 
ENDBRANCH  15  16
ENDBRANCH  14  15
ENDBRANCH  13  14
ENDBRANCH   7  13
BRANCH   8  20
HETATM   20  C   UNL     1      -8.231   7.992  70.349  1.00  0.00    -0.118 C  
HETATM   21  O   UNL     1      -7.445   7.071  70.172  1.00  0.00    -0.082 OA 
BRANCH  20  22
HETATM   22  O   UNL     1      -9.193   7.999  71.304  1.00  0.00    -0.142 OA 
HETATM   23  C   UNL     1      -8.697   8.003  72.648  1.00  0.00    -0.191 C  
ENDBRANCH  20  22
ENDBRANCH   8  20
BRANCH  11  24
HETATM   24  C   UNL     1      -9.629   8.221  67.635  1.00  0.00    -0.187 A  
HETATM   25  C   UNL     1     -10.864   7.558  67.773  1.00  0.00    -0.156 A  
HETATM   26  C   UNL     1     -11.113   6.358  67.099  1.00  0.00    -0.422 A  
HETATM   27  C   UNL     1     -10.146   5.801  66.268  1.00  0.00    -0.129 A  
HETATM   28  C   UNL     1      -8.923   6.446  66.106  1.00  0.00    -0.162 A  
HETATM   29  C   UNL     1      -8.659   7.642  66.784  1.00  0.00    -0.129 A  
HETATM   30 CL   UNL     1      -7.083   8.326  66.555  1.00  0.00    -0.071 Cl 
ENDBRANCH  11  24
ENDBRANCH   4   6
ENDBRANCH   3   4
ENDBRANCH   2   3
TORSDOF 10
ENDMDL
MODEL      170
REMARK 921   NORMALIZED FREE ENERGY PREDICTED BY IDOCK:   -2.96 KCAL/MOL
REMARK 922        TOTAL FREE ENERGY PREDICTED BY IDOCK:   -6.25 KCAL/MOL
REMARK 923 INTER-LIGAND FREE ENERGY PREDICTED BY IDOCK:   -5.59 KCAL/MOL
REMARK 924 INTRA-LIGAND FREE ENERGY PREDICTED BY IDOCK:   -0.65 KCAL/MOL
REMARK 927      BINDING AFFINITY PREDICTED BY RF-SCORE:    0.00 PKD
ROOT
HETATM    1  C   UNL     1     -11.415   6.270  72.622  1.00  0.00    -0.255 C  
HETATM    2  C   UNL     1     -11.331   7.786  72.493  1.00  0.00    -0.374 C  
ENDROOT
BRANCH   2   3
HETATM    3  O   UNL     1     -11.099   8.158  71.128  1.00  0.00    -0.236 OA 
BRANCH   3   4
HETATM    4  C   UNL     1      -9.986   8.884  70.871  1.00  0.00    -0.242 C  
HETATM    5  O   UNL     1      -9.343   9.440  71.748  1.00  0.00    -0.238 OA 
BRANCH   4   6
HETATM    6  C   UNL     1      -9.627   8.875  69.408  1.00  0.00    -0.163 C  
HETATM    7  C   UNL     1     -10.221   9.686  68.493  1.00  0.00    -0.193 C  
HETATM    8  C   UNL     1      -8.350   7.812  67.413  1.00  0.00    -0.123 C  
HETATM    9  N   UNL     1      -9.834   9.641  67.166  1.00  0.00    -0.176 NA 
HETATM   10  C   UNL     1      -8.994   8.698  66.613  1.00  0.00    -0.145 C  
HETATM   11  C   UNL     1      -8.516   7.881  68.950  1.00  0.00    -0.128 C  
HETATM   12  C   UNL     1      -8.851   8.769  65.109  1.00  0.00    -0.177 C  
BRANCH   7  13
HETATM   13  C   UNL     1     -11.338  10.673  68.801  1.00  0.00    -0.277 C  
BRANCH  13  14
HETATM   14  O   UNL     1     -11.946  10.443  70.085  1.00  0.00    -0.270 OA 
BRANCH  14  15
HETATM   15  C   UNL     1     -12.320  11.722  70.636  1.00  0.00    -0.328 C  
BRANCH  15  16
HETATM   16  C   UNL     1     -13.173  11.545  71.892  1.00  0.00    -0.374 C  
HETATM   17  N   UNL     1     -13.535  10.139  72.085  1.00  0.00    -0.534 NA 
HETATM   18  H2  UNL     1     -12.712   9.537  72.101  1.00  0.00     0.000 HD 
HETATM   19  H1  UNL     1     -14.103  10.021  72.923  1.00  0.00     0.000 HD 
ENDBRANCH  15  16
ENDBRANCH  14  15
ENDBRANCH  13  14
ENDBRANCH   7  13
BRANCH   8  20
HETATM   20  C   UNL     1      -7.471   6.779  66.791  1.00  0.00    -0.082 C  
HETATM   21  O   UNL     1      -6.251   6.780  66.865  1.00  0.00    -0.037 OA 
BRANCH  20  22
HETATM   22  O   UNL     1      -8.194   5.837  66.137  1.00  0.00    -0.106 OA 
HETATM   23  C   UNL     1      -7.619   4.525  66.159  1.00  0.00    -0.090 C  
ENDBRANCH  20  22
ENDBRANCH   8  20
BRANCH  11  24
HETATM   24  C   UNL     1      -8.659   6.496  69.599  1.00  0.00    -0.132 A  
HETATM   25  C   UNL     1      -9.673   5.618  69.168  1.00  0.00    -0.193 A  
HETATM   26  C   UNL     1      -9.884   4.394  69.811  1.00  0.00    -0.284 A  
HETATM   27  C   UNL     1      -9.084   4.015  70.885  1.00  0.00    -0.178 A  
HETATM   28  C   UNL     1      -8.067   4.860  71.319  1.00  0.00    -0.105 A  
HETATM   29  C   UNL     1      -7.855   6.093  70.690  1.00  0.00    -0.106 A  
HETATM   30 CL   UNL     1      -6.601   7.090  71.350  1.00  0.00    -0.047 Cl 
ENDBRANCH  11  24
ENDBRANCH   4   6
ENDBRANCH   3   4
ENDBRANCH   2   3
TORSDOF 10
ENDMDL
MODEL      171
REMARK 921   NORMALIZED FREE ENERGY PREDICTED BY IDOCK:   -2.96 KCAL/MOL
REMARK 922        TOTAL FREE ENERGY PREDICTED BY IDOCK:   -6.25 KCAL/MOL
REMARK 923 INTER-LIGAND FREE ENERGY PREDICTED BY IDOCK:   -4.93 KCAL/MOL
REMARK 924 INTRA-LIGAND FREE ENERGY PREDICTED BY IDOCK:   -1.31 KCAL/MOL
REMARK 927      BINDING AFFINITY PREDICTED BY RF-SCORE:    0.00 PKD
ROOT
HETATM    1  C   UNL     1      -7.196   5.911  71.444  1.00  0.00    -0.079 C  
HETATM    2  C   UNL     1      -8.492   6.635  71.101  1.00  0.00    -0.126 C  
ENDROOT
BRANCH   2   3
HETATM    3  O   UNL     1      -8.269   7.586  70.053  1.00  0.00    -0.125 OA 
BRANCH   3   4
HETATM    4  C   UNL     1      -8.045   8.869  70.426  1.00  0.00    -0.128 C  
HETATM    5  O   UNL     1      -7.109   9.196  71.138  1.00  0.00    -0.109 OA 
BRANCH   4   6
HETATM    6  C   UNL     1      -9.048   9.818  69.824  1.00  0.00    -0.246 C  
HETATM    7  C   UNL     1     -10.322   9.943  70.284  1.00  0.00    -0.281 C  
HETATM    8  C   UNL     1      -9.721  11.491  67.956  1.00  0.00    -0.187 C  
HETATM    9  N   UNL     1     -11.190  10.846  69.698  1.00  0.00    -0.262 NA 
HETATM   10  C   UNL     1     -10.947  11.543  68.533  1.00  0.00    -0.223 C  
HETATM   11  C   UNL     1      -8.576  10.689  68.621  1.00  0.00    -0.144 C  
HETATM   12  C   UNL     1     -12.115  12.349  68.012  1.00  0.00    -0.091 C  
BRANCH   7  13
HETATM   13  C   UNL     1     -10.917   9.131  71.426  1.00  0.00    -0.344 C  
BRANCH  13  14
HETATM   14  O   UNL     1     -11.927   8.206  70.983  1.00  0.00    -0.295 OA 
BRANCH  14  15
HETATM   15  C   UNL     1     -13.201   8.666  71.478  1.00  0.00    -0.300 C  
BRANCH  15  16
HETATM   16  C   UNL     1     -13.013   9.741  72.548  1.00  0.00    -0.085 C  
HETATM   17  N   UNL     1     -13.471  11.045  72.066  1.00  0.00    -0.461 NA 
HETATM   18  H2  UNL     1     -14.435  11.008  71.736  1.00  0.00     0.000 HD 
HETATM   19  H1  UNL     1     -13.346  11.763  72.779  1.00  0.00     0.000 HD 
ENDBRANCH  15  16
ENDBRANCH  14  15
ENDBRANCH  13  14
ENDBRANCH   7  13
BRANCH   8  20
HETATM   20  C   UNL     1      -9.489  12.225  66.678  1.00  0.00    -0.226 C  
HETATM   21  O   UNL     1      -8.942  13.316  66.602  1.00  0.00    -0.214 OA 
BRANCH  20  22
HETATM   22  O   UNL     1      -9.959  11.533  65.612  1.00  0.00    -0.218 OA 
HETATM   23  C   UNL     1     -10.257  12.338  64.464  1.00  0.00    -0.296 C  
ENDBRANCH  20  22
ENDBRANCH   8  20
BRANCH  11  24
HETATM   24  C   UNL     1      -7.737   9.894  67.609  1.00  0.00    -0.091 A  
HETATM   25  C   UNL     1      -8.326   8.841  66.881  1.00  0.00    -0.108 A  
HETATM   26  C   UNL     1      -7.557   8.041  66.029  1.00  0.00    -0.085 A  
HETATM   27  C   UNL     1      -6.194   8.278  65.876  1.00  0.00    -0.048 A  
HETATM   28  C   UNL     1      -5.595   9.322  66.576  1.00  0.00    -0.053 A  
HETATM   29  C   UNL     1      -6.352  10.122  67.439  1.00  0.00    -0.066 A  
HETATM   30 CL   UNL     1      -5.491  11.353  68.303  1.00  0.00    -0.042 Cl 
ENDBRANCH  11  24
ENDBRANCH   4   6
ENDBRANCH   3   4
ENDBRANCH   2   3
TORSDOF 10
ENDMDL
MODEL      172
REMARK 921   NORMALIZED FREE ENERGY PREDICTED BY IDOCK:   -2.93 KCAL/MOL
REMARK 922        TOTAL FREE ENERGY PREDICTED BY IDOCK:   -6.21 KCAL/MOL
REMARK 923 INTER-LIGAND FREE ENERGY PREDICTED BY IDOCK:   -4.93 KCAL/MOL
REMARK 924 INTRA-LIGAND FREE ENERGY PREDICTED BY IDOCK:   -1.28 KCAL/MOL
REMARK 927      BINDING AFFINITY PREDICTED BY RF-SCORE:    0.00 PKD
ROOT
HETATM    1  C   UNL     1      -5.442  11.446  67.519  1.00  0.00    -0.051 C  
HETATM    2  C   UNL     1      -6.738  11.650  66.745  1.00  0.00    -0.087 C  
ENDROOT
BRANCH   2   3
HETATM    3  O   UNL     1      -7.821  10.980  67.403  1.00  0.00    -0.112 OA 
BRANCH   3   4
HETATM    4  C   UNL     1      -8.702  10.319  66.615  1.00  0.00    -0.127 C  
HETATM    5  O   UNL     1      -8.862  10.586  65.435  1.00  0.00    -0.173 OA 
BRANCH   4   6
HETATM    6  C   UNL     1      -9.403   9.210  67.355  1.00  0.00    -0.161 C  
HETATM    7  C   UNL     1      -9.995   9.384  68.567  1.00  0.00    -0.173 C  
HETATM    8  C   UNL     1     -10.014   6.697  67.586  1.00  0.00    -0.161 C  
HETATM    9  N   UNL     1     -10.638   8.327  69.187  1.00  0.00    -0.202 NA 
HETATM   10  C   UNL     1     -10.593   7.013  68.771  1.00  0.00    -0.212 C  
HETATM   11  C   UNL     1      -9.440   7.808  66.674  1.00  0.00    -0.263 C  
HETATM   12  C   UNL     1     -11.248   6.022  69.706  1.00  0.00    -0.440 C  
BRANCH   7  13
HETATM   13  C   UNL     1     -10.002  10.687  69.352  1.00  0.00    -0.158 C  
BRANCH  13  14
HETATM   14  O   UNL     1     -11.225  11.428  69.189  1.00  0.00    -0.231 OA 
BRANCH  14  15
HETATM   15  C   UNL     1     -10.883  12.765  68.769  1.00  0.00    -0.234 C  
BRANCH  15  16
HETATM   16  C   UNL     1     -11.434  13.055  67.374  1.00  0.00    -0.332 C  
HETATM   17  N   UNL     1     -12.035  11.855  66.789  1.00  0.00    -0.583 NA 
HETATM   18  H2  UNL     1     -12.748  11.456  67.399  1.00  0.00     0.000 HD 
HETATM   19  H1  UNL     1     -12.404  12.049  65.858  1.00  0.00     0.000 HD 
ENDBRANCH  15  16
ENDBRANCH  14  15
ENDBRANCH  13  14
ENDBRANCH   7  13
BRANCH   8  20
HETATM   20  C   UNL     1      -9.947   5.265  67.172  1.00  0.00    -0.184 C  
HETATM   21  O   UNL     1     -10.641   4.771  66.294  1.00  0.00    -0.301 OA 
BRANCH  20  22
HETATM   22  O   UNL     1      -9.020   4.581  67.885  1.00  0.00    -0.108 OA 
HETATM   23  C   UNL     1      -9.027   3.165  67.667  1.00  0.00    -0.154 C  
ENDBRANCH  20  22
ENDBRANCH   8  20
BRANCH  11  24
HETATM   24  C   UNL     1      -8.095   7.424  66.039  1.00  0.00    -0.124 A  
HETATM   25  C   UNL     1      -8.024   7.129  64.664  1.00  0.00    -0.114 A  
HETATM   26  C   UNL     1      -6.831   6.682  64.086  1.00  0.00    -0.049 A  
HETATM   27  C   UNL     1      -5.685   6.532  64.861  1.00  0.00    -0.030 A  
HETATM   28  C   UNL     1      -5.728   6.832  66.220  1.00  0.00    -0.025 A  
HETATM   29  C   UNL     1      -6.920   7.269  66.810  1.00  0.00    -0.074 A  
HETATM   30 CL   UNL     1      -6.873   7.556  68.518  1.00  0.00    -0.064 Cl 
ENDBRANCH  11  24
ENDBRANCH   4   6
ENDBRANCH   3   4
ENDBRANCH   2   3
TORSDOF 10
ENDMDL
MODEL      173
REMARK 921   NORMALIZED FREE ENERGY PREDICTED BY IDOCK:   -2.92 KCAL/MOL
REMARK 922        TOTAL FREE ENERGY PREDICTED BY IDOCK:   -6.18 KCAL/MOL
REMARK 923 INTER-LIGAND FREE ENERGY PREDICTED BY IDOCK:   -4.81 KCAL/MOL
REMARK 924 INTRA-LIGAND FREE ENERGY PREDICTED BY IDOCK:   -1.37 KCAL/MOL
REMARK 927      BINDING AFFINITY PREDICTED BY RF-SCORE:    0.00 PKD
ROOT
HETATM    1  C   UNL     1     -11.898  11.781  67.566  1.00  0.00    -0.227 C  
HETATM    2  C   UNL     1     -10.843  11.269  68.538  1.00  0.00    -0.205 C  
ENDROOT
BRANCH   2   3
HETATM    3  O   UNL     1      -9.874  10.470  67.847  1.00  0.00    -0.157 OA 
BRANCH   3   4
HETATM    4  C   UNL     1      -8.901   9.901  68.597  1.00  0.00    -0.128 C  
HETATM    5  O   UNL     1      -8.003  10.546  69.115  1.00  0.00    -0.124 OA 
BRANCH   4   6
HETATM    6  C   UNL     1      -9.095   8.414  68.745  1.00  0.00    -0.143 C  
HETATM    7  C   UNL     1      -9.128   7.787  69.952  1.00  0.00    -0.147 C  
HETATM    8  C   UNL     1      -9.274   6.053  67.681  1.00  0.00    -0.107 C  
HETATM    9  N   UNL     1      -9.327   6.420  70.021  1.00  0.00    -0.156 NA 
HETATM   10  C   UNL     1      -9.323   5.558  68.944  1.00  0.00    -0.125 C  
HETATM   11  C   UNL     1      -9.268   7.581  67.439  1.00  0.00    -0.149 C  
HETATM   12  C   UNL     1      -9.405   4.091  69.296  1.00  0.00    -0.238 C  
BRANCH   7  13
HETATM   13  C   UNL     1      -8.940   8.475  71.295  1.00  0.00    -0.192 C  
BRANCH  13  14
HETATM   14  O   UNL     1     -10.039   9.339  71.637  1.00  0.00    -0.311 OA 
BRANCH  14  15
HETATM   15  C   UNL     1     -11.194   8.512  71.889  1.00  0.00    -0.327 C  
BRANCH  15  16
HETATM   16  C   UNL     1     -11.029   7.729  73.191  1.00  0.00    -0.310 C  
HETATM   17  N   UNL     1     -11.283   6.303  72.980  1.00  0.00    -0.431 NA 
HETATM   18  H2  UNL     1     -10.698   5.922  72.236  1.00  0.00     0.000 HD 
HETATM   19  H1  UNL     1     -11.173   5.780  73.848  1.00  0.00     0.000 HD 
ENDBRANCH  15  16
ENDBRANCH  14  15
ENDBRANCH  13  14
ENDBRANCH   7  13
BRANCH   8  20
HETATM   20  C   UNL     1      -9.237   5.102  66.532  1.00  0.00    -0.136 C  
HETATM   21  O   UNL     1      -8.223   4.548  66.131  1.00  0.00    -0.106 OA 
BRANCH  20  22
HETATM   22  O   UNL     1     -10.466   4.927  65.988  1.00  0.00    -0.282 OA 
HETATM   23  C   UNL     1     -10.497   4.046  64.860  1.00  0.00    -0.158 C  
ENDBRANCH  20  22
ENDBRANCH   8  20
BRANCH  11  24
HETATM   24  C   UNL     1      -8.290   8.007  66.334  1.00  0.00    -0.124 A  
HETATM   25  C   UNL     1      -8.782   8.476  65.100  1.00  0.00    -0.156 A  
HETATM   26  C   UNL     1      -7.911   8.774  64.047  1.00  0.00    -0.156 A  
HETATM   27  C   UNL     1      -6.536   8.624  64.204  1.00  0.00    -0.071 A  
HETATM   28  C   UNL     1      -6.027   8.176  65.419  1.00  0.00    -0.045 A  
HETATM   29  C   UNL     1      -6.890   7.864  66.476  1.00  0.00    -0.070 A  
HETATM   30 CL   UNL     1      -6.151   7.258  67.922  1.00  0.00    -0.033 Cl 
ENDBRANCH  11  24
ENDBRANCH   4   6
ENDBRANCH   3   4
ENDBRANCH   2   3
TORSDOF 10
ENDMDL
MODEL      174
REMARK 921   NORMALIZED FREE ENERGY PREDICTED BY IDOCK:   -2.91 KCAL/MOL
REMARK 922        TOTAL FREE ENERGY PREDICTED BY IDOCK:   -6.16 KCAL/MOL
REMARK 923 INTER-LIGAND FREE ENERGY PREDICTED BY IDOCK:   -4.33 KCAL/MOL
REMARK 924 INTRA-LIGAND FREE ENERGY PREDICTED BY IDOCK:   -1.83 KCAL/MOL
REMARK 927      BINDING AFFINITY PREDICTED BY RF-SCORE:    0.00 PKD
ROOT
HETATM    1  C   UNL     1     -11.777   6.668  72.136  1.00  0.00    -0.342 C  
HETATM    2  C   UNL     1     -11.536   8.172  72.112  1.00  0.00    -0.350 C  
ENDROOT
BRANCH   2   3
HETATM    3  O   UNL     1     -11.082   8.584  70.816  1.00  0.00    -0.245 OA 
BRANCH   3   4
HETATM    4  C   UNL     1      -9.765   8.874  70.692  1.00  0.00    -0.212 C  
HETATM    5  O   UNL     1      -9.180   9.626  71.454  1.00  0.00    -0.104 OA 
BRANCH   4   6
HETATM    6  C   UNL     1      -9.126   8.129  69.549  1.00  0.00    -0.151 C  
HETATM    7  C   UNL     1      -8.485   6.939  69.705  1.00  0.00    -0.133 C  
HETATM    8  C   UNL     1      -8.378   8.033  67.065  1.00  0.00    -0.116 C  
HETATM    9  N   UNL     1      -7.933   6.297  68.612  1.00  0.00    -0.104 NA 
HETATM   10  C   UNL     1      -7.803   6.839  67.351  1.00  0.00    -0.110 C  
HETATM   11  C   UNL     1      -9.220   8.773  68.133  1.00  0.00    -0.145 C  
HETATM   12  C   UNL     1      -7.023   5.996  66.368  1.00  0.00    -0.067 C  
BRANCH   7  13
HETATM   13  C   UNL     1      -8.295   6.222  71.034  1.00  0.00    -0.124 C  
BRANCH  13  14
HETATM   14  O   UNL     1      -7.355   6.889  71.896  1.00  0.00    -0.085 OA 
BRANCH  14  15
HETATM   15  C   UNL     1      -7.403   6.248  73.187  1.00  0.00    -0.091 C  
BRANCH  15  16
HETATM   16  C   UNL     1      -7.508   7.283  74.306  1.00  0.00    -0.114 C  
HETATM   17  N   UNL     1      -8.078   8.536  73.807  1.00  0.00    -0.398 NA 
HETATM   18  H2  UNL     1      -8.976   8.386  73.349  1.00  0.00     0.000 HD 
HETATM   19  H1  UNL     1      -8.148   9.227  74.554  1.00  0.00     0.000 HD 
ENDBRANCH  15  16
ENDBRANCH  14  15
ENDBRANCH  13  14
ENDBRANCH   7  13
BRANCH   8  20
HETATM   20  C   UNL     1      -8.197   8.617  65.704  1.00  0.00    -0.123 C  
HETATM   21  O   UNL     1      -9.058   8.615  64.835  1.00  0.00    -0.050 OA 
BRANCH  20  22
HETATM   22  O   UNL     1      -6.962   9.153  65.550  1.00  0.00    -0.079 OA 
HETATM   23  C   UNL     1      -6.905  10.268  64.652  1.00  0.00    -0.077 C  
ENDBRANCH  20  22
ENDBRANCH   8  20
BRANCH  11  24
HETATM   24  C   UNL     1      -8.961  10.287  68.154  1.00  0.00    -0.130 A  
HETATM   25  C   UNL     1      -7.672  10.777  68.446  1.00  0.00    -0.113 A  
HETATM   26  C   UNL     1      -7.438  12.150  68.568  1.00  0.00    -0.117 A  
HETATM   27  C   UNL     1      -8.474  13.062  68.391  1.00  0.00    -0.118 A  
HETATM   28  C   UNL     1      -9.753  12.601  68.089  1.00  0.00    -0.219 A  
HETATM   29  C   UNL     1     -10.001  11.228  67.975  1.00  0.00    -0.179 A  
HETATM   30 CL   UNL     1     -11.640  10.765  67.655  1.00  0.00    -0.235 Cl 
ENDBRANCH  11  24
ENDBRANCH   4   6
ENDBRANCH   3   4
ENDBRANCH   2   3
TORSDOF 10
ENDMDL
MODEL      175
REMARK 921   NORMALIZED FREE ENERGY PREDICTED BY IDOCK:   -2.85 KCAL/MOL
REMARK 922        TOTAL FREE ENERGY PREDICTED BY IDOCK:   -6.08 KCAL/MOL
REMARK 923 INTER-LIGAND FREE ENERGY PREDICTED BY IDOCK:   -4.38 KCAL/MOL
REMARK 924 INTRA-LIGAND FREE ENERGY PREDICTED BY IDOCK:   -1.70 KCAL/MOL
REMARK 927      BINDING AFFINITY PREDICTED BY RF-SCORE:    0.00 PKD
ROOT
HETATM    1  C   UNL     1      -9.800   5.872  66.111  1.00  0.00    -0.058 C  
HETATM    2  C   UNL     1     -10.525   6.595  67.239  1.00  0.00    -0.275 C  
ENDROOT
BRANCH   2   3
HETATM    3  O   UNL     1      -9.633   6.823  68.338  1.00  0.00    -0.127 OA 
BRANCH   3   4
HETATM    4  C   UNL     1      -9.938   7.845  69.173  1.00  0.00    -0.184 C  
HETATM    5  O   UNL     1     -11.067   8.038  69.595  1.00  0.00    -0.158 OA 
BRANCH   4   6
HETATM    6  C   UNL     1      -8.725   8.659  69.540  1.00  0.00    -0.139 C  
HETATM    7  C   UNL     1      -7.936   8.374  70.611  1.00  0.00    -0.101 C  
HETATM    8  C   UNL     1      -7.234  10.756  69.192  1.00  0.00    -0.107 C  
HETATM    9  N   UNL     1      -6.826   9.151  70.886  1.00  0.00    -0.087 NA 
HETATM   10  C   UNL     1      -6.513  10.342  70.265  1.00  0.00    -0.137 C  
HETATM   11  C   UNL     1      -8.378   9.877  68.632  1.00  0.00    -0.110 C  
HETATM   12  C   UNL     1      -5.332  11.081  70.851  1.00  0.00    -0.118 C  
BRANCH   7  13
HETATM   13  C   UNL     1      -8.182   7.238  71.594  1.00  0.00    -0.104 C  
BRANCH  13  14
HETATM   14  O   UNL     1      -9.332   7.462  72.429  1.00  0.00    -0.139 OA 
BRANCH  14  15
HETATM   15  C   UNL     1      -8.966   8.423  73.441  1.00  0.00    -0.096 C  
BRANCH  15  16
HETATM   16  C   UNL     1      -7.706   7.979  74.183  1.00  0.00    -0.207 C  
HETATM   17  N   UNL     1      -6.788   9.104  74.374  1.00  0.00    -0.382 NA 
HETATM   18  H2  UNL     1      -7.244   9.887  74.842  1.00  0.00     0.000 HD 
HETATM   19  H1  UNL     1      -5.947   8.808  74.869  1.00  0.00     0.000 HD 
ENDBRANCH  15  16
ENDBRANCH  14  15
ENDBRANCH  13  14
ENDBRANCH   7  13
BRANCH   8  20
HETATM   20  C   UNL     1      -6.901  12.063  68.556  1.00  0.00    -0.078 C  
HETATM   21  O   UNL     1      -6.261  12.180  67.520  1.00  0.00    -0.097 OA 
BRANCH  20  22
HETATM   22  O   UNL     1      -7.397  13.106  69.266  1.00  0.00     0.054 OA 
HETATM   23  C   UNL     1      -8.143  14.052  68.492  1.00  0.00    -0.139 C  
ENDBRANCH  20  22
ENDBRANCH   8  20
BRANCH  11  24
HETATM   24  C   UNL     1      -9.620  10.692  68.239  1.00  0.00    -0.167 A  
HETATM   25  C   UNL     1     -10.416  11.288  69.236  1.00  0.00    -0.145 A  
HETATM   26  C   UNL     1     -11.603  11.949  68.907  1.00  0.00    -0.370 A  
HETATM   27  C   UNL     1     -12.015  12.042  67.581  1.00  0.00    -0.149 A  
HETATM   28  C   UNL     1     -11.237  11.472  66.577  1.00  0.00    -0.324 A  
HETATM   29  C   UNL     1     -10.052  10.799  66.896  1.00  0.00    -0.212 A  
HETATM   30 CL   UNL     1      -9.194  10.078  65.574  1.00  0.00    -0.224 Cl 
ENDBRANCH  11  24
ENDBRANCH   4   6
ENDBRANCH   3   4
ENDBRANCH   2   3
TORSDOF 10
ENDMDL
MODEL      176
REMARK 921   NORMALIZED FREE ENERGY PREDICTED BY IDOCK:   -2.84 KCAL/MOL
REMARK 922        TOTAL FREE ENERGY PREDICTED BY IDOCK:   -6.05 KCAL/MOL
REMARK 923 INTER-LIGAND FREE ENERGY PREDICTED BY IDOCK:   -4.53 KCAL/MOL
REMARK 924 INTRA-LIGAND FREE ENERGY PREDICTED BY IDOCK:   -1.53 KCAL/MOL
REMARK 927      BINDING AFFINITY PREDICTED BY RF-SCORE:    0.00 PKD
ROOT
HETATM    1  C   UNL     1     -10.181   9.802  65.928  1.00  0.00    -0.245 C  
HETATM    2  C   UNL     1     -10.324   9.817  67.445  1.00  0.00    -0.240 C  
ENDROOT
BRANCH   2   3
HETATM    3  O   UNL     1      -9.998   8.532  67.989  1.00  0.00    -0.167 OA 
BRANCH   3   4
HETATM    4  C   UNL     1      -8.733   8.362  68.444  1.00  0.00    -0.136 C  
HETATM    5  O   UNL     1      -8.033   9.292  68.810  1.00  0.00    -0.096 OA 
BRANCH   4   6
HETATM    6  C   UNL     1      -8.335   6.910  68.484  1.00  0.00    -0.121 C  
HETATM    7  C   UNL     1      -7.989   6.204  67.374  1.00  0.00    -0.105 C  
HETATM    8  C   UNL     1      -8.084   4.682  69.793  1.00  0.00    -0.068 C  
HETATM    9  N   UNL     1      -7.616   4.877  67.480  1.00  0.00    -0.086 NA 
HETATM   10  C   UNL     1      -7.727   4.106  68.618  1.00  0.00    -0.062 C  
HETATM   11  C   UNL     1      -8.323   6.209  69.876  1.00  0.00    -0.128 C  
HETATM   12  C   UNL     1      -7.400   2.642  68.436  1.00  0.00    -0.048 C  
BRANCH   7  13
HETATM   13  C   UNL     1      -7.991   6.758  65.956  1.00  0.00    -0.109 C  
BRANCH  13  14
HETATM   14  O   UNL     1      -7.002   7.784  65.758  1.00  0.00    -0.056 OA 
BRANCH  14  15
HETATM   15  C   UNL     1      -6.788   7.929  64.339  1.00  0.00    -0.063 C  
BRANCH  15  16
HETATM   16  C   UNL     1      -7.986   7.400  63.551  1.00  0.00    -0.071 C  
HETATM   17  N   UNL     1      -8.621   8.471  62.782  1.00  0.00    -0.412 NA 
HETATM   18  H2  UNL     1      -7.954   8.948  62.177  1.00  0.00     0.000 HD 
HETATM   19  H1  UNL     1      -9.420   8.118  62.257  1.00  0.00     0.000 HD 
ENDBRANCH  15  16
ENDBRANCH  14  15
ENDBRANCH  13  14
ENDBRANCH   7  13
BRANCH   8  20
HETATM   20  C   UNL     1      -8.231   3.825  71.005  1.00  0.00    -0.067 C  
HETATM   21  O   UNL     1      -7.418   3.779  71.918  1.00  0.00    -0.053 OA 
BRANCH  20  22
HETATM   22  O   UNL     1      -9.379   3.104  70.971  1.00  0.00    -0.118 OA 
HETATM   23  C   UNL     1      -9.957   2.846  72.256  1.00  0.00    -0.168 C  
ENDBRANCH  20  22
ENDBRANCH   8  20
BRANCH  11  24
HETATM   24  C   UNL     1      -9.544   6.577  70.732  1.00  0.00    -0.190 A  
HETATM   25  C   UNL     1     -10.824   6.111  70.371  1.00  0.00    -0.374 A  
HETATM   26  C   UNL     1     -11.961   6.515  71.078  1.00  0.00    -0.358 A  
HETATM   27  C   UNL     1     -11.847   7.379  72.164  1.00  0.00    -0.323 A  
HETATM   28  C   UNL     1     -10.591   7.840  72.548  1.00  0.00    -0.352 A  
HETATM   29  C   UNL     1      -9.447   7.451  71.840  1.00  0.00    -0.144 A  
HETATM   30 CL   UNL     1      -7.944   8.133  72.368  1.00  0.00    -0.168 Cl 
ENDBRANCH  11  24
ENDBRANCH   4   6
ENDBRANCH   3   4
ENDBRANCH   2   3
TORSDOF 10
ENDMDL
MODEL      177
REMARK 921   NORMALIZED FREE ENERGY PREDICTED BY IDOCK:   -2.83 KCAL/MOL
REMARK 922        TOTAL FREE ENERGY PREDICTED BY IDOCK:   -6.04 KCAL/MOL
REMARK 923 INTER-LIGAND FREE ENERGY PREDICTED BY IDOCK:   -4.64 KCAL/MOL
REMARK 924 INTRA-LIGAND FREE ENERGY PREDICTED BY IDOCK:   -1.40 KCAL/MOL
REMARK 927      BINDING AFFINITY PREDICTED BY RF-SCORE:    0.00 PKD
ROOT
HETATM    1  C   UNL     1      -5.911  10.999  70.060  1.00  0.00    -0.116 C  
HETATM    2  C   UNL     1      -7.160  10.760  69.221  1.00  0.00    -0.116 C  
ENDROOT
BRANCH   2   3
HETATM    3  O   UNL     1      -8.033   9.834  69.880  1.00  0.00    -0.140 OA 
BRANCH   3   4
HETATM    4  C   UNL     1      -8.699   8.954  69.096  1.00  0.00    -0.132 C  
HETATM    5  O   UNL     1      -9.577   9.295  68.319  1.00  0.00    -0.144 OA 
BRANCH   4   6
HETATM    6  C   UNL     1      -8.193   7.546  69.267  1.00  0.00    -0.130 C  
HETATM    7  C   UNL     1      -7.446   6.905  68.328  1.00  0.00    -0.099 C  
HETATM    8  C   UNL     1      -8.153   5.318  70.599  1.00  0.00    -0.108 C  
HETATM    9  N   UNL     1      -6.998   5.617  68.553  1.00  0.00    -0.063 NA 
HETATM   10  C   UNL     1      -7.388   4.809  69.601  1.00  0.00    -0.055 C  
HETATM   11  C   UNL     1      -8.555   6.812  70.595  1.00  0.00    -0.142 C  
HETATM   12  C   UNL     1      -6.879   3.387  69.540  1.00  0.00    -0.041 C  
BRANCH   7  13
HETATM   13  C   UNL     1      -7.054   7.493  66.980  1.00  0.00    -0.084 C  
BRANCH  13  14
HETATM   14  O   UNL     1      -8.147   7.522  66.046  1.00  0.00    -0.110 OA 
BRANCH  14  15
HETATM   15  C   UNL     1      -8.605   6.168  65.853  1.00  0.00    -0.147 C  
BRANCH  15  16
HETATM   16  C   UNL     1      -8.362   5.711  64.415  1.00  0.00    -0.093 C  
HETATM   17  N   UNL     1      -9.451   4.852  63.948  1.00  0.00    -0.350 NA 
HETATM   18  H2  UNL     1     -10.359   5.305  64.050  1.00  0.00     0.000 HD 
HETATM   19  H1  UNL     1      -9.290   4.546  62.989  1.00  0.00     0.000 HD 
ENDBRANCH  15  16
ENDBRANCH  14  15
ENDBRANCH  13  14
ENDBRANCH   7  13
BRANCH   8  20
HETATM   20  C   UNL     1      -8.592   4.418  71.706  1.00  0.00    -0.114 C  
HETATM   21  O   UNL     1      -8.052   4.364  72.802  1.00  0.00    -0.092 OA 
BRANCH  20  22
HETATM   22  O   UNL     1      -9.664   3.671  71.347  1.00  0.00    -0.161 OA 
HETATM   23  C   UNL     1      -9.882   2.513  72.163  1.00  0.00    -0.155 C  
ENDBRANCH  20  22
ENDBRANCH   8  20
BRANCH  11  24
HETATM   24  C   UNL     1     -10.014   7.041  71.017  1.00  0.00    -0.196 A  
HETATM   25  C   UNL     1     -11.064   6.618  70.178  1.00  0.00    -0.384 A  
HETATM   26  C   UNL     1     -12.395   6.904  70.496  1.00  0.00    -0.177 A  
HETATM   27  C   UNL     1     -12.709   7.604  71.657  1.00  0.00    -0.368 A  
HETATM   28  C   UNL     1     -11.688   8.020  72.508  1.00  0.00    -0.446 A  
HETATM   29  C   UNL     1     -10.351   7.748  72.194  1.00  0.00    -0.224 A  
HETATM   30 CL   UNL     1      -9.161   8.364  73.292  1.00  0.00    -0.250 Cl 
ENDBRANCH  11  24
ENDBRANCH   4   6
ENDBRANCH   3   4
ENDBRANCH   2   3
TORSDOF 10
ENDMDL
MODEL      178
REMARK 921   NORMALIZED FREE ENERGY PREDICTED BY IDOCK:   -2.81 KCAL/MOL
REMARK 922        TOTAL FREE ENERGY PREDICTED BY IDOCK:   -6.01 KCAL/MOL
REMARK 923 INTER-LIGAND FREE ENERGY PREDICTED BY IDOCK:   -4.41 KCAL/MOL
REMARK 924 INTRA-LIGAND FREE ENERGY PREDICTED BY IDOCK:   -1.61 KCAL/MOL
REMARK 927      BINDING AFFINITY PREDICTED BY RF-SCORE:    0.00 PKD
ROOT
HETATM    1  C   UNL     1     -13.145   8.578  71.710  1.00  0.00    -0.383 C  
HETATM    2  C   UNL     1     -12.914   7.103  71.410  1.00  0.00    -0.368 C  
ENDROOT
BRANCH   2   3
HETATM    3  O   UNL     1     -12.489   6.932  70.051  1.00  0.00     0.057 OA 
BRANCH   3   4
HETATM    4  C   UNL     1     -11.256   6.408  69.856  1.00  0.00    -0.420 C  
HETATM    5  O   UNL     1     -10.922   5.320  70.298  1.00  0.00    -0.166 OA 
BRANCH   4   6
HETATM    6  C   UNL     1     -10.389   7.299  69.003  1.00  0.00    -0.208 C  
HETATM    7  C   UNL     1     -10.306   7.178  67.651  1.00  0.00    -0.215 C  
HETATM    8  C   UNL     1      -8.570   9.140  68.801  1.00  0.00    -0.131 C  
HETATM    9  N   UNL     1      -9.504   8.038  66.923  1.00  0.00    -0.177 NA 
HETATM   10  C   UNL     1      -8.605   8.936  67.460  1.00  0.00    -0.120 C  
HETATM   11  C   UNL     1      -9.565   8.404  69.731  1.00  0.00    -0.170 C  
HETATM   12  C   UNL     1      -7.734   9.652  66.453  1.00  0.00    -0.101 C  
BRANCH   7  13
HETATM   13  C   UNL     1     -11.030   6.125  66.826  1.00  0.00    -0.245 C  
BRANCH  13  14
HETATM   14  O   UNL     1     -10.855   4.794  67.344  1.00  0.00     0.192 OA 
BRANCH  14  15
HETATM   15  C   UNL     1      -9.657   4.242  66.761  1.00  0.00    -0.202 C  
BRANCH  15  16
HETATM   16  C   UNL     1      -9.293   2.912  67.418  1.00  0.00    -0.161 C  
HETATM   17  N   UNL     1      -9.522   2.963  68.864  1.00  0.00    -0.155 NA 
HETATM   18  H2  UNL     1     -10.477   3.243  69.084  1.00  0.00     0.000 HD 
HETATM   19  H1  UNL     1      -9.280   2.075  69.303  1.00  0.00     0.000 HD 
ENDBRANCH  15  16
ENDBRANCH  14  15
ENDBRANCH  13  14
ENDBRANCH   7  13
BRANCH   8  20
HETATM   20  C   UNL     1      -7.568  10.091  69.363  1.00  0.00    -0.123 C  
HETATM   21  O   UNL     1      -6.496   9.753  69.846  1.00  0.00    -0.049 OA 
BRANCH  20  22
HETATM   22  O   UNL     1      -7.991  11.375  69.271  1.00  0.00    -0.014 OA 
HETATM   23  C   UNL     1      -6.953  12.324  68.996  1.00  0.00    -0.078 C  
ENDBRANCH  20  22
ENDBRANCH   8  20
BRANCH  11  24
HETATM   24  C   UNL     1      -8.909   7.896  71.024  1.00  0.00    -0.149 A  
HETATM   25  C   UNL     1      -9.291   8.438  72.267  1.00  0.00    -0.356 A  
HETATM   26  C   UNL     1      -8.638   8.062  73.445  1.00  0.00    -0.308 A  
HETATM   27  C   UNL     1      -7.603   7.132  73.412  1.00  0.00    -0.093 A  
HETATM   28  C   UNL     1      -7.218   6.573  72.196  1.00  0.00    -0.086 A  
HETATM   29  C   UNL     1      -7.857   6.951  71.010  1.00  0.00    -0.097 A  
HETATM   30 CL   UNL     1      -7.257   6.236  69.550  1.00  0.00    -0.076 Cl 
ENDBRANCH  11  24
ENDBRANCH   4   6
ENDBRANCH   3   4
ENDBRANCH   2   3
TORSDOF 10
ENDMDL
MODEL      179
REMARK 921   NORMALIZED FREE ENERGY PREDICTED BY IDOCK:   -2.74 KCAL/MOL
REMARK 922        TOTAL FREE ENERGY PREDICTED BY IDOCK:   -5.90 KCAL/MOL
REMARK 923 INTER-LIGAND FREE ENERGY PREDICTED BY IDOCK:   -4.76 KCAL/MOL
REMARK 924 INTRA-LIGAND FREE ENERGY PREDICTED BY IDOCK:   -1.14 KCAL/MOL
REMARK 927      BINDING AFFINITY PREDICTED BY RF-SCORE:    0.00 PKD
ROOT
HETATM    1  C   UNL     1     -10.411   5.496  67.687  1.00  0.00    -0.256 C  
HETATM    2  C   UNL     1     -11.133   6.774  67.278  1.00  0.00    -0.324 C  
ENDROOT
BRANCH   2   3
HETATM    3  O   UNL     1     -10.439   7.921  67.784  1.00  0.00    -0.220 OA 
BRANCH   3   4
HETATM    4  C   UNL     1      -9.438   8.418  67.019  1.00  0.00    -0.174 C  
HETATM    5  O   UNL     1      -9.348   8.195  65.823  1.00  0.00    -0.113 OA 
BRANCH   4   6
HETATM    6  C   UNL     1      -8.505   9.299  67.809  1.00  0.00    -0.116 C  
HETATM    7  C   UNL     1      -7.919   8.905  68.971  1.00  0.00    -0.106 C  
HETATM    8  C   UNL     1      -7.396  11.612  68.210  1.00  0.00    -0.093 C  
HETATM    9  N   UNL     1      -7.057   9.755  69.640  1.00  0.00    -0.072 NA 
HETATM   10  C   UNL     1      -6.852  11.084  69.335  1.00  0.00    -0.119 C  
HETATM   11  C   UNL     1      -8.211  10.721  67.242  1.00  0.00    -0.121 C  
HETATM   12  C   UNL     1      -5.980  11.840  70.312  1.00  0.00    -0.155 C  
BRANCH   7  13
HETATM   13  C   UNL     1      -8.146   7.561  69.648  1.00  0.00    -0.127 C  
BRANCH  13  14
HETATM   14  O   UNL     1      -7.334   6.512  69.089  1.00  0.00    -0.088 OA 
BRANCH  14  15
HETATM   15  C   UNL     1      -7.264   5.442  70.053  1.00  0.00    -0.063 C  
BRANCH  15  16
HETATM   16  C   UNL     1      -7.539   4.093  69.390  1.00  0.00    -0.054 C  
HETATM   17  N   UNL     1      -6.906   4.019  68.072  1.00  0.00    -0.047 NA 
HETATM   18  H2  UNL     1      -5.908   4.218  68.121  1.00  0.00     0.000 HD 
HETATM   19  H1  UNL     1      -7.089   3.119  67.629  1.00  0.00     0.000 HD 
ENDBRANCH  15  16
ENDBRANCH  14  15
ENDBRANCH  13  14
ENDBRANCH   7  13
BRANCH   8  20
HETATM   20  C   UNL     1      -7.189  13.060  67.916  1.00  0.00    -0.129 C  
HETATM   21  O   UNL     1      -6.396  13.486  67.088  1.00  0.00    -0.228 OA 
BRANCH  20  22
HETATM   22  O   UNL     1      -7.992  13.844  68.676  1.00  0.00    -0.138 OA 
HETATM   23  C   UNL     1      -8.461  15.027  68.019  1.00  0.00    -0.149 C  
ENDBRANCH  20  22
ENDBRANCH   8  20
BRANCH  11  24
HETATM   24  C   UNL     1      -9.473  11.416  66.709  1.00  0.00    -0.197 A  
HETATM   25  C   UNL     1     -10.467  11.855  67.606  1.00  0.00    -0.232 A  
HETATM   26  C   UNL     1     -11.667  12.400  67.137  1.00  0.00    -0.415 A  
HETATM   27  C   UNL     1     -11.897  12.529  65.771  1.00  0.00    -0.494 A  
HETATM   28  C   UNL     1     -10.923  12.114  64.867  1.00  0.00    -0.355 A  
HETATM   29  C   UNL     1      -9.723  11.558  65.325  1.00  0.00    -0.238 A  
HETATM   30 CL   UNL     1      -8.609  11.021  64.110  1.00  0.00     0.064 Cl 
ENDBRANCH  11  24
ENDBRANCH   4   6
ENDBRANCH   3   4
ENDBRANCH   2   3
TORSDOF 10
ENDMDL
MODEL      180
REMARK 921   NORMALIZED FREE ENERGY PREDICTED BY IDOCK:   -2.73 KCAL/MOL
REMARK 922        TOTAL FREE ENERGY PREDICTED BY IDOCK:   -5.88 KCAL/MOL
REMARK 923 INTER-LIGAND FREE ENERGY PREDICTED BY IDOCK:   -5.71 KCAL/MOL
REMARK 924 INTRA-LIGAND FREE ENERGY PREDICTED BY IDOCK:   -0.17 KCAL/MOL
REMARK 927      BINDING AFFINITY PREDICTED BY RF-SCORE:    0.00 PKD
ROOT
HETATM    1  C   UNL     1     -11.348  15.715  70.705  1.00  0.00    -0.392 C  
HETATM    2  C   UNL     1     -10.132  16.112  69.878  1.00  0.00    -0.074 C  
ENDROOT
BRANCH   2   3
HETATM    3  O   UNL     1     -10.514  16.362  68.519  1.00  0.00    -0.260 OA 
BRANCH   3   4
HETATM    4  C   UNL     1      -9.556  16.207  67.574  1.00  0.00    -0.229 C  
HETATM    5  O   UNL     1      -9.061  17.148  66.975  1.00  0.00    -0.220 OA 
BRANCH   4   6
HETATM    6  C   UNL     1      -9.158  14.764  67.401  1.00  0.00    -0.202 C  
HETATM    7  C   UNL     1     -10.062  13.751  67.315  1.00  0.00    -0.239 C  
HETATM    8  C   UNL     1      -7.321  12.932  67.326  1.00  0.00    -0.077 C  
HETATM    9  N   UNL     1      -9.632  12.448  67.139  1.00  0.00    -0.202 NA 
HETATM   10  C   UNL     1      -8.323  12.023  67.219  1.00  0.00    -0.176 C  
HETATM   11  C   UNL     1      -7.635  14.447  67.316  1.00  0.00    -0.135 C  
HETATM   12  C   UNL     1      -8.129  10.525  67.146  1.00  0.00    -0.120 C  
BRANCH   7  13
HETATM   13  C   UNL     1     -11.570  13.920  67.417  1.00  0.00    -0.368 C  
BRANCH  13  14
HETATM   14  O   UNL     1     -12.287  13.094  66.482  1.00  0.00    -0.348 OA 
BRANCH  14  15
HETATM   15  C   UNL     1     -12.484  13.858  65.274  1.00  0.00    -0.478 C  
BRANCH  15  16
HETATM   16  C   UNL     1     -12.136  13.025  64.041  1.00  0.00    -0.450 C  
HETATM   17  N   UNL     1     -10.915  12.249  64.261  1.00  0.00    -0.317 NA 
HETATM   18  H2  UNL     1     -10.982  11.671  65.098  1.00  0.00     0.000 HD 
HETATM   19  H1  UNL     1     -10.682  11.693  63.439  1.00  0.00     0.000 HD 
ENDBRANCH  15  16
ENDBRANCH  14  15
ENDBRANCH  13  14
ENDBRANCH   7  13
BRANCH   8  20
HETATM   20  C   UNL     1      -5.914  12.449  67.444  1.00  0.00    -0.154 C  
HETATM   21  O   UNL     1      -5.256  12.016  66.509  1.00  0.00    -0.332 OA 
BRANCH  20  22
HETATM   22  O   UNL     1      -5.455  12.552  68.715  1.00  0.00    -0.057 OA 
HETATM   23  C   UNL     1      -5.426  11.316  69.439  1.00  0.00    -0.045 C  
ENDBRANCH  20  22
ENDBRANCH   8  20
BRANCH  11  24
HETATM   24  C   UNL     1      -6.809  15.235  68.344  1.00  0.00    -0.112 A  
HETATM   25  C   UNL     1      -6.795  14.832  69.694  1.00  0.00    -0.173 A  
HETATM   26  C   UNL     1      -6.131  15.591  70.662  1.00  0.00     0.125 A  
HETATM   27  C   UNL     1      -5.461  16.758  70.307  1.00  0.00    -0.209 A  
HETATM   28  C   UNL     1      -5.450  17.168  68.977  1.00  0.00    -0.150 A  
HETATM   29  C   UNL     1      -6.120  16.422  68.001  1.00  0.00    -0.118 A  
HETATM   30 CL   UNL     1      -6.091  17.058  66.389  1.00  0.00    -0.198 Cl 
ENDBRANCH  11  24
ENDBRANCH   4   6
ENDBRANCH   3   4
ENDBRANCH   2   3
TORSDOF 10
ENDMDL
MODEL      181
REMARK 921   NORMALIZED FREE ENERGY PREDICTED BY IDOCK:   -2.70 KCAL/MOL
REMARK 922        TOTAL FREE ENERGY PREDICTED BY IDOCK:   -5.84 KCAL/MOL
REMARK 923 INTER-LIGAND FREE ENERGY PREDICTED BY IDOCK:   -5.23 KCAL/MOL
REMARK 924 INTRA-LIGAND FREE ENERGY PREDICTED BY IDOCK:   -0.62 KCAL/MOL
REMARK 927      BINDING AFFINITY PREDICTED BY RF-SCORE:    0.00 PKD
ROOT
HETATM    1  C   UNL     1     -10.362  17.974  66.651  1.00  0.00    -0.375 C  
HETATM    2  C   UNL     1     -10.334  17.304  68.019  1.00  0.00    -0.353 C  
ENDROOT
BRANCH   2   3
HETATM    3  O   UNL     1     -11.082  16.081  67.989  1.00  0.00    -0.341 OA 
BRANCH   3   4
HETATM    4  C   UNL     1     -10.771  15.150  68.922  1.00  0.00    -0.240 C  
HETATM    5  O   UNL     1     -10.504  15.436  70.078  1.00  0.00    -0.285 OA 
BRANCH   4   6
HETATM    6  C   UNL     1     -10.843  13.749  68.371  1.00  0.00    -0.268 C  
HETATM    7  C   UNL     1     -11.774  12.842  68.772  1.00  0.00    -0.323 C  
HETATM    8  C   UNL     1      -9.829  11.846  66.926  1.00  0.00    -0.217 C  
HETATM    9  N   UNL     1     -11.798  11.576  68.215  1.00  0.00    -0.542 NA 
HETATM   10  C   UNL     1     -10.829  11.052  67.385  1.00  0.00    -0.274 C  
HETATM   11  C   UNL     1      -9.792  13.350  67.291  1.00  0.00    -0.233 C  
HETATM   12  C   UNL     1     -11.004   9.592  67.035  1.00  0.00    -0.020 C  
BRANCH   7  13
HETATM   13  C   UNL     1     -12.830  13.092  69.838  1.00  0.00     0.493 C  
BRANCH  13  14
HETATM   14  O   UNL     1     -12.306  12.999  71.174  1.00  0.00    -0.322 OA 
BRANCH  14  15
HETATM   15  C   UNL     1     -13.318  13.476  72.085  1.00  0.00    -0.500 C  
BRANCH  15  16
HETATM   16  C   UNL     1     -12.757  14.559  73.004  1.00  0.00    -0.396 C  
HETATM   17  N   UNL     1     -13.393  15.851  72.739  1.00  0.00    -0.516 NA 
HETATM   18  H2  UNL     1     -14.408  15.792  72.804  1.00  0.00     0.000 HD 
HETATM   19  H1  UNL     1     -13.019  16.575  73.353  1.00  0.00     0.000 HD 
ENDBRANCH  15  16
ENDBRANCH  14  15
ENDBRANCH  13  14
ENDBRANCH   7  13
BRANCH   8  20
HETATM   20  C   UNL     1      -8.773  11.251  66.056  1.00  0.00    -0.164 C  
HETATM   21  O   UNL     1      -8.830  11.212  64.835  1.00  0.00    -0.114 OA 
BRANCH  20  22
HETATM   22  O   UNL     1      -7.741  10.763  66.787  1.00  0.00    -0.123 OA 
HETATM   23  C   UNL     1      -6.578  10.423  66.021  1.00  0.00    -0.120 C  
ENDBRANCH  20  22
ENDBRANCH   8  20
BRANCH  11  24
HETATM   24  C   UNL     1      -8.380  13.848  67.629  1.00  0.00    -0.183 A  
HETATM   25  C   UNL     1      -7.841  14.955  66.944  1.00  0.00    -0.005 A  
HETATM   26  C   UNL     1      -6.522  15.363  67.166  1.00  0.00     0.157 A  
HETATM   27  C   UNL     1      -5.718  14.688  68.080  1.00  0.00    -0.145 A  
HETATM   28  C   UNL     1      -6.234  13.601  68.779  1.00  0.00    -0.089 A  
HETATM   29  C   UNL     1      -7.550  13.177  68.557  1.00  0.00    -0.122 A  
HETATM   30 CL   UNL     1      -8.067  11.777  69.437  1.00  0.00     0.394 Cl 
ENDBRANCH  11  24
ENDBRANCH   4   6
ENDBRANCH   3   4
ENDBRANCH   2   3
TORSDOF 10
ENDMDL
MODEL      182
REMARK 921   NORMALIZED FREE ENERGY PREDICTED BY IDOCK:   -2.63 KCAL/MOL
REMARK 922        TOTAL FREE ENERGY PREDICTED BY IDOCK:   -5.72 KCAL/MOL
REMARK 923 INTER-LIGAND FREE ENERGY PREDICTED BY IDOCK:   -4.64 KCAL/MOL
REMARK 924 INTRA-LIGAND FREE ENERGY PREDICTED BY IDOCK:   -1.08 KCAL/MOL
REMARK 927      BINDING AFFINITY PREDICTED BY RF-SCORE:    0.00 PKD
ROOT
HETATM    1  C   UNL     1     -12.018  10.009  71.079  1.00  0.00    -0.469 C  
HETATM    2  C   UNL     1     -10.752  10.171  70.248  1.00  0.00    -0.293 C  
ENDROOT
BRANCH   2   3
HETATM    3  O   UNL     1      -9.711   9.326  70.755  1.00  0.00    -0.246 OA 
BRANCH   3   4
HETATM    4  C   UNL     1      -8.495   9.433  70.170  1.00  0.00    -0.205 C  
HETATM    5  O   UNL     1      -7.544   9.970  70.717  1.00  0.00    -0.265 OA 
BRANCH   4   6
HETATM    6  C   UNL     1      -8.457   8.778  68.815  1.00  0.00    -0.129 C  
HETATM    7  C   UNL     1      -8.288   7.439  68.642  1.00  0.00    -0.129 C  
HETATM    8  C   UNL     1      -8.388   8.967  66.226  1.00  0.00    -0.122 C  
HETATM    9  N   UNL     1      -8.279   6.896  67.370  1.00  0.00    -0.118 NA 
HETATM   10  C   UNL     1      -8.249   7.618  66.196  1.00  0.00    -0.124 C  
HETATM   11  C   UNL     1      -8.626   9.699  67.569  1.00  0.00    -0.126 C  
HETATM   12  C   UNL     1      -8.084   6.793  64.939  1.00  0.00    -0.112 C  
BRANCH   7  13
HETATM   13  C   UNL     1      -8.079   6.437  69.768  1.00  0.00    -0.121 C  
BRANCH  13  14
HETATM   14  O   UNL     1      -9.267   5.682  70.068  1.00  0.00    -0.140 OA 
BRANCH  14  15
HETATM   15  C   UNL     1      -8.903   4.620  70.973  1.00  0.00    -0.116 C  
BRANCH  15  16
HETATM   16  C   UNL     1      -9.620   3.321  70.607  1.00  0.00    -0.153 C  
HETATM   17  N   UNL     1      -9.463   2.320  71.664  1.00  0.00    -0.118 NA 
HETATM   18  H2  UNL     1      -9.769   2.677  72.568  1.00  0.00     0.000 HD 
HETATM   19  H1  UNL     1      -9.941   1.454  71.420  1.00  0.00     0.000 HD 
ENDBRANCH  15  16
ENDBRANCH  14  15
ENDBRANCH  13  14
ENDBRANCH   7  13
BRANCH   8  20
HETATM   20  C   UNL     1      -8.318   9.732  64.947  1.00  0.00    -0.148 C  
HETATM   21  O   UNL     1      -7.325  10.330  64.557  1.00  0.00    -0.135 OA 
BRANCH  20  22
HETATM   22  O   UNL     1      -9.491   9.680  64.269  1.00  0.00    -0.213 OA 
HETATM   23  C   UNL     1     -10.403  10.742  64.576  1.00  0.00    -0.331 C  
ENDBRANCH  20  22
ENDBRANCH   8  20
BRANCH  11  24
HETATM   24  C   UNL     1      -7.825  11.005  67.688  1.00  0.00    -0.114 A  
HETATM   25  C   UNL     1      -8.487  12.246  67.615  1.00  0.00    -0.166 A  
HETATM   26  C   UNL     1      -7.766  13.445  67.621  1.00  0.00    -0.179 A  
HETATM   27  C   UNL     1      -6.377  13.433  67.712  1.00  0.00    -0.164 A  
HETATM   28  C   UNL     1      -5.703  12.218  67.799  1.00  0.00    -0.097 A  
HETATM   29  C   UNL     1      -6.414  11.012  67.782  1.00  0.00    -0.063 A  
HETATM   30 CL   UNL     1      -5.469   9.560  67.835  1.00  0.00    -0.040 Cl 
ENDBRANCH  11  24
ENDBRANCH   4   6
ENDBRANCH   3   4
ENDBRANCH   2   3
TORSDOF 10
ENDMDL
MODEL      183
REMARK 921   NORMALIZED FREE ENERGY PREDICTED BY IDOCK:   -2.62 KCAL/MOL
REMARK 922        TOTAL FREE ENERGY PREDICTED BY IDOCK:   -5.71 KCAL/MOL
REMARK 923 INTER-LIGAND FREE ENERGY PREDICTED BY IDOCK:   -4.49 KCAL/MOL
REMARK 924 INTRA-LIGAND FREE ENERGY PREDICTED BY IDOCK:   -1.22 KCAL/MOL
REMARK 927      BINDING AFFINITY PREDICTED BY RF-SCORE:    0.00 PKD
ROOT
HETATM    1  C   UNL     1     -10.297  11.927  68.783  1.00  0.00    -0.184 C  
HETATM    2  C   UNL     1      -9.277  10.796  68.728  1.00  0.00    -0.189 C  
ENDROOT
BRANCH   2   3
HETATM    3  O   UNL     1      -9.922   9.534  68.939  1.00  0.00    -0.168 OA 
BRANCH   3   4
HETATM    4  C   UNL     1     -10.570   8.992  67.881  1.00  0.00    -0.196 C  
HETATM    5  O   UNL     1     -11.269   9.649  67.127  1.00  0.00     0.015 OA 
BRANCH   4   6
HETATM    6  C   UNL     1     -10.283   7.520  67.733  1.00  0.00    -0.257 C  
HETATM    7  C   UNL     1     -10.710   6.587  68.626  1.00  0.00    -0.271 C  
HETATM    8  C   UNL     1      -9.059   5.579  66.519  1.00  0.00    -0.138 C  
HETATM    9  N   UNL     1     -10.427   5.249  68.424  1.00  0.00    -0.120 NA 
HETATM   10  C   UNL     1      -9.573   4.751  67.462  1.00  0.00    -0.158 C  
HETATM   11  C   UNL     1      -9.460   7.074  66.486  1.00  0.00    -0.199 C  
HETATM   12  C   UNL     1      -9.309   3.265  67.546  1.00  0.00    -0.250 C  
BRANCH   7  13
HETATM   13  C   UNL     1     -11.489   6.893  69.897  1.00  0.00    -0.242 C  
BRANCH  13  14
HETATM   14  O   UNL     1     -10.932   6.253  71.059  1.00  0.00    -0.256 OA 
BRANCH  14  15
HETATM   15  C   UNL     1     -10.191   7.244  71.800  1.00  0.00    -0.194 C  
BRANCH  15  16
HETATM   16  C   UNL     1     -11.112   8.362  72.287  1.00  0.00    -0.368 C  
HETATM   17  N   UNL     1     -10.892   9.591  71.523  1.00  0.00    -0.330 NA 
HETATM   18  H2  UNL     1     -10.989   9.434  70.520  1.00  0.00     0.000 HD 
HETATM   19  H1  UNL     1     -11.507  10.337  71.848  1.00  0.00     0.000 HD 
ENDBRANCH  15  16
ENDBRANCH  14  15
ENDBRANCH  13  14
ENDBRANCH   7  13
BRANCH   8  20
HETATM   20  C   UNL     1      -8.111   5.026  65.508  1.00  0.00    -0.115 C  
HETATM   21  O   UNL     1      -8.416   4.759  64.354  1.00  0.00    -0.122 OA 
BRANCH  20  22
HETATM   22  O   UNL     1      -6.870   4.861  66.025  1.00  0.00    -0.055 OA 
HETATM   23  C   UNL     1      -6.149   3.742  65.495  1.00  0.00    -0.024 C  
ENDBRANCH  20  22
ENDBRANCH   8  20
BRANCH  11  24
HETATM   24  C   UNL     1      -8.273   8.005  66.198  1.00  0.00    -0.116 A  
HETATM   25  C   UNL     1      -8.216   8.718  64.985  1.00  0.00    -0.156 A  
HETATM   26  C   UNL     1      -7.098   9.493  64.660  1.00  0.00    -0.106 A  
HETATM   27  C   UNL     1      -6.023   9.584  65.539  1.00  0.00    -0.064 A  
HETATM   28  C   UNL     1      -6.064   8.898  66.749  1.00  0.00    -0.057 A  
HETATM   29  C   UNL     1      -7.173   8.111  67.080  1.00  0.00    -0.083 A  
HETATM   30 CL   UNL     1      -7.090   7.255  68.585  1.00  0.00    -0.082 Cl 
ENDBRANCH  11  24
ENDBRANCH   4   6
ENDBRANCH   3   4
ENDBRANCH   2   3
TORSDOF 10
ENDMDL
MODEL      184
REMARK 921   NORMALIZED FREE ENERGY PREDICTED BY IDOCK:   -2.44 KCAL/MOL
REMARK 922        TOTAL FREE ENERGY PREDICTED BY IDOCK:   -5.43 KCAL/MOL
REMARK 923 INTER-LIGAND FREE ENERGY PREDICTED BY IDOCK:   -4.74 KCAL/MOL
REMARK 924 INTRA-LIGAND FREE ENERGY PREDICTED BY IDOCK:   -0.70 KCAL/MOL
REMARK 927      BINDING AFFINITY PREDICTED BY RF-SCORE:    0.00 PKD
ROOT
HETATM    1  C   UNL     1     -12.456   9.421  71.413  1.00  0.00    -0.435 C  
HETATM    2  C   UNL     1     -11.855   9.948  70.117  1.00  0.00    -0.124 C  
ENDROOT
BRANCH   2   3
HETATM    3  O   UNL     1     -10.438   9.732  70.101  1.00  0.00    -0.247 OA 
BRANCH   3   4
HETATM    4  C   UNL     1      -9.953   8.788  70.942  1.00  0.00    -0.222 C  
HETATM    5  O   UNL     1      -9.645   9.029  72.099  1.00  0.00    -0.312 OA 
BRANCH   4   6
HETATM    6  C   UNL     1      -9.891   7.429  70.295  1.00  0.00    -0.187 C  
HETATM    7  C   UNL     1     -10.243   6.284  70.939  1.00  0.00    -0.193 C  
HETATM    8  C   UNL     1      -9.194   5.917  68.303  1.00  0.00    -0.117 C  
HETATM    9  N   UNL     1     -10.180   5.068  70.282  1.00  0.00    -0.266 NA 
HETATM   10  C   UNL     1      -9.608   4.859  69.045  1.00  0.00    -0.157 C  
HETATM   11  C   UNL     1      -9.400   7.362  68.817  1.00  0.00    -0.144 C  
HETATM   12  C   UNL     1      -9.524   3.413  68.613  1.00  0.00    -0.205 C  
BRANCH   7  13
HETATM   13  C   UNL     1     -10.705   6.207  72.387  1.00  0.00    -0.231 C  
BRANCH  13  14
HETATM   14  O   UNL     1      -9.632   5.907  73.298  1.00  0.00    -0.143 OA 
BRANCH  14  15
HETATM   15  C   UNL     1     -10.137   4.997  74.296  1.00  0.00    -0.234 C  
BRANCH  15  16
HETATM   16  C   UNL     1     -11.137   4.017  73.684  1.00  0.00    -0.247 C  
HETATM   17  N   UNL     1     -10.690   2.634  73.861  1.00  0.00    -0.169 NA 
HETATM   18  H2  UNL     1     -10.505   2.421  74.841  1.00  0.00     0.000 HD 
HETATM   19  H1  UNL     1     -11.356   1.980  73.453  1.00  0.00     0.000 HD 
ENDBRANCH  15  16
ENDBRANCH  14  15
ENDBRANCH  13  14
ENDBRANCH   7  13
BRANCH   8  20
HETATM   20  C   UNL     1      -8.548   5.667  66.982  1.00  0.00    -0.109 C  
HETATM   21  O   UNL     1      -9.124   5.760  65.907  1.00  0.00    -0.159 OA 
BRANCH  20  22
HETATM   22  O   UNL     1      -7.244   5.326  67.120  1.00  0.00    -0.075 OA 
HETATM   23  C   UNL     1      -6.837   4.198  66.335  1.00  0.00    -0.055 C  
ENDBRANCH  20  22
ENDBRANCH   8  20
BRANCH  11  24
HETATM   24  C   UNL     1      -8.187   8.268  68.556  1.00  0.00    -0.131 A  
HETATM   25  C   UNL     1      -7.046   8.169  69.375  1.00  0.00    -0.055 A  
HETATM   26  C   UNL     1      -5.971   9.050  69.218  1.00  0.00    -0.041 A  
HETATM   27  C   UNL     1      -6.006  10.037  68.237  1.00  0.00    -0.042 A  
HETATM   28  C   UNL     1      -7.118  10.145  67.407  1.00  0.00    -0.084 A  
HETATM   29  C   UNL     1      -8.204   9.275  67.563  1.00  0.00    -0.114 A  
HETATM   30 CL   UNL     1      -9.559   9.538  66.515  1.00  0.00    -0.240 Cl 
ENDBRANCH  11  24
ENDBRANCH   4   6
ENDBRANCH   3   4
ENDBRANCH   2   3
TORSDOF 10
ENDMDL
MODEL      185
REMARK 921   NORMALIZED FREE ENERGY PREDICTED BY IDOCK:   -2.44 KCAL/MOL
REMARK 922        TOTAL FREE ENERGY PREDICTED BY IDOCK:   -5.42 KCAL/MOL
REMARK 923 INTER-LIGAND FREE ENERGY PREDICTED BY IDOCK:   -5.10 KCAL/MOL
REMARK 924 INTRA-LIGAND FREE ENERGY PREDICTED BY IDOCK:   -0.32 KCAL/MOL
REMARK 927      BINDING AFFINITY PREDICTED BY RF-SCORE:    0.00 PKD
ROOT
HETATM    1  C   UNL     1     -10.097  19.978  66.826  1.00  0.00    -0.607 C  
HETATM    2  C   UNL     1     -10.871  18.842  66.169  1.00  0.00    -0.130 C  
ENDROOT
BRANCH   2   3
HETATM    3  O   UNL     1     -10.540  17.592  66.786  1.00  0.00    -0.294 OA 
BRANCH   3   4
HETATM    4  C   UNL     1     -10.220  16.567  65.961  1.00  0.00    -0.356 C  
HETATM    5  O   UNL     1     -10.552  16.536  64.787  1.00  0.00    -0.684 OA 
BRANCH   4   6
HETATM    6  C   UNL     1      -9.382  15.523  66.652  1.00  0.00    -0.291 C  
HETATM    7  C   UNL     1      -8.050  15.675  66.884  1.00  0.00    -0.255 C  
HETATM    8  C   UNL     1      -9.128  13.136  67.642  1.00  0.00    -0.201 C  
HETATM    9  N   UNL     1      -7.339  14.685  67.539  1.00  0.00    -0.189 NA 
HETATM   10  C   UNL     1      -7.819  13.428  67.843  1.00  0.00    -0.152 C  
HETATM   11  C   UNL     1     -10.100  14.219  67.115  1.00  0.00    -0.254 C  
HETATM   12  C   UNL     1      -6.798  12.474  68.419  1.00  0.00    -0.085 C  
BRANCH   7  13
HETATM   13  C   UNL     1      -7.224  16.879  66.455  1.00  0.00    -0.262 C  
BRANCH  13  14
HETATM   14  O   UNL     1      -5.924  16.909  67.070  1.00  0.00    -0.147 OA 
BRANCH  14  15
HETATM   15  C   UNL     1      -5.898  18.009  68.003  1.00  0.00    -0.163 C  
BRANCH  15  16
HETATM   16  C   UNL     1      -6.163  19.334  67.290  1.00  0.00    -0.186 C  
HETATM   17  N   UNL     1      -5.161  19.578  66.250  1.00  0.00    -0.158 NA 
HETATM   18  H2  UNL     1      -5.105  18.802  65.592  1.00  0.00     0.000 HD 
HETATM   19  H1  UNL     1      -5.337  20.463  65.774  1.00  0.00     0.000 HD 
ENDBRANCH  15  16
ENDBRANCH  14  15
ENDBRANCH  13  14
ENDBRANCH   7  13
BRANCH   8  20
HETATM   20  C   UNL     1      -9.619  11.760  67.946  1.00  0.00    -0.187 C  
HETATM   21  O   UNL     1     -10.615  11.518  68.613  1.00  0.00    -0.194 OA 
BRANCH  20  22
HETATM   22  O   UNL     1      -8.826  10.813  67.390  1.00  0.00    -0.129 OA 
HETATM   23  C   UNL     1      -9.436  10.082  66.318  1.00  0.00    -0.191 C  
ENDBRANCH  20  22
ENDBRANCH   8  20
BRANCH  11  24
HETATM   24  C   UNL     1     -11.081  13.681  66.063  1.00  0.00    -0.297 A  
HETATM   25  C   UNL     1     -12.470  13.806  66.266  1.00  0.00    -0.441 A  
HETATM   26  C   UNL     1     -13.380  13.235  65.370  1.00  0.00     0.630 A  
HETATM   27  C   UNL     1     -12.929  12.541  64.251  1.00  0.00    -0.253 A  
HETATM   28  C   UNL     1     -11.561  12.417  64.024  1.00  0.00    -0.488 A  
HETATM   29  C   UNL     1     -10.641  12.975  64.920  1.00  0.00    -0.337 A  
HETATM   30 CL   UNL     1      -8.965  12.708  64.569  1.00  0.00     1.197 Cl 
ENDBRANCH  11  24
ENDBRANCH   4   6
ENDBRANCH   3   4
ENDBRANCH   2   3
TORSDOF 10
ENDMDL
MODEL      186
REMARK 921   NORMALIZED FREE ENERGY PREDICTED BY IDOCK:   -2.37 KCAL/MOL
REMARK 922        TOTAL FREE ENERGY PREDICTED BY IDOCK:   -5.32 KCAL/MOL
REMARK 923 INTER-LIGAND FREE ENERGY PREDICTED BY IDOCK:   -5.21 KCAL/MOL
REMARK 924 INTRA-LIGAND FREE ENERGY PREDICTED BY IDOCK:   -0.11 KCAL/MOL
REMARK 927      BINDING AFFINITY PREDICTED BY RF-SCORE:    0.00 PKD
ROOT
HETATM    1  C   UNL     1     -12.992  13.633  71.212  1.00  0.00    -0.399 C  
HETATM    2  C   UNL     1     -12.465  12.205  71.170  1.00  0.00    -0.234 C  
ENDROOT
BRANCH   2   3
HETATM    3  O   UNL     1     -11.285  12.133  70.359  1.00  0.00     0.295 OA 
BRANCH   3   4
HETATM    4  C   UNL     1     -11.200  11.097  69.491  1.00  0.00    -0.277 C  
HETATM    5  O   UNL     1     -12.115  10.780  68.749  1.00  0.00    -0.451 OA 
BRANCH   4   6
HETATM    6  C   UNL     1      -9.846  10.437  69.527  1.00  0.00    -0.211 C  
HETATM    7  C   UNL     1      -8.903  10.624  68.565  1.00  0.00    -0.148 C  
HETATM    8  C   UNL     1      -8.204   8.731  70.592  1.00  0.00    -0.159 C  
HETATM    9  N   UNL     1      -7.672  10.001  68.665  1.00  0.00    -0.084 NA 
HETATM   10  C   UNL     1      -7.343   9.030  69.587  1.00  0.00    -0.064 C  
HETATM   11  C   UNL     1      -9.537   9.504  70.738  1.00  0.00    -0.261 C  
HETATM   12  C   UNL     1      -5.986   8.393  69.391  1.00  0.00    -0.037 C  
BRANCH   7  13
HETATM   13  C   UNL     1      -9.089  11.478  67.320  1.00  0.00    -0.164 C  
BRANCH  13  14
HETATM   14  O   UNL     1     -10.458  11.872  67.114  1.00  0.00    -0.214 OA 
BRANCH  14  15
HETATM   15  C   UNL     1     -10.606  12.267  65.735  1.00  0.00    -0.254 C  
BRANCH  15  16
HETATM   16  C   UNL     1     -10.228  13.735  65.544  1.00  0.00    -0.316 C  
HETATM   17  N   UNL     1     -10.607  14.528  66.715  1.00  0.00    -0.273 NA 
HETATM   18  H2  UNL     1     -10.210  14.146  67.573  1.00  0.00     0.000 HD 
HETATM   19  H1  UNL     1     -10.355  15.508  66.589  1.00  0.00     0.000 HD 
ENDBRANCH  15  16
ENDBRANCH  14  15
ENDBRANCH  13  14
ENDBRANCH   7  13
BRANCH   8  20
HETATM   20  C   UNL     1      -7.842   7.655  71.560  1.00  0.00    -0.086 C  
HETATM   21  O   UNL     1      -7.413   7.859  72.686  1.00  0.00    -0.091 OA 
BRANCH  20  22
HETATM   22  O   UNL     1      -8.051   6.422  71.037  1.00  0.00    -0.117 OA 
HETATM   23  C   UNL     1      -7.116   5.426  71.469  1.00  0.00    -0.068 C  
ENDBRANCH  20  22
ENDBRANCH   8  20
BRANCH  11  24
HETATM   24  C   UNL     1     -10.719   8.593  71.098  1.00  0.00    -0.303 A  
HETATM   25  C   UNL     1     -11.337   8.707  72.359  1.00  0.00    -0.353 A  
HETATM   26  C   UNL     1     -12.349   7.822  72.745  1.00  0.00     0.062 A  
HETATM   27  C   UNL     1     -12.774   6.817  71.882  1.00  0.00    -0.298 A  
HETATM   28  C   UNL     1     -12.188   6.695  70.625  1.00  0.00    -0.262 A  
HETATM   29  C   UNL     1     -11.167   7.568  70.233  1.00  0.00    -0.236 A  
HETATM   30 CL   UNL     1     -10.469   7.287  68.672  1.00  0.00    -0.210 Cl 
ENDBRANCH  11  24
ENDBRANCH   4   6
ENDBRANCH   3   4
ENDBRANCH   2   3
TORSDOF 10
ENDMDL
MODEL      187
REMARK 921   NORMALIZED FREE ENERGY PREDICTED BY IDOCK:   -2.33 KCAL/MOL
REMARK 922        TOTAL FREE ENERGY PREDICTED BY IDOCK:   -5.26 KCAL/MOL
REMARK 923 INTER-LIGAND FREE ENERGY PREDICTED BY IDOCK:   -3.95 KCAL/MOL
REMARK 924 INTRA-LIGAND FREE ENERGY PREDICTED BY IDOCK:   -1.31 KCAL/MOL
REMARK 927      BINDING AFFINITY PREDICTED BY RF-SCORE:    0.00 PKD
ROOT
HETATM    1  C   UNL     1      -6.129   6.898  67.267  1.00  0.00    -0.036 C  
HETATM    2  C   UNL     1      -7.522   7.354  67.683  1.00  0.00    -0.097 C  
ENDROOT
BRANCH   2   3
HETATM    3  O   UNL     1      -7.530   8.767  67.928  1.00  0.00    -0.091 OA 
BRANCH   3   4
HETATM    4  C   UNL     1      -8.014   9.557  66.940  1.00  0.00    -0.109 C  
HETATM    5  O   UNL     1      -8.690   9.125  66.020  1.00  0.00    -0.138 OA 
BRANCH   4   6
HETATM    6  C   UNL     1      -7.658  11.006  67.147  1.00  0.00    -0.117 C  
HETATM    7  C   UNL     1      -6.388  11.481  67.042  1.00  0.00    -0.133 C  
HETATM    8  C   UNL     1      -8.334  13.407  67.869  1.00  0.00    -0.166 C  
HETATM    9  N   UNL     1      -6.129  12.827  67.228  1.00  0.00    -0.289 NA 
HETATM   10  C   UNL     1      -7.034  13.754  67.700  1.00  0.00    -0.174 C  
HETATM   11  C   UNL     1      -8.820  11.986  67.493  1.00  0.00    -0.172 C  
HETATM   12  C   UNL     1      -6.464  15.129  67.965  1.00  0.00    -0.156 C  
BRANCH   7  13
HETATM   13  C   UNL     1      -5.163  10.629  66.744  1.00  0.00    -0.048 C  
BRANCH  13  14
HETATM   14  O   UNL     1      -5.381   9.698  65.669  1.00  0.00    -0.041 OA 
BRANCH  14  15
HETATM   15  C   UNL     1      -5.402  10.441  64.433  1.00  0.00    -0.143 C  
BRANCH  15  16
HETATM   16  C   UNL     1      -6.112   9.651  63.334  1.00  0.00    -0.104 C  
HETATM   17  N   UNL     1      -7.523  10.031  63.246  1.00  0.00    -0.136 NA 
HETATM   18  H2  UNL     1      -7.636  11.036  63.119  1.00  0.00     0.000 HD 
HETATM   19  H1  UNL     1      -7.997   9.504  62.512  1.00  0.00     0.000 HD 
ENDBRANCH  15  16
ENDBRANCH  14  15
ENDBRANCH  13  14
ENDBRANCH   7  13
BRANCH   8  20
HETATM   20  C   UNL     1      -9.290  14.416  68.412  1.00  0.00    -0.206 C  
HETATM   21  O   UNL     1      -9.313  14.782  69.579  1.00  0.00    -0.049 OA 
BRANCH  20  22
HETATM   22  O   UNL     1     -10.126  14.879  67.452  1.00  0.00    -0.228 OA 
HETATM   23  C   UNL     1     -10.408  16.281  67.535  1.00  0.00    -0.288 C  
ENDBRANCH  20  22
ENDBRANCH   8  20
BRANCH  11  24
HETATM   24  C   UNL     1      -9.801  11.399  68.519  1.00  0.00    -0.200 A  
HETATM   25  C   UNL     1      -9.313  10.801  69.698  1.00  0.00     0.215 A  
HETATM   26  C   UNL     1     -10.182  10.173  70.596  1.00  0.00     0.081 A  
HETATM   27  C   UNL     1     -11.551  10.138  70.347  1.00  0.00    -0.396 A  
HETATM   28  C   UNL     1     -12.056  10.735  69.196  1.00  0.00    -0.227 A  
HETATM   29  C   UNL     1     -11.195  11.356  68.284  1.00  0.00    -0.263 A  
HETATM   30 CL   UNL     1     -11.926  12.013  66.857  1.00  0.00    -0.235 Cl 
ENDBRANCH  11  24
ENDBRANCH   4   6
ENDBRANCH   3   4
ENDBRANCH   2   3
TORSDOF 10
ENDMDL
MODEL      188
REMARK 921   NORMALIZED FREE ENERGY PREDICTED BY IDOCK:   -2.31 KCAL/MOL
REMARK 922        TOTAL FREE ENERGY PREDICTED BY IDOCK:   -5.21 KCAL/MOL
REMARK 923 INTER-LIGAND FREE ENERGY PREDICTED BY IDOCK:   -3.94 KCAL/MOL
REMARK 924 INTRA-LIGAND FREE ENERGY PREDICTED BY IDOCK:   -1.27 KCAL/MOL
REMARK 927      BINDING AFFINITY PREDICTED BY RF-SCORE:    0.00 PKD
ROOT
HETATM    1  C   UNL     1      -7.816  13.055  68.295  1.00  0.00    -0.143 C  
HETATM    2  C   UNL     1      -8.306  11.688  67.837  1.00  0.00    -0.143 C  
ENDROOT
BRANCH   2   3
HETATM    3  O   UNL     1      -8.375  10.785  68.948  1.00  0.00    -0.138 OA 
BRANCH   3   4
HETATM    4  C   UNL     1      -9.576  10.211  69.198  1.00  0.00    -0.212 C  
HETATM    5  O   UNL     1     -10.595  10.860  69.367  1.00  0.00    -0.220 OA 
BRANCH   4   6
HETATM    6  C   UNL     1      -9.498   8.707  69.190  1.00  0.00    -0.157 C  
HETATM    7  C   UNL     1      -9.163   7.975  70.286  1.00  0.00    -0.155 C  
HETATM    8  C   UNL     1      -9.538   6.460  67.890  1.00  0.00    -0.121 C  
HETATM    9  N   UNL     1      -9.126   6.594  70.218  1.00  0.00    -0.155 NA 
HETATM   10  C   UNL     1      -9.227   5.850  69.061  1.00  0.00    -0.124 C  
HETATM   11  C   UNL     1      -9.825   7.980  67.850  1.00  0.00    -0.204 C  
HETATM   12  C   UNL     1      -8.999   4.366  69.231  1.00  0.00    -0.148 C  
BRANCH   7  13
HETATM   13  C   UNL     1      -8.790   8.559  71.641  1.00  0.00    -0.207 C  
BRANCH  13  14
HETATM   14  O   UNL     1      -7.465   9.120  71.659  1.00  0.00    -0.326 OA 
BRANCH  14  15
HETATM   15  C   UNL     1      -6.531   8.068  71.340  1.00  0.00    -0.040 C  
BRANCH  15  16
HETATM   16  C   UNL     1      -6.347   7.125  72.528  1.00  0.00    -0.052 C  
HETATM   17  N   UNL     1      -6.946   5.817  72.254  1.00  0.00    -0.080 NA 
HETATM   18  H2  UNL     1      -6.585   5.410  71.392  1.00  0.00     0.000 HD 
HETATM   19  H1  UNL     1      -6.823   5.186  73.046  1.00  0.00     0.000 HD 
ENDBRANCH  15  16
ENDBRANCH  14  15
ENDBRANCH  13  14
ENDBRANCH   7  13
BRANCH   8  20
HETATM   20  C   UNL     1      -9.610   5.642  66.644  1.00  0.00    -0.152 C  
HETATM   21  O   UNL     1      -8.636   5.302  65.988  1.00  0.00    -0.117 OA 
BRANCH  20  22
HETATM   22  O   UNL     1     -10.889   5.319  66.331  1.00  0.00    -0.292 OA 
HETATM   23  C   UNL     1     -11.022   4.176  65.478  1.00  0.00     0.491 C  
ENDBRANCH  20  22
ENDBRANCH   8  20
BRANCH  11  24
HETATM   24  C   UNL     1      -9.196   8.675  66.633  1.00  0.00    -0.227 A  
HETATM   25  C   UNL     1     -10.011   9.377  65.723  1.00  0.00    -0.278 A  
HETATM   26  C   UNL     1      -9.473   9.932  64.558  1.00  0.00    -0.328 A  
HETATM   27  C   UNL     1      -8.115   9.810  64.280  1.00  0.00    -0.152 A  
HETATM   28  C   UNL     1      -7.288   9.133  65.172  1.00  0.00    -0.096 A  
HETATM   29  C   UNL     1      -7.818   8.564  66.336  1.00  0.00    -0.099 A  
HETATM   30 CL   UNL     1      -6.708   7.694  67.343  1.00  0.00    -0.066 Cl 
ENDBRANCH  11  24
ENDBRANCH   4   6
ENDBRANCH   3   4
ENDBRANCH   2   3
TORSDOF 10
ENDMDL
MODEL      189
REMARK 921   NORMALIZED FREE ENERGY PREDICTED BY IDOCK:   -2.28 KCAL/MOL
REMARK 922        TOTAL FREE ENERGY PREDICTED BY IDOCK:   -5.17 KCAL/MOL
REMARK 923 INTER-LIGAND FREE ENERGY PREDICTED BY IDOCK:   -4.12 KCAL/MOL
REMARK 924 INTRA-LIGAND FREE ENERGY PREDICTED BY IDOCK:   -1.04 KCAL/MOL
REMARK 927      BINDING AFFINITY PREDICTED BY RF-SCORE:    0.00 PKD
ROOT
HETATM    1  C   UNL     1     -10.875  10.473  69.763  1.00  0.00    -0.335 C  
HETATM    2  C   UNL     1     -10.233   9.201  69.224  1.00  0.00    -0.210 C  
ENDROOT
BRANCH   2   3
HETATM    3  O   UNL     1      -9.400   9.502  68.098  1.00  0.00    -0.133 OA 
BRANCH   3   4
HETATM    4  C   UNL     1      -9.893   9.203  66.873  1.00  0.00    -0.217 C  
HETATM    5  O   UNL     1     -11.086   9.055  66.659  1.00  0.00     0.235 OA 
BRANCH   4   6
HETATM    6  C   UNL     1      -8.811   9.128  65.827  1.00  0.00    -0.210 C  
HETATM    7  C   UNL     1      -8.693  10.028  64.815  1.00  0.00    -0.187 C  
HETATM    8  C   UNL     1      -6.836   7.855  64.723  1.00  0.00    -0.055 C  
HETATM    9  N   UNL     1      -7.666   9.913  63.896  1.00  0.00    -0.136 NA 
HETATM   10  C   UNL     1      -6.811   8.837  63.788  1.00  0.00    -0.088 C  
HETATM   11  C   UNL     1      -7.789   7.955  65.938  1.00  0.00    -0.101 C  
HETATM   12  C   UNL     1      -5.873   8.879  62.602  1.00  0.00    -0.086 C  
BRANCH   7  13
HETATM   13  C   UNL     1      -9.640  11.195  64.574  1.00  0.00    -0.250 C  
BRANCH  13  14
HETATM   14  O   UNL     1     -10.669  10.889  63.616  1.00  0.00    -0.287 OA 
BRANCH  14  15
HETATM   15  C   UNL     1     -11.604  11.986  63.600  1.00  0.00    -0.486 C  
BRANCH  15  16
HETATM   16  C   UNL     1     -11.093  13.149  64.449  1.00  0.00    -0.381 C  
HETATM   17  N   UNL     1     -11.555  14.431  63.913  1.00  0.00    -0.595 NA 
HETATM   18  H2  UNL     1     -12.569  14.455  63.814  1.00  0.00     0.000 HD 
HETATM   19  H1  UNL     1     -11.214  15.208  64.479  1.00  0.00     0.000 HD 
ENDBRANCH  15  16
ENDBRANCH  14  15
ENDBRANCH  13  14
ENDBRANCH   7  13
BRANCH   8  20
HETATM   20  C   UNL     1      -5.925   6.683  64.569  1.00  0.00    -0.035 C  
HETATM   21  O   UNL     1      -5.140   6.306  65.427  1.00  0.00    -0.013 OA 
BRANCH  20  22
HETATM   22  O   UNL     1      -6.078   6.087  63.361  1.00  0.00    -0.021 OA 
HETATM   23  C   UNL     1      -7.130   5.116  63.306  1.00  0.00    -0.047 C  
ENDBRANCH  20  22
ENDBRANCH   8  20
BRANCH  11  24
HETATM   24  C   UNL     1      -8.461   6.618  66.283  1.00  0.00    -0.130 A  
HETATM   25  C   UNL     1      -9.433   6.075  65.419  1.00  0.00     0.349 A  
HETATM   26  C   UNL     1     -10.128   4.910  65.763  1.00  0.00    -0.195 A  
HETATM   27  C   UNL     1      -9.861   4.258  66.963  1.00  0.00    -0.216 A  
HETATM   28  C   UNL     1      -8.895   4.769  67.825  1.00  0.00    -0.112 A  
HETATM   29  C   UNL     1      -8.202   5.940  67.496  1.00  0.00    -0.105 A  
HETATM   30 CL   UNL     1      -7.065   6.517  68.670  1.00  0.00    -0.080 Cl 
ENDBRANCH  11  24
ENDBRANCH   4   6
ENDBRANCH   3   4
ENDBRANCH   2   3
TORSDOF 10
ENDMDL
MODEL      190
REMARK 921   NORMALIZED FREE ENERGY PREDICTED BY IDOCK:   -2.23 KCAL/MOL
REMARK 922        TOTAL FREE ENERGY PREDICTED BY IDOCK:   -5.09 KCAL/MOL
REMARK 923 INTER-LIGAND FREE ENERGY PREDICTED BY IDOCK:   -4.34 KCAL/MOL
REMARK 924 INTRA-LIGAND FREE ENERGY PREDICTED BY IDOCK:   -0.75 KCAL/MOL
REMARK 927      BINDING AFFINITY PREDICTED BY RF-SCORE:    0.00 PKD
ROOT
HETATM    1  C   UNL     1     -10.807  10.404  69.837  1.00  0.00    -0.353 C  
HETATM    2  C   UNL     1     -10.004   9.112  69.758  1.00  0.00    -0.193 C  
ENDROOT
BRANCH   2   3
HETATM    3  O   UNL     1      -9.286   9.048  68.518  1.00  0.00    -0.139 OA 
BRANCH   3   4
HETATM    4  C   UNL     1      -9.858   8.340  67.516  1.00  0.00    -0.177 C  
HETATM    5  O   UNL     1     -11.034   8.013  67.525  1.00  0.00    -0.126 OA 
BRANCH   4   6
HETATM    6  C   UNL     1      -8.891   8.059  66.396  1.00  0.00    -0.183 C  
HETATM    7  C   UNL     1      -8.174   6.906  66.305  1.00  0.00    -0.117 C  
HETATM    8  C   UNL     1      -7.581   8.859  64.302  1.00  0.00    -0.115 C  
HETATM    9  N   UNL     1      -7.314   6.701  65.242  1.00  0.00    -0.077 NA 
HETATM   10  C   UNL     1      -6.956   7.655  64.312  1.00  0.00    -0.060 C  
HETATM   11  C   UNL     1      -8.725   9.156  65.301  1.00  0.00    -0.219 C  
HETATM   12  C   UNL     1      -5.879   7.230  63.340  1.00  0.00    -0.041 C  
BRANCH   7  13
HETATM   13  C   UNL     1      -8.218   5.773  67.321  1.00  0.00    -0.102 C  
BRANCH  13  14
HETATM   14  O   UNL     1      -7.294   5.964  68.407  1.00  0.00    -0.080 OA 
BRANCH  14  15
HETATM   15  C   UNL     1      -7.873   5.379  69.592  1.00  0.00    -0.078 C  
BRANCH  15  16
HETATM   16  C   UNL     1      -9.396   5.490  69.566  1.00  0.00    -0.130 C  
HETATM   17  N   UNL     1     -10.019   4.269  70.081  1.00  0.00    -0.200 NA 
HETATM   18  H2  UNL     1      -9.675   4.035  71.011  1.00  0.00     0.000 HD 
HETATM   19  H1  UNL     1     -11.036   4.343  70.063  1.00  0.00     0.000 HD 
ENDBRANCH  15  16
ENDBRANCH  14  15
ENDBRANCH  13  14
ENDBRANCH   7  13
BRANCH   8  20
HETATM   20  C   UNL     1      -7.155   9.888  63.309  1.00  0.00    -0.124 C  
HETATM   21  O   UNL     1      -7.927  10.524  62.605  1.00  0.00    -0.152 OA 
BRANCH  20  22
HETATM   22  O   UNL     1      -5.808  10.032  63.285  1.00  0.00    -0.109 OA 
HETATM   23  C   UNL     1      -5.271  10.787  64.378  1.00  0.00    -0.095 C  
ENDBRANCH  20  22
ENDBRANCH   8  20
BRANCH  11  24
HETATM   24  C   UNL     1      -8.650  10.572  65.892  1.00  0.00    -0.170 A  
HETATM   25  C   UNL     1      -7.653  10.890  66.835  1.00  0.00    -0.128 A  
HETATM   26  C   UNL     1      -7.629  12.142  67.458  1.00  0.00    -0.151 A  
HETATM   27  C   UNL     1      -8.585  13.104  67.147  1.00  0.00    -0.194 A  
HETATM   28  C   UNL     1      -9.571  12.816  66.208  1.00  0.00    -0.242 A  
HETATM   29  C   UNL     1      -9.612  11.563  65.586  1.00  0.00    -0.231 A  
HETATM   30 CL   UNL     1     -10.918  11.294  64.479  1.00  0.00    -0.349 Cl 
ENDBRANCH  11  24
ENDBRANCH   4   6
ENDBRANCH   3   4
ENDBRANCH   2   3
TORSDOF 10
ENDMDL
MODEL      191
REMARK 921   NORMALIZED FREE ENERGY PREDICTED BY IDOCK:   -2.14 KCAL/MOL
REMARK 922        TOTAL FREE ENERGY PREDICTED BY IDOCK:   -4.95 KCAL/MOL
REMARK 923 INTER-LIGAND FREE ENERGY PREDICTED BY IDOCK:   -3.70 KCAL/MOL
REMARK 924 INTRA-LIGAND FREE ENERGY PREDICTED BY IDOCK:   -1.26 KCAL/MOL
REMARK 927      BINDING AFFINITY PREDICTED BY RF-SCORE:    0.00 PKD
ROOT
HETATM    1  C   UNL     1     -10.341  11.847  68.606  1.00  0.00    -0.218 C  
HETATM    2  C   UNL     1      -9.169  10.919  68.310  1.00  0.00    -0.161 C  
ENDROOT
BRANCH   2   3
HETATM    3  O   UNL     1      -9.605   9.553  68.301  1.00  0.00    -0.137 OA 
BRANCH   3   4
HETATM    4  C   UNL     1     -10.232   9.117  67.183  1.00  0.00    -0.261 C  
HETATM    5  O   UNL     1     -10.974   9.827  66.522  1.00  0.00     0.044 OA 
BRANCH   4   6
HETATM    6  C   UNL     1      -9.864   7.696  66.844  1.00  0.00    -0.304 C  
HETATM    7  C   UNL     1     -10.344   6.622  67.527  1.00  0.00    -0.208 C  
HETATM    8  C   UNL     1      -8.428   6.006  65.495  1.00  0.00    -0.151 C  
HETATM    9  N   UNL     1      -9.981   5.341  67.155  1.00  0.00    -0.166 NA 
HETATM   10  C   UNL     1      -9.004   5.025  66.233  1.00  0.00    -0.127 C  
HETATM   11  C   UNL     1      -8.890   7.475  65.647  1.00  0.00    -0.072 C  
HETATM   12  C   UNL     1      -8.684   3.552  66.117  1.00  0.00    -0.123 C  
BRANCH   7  13
HETATM   13  C   UNL     1     -11.272   6.701  68.730  1.00  0.00    -0.178 C  
BRANCH  13  14
HETATM   14  O   UNL     1     -10.899   5.791  69.781  1.00  0.00    -0.324 OA 
BRANCH  14  15
HETATM   15  C   UNL     1     -10.495   6.572  70.924  1.00  0.00    -0.223 C  
BRANCH  15  16
HETATM   16  C   UNL     1      -9.071   7.098  70.749  1.00  0.00    -0.153 C  
HETATM   17  N   UNL     1      -8.117   6.284  71.505  1.00  0.00    -0.109 NA 
HETATM   18  H2  UNL     1      -8.187   5.297  71.259  1.00  0.00     0.000 HD 
HETATM   19  H1  UNL     1      -7.167   6.634  71.388  1.00  0.00     0.000 HD 
ENDBRANCH  15  16
ENDBRANCH  14  15
ENDBRANCH  13  14
ENDBRANCH   7  13
BRANCH   8  20
HETATM   20  C   UNL     1      -7.350   5.647  64.527  1.00  0.00    -0.068 C  
HETATM   21  O   UNL     1      -7.507   5.584  63.316  1.00  0.00    -0.052 OA 
BRANCH  20  22
HETATM   22  O   UNL     1      -6.175   5.401  65.157  1.00  0.00    -0.031 OA 
HETATM   23  C   UNL     1      -5.343   4.432  64.507  1.00  0.00    -0.013 C  
ENDBRANCH  20  22
ENDBRANCH   8  20
BRANCH  11  24
HETATM   24  C   UNL     1      -7.721   8.472  65.646  1.00  0.00    -0.095 A  
HETATM   25  C   UNL     1      -6.748   8.419  66.663  1.00  0.00    -0.061 A  
HETATM   26  C   UNL     1      -5.733   9.378  66.736  1.00  0.00    -0.051 A  
HETATM   27  C   UNL     1      -5.659  10.400  65.795  1.00  0.00    -0.089 A  
HETATM   28  C   UNL     1      -6.601  10.465  64.772  1.00  0.00    -0.045 A  
HETATM   29  C   UNL     1      -7.628   9.516  64.696  1.00  0.00    -0.113 A  
HETATM   30 CL   UNL     1      -8.780   9.728  63.419  1.00  0.00    -0.210 Cl 
ENDBRANCH  11  24
ENDBRANCH   4   6
ENDBRANCH   3   4
ENDBRANCH   2   3
TORSDOF 10
ENDMDL
MODEL      192
REMARK 921   NORMALIZED FREE ENERGY PREDICTED BY IDOCK:   -2.08 KCAL/MOL
REMARK 922        TOTAL FREE ENERGY PREDICTED BY IDOCK:   -4.86 KCAL/MOL
REMARK 923 INTER-LIGAND FREE ENERGY PREDICTED BY IDOCK:   -3.61 KCAL/MOL
REMARK 924 INTRA-LIGAND FREE ENERGY PREDICTED BY IDOCK:   -1.25 KCAL/MOL
REMARK 927      BINDING AFFINITY PREDICTED BY RF-SCORE:    0.00 PKD
ROOT
HETATM    1  C   UNL     1     -11.821  11.720  67.488  1.00  0.00    -0.227 C  
HETATM    2  C   UNL     1     -10.468  11.328  68.068  1.00  0.00    -0.188 C  
ENDROOT
BRANCH   2   3
HETATM    3  O   UNL     1      -9.599  10.853  67.031  1.00  0.00    -0.170 OA 
BRANCH   3   4
HETATM    4  C   UNL     1      -8.311  10.614  67.372  1.00  0.00    -0.119 C  
HETATM    5  O   UNL     1      -7.537  11.501  67.695  1.00  0.00    -0.103 OA 
BRANCH   4   6
HETATM    6  C   UNL     1      -7.981   9.144  67.348  1.00  0.00    -0.103 C  
HETATM    7  C   UNL     1      -7.466   8.482  68.419  1.00  0.00    -0.095 C  
HETATM    8  C   UNL     1      -7.717   6.920  66.036  1.00  0.00    -0.096 C  
HETATM    9  N   UNL     1      -7.200   7.127  68.338  1.00  0.00    -0.088 NA 
HETATM   10  C   UNL     1      -7.241   6.374  67.183  1.00  0.00    -0.075 C  
HETATM   11  C   UNL     1      -8.258   8.370  66.024  1.00  0.00    -0.112 C  
HETATM   12  C   UNL     1      -6.757   4.950  67.328  1.00  0.00    -0.055 C  
BRANCH   7  13
HETATM   13  C   UNL     1      -7.119   9.124  69.754  1.00  0.00    -0.061 C  
BRANCH  13  14
HETATM   14  O   UNL     1      -8.256   9.735  70.390  1.00  0.00    -0.187 OA 
BRANCH  14  15
HETATM   15  C   UNL     1      -9.012   8.695  71.045  1.00  0.00    -0.196 C  
BRANCH  15  16
HETATM   16  C   UNL     1      -8.329   8.261  72.341  1.00  0.00    -0.170 C  
HETATM   17  N   UNL     1      -9.303   8.131  73.427  1.00  0.00    -0.242 NA 
HETATM   18  H2  UNL     1     -10.066   7.504  73.175  1.00  0.00     0.000 HD 
HETATM   19  H1  UNL     1      -8.847   7.840  74.292  1.00  0.00     0.000 HD 
ENDBRANCH  15  16
ENDBRANCH  14  15
ENDBRANCH  13  14
ENDBRANCH   7  13
BRANCH   8  20
HETATM   20  C   UNL     1      -7.722   6.099  64.790  1.00  0.00    -0.099 C  
HETATM   21  O   UNL     1      -6.774   6.009  64.023  1.00  0.00    -0.036 OA 
BRANCH  20  22
HETATM   22  O   UNL     1      -8.905   5.461  64.616  1.00  0.00    -0.105 OA 
HETATM   23  C   UNL     1      -8.799   4.040  64.470  1.00  0.00    -0.128 C  
ENDBRANCH  20  22
ENDBRANCH   8  20
BRANCH  11  24
HETATM   24  C   UNL     1      -7.826   9.158  64.778  1.00  0.00    -0.119 A  
HETATM   25  C   UNL     1      -8.780   9.515  63.805  1.00  0.00    -0.237 A  
HETATM   26  C   UNL     1      -8.392  10.145  62.618  1.00  0.00    -0.167 A  
HETATM   27  C   UNL     1      -7.053  10.443  62.381  1.00  0.00    -0.159 A  
HETATM   28  C   UNL     1      -6.095  10.112  63.336  1.00  0.00    -0.143 A  
HETATM   29  C   UNL     1      -6.471   9.471  64.522  1.00  0.00    -0.093 A  
HETATM   30 CL   UNL     1      -5.189   9.053  65.611  1.00  0.00    -0.036 Cl 
ENDBRANCH  11  24
ENDBRANCH   4   6
ENDBRANCH   3   4
ENDBRANCH   2   3
TORSDOF 10
ENDMDL
MODEL      193
REMARK 921   NORMALIZED FREE ENERGY PREDICTED BY IDOCK:   -2.06 KCAL/MOL
REMARK 922        TOTAL FREE ENERGY PREDICTED BY IDOCK:   -4.82 KCAL/MOL
REMARK 923 INTER-LIGAND FREE ENERGY PREDICTED BY IDOCK:   -4.69 KCAL/MOL
REMARK 924 INTRA-LIGAND FREE ENERGY PREDICTED BY IDOCK:   -0.13 KCAL/MOL
REMARK 927      BINDING AFFINITY PREDICTED BY RF-SCORE:    0.00 PKD
ROOT
HETATM    1  C   UNL     1      -6.126   8.228  69.573  1.00  0.00    -0.036 C  
HETATM    2  C   UNL     1      -6.398   7.501  68.263  1.00  0.00    -0.044 C  
ENDROOT
BRANCH   2   3
HETATM    3  O   UNL     1      -6.964   6.209  68.518  1.00  0.00    -0.071 OA 
BRANCH   3   4
HETATM    4  C   UNL     1      -8.206   5.977  68.030  1.00  0.00    -0.113 C  
HETATM    5  O   UNL     1      -8.408   5.301  67.035  1.00  0.00    -0.108 OA 
BRANCH   4   6
HETATM    6  C   UNL     1      -9.277   6.605  68.883  1.00  0.00    -0.130 C  
HETATM    7  C   UNL     1      -9.785   7.845  68.643  1.00  0.00    -0.158 C  
HETATM    8  C   UNL     1     -10.771   6.570  71.006  1.00  0.00    -0.289 C  
HETATM    9  N   UNL     1     -10.780   8.359  69.454  1.00  0.00    -0.196 NA 
HETATM   10  C   UNL     1     -11.214   7.798  70.637  1.00  0.00    -0.268 C  
HETATM   11  C   UNL     1      -9.814   5.773  70.086  1.00  0.00    -0.240 C  
HETATM   12  C   UNL     1     -12.202   8.632  71.419  1.00  0.00    -0.348 C  
BRANCH   7  13
HETATM   13  C   UNL     1      -9.326   8.771  67.526  1.00  0.00    -0.136 C  
BRANCH  13  14
HETATM   14  O   UNL     1     -10.424   9.365  66.810  1.00  0.00    -0.243 OA 
BRANCH  14  15
HETATM   15  C   UNL     1     -10.164  10.778  66.688  1.00  0.00    -0.233 C  
BRANCH  15  16
HETATM   16  C   UNL     1     -11.405  11.520  66.195  1.00  0.00    -0.131 C  
HETATM   17  N   UNL     1     -12.064  12.227  67.296  1.00  0.00    -0.517 NA 
HETATM   18  H2  UNL     1     -11.420  12.851  67.780  1.00  0.00     0.000 HD 
HETATM   19  H1  UNL     1     -12.892  12.722  66.967  1.00  0.00     0.000 HD 
ENDBRANCH  15  16
ENDBRANCH  14  15
ENDBRANCH  13  14
ENDBRANCH   7  13
BRANCH   8  20
HETATM   20  C   UNL     1     -11.226   5.995  72.305  1.00  0.00    -0.293 C  
HETATM   21  O   UNL     1     -12.324   5.486  72.484  1.00  0.00    -0.069 OA 
BRANCH  20  22
HETATM   22  O   UNL     1     -10.273   6.105  73.262  1.00  0.00    -0.185 OA 
HETATM   23  C   UNL     1      -9.937   7.453  73.615  1.00  0.00    -0.328 C  
ENDBRANCH  20  22
ENDBRANCH   8  20
BRANCH  11  24
HETATM   24  C   UNL     1      -8.693   5.064  70.861  1.00  0.00    -0.138 A  
HETATM   25  C   UNL     1      -7.742   5.821  71.573  1.00  0.00    -0.107 A  
HETATM   26  C   UNL     1      -6.657   5.201  72.201  1.00  0.00    -0.044 A  
HETATM   27  C   UNL     1      -6.503   3.819  72.144  1.00  0.00    -0.014 A  
HETATM   28  C   UNL     1      -7.439   3.050  71.458  1.00  0.00    -0.040 A  
HETATM   29  C   UNL     1      -8.523   3.661  70.816  1.00  0.00    -0.070 A  
HETATM   30 CL   UNL     1      -9.591   2.613  69.942  1.00  0.00    -0.137 Cl 
ENDBRANCH  11  24
ENDBRANCH   4   6
ENDBRANCH   3   4
ENDBRANCH   2   3
TORSDOF 10
ENDMDL
MODEL      194
REMARK 921   NORMALIZED FREE ENERGY PREDICTED BY IDOCK:   -2.05 KCAL/MOL
REMARK 922        TOTAL FREE ENERGY PREDICTED BY IDOCK:   -4.80 KCAL/MOL
REMARK 923 INTER-LIGAND FREE ENERGY PREDICTED BY IDOCK:   -3.79 KCAL/MOL
REMARK 924 INTRA-LIGAND FREE ENERGY PREDICTED BY IDOCK:   -1.01 KCAL/MOL
REMARK 927      BINDING AFFINITY PREDICTED BY RF-SCORE:    0.00 PKD
ROOT
HETATM    1  C   UNL     1      -6.157   6.560  67.196  1.00  0.00    -0.028 C  
HETATM    2  C   UNL     1      -7.671   6.726  67.166  1.00  0.00    -0.104 C  
ENDROOT
BRANCH   2   3
HETATM    3  O   UNL     1      -8.028   8.089  67.426  1.00  0.00    -0.117 OA 
BRANCH   3   4
HETATM    4  C   UNL     1      -9.128   8.565  66.797  1.00  0.00    -0.151 C  
HETATM    5  O   UNL     1     -10.001   7.838  66.351  1.00  0.00    -0.197 OA 
BRANCH   4   6
HETATM    6  C   UNL     1      -9.157  10.071  66.764  1.00  0.00    -0.159 C  
HETATM    7  C   UNL     1      -8.204  10.818  66.144  1.00  0.00    -0.163 C  
HETATM    8  C   UNL     1     -10.191  12.318  67.553  1.00  0.00    -0.212 C  
HETATM    9  N   UNL     1      -8.297  12.198  66.136  1.00  0.00     0.204 NA 
HETATM   10  C   UNL     1      -9.198  12.941  66.870  1.00  0.00    -0.234 C  
HETATM   11  C   UNL     1     -10.347  10.780  67.480  1.00  0.00    -0.244 C  
HETATM   12  C   UNL     1      -8.995  14.438  66.811  1.00  0.00    -0.256 C  
BRANCH   7  13
HETATM   13  C   UNL     1      -6.978  10.255  65.441  1.00  0.00    -0.139 C  
BRANCH  13  14
HETATM   14  O   UNL     1      -7.315   9.445  64.300  1.00  0.00    -0.103 OA 
BRANCH  14  15
HETATM   15  C   UNL     1      -7.958  10.293  63.326  1.00  0.00    -0.148 C  
BRANCH  15  16
HETATM   16  C   UNL     1      -9.105   9.556  62.636  1.00  0.00    -0.199 C  
HETATM   17  N   UNL     1      -8.832   8.120  62.557  1.00  0.00    -0.400 NA 
HETATM   18  H2  UNL     1      -8.629   7.724  63.474  1.00  0.00     0.000 HD 
HETATM   19  H1  UNL     1      -9.597   7.628  62.096  1.00  0.00     0.000 HD 
ENDBRANCH  15  16
ENDBRANCH  14  15
ENDBRANCH  13  14
ENDBRANCH   7  13
BRANCH   8  20
HETATM   20  C   UNL     1     -11.135  13.138  68.367  1.00  0.00    -0.268 C  
HETATM   21  O   UNL     1     -12.251  13.473  67.994  1.00  0.00    -0.308 OA 
BRANCH  20  22
HETATM   22  O   UNL     1     -10.605  13.462  69.571  1.00  0.00     0.100 OA 
HETATM   23  C   UNL     1     -10.714  14.849  69.915  1.00  0.00    -0.175 C  
ENDBRANCH  20  22
ENDBRANCH   8  20
BRANCH  11  24
HETATM   24  C   UNL     1     -10.679  10.148  68.839  1.00  0.00    -0.249 A  
HETATM   25  C   UNL     1     -12.003   9.768  69.135  1.00  0.00     0.568 A  
HETATM   26  C   UNL     1     -12.345   9.283  70.401  1.00  0.00     0.190 A  
HETATM   27  C   UNL     1     -11.377   9.155  71.393  1.00  0.00    -0.414 A  
HETATM   28  C   UNL     1     -10.060   9.511  71.119  1.00  0.00    -0.262 A  
HETATM   29  C   UNL     1      -9.708  10.008  69.858  1.00  0.00    -0.203 A  
HETATM   30 CL   UNL     1      -8.053  10.475  69.648  1.00  0.00    -0.114 Cl 
ENDBRANCH  11  24
ENDBRANCH   4   6
ENDBRANCH   3   4
ENDBRANCH   2   3
TORSDOF 10
ENDMDL
MODEL      195
REMARK 921   NORMALIZED FREE ENERGY PREDICTED BY IDOCK:   -1.95 KCAL/MOL
REMARK 922        TOTAL FREE ENERGY PREDICTED BY IDOCK:   -4.65 KCAL/MOL
REMARK 923 INTER-LIGAND FREE ENERGY PREDICTED BY IDOCK:   -3.36 KCAL/MOL
REMARK 924 INTRA-LIGAND FREE ENERGY PREDICTED BY IDOCK:   -1.29 KCAL/MOL
REMARK 927      BINDING AFFINITY PREDICTED BY RF-SCORE:    0.00 PKD
ROOT
HETATM    1  C   UNL     1     -14.170   7.386  71.934  1.00  0.00    -0.474 C  
HETATM    2  C   UNL     1     -13.234   6.767  70.904  1.00  0.00     0.310 C  
ENDROOT
BRANCH   2   3
HETATM    3  O   UNL     1     -12.312   7.749  70.415  1.00  0.00     0.128 OA 
BRANCH   3   4
HETATM    4  C   UNL     1     -11.120   7.840  71.050  1.00  0.00    -0.257 C  
HETATM    5  O   UNL     1     -10.901   8.655  71.932  1.00  0.00    -0.297 OA 
BRANCH   4   6
HETATM    6  C   UNL     1     -10.141   6.800  70.571  1.00  0.00    -0.201 C  
HETATM    7  C   UNL     1      -9.858   5.669  71.271  1.00  0.00    -0.175 C  
HETATM    8  C   UNL     1      -8.320   6.032  68.888  1.00  0.00    -0.107 C  
HETATM    9  N   UNL     1      -8.962   4.743  70.769  1.00  0.00    -0.120 NA 
HETATM   10  C   UNL     1      -8.156   4.932  69.666  1.00  0.00    -0.073 C  
HETATM   11  C   UNL     1      -9.437   7.055  69.204  1.00  0.00    -0.143 C  
HETATM   12  C   UNL     1      -7.149   3.834  69.411  1.00  0.00    -0.046 C  
BRANCH   7  13
HETATM   13  C   UNL     1     -10.449   5.317  72.629  1.00  0.00    -0.218 C  
BRANCH  13  14
HETATM   14  O   UNL     1      -9.702   4.294  73.312  1.00  0.00    -0.123 OA 
BRANCH  14  15
HETATM   15  C   UNL     1      -8.931   4.926  74.354  1.00  0.00    -0.111 C  
BRANCH  15  16
HETATM   16  C   UNL     1      -7.497   4.399  74.367  1.00  0.00    -0.077 C  
HETATM   17  N   UNL     1      -7.352   3.255  73.464  1.00  0.00    -0.054 NA 
HETATM   18  H2  UNL     1      -7.662   3.480  72.519  1.00  0.00     0.000 HD 
HETATM   19  H1  UNL     1      -6.395   2.903  73.472  1.00  0.00     0.000 HD 
ENDBRANCH  15  16
ENDBRANCH  14  15
ENDBRANCH  13  14
ENDBRANCH   7  13
BRANCH   8  20
HETATM   20  C   UNL     1      -7.415   6.233  67.719  1.00  0.00    -0.093 C  
HETATM   21  O   UNL     1      -6.284   6.691  67.796  1.00  0.00    -0.032 OA 
BRANCH  20  22
HETATM   22  O   UNL     1      -8.001   5.843  66.560  1.00  0.00    -0.100 OA 
HETATM   23  C   UNL     1      -8.136   4.425  66.411  1.00  0.00    -0.102 C  
ENDBRANCH  20  22
ENDBRANCH   8  20
BRANCH  11  24
HETATM   24  C   UNL     1      -8.977   8.511  69.039  1.00  0.00    -0.146 A  
HETATM   25  C   UNL     1      -8.109   9.087  69.988  1.00  0.00    -0.124 A  
HETATM   26  C   UNL     1      -7.758  10.439  69.911  1.00  0.00    -0.083 A  
HETATM   27  C   UNL     1      -8.253  11.240  68.886  1.00  0.00    -0.079 A  
HETATM   28  C   UNL     1      -9.101  10.688  67.930  1.00  0.00    -0.145 A  
HETATM   29  C   UNL     1      -9.468   9.339  68.003  1.00  0.00    -0.137 A  
HETATM   30 CL   UNL     1     -10.575   8.775  66.795  1.00  0.00    -0.287 Cl 
ENDBRANCH  11  24
ENDBRANCH   4   6
ENDBRANCH   3   4
ENDBRANCH   2   3
TORSDOF 10
ENDMDL
MODEL      196
REMARK 921   NORMALIZED FREE ENERGY PREDICTED BY IDOCK:   -1.89 KCAL/MOL
REMARK 922        TOTAL FREE ENERGY PREDICTED BY IDOCK:   -4.55 KCAL/MOL
REMARK 923 INTER-LIGAND FREE ENERGY PREDICTED BY IDOCK:   -4.47 KCAL/MOL
REMARK 924 INTRA-LIGAND FREE ENERGY PREDICTED BY IDOCK:   -0.08 KCAL/MOL
REMARK 927      BINDING AFFINITY PREDICTED BY RF-SCORE:    0.00 PKD
ROOT
HETATM    1  C   UNL     1      -6.869   5.448  71.238  1.00  0.00    -0.053 C  
HETATM    2  C   UNL     1      -8.099   5.722  70.383  1.00  0.00    -0.106 C  
ENDROOT
BRANCH   2   3
HETATM    3  O   UNL     1      -7.815   6.739  69.413  1.00  0.00    -0.109 OA 
BRANCH   3   4
HETATM    4  C   UNL     1      -7.455   7.955  69.888  1.00  0.00    -0.080 C  
HETATM    5  O   UNL     1      -6.356   8.176  70.371  1.00  0.00    -0.035 OA 
BRANCH   4   6
HETATM    6  C   UNL     1      -8.541   8.982  69.701  1.00  0.00    -0.137 C  
HETATM    7  C   UNL     1      -8.366  10.125  68.985  1.00  0.00    -0.138 C  
HETATM    8  C   UNL     1     -10.906   9.884  70.278  1.00  0.00    -0.367 C  
HETATM    9  N   UNL     1      -9.409  11.021  68.836  1.00  0.00    -0.176 NA 
HETATM   10  C   UNL     1     -10.611  10.963  69.511  1.00  0.00    -0.175 C  
HETATM   11  C   UNL     1      -9.920   8.694  70.367  1.00  0.00    -0.212 C  
HETATM   12  C   UNL     1     -11.526  12.147  69.293  1.00  0.00    -0.363 C  
BRANCH   7  13
HETATM   13  C   UNL     1      -7.065  10.541  68.314  1.00  0.00    -0.081 C  
BRANCH  13  14
HETATM   14  O   UNL     1      -6.243  11.368  69.158  1.00  0.00    -0.053 OA 
BRANCH  14  15
HETATM   15  C   UNL     1      -5.956  12.587  68.443  1.00  0.00    -0.057 C  
BRANCH  15  16
HETATM   16  C   UNL     1      -6.320  12.450  66.965  1.00  0.00     0.017 C  
HETATM   17  N   UNL     1      -5.221  11.845  66.210  1.00  0.00    -0.456 NA 
HETATM   18  H2  UNL     1      -4.936  10.952  66.612  1.00  0.00     0.000 HD 
HETATM   19  H1  UNL     1      -5.464  11.753  65.224  1.00  0.00     0.000 HD 
ENDBRANCH  15  16
ENDBRANCH  14  15
ENDBRANCH  13  14
ENDBRANCH   7  13
BRANCH   8  20
HETATM   20  C   UNL     1     -12.197   9.857  71.025  1.00  0.00    -0.353 C  
HETATM   21  O   UNL     1     -13.066   9.011  70.865  1.00  0.00    -0.083 OA 
BRANCH  20  22
HETATM   22  O   UNL     1     -12.287  10.884  71.905  1.00  0.00    -0.144 OA 
HETATM   23  C   UNL     1     -13.616  11.161  72.362  1.00  0.00     0.386 C  
ENDBRANCH  20  22
ENDBRANCH   8  20
BRANCH  11  24
HETATM   24  C   UNL     1      -9.783   8.138  71.792  1.00  0.00    -0.253 A  
HETATM   25  C   UNL     1      -8.853   8.708  72.684  1.00  0.00    -0.106 A  
HETATM   26  C   UNL     1      -8.641   8.155  73.951  1.00  0.00    -0.288 A  
HETATM   27  C   UNL     1      -9.357   7.033  74.360  1.00  0.00    -0.233 A  
HETATM   28  C   UNL     1     -10.291   6.462  73.500  1.00  0.00    -0.281 A  
HETATM   29  C   UNL     1     -10.503   7.001  72.226  1.00  0.00    -0.208 A  
HETATM   30 CL   UNL     1     -11.645   6.173  71.219  1.00  0.00    -0.325 Cl 
ENDBRANCH  11  24
ENDBRANCH   4   6
ENDBRANCH   3   4
ENDBRANCH   2   3
TORSDOF 10
ENDMDL
MODEL      197
REMARK 921   NORMALIZED FREE ENERGY PREDICTED BY IDOCK:   -1.77 KCAL/MOL
REMARK 922        TOTAL FREE ENERGY PREDICTED BY IDOCK:   -4.36 KCAL/MOL
REMARK 923 INTER-LIGAND FREE ENERGY PREDICTED BY IDOCK:   -3.49 KCAL/MOL
REMARK 924 INTRA-LIGAND FREE ENERGY PREDICTED BY IDOCK:   -0.87 KCAL/MOL
REMARK 927      BINDING AFFINITY PREDICTED BY RF-SCORE:    0.00 PKD
ROOT
HETATM    1  C   UNL     1     -10.011   4.311  69.875  1.00  0.00    -0.179 C  
HETATM    2  C   UNL     1     -10.257   5.757  70.285  1.00  0.00    -0.230 C  
ENDROOT
BRANCH   2   3
HETATM    3  O   UNL     1      -9.925   6.643  69.208  1.00  0.00    -0.154 OA 
BRANCH   3   4
HETATM    4  C   UNL     1      -8.673   6.549  68.700  1.00  0.00    -0.123 C  
HETATM    5  O   UNL     1      -8.378   5.766  67.812  1.00  0.00    -0.105 OA 
BRANCH   4   6
HETATM    6  C   UNL     1      -7.732   7.546  69.325  1.00  0.00    -0.112 C  
HETATM    7  C   UNL     1      -7.034   7.294  70.465  1.00  0.00    -0.057 C  
HETATM    8  C   UNL     1      -6.729   9.939  69.419  1.00  0.00    -0.057 C  
HETATM    9  N   UNL     1      -6.171   8.245  70.979  1.00  0.00    -0.033 NA 
HETATM   10  C   UNL     1      -6.067   9.548  70.537  1.00  0.00    -0.065 C  
HETATM   11  C   UNL     1      -7.566   8.920  68.608  1.00  0.00    -0.096 C  
HETATM   12  C   UNL     1      -5.166  10.436  71.364  1.00  0.00    -0.077 C  
BRANCH   7  13
HETATM   13  C   UNL     1      -7.129   6.011  71.277  1.00  0.00    -0.074 C  
BRANCH  13  14
HETATM   14  O   UNL     1      -7.737   6.212  72.566  1.00  0.00    -0.101 OA 
BRANCH  14  15
HETATM   15  C   UNL     1      -7.335   5.124  73.423  1.00  0.00    -0.091 C  
BRANCH  15  16
HETATM   16  C   UNL     1      -7.638   3.776  72.770  1.00  0.00    -0.068 C  
HETATM   17  N   UNL     1      -8.992   3.328  73.099  1.00  0.00    -0.087 NA 
HETATM   18  H2  UNL     1      -9.690   4.030  72.854  1.00  0.00     0.000 HD 
HETATM   19  H1  UNL     1      -9.195   2.429  72.663  1.00  0.00     0.000 HD 
ENDBRANCH  15  16
ENDBRANCH  14  15
ENDBRANCH  13  14
ENDBRANCH   7  13
BRANCH   8  20
HETATM   20  C   UNL     1      -6.629  11.360  68.978  1.00  0.00    -0.086 C  
HETATM   21  O   UNL     1      -7.246  12.284  69.490  1.00  0.00     0.111 OA 
BRANCH  20  22
HETATM   22  O   UNL     1      -5.768  11.502  67.941  1.00  0.00    -0.043 OA 
HETATM   23  C   UNL     1      -5.485  12.861  67.584  1.00  0.00    -0.109 C  
ENDBRANCH  20  22
ENDBRANCH   8  20
BRANCH  11  24
HETATM   24  C   UNL     1      -8.904   9.498  68.123  1.00  0.00    -0.124 A  
HETATM   25  C   UNL     1      -9.098   9.771  66.755  1.00  0.00    -0.169 A  
HETATM   26  C   UNL     1     -10.270  10.389  66.306  1.00  0.00    -0.286 A  
HETATM   27  C   UNL     1     -11.274  10.736  67.205  1.00  0.00    -0.272 A  
HETATM   28  C   UNL     1     -11.109  10.462  68.560  1.00  0.00    -0.318 A  
HETATM   29  C   UNL     1      -9.936   9.855  69.022  1.00  0.00    -0.187 A  
HETATM   30 CL   UNL     1      -9.813   9.617  70.734  1.00  0.00    -0.295 Cl 
ENDBRANCH  11  24
ENDBRANCH   4   6
ENDBRANCH   3   4
ENDBRANCH   2   3
TORSDOF 10
ENDMDL
MODEL      198
REMARK 921   NORMALIZED FREE ENERGY PREDICTED BY IDOCK:   -0.99 KCAL/MOL
REMARK 922        TOTAL FREE ENERGY PREDICTED BY IDOCK:   -3.12 KCAL/MOL
REMARK 923 INTER-LIGAND FREE ENERGY PREDICTED BY IDOCK:   -4.84 KCAL/MOL
REMARK 924 INTRA-LIGAND FREE ENERGY PREDICTED BY IDOCK:    1.72 KCAL/MOL
REMARK 927      BINDING AFFINITY PREDICTED BY RF-SCORE:    0.00 PKD
ROOT
HETATM    1  C   UNL     1      -9.153  14.367  67.901  1.00  0.00    -0.187 C  
HETATM    2  C   UNL     1      -9.094  13.020  67.193  1.00  0.00    -0.225 C  
ENDROOT
BRANCH   2   3
HETATM    3  O   UNL     1     -10.106  12.944  66.181  1.00  0.00    -0.265 OA 
BRANCH   3   4
HETATM    4  C   UNL     1     -11.092  12.034  66.368  1.00  0.00    -0.318 C  
HETATM    5  O   UNL     1     -12.190  12.133  65.843  1.00  0.00    -0.604 OA 
BRANCH   4   6
HETATM    6  C   UNL     1     -10.652  10.892  67.246  1.00  0.00    -0.296 C  
HETATM    7  C   UNL     1     -10.664  10.953  68.605  1.00  0.00    -0.203 C  
HETATM    8  C   UNL     1      -9.565   8.550  67.511  1.00  0.00    -0.194 C  
HETATM    9  N   UNL     1     -10.262   9.863  69.355  1.00  0.00    -0.202 NA 
HETATM   10  C   UNL     1      -9.660   8.728  68.853  1.00  0.00    -0.158 C  
HETATM   11  C   UNL     1     -10.168   9.590  66.538  1.00  0.00    -0.307 C  
HETATM   12  C   UNL     1      -9.172   7.746  69.893  1.00  0.00    -0.146 C  
BRANCH   7  13
HETATM   13  C   UNL     1     -11.079  12.171  69.417  1.00  0.00    -0.117 C  
BRANCH  13  14
HETATM   14  O   UNL     1     -12.507  12.325  69.500  1.00  0.00    -0.015 OA 
BRANCH  14  15
HETATM   15  C   UNL     1     -12.785  13.653  69.988  1.00  0.00     0.014 C  
BRANCH  15  16
HETATM   16  C   UNL     1     -12.638  13.716  71.508  1.00  0.00    -0.295 C  
HETATM   17  N   UNL     1     -13.499  12.727  72.159  1.00  0.00    -0.542 NA 
HETATM   18  H2  UNL     1     -13.329  11.787  71.803  1.00  0.00     0.000 HD 
HETATM   19  H1  UNL     1     -13.401  12.768  73.173  1.00  0.00     0.000 HD 
ENDBRANCH  15  16
ENDBRANCH  14  15
ENDBRANCH  13  14
ENDBRANCH   7  13
BRANCH   8  20
HETATM   20  C   UNL     1      -8.880   7.331  66.989  1.00  0.00    -0.128 C  
HETATM   21  O   UNL     1      -9.310   6.638  66.078  1.00  0.00    -0.112 OA 
BRANCH  20  22
HETATM   22  O   UNL     1      -7.720   7.090  67.647  1.00  0.00    -0.107 OA 
HETATM   23  C   UNL     1      -6.622   7.917  67.241  1.00  0.00    -0.060 C  
ENDBRANCH  20  22
ENDBRANCH   8  20
BRANCH  11  24
HETATM   24  C   UNL     1      -9.262   9.877  65.331  1.00  0.00    -0.264 A  
HETATM   25  C   UNL     1      -9.658   9.473  64.041  1.00  0.00     0.332 A  
HETATM   26  C   UNL     1      -8.805   9.635  62.945  1.00  0.00    -0.252 A  
HETATM   27  C   UNL     1      -7.548  10.211  63.108  1.00  0.00    -0.147 A  
HETATM   28  C   UNL     1      -7.141  10.629  64.371  1.00  0.00     0.225 A  
HETATM   29  C   UNL     1      -7.983  10.462  65.477  1.00  0.00    -0.153 A  
HETATM   30 CL   UNL     1      -7.350  10.964  67.010  1.00  0.00    -0.111 Cl 
ENDBRANCH  11  24
ENDBRANCH   4   6
ENDBRANCH   3   4
ENDBRANCH   2   3
TORSDOF 10
ENDMDL
MODEL      199
REMARK 921   NORMALIZED FREE ENERGY PREDICTED BY IDOCK:   -0.97 KCAL/MOL
REMARK 922        TOTAL FREE ENERGY PREDICTED BY IDOCK:   -3.10 KCAL/MOL
REMARK 923 INTER-LIGAND FREE ENERGY PREDICTED BY IDOCK:   -2.25 KCAL/MOL
REMARK 924 INTRA-LIGAND FREE ENERGY PREDICTED BY IDOCK:   -0.85 KCAL/MOL
REMARK 927      BINDING AFFINITY PREDICTED BY RF-SCORE:    0.00 PKD
ROOT
HETATM    1  C   UNL     1      -8.999  16.759  66.537  1.00  0.00    -0.304 C  
HETATM    2  C   UNL     1      -7.875  16.113  67.336  1.00  0.00    -0.154 C  
ENDROOT
BRANCH   2   3
HETATM    3  O   UNL     1      -8.190  14.745  67.624  1.00  0.00    -0.150 OA 
BRANCH   3   4
HETATM    4  C   UNL     1      -7.939  14.310  68.882  1.00  0.00    -0.080 C  
HETATM    5  O   UNL     1      -7.440  15.020  69.739  1.00  0.00    -0.198 OA 
BRANCH   4   6
HETATM    6  C   UNL     1      -8.391  12.888  69.091  1.00  0.00     0.601 C  
HETATM    7  C   UNL     1      -7.539  11.828  69.070  1.00  0.00     0.004 C  
HETATM    8  C   UNL     1     -10.304  11.153  69.361  1.00  0.00    -0.090 C  
HETATM    9  N   UNL     1      -8.015  10.547  69.286  1.00  0.00    -0.154 NA 
HETATM   10  C   UNL     1      -9.346  10.192  69.351  1.00  0.00    -0.219 C  
HETATM   11  C   UNL     1      -9.911  12.650  69.344  1.00  0.00     0.892 C  
HETATM   12  C   UNL     1      -9.610   8.706  69.437  1.00  0.00    -0.166 C  
BRANCH   7  13
HETATM   13  C   UNL     1      -6.044  11.919  68.801  1.00  0.00    -0.055 C  
BRANCH  13  14
HETATM   14  O   UNL     1      -5.744  12.460  67.502  1.00  0.00    -0.110 OA 
BRANCH  14  15
HETATM   15  C   UNL     1      -6.280  11.561  66.510  1.00  0.00    -0.072 C  
BRANCH  15  16
HETATM   16  C   UNL     1      -5.174  10.702  65.899  1.00  0.00    -0.103 C  
HETATM   17  N   UNL     1      -5.615  10.098  64.641  1.00  0.00    -0.104 NA 
HETATM   18  H2  UNL     1      -5.952  10.801  63.984  1.00  0.00     0.000 HD 
HETATM   19  H1  UNL     1      -4.877   9.525  64.233  1.00  0.00     0.000 HD 
ENDBRANCH  15  16
ENDBRANCH  14  15
ENDBRANCH  13  14
ENDBRANCH   7  13
BRANCH   8  20
HETATM   20  C   UNL     1     -11.738  10.746  69.399  1.00  0.00    -0.306 C  
HETATM   21  O   UNL     1     -12.431  10.578  68.405  1.00  0.00     0.152 OA 
BRANCH  20  22
HETATM   22  O   UNL     1     -12.178  10.581  70.670  1.00  0.00    -0.294 OA 
HETATM   23  C   UNL     1     -13.067   9.473  70.853  1.00  0.00    -0.109 C  
ENDBRANCH  20  22
ENDBRANCH   8  20
BRANCH  11  24
HETATM   24  C   UNL     1     -10.802  13.491  68.419  1.00  0.00    -0.286 A  
HETATM   25  C   UNL     1     -11.117  13.023  67.128  1.00  0.00    -0.304 A  
HETATM   26  C   UNL     1     -11.844  13.817  66.234  1.00  0.00    -0.426 A  
HETATM   27  C   UNL     1     -12.281  15.084  66.610  1.00  0.00     0.271 A  
HETATM   28  C   UNL     1     -11.994  15.561  67.886  1.00  0.00     0.121 A  
HETATM   29  C   UNL     1     -11.258  14.779  68.785  1.00  0.00    -0.270 A  
HETATM   30 CL   UNL     1     -10.907  15.497  70.323  1.00  0.00    -0.336 Cl 
ENDBRANCH  11  24
ENDBRANCH   4   6
ENDBRANCH   3   4
ENDBRANCH   2   3
TORSDOF 10
ENDMDL
MODEL      200
REMARK 921   NORMALIZED FREE ENERGY PREDICTED BY IDOCK:   -0.69 KCAL/MOL
REMARK 922        TOTAL FREE ENERGY PREDICTED BY IDOCK:   -2.65 KCAL/MOL
REMARK 923 INTER-LIGAND FREE ENERGY PREDICTED BY IDOCK:   -4.00 KCAL/MOL
REMARK 924 INTRA-LIGAND FREE ENERGY PREDICTED BY IDOCK:    1.35 KCAL/MOL
REMARK 927      BINDING AFFINITY PREDICTED BY RF-SCORE:    0.00 PKD
ROOT
HETATM    1  C   UNL     1     -11.952  11.905  68.789  1.00  0.00    -0.307 C  
HETATM    2  C   UNL     1     -11.030  10.930  69.509  1.00  0.00    -0.253 C  
ENDROOT
BRANCH   2   3
HETATM    3  O   UNL     1      -9.853  10.688  68.728  1.00  0.00    -0.175 OA 
BRANCH   3   4
HETATM    4  C   UNL     1      -9.022   9.709  69.158  1.00  0.00    -0.154 C  
HETATM    5  O   UNL     1      -8.193   9.885  70.037  1.00  0.00    -0.175 OA 
BRANCH   4   6
HETATM    6  C   UNL     1      -9.282   8.398  68.464  1.00  0.00    -0.135 C  
HETATM    7  C   UNL     1      -9.790   7.309  69.101  1.00  0.00    -0.166 C  
HETATM    8  C   UNL     1      -9.071   6.884  66.365  1.00  0.00    -0.185 C  
HETATM    9  N   UNL     1     -10.022   6.138  68.402  1.00  0.00    -0.132 NA 
HETATM   10  C   UNL     1      -9.614   5.887  67.109  1.00  0.00    -0.127 C  
HETATM   11  C   UNL     1      -8.947   8.314  66.944  1.00  0.00    -0.169 C  
HETATM   12  C   UNL     1      -9.849   4.475  66.624  1.00  0.00    -0.244 C  
BRANCH   7  13
HETATM   13  C   UNL     1     -10.127   7.247  70.583  1.00  0.00    -0.194 C  
BRANCH  13  14
HETATM   14  O   UNL     1     -10.943   6.111  70.922  1.00  0.00    -0.267 OA 
BRANCH  14  15
HETATM   15  C   UNL     1     -10.070   5.049  71.356  1.00  0.00    -0.199 C  
BRANCH  15  16
HETATM   16  C   UNL     1      -9.536   5.322  72.761  1.00  0.00    -0.149 C  
HETATM   17  N   UNL     1     -10.540   6.006  73.578  1.00  0.00    -0.257 NA 
HETATM   18  H2  UNL     1     -11.420   5.491  73.603  1.00  0.00     0.000 HD 
HETATM   19  H1  UNL     1     -10.185   6.189  74.516  1.00  0.00     0.000 HD 
ENDBRANCH  15  16
ENDBRANCH  14  15
ENDBRANCH  13  14
ENDBRANCH   7  13
BRANCH   8  20
HETATM   20  C   UNL     1      -8.606   6.583  64.980  1.00  0.00     0.067 C  
HETATM   21  O   UNL     1      -8.529   5.457  64.510  1.00  0.00    -0.140 OA 
BRANCH  20  22
HETATM   22  O   UNL     1      -8.281   7.713  64.306  1.00  0.00    -0.109 OA 
HETATM   23  C   UNL     1      -8.086   7.531  62.898  1.00  0.00    -0.075 C  
ENDBRANCH  20  22
ENDBRANCH   8  20
BRANCH  11  24
HETATM   24  C   UNL     1      -7.610   8.986  66.596  1.00  0.00    -0.089 A  
HETATM   25  C   UNL     1      -7.545   9.925  65.548  1.00  0.00    -0.125 A  
HETATM   26  C   UNL     1      -6.322  10.473  65.151  1.00  0.00    -0.064 A  
HETATM   27  C   UNL     1      -5.143  10.108  65.794  1.00  0.00    -0.047 A  
HETATM   28  C   UNL     1      -5.185   9.193  66.841  1.00  0.00    -0.039 A  
HETATM   29  C   UNL     1      -6.403   8.629  67.240  1.00  0.00    -0.057 A  
HETATM   30 CL   UNL     1      -6.329   7.457  68.514  1.00  0.00    -0.035 Cl 
ENDBRANCH  11  24
ENDBRANCH   4   6
ENDBRANCH   3   4
ENDBRANCH   2   3
TORSDOF 10
ENDMDL
MODEL      201
REMARK 921   NORMALIZED FREE ENERGY PREDICTED BY IDOCK:   -0.30 KCAL/MOL
REMARK 922        TOTAL FREE ENERGY PREDICTED BY IDOCK:   -2.04 KCAL/MOL
REMARK 923 INTER-LIGAND FREE ENERGY PREDICTED BY IDOCK:   -3.59 KCAL/MOL
REMARK 924 INTRA-LIGAND FREE ENERGY PREDICTED BY IDOCK:    1.55 KCAL/MOL
REMARK 927      BINDING AFFINITY PREDICTED BY RF-SCORE:    0.00 PKD
ROOT
HETATM    1  C   UNL     1     -13.028  11.215  72.054  1.00  0.00    -0.385 C  
HETATM    2  C   UNL     1     -12.726  10.698  70.654  1.00  0.00    -0.359 C  
ENDROOT
BRANCH   2   3
HETATM    3  O   UNL     1     -11.323  10.435  70.512  1.00  0.00    -0.310 OA 
BRANCH   3   4
HETATM    4  C   UNL     1     -10.872   9.247  70.979  1.00  0.00    -0.314 C  
HETATM    5  O   UNL     1     -11.546   8.517  71.688  1.00  0.00    -0.265 OA 
BRANCH   4   6
HETATM    6  C   UNL     1      -9.486   8.931  70.480  1.00  0.00    -0.243 C  
HETATM    7  C   UNL     1      -8.980   9.438  69.324  1.00  0.00    -0.154 C  
HETATM    8  C   UNL     1      -7.284   7.568  70.670  1.00  0.00    -0.067 C  
HETATM    9  N   UNL     1      -7.692   9.123  68.930  1.00  0.00    -0.082 NA 
HETATM   10  C   UNL     1      -6.889   8.168  69.519  1.00  0.00    -0.042 C  
HETATM   11  C   UNL     1      -8.612   7.979  71.352  1.00  0.00    -0.156 C  
HETATM   12  C   UNL     1      -5.584   7.899  68.806  1.00  0.00    -0.027 C  
BRANCH   7  13
HETATM   13  C   UNL     1      -9.737  10.348  68.368  1.00  0.00    -0.158 C  
BRANCH  13  14
HETATM   14  O   UNL     1     -10.979   9.775  67.920  1.00  0.00    -0.262 OA 
BRANCH  14  15
HETATM   15  C   UNL     1     -10.842   9.455  66.520  1.00  0.00     0.202 C  
BRANCH  15  16
HETATM   16  C   UNL     1      -9.862   8.300  66.318  1.00  0.00    -0.157 C  
HETATM   17  N   UNL     1      -9.486   8.173  64.909  1.00  0.00     0.336 NA 
HETATM   18  H2  UNL     1      -9.118   9.048  64.537  1.00  0.00     0.000 HD 
HETATM   19  H1  UNL     1      -8.832   7.403  64.774  1.00  0.00     0.000 HD 
ENDBRANCH  15  16
ENDBRANCH  14  15
ENDBRANCH  13  14
ENDBRANCH   7  13
BRANCH   8  20
HETATM   20  C   UNL     1      -6.416   6.515  71.273  1.00  0.00    -0.050 C  
HETATM   21  O   UNL     1      -5.395   6.745  71.904  1.00  0.00    -0.030 OA 
BRANCH  20  22
HETATM   22  O   UNL     1      -6.902   5.272  71.037  1.00  0.00    -0.044 OA 
HETATM   23  C   UNL     1      -5.910   4.306  70.668  1.00  0.00    -0.013 C  
ENDBRANCH  20  22
ENDBRANCH   8  20
BRANCH  11  24
HETATM   24  C   UNL     1      -9.404   6.778  71.890  1.00  0.00    -0.146 A  
HETATM   25  C   UNL     1      -9.959   5.842  70.995  1.00  0.00    -0.239 A  
HETATM   26  C   UNL     1     -10.766   4.798  71.458  1.00  0.00     0.018 A  
HETATM   27  C   UNL     1     -11.027   4.657  72.818  1.00  0.00    -0.238 A  
HETATM   28  C   UNL     1     -10.477   5.563  73.722  1.00  0.00    -0.302 A  
HETATM   29  C   UNL     1      -9.677   6.618  73.268  1.00  0.00    -0.170 A  
HETATM   30 CL   UNL     1      -9.095   7.718  74.474  1.00  0.00     0.071 Cl 
ENDBRANCH  11  24
ENDBRANCH   4   6
ENDBRANCH   3   4
ENDBRANCH   2   3
TORSDOF 10
ENDMDL
MODEL      202
REMARK 921   NORMALIZED FREE ENERGY PREDICTED BY IDOCK:   -0.11 KCAL/MOL
REMARK 922        TOTAL FREE ENERGY PREDICTED BY IDOCK:   -1.73 KCAL/MOL
REMARK 923 INTER-LIGAND FREE ENERGY PREDICTED BY IDOCK:   -5.07 KCAL/MOL
REMARK 924 INTRA-LIGAND FREE ENERGY PREDICTED BY IDOCK:    3.34 KCAL/MOL
REMARK 927      BINDING AFFINITY PREDICTED BY RF-SCORE:    0.00 PKD
ROOT
HETATM    1  C   UNL     1     -10.355   7.939  66.795  1.00  0.00    -0.357 C  
HETATM    2  C   UNL     1      -9.682   8.912  65.835  1.00  0.00    -0.189 C  
ENDROOT
BRANCH   2   3
HETATM    3  O   UNL     1      -8.284   9.022  66.136  1.00  0.00    -0.111 OA 
BRANCH   3   4
HETATM    4  C   UNL     1      -7.952   9.665  67.280  1.00  0.00    -0.106 C  
HETATM    5  O   UNL     1      -6.797   9.911  67.589  1.00  0.00    -0.082 OA 
BRANCH   4   6
HETATM    6  C   UNL     1      -9.166  10.070  68.076  1.00  0.00    -0.139 C  
HETATM    7  C   UNL     1      -9.829  11.240  67.875  1.00  0.00    -0.176 C  
HETATM    8  C   UNL     1     -10.794   9.662  70.057  1.00  0.00    -0.302 C  
HETATM    9  N   UNL     1     -10.948  11.545  68.628  1.00  0.00    -0.207 NA 
HETATM   10  C   UNL     1     -11.383  10.840  69.731  1.00  0.00    -0.300 C  
HETATM   11  C   UNL     1      -9.665   9.080  69.173  1.00  0.00    -0.167 C  
HETATM   12  C   UNL     1     -12.539  11.465  70.477  1.00  0.00    -0.309 C  
BRANCH   7  13
HETATM   13  C   UNL     1      -9.428  12.304  66.864  1.00  0.00    -0.217 C  
BRANCH  13  14
HETATM   14  O   UNL     1      -9.473  13.635  67.409  1.00  0.00    -0.211 OA 
BRANCH  14  15
HETATM   15  C   UNL     1      -8.422  13.751  68.389  1.00  0.00    -0.154 C  
BRANCH  15  16
HETATM   16  C   UNL     1      -7.538  14.963  68.099  1.00  0.00    -0.113 C  
HETATM   17  N   UNL     1      -8.323  16.199  68.114  1.00  0.00    -0.163 NA 
HETATM   18  H2  UNL     1      -8.836  16.308  68.988  1.00  0.00     0.000 HD 
HETATM   19  H1  UNL     1      -7.733  17.008  67.921  1.00  0.00     0.000 HD 
ENDBRANCH  15  16
ENDBRANCH  14  15
ENDBRANCH  13  14
ENDBRANCH   7  13
BRANCH   8  20
HETATM   20  C   UNL     1     -11.258   8.932  71.272  1.00  0.00    -0.298 C  
HETATM   21  O   UNL     1     -10.686   8.962  72.352  1.00  0.00    -0.258 OA 
BRANCH  20  22
HETATM   22  O   UNL     1     -12.395   8.233  71.032  1.00  0.00    -0.253 OA 
HETATM   23  C   UNL     1     -12.422   6.924  71.614  1.00  0.00    -0.375 C  
ENDBRANCH  20  22
ENDBRANCH   8  20
BRANCH  11  24
HETATM   24  C   UNL     1      -8.514   8.479  69.993  1.00  0.00    -0.125 A  
HETATM   25  C   UNL     1      -8.580   7.139  70.423  1.00  0.00    -0.142 A  
HETATM   26  C   UNL     1      -7.591   6.602  71.254  1.00  0.00    -0.093 A  
HETATM   27  C   UNL     1      -6.513   7.382  71.662  1.00  0.00    -0.039 A  
HETATM   28  C   UNL     1      -6.420   8.704  71.238  1.00  0.00    -0.062 A  
HETATM   29  C   UNL     1      -7.409   9.255  70.416  1.00  0.00    -0.111 A  
HETATM   30 CL   UNL     1      -7.222  10.926  69.998  1.00  0.00    -0.009 Cl 
ENDBRANCH  11  24
ENDBRANCH   4   6
ENDBRANCH   3   4
ENDBRANCH   2   3
TORSDOF 10
ENDMDL
MODEL      203
REMARK 921   NORMALIZED FREE ENERGY PREDICTED BY IDOCK:   -0.11 KCAL/MOL
REMARK 922        TOTAL FREE ENERGY PREDICTED BY IDOCK:   -1.73 KCAL/MOL
REMARK 923 INTER-LIGAND FREE ENERGY PREDICTED BY IDOCK:   -2.26 KCAL/MOL
REMARK 924 INTRA-LIGAND FREE ENERGY PREDICTED BY IDOCK:    0.54 KCAL/MOL
REMARK 927      BINDING AFFINITY PREDICTED BY RF-SCORE:    0.00 PKD
ROOT
HETATM    1  C   UNL     1     -11.965  17.140  68.322  1.00  0.00     1.455 C  
HETATM    2  C   UNL     1     -10.734  16.397  67.819  1.00  0.00    -0.328 C  
ENDROOT
BRANCH   2   3
HETATM    3  O   UNL     1     -10.079  17.156  66.795  1.00  0.00    -0.282 OA 
BRANCH   3   4
HETATM    4  C   UNL     1      -9.003  16.586  66.203  1.00  0.00    -0.309 C  
HETATM    5  O   UNL     1      -8.110  17.238  65.687  1.00  0.00    -0.454 OA 
BRANCH   4   6
HETATM    6  C   UNL     1      -9.029  15.083  66.307  1.00  0.00    -0.233 C  
HETATM    7  C   UNL     1     -10.107  14.333  65.953  1.00  0.00    -0.326 C  
HETATM    8  C   UNL     1      -7.932  12.864  67.088  1.00  0.00    -0.104 C  
HETATM    9  N   UNL     1     -10.061  12.955  66.056  1.00  0.00    -0.281 NA 
HETATM   10  C   UNL     1      -9.058  12.234  66.669  1.00  0.00    -0.203 C  
HETATM   11  C   UNL     1      -7.745  14.380  66.843  1.00  0.00     0.265 C  
HETATM   12  C   UNL     1      -9.316  10.750  66.790  1.00  0.00    -0.182 C  
BRANCH   7  13
HETATM   13  C   UNL     1     -11.428  14.894  65.448  1.00  0.00    -0.320 C  
BRANCH  13  14
HETATM   14  O   UNL     1     -12.506  13.944  65.534  1.00  0.00    -0.452 OA 
BRANCH  14  15
HETATM   15  C   UNL     1     -13.070  13.791  64.215  1.00  0.00     0.797 C  
BRANCH  15  16
HETATM   16  C   UNL     1     -12.103  13.051  63.291  1.00  0.00    -0.422 C  
HETATM   17  N   UNL     1     -12.446  11.631  63.205  1.00  0.00    -0.949 NA 
HETATM   18  H2  UNL     1     -13.416  11.494  62.922  1.00  0.00     0.000 HD 
HETATM   19  H1  UNL     1     -11.801  11.137  62.589  1.00  0.00     0.000 HD 
ENDBRANCH  15  16
ENDBRANCH  14  15
ENDBRANCH  13  14
ENDBRANCH   7  13
BRANCH   8  20
HETATM   20  C   UNL     1      -6.873  12.071  67.779  1.00  0.00    -0.100 C  
HETATM   21  O   UNL     1      -6.918  11.743  68.956  1.00  0.00    -0.100 OA 
BRANCH  20  22
HETATM   22  O   UNL     1      -5.856  11.757  66.939  1.00  0.00    -0.133 OA 
HETATM   23  C   UNL     1      -5.272  10.469  67.169  1.00  0.00    -0.041 C  
ENDBRANCH  20  22
ENDBRANCH   8  20
BRANCH  11  24
HETATM   24  C   UNL     1      -7.133  15.110  68.049  1.00  0.00    -0.139 A  
HETATM   25  C   UNL     1      -5.894  15.767  67.920  1.00  0.00    -0.156 A  
HETATM   26  C   UNL     1      -5.273  16.352  69.029  1.00  0.00    -0.110 A  
HETATM   27  C   UNL     1      -5.876  16.304  70.282  1.00  0.00    -0.113 A  
HETATM   28  C   UNL     1      -7.107  15.671  70.430  1.00  0.00     0.612 A  
HETATM   29  C   UNL     1      -7.733  15.074  69.329  1.00  0.00    -0.194 A  
HETATM   30 CL   UNL     1      -9.232  14.263  69.641  1.00  0.00     0.540 Cl 
ENDBRANCH  11  24
ENDBRANCH   4   6
ENDBRANCH   3   4
ENDBRANCH   2   3
TORSDOF 10
ENDMDL
MODEL      204
REMARK 921   NORMALIZED FREE ENERGY PREDICTED BY IDOCK:    0.03 KCAL/MOL
REMARK 922        TOTAL FREE ENERGY PREDICTED BY IDOCK:   -1.52 KCAL/MOL
REMARK 923 INTER-LIGAND FREE ENERGY PREDICTED BY IDOCK:   -1.41 KCAL/MOL
REMARK 924 INTRA-LIGAND FREE ENERGY PREDICTED BY IDOCK:   -0.11 KCAL/MOL
REMARK 927      BINDING AFFINITY PREDICTED BY RF-SCORE:    0.00 PKD
ROOT
HETATM    1  C   UNL     1     -11.401  13.372  65.988  1.00  0.00    -0.329 C  
HETATM    2  C   UNL     1     -10.593  12.470  66.912  1.00  0.00    -0.236 C  
ENDROOT
BRANCH   2   3
HETATM    3  O   UNL     1     -11.316  11.264  67.189  1.00  0.00    -0.379 OA 
BRANCH   3   4
HETATM    4  C   UNL     1     -10.620  10.104  67.126  1.00  0.00    -0.246 C  
HETATM    5  O   UNL     1     -10.400   9.522  66.076  1.00  0.00    -0.220 OA 
BRANCH   4   6
HETATM    6  C   UNL     1     -10.126   9.664  68.480  1.00  0.00    -0.195 C  
HETATM    7  C   UNL     1     -10.893   9.711  69.601  1.00  0.00    -0.244 C  
HETATM    8  C   UNL     1      -8.188   8.883  70.021  1.00  0.00    -0.122 C  
HETATM    9  N   UNL     1     -10.385   9.277  70.812  1.00  0.00    -0.258 NA 
HETATM   10  C   UNL     1      -9.068   8.948  71.052  1.00  0.00    -0.243 C  
HETATM   11  C   UNL     1      -8.663   9.132  68.569  1.00  0.00    -0.129 C  
HETATM   12  C   UNL     1      -8.732   8.653  72.496  1.00  0.00    -0.133 C  
BRANCH   7  13
HETATM   13  C   UNL     1     -12.320  10.238  69.657  1.00  0.00     0.112 C  
BRANCH  13  14
HETATM   14  O   UNL     1     -13.004   9.864  70.867  1.00  0.00    -0.335 OA 
BRANCH  14  15
HETATM   15  C   UNL     1     -13.492  11.068  71.493  1.00  0.00    -0.003 C  
BRANCH  15  16
HETATM   16  C   UNL     1     -12.401  11.724  72.338  1.00  0.00     1.903 C  
HETATM   17  N   UNL     1     -12.560  13.179  72.361  1.00  0.00     0.119 NA 
HETATM   18  H2  UNL     1     -13.492  13.451  72.673  1.00  0.00     0.000 HD 
HETATM   19  H1  UNL     1     -11.832  13.617  72.925  1.00  0.00     0.000 HD 
ENDBRANCH  15  16
ENDBRANCH  14  15
ENDBRANCH  13  14
ENDBRANCH   7  13
BRANCH   8  20
HETATM   20  C   UNL     1      -6.760   8.558  70.306  1.00  0.00    -0.039 C  
HETATM   21  O   UNL     1      -6.330   7.422  70.452  1.00  0.00    -0.037 OA 
BRANCH  20  22
HETATM   22  O   UNL     1      -5.998   9.676  70.380  1.00  0.00    -0.047 OA 
HETATM   23  C   UNL     1      -5.241   9.801  71.590  1.00  0.00    -0.076 C  
ENDBRANCH  20  22
ENDBRANCH   8  20
BRANCH  11  24
HETATM   24  C   UNL     1      -7.676   9.981  67.754  1.00  0.00    -0.090 A  
HETATM   25  C   UNL     1      -6.793   9.360  66.849  1.00  0.00    -0.080 A  
HETATM   26  C   UNL     1      -5.820  10.102  66.172  1.00  0.00    -0.067 A  
HETATM   27  C   UNL     1      -5.713  11.475  66.372  1.00  0.00    -0.061 A  
HETATM   28  C   UNL     1      -6.584  12.112  67.252  1.00  0.00    -0.146 A  
HETATM   29  C   UNL     1      -7.554  11.377  67.943  1.00  0.00    -0.108 A  
HETATM   30 CL   UNL     1      -8.543  12.263  69.057  1.00  0.00     0.282 Cl 
ENDBRANCH  11  24
ENDBRANCH   4   6
ENDBRANCH   3   4
ENDBRANCH   2   3
TORSDOF 10
ENDMDL
MODEL      205
REMARK 921   NORMALIZED FREE ENERGY PREDICTED BY IDOCK:    0.55 KCAL/MOL
REMARK 922        TOTAL FREE ENERGY PREDICTED BY IDOCK:   -0.68 KCAL/MOL
REMARK 923 INTER-LIGAND FREE ENERGY PREDICTED BY IDOCK:   -0.77 KCAL/MOL
REMARK 924 INTRA-LIGAND FREE ENERGY PREDICTED BY IDOCK:    0.09 KCAL/MOL
REMARK 927      BINDING AFFINITY PREDICTED BY RF-SCORE:    0.00 PKD
ROOT
HETATM    1  C   UNL     1     -12.752  13.140  66.365  1.00  0.00     0.299 C  
HETATM    2  C   UNL     1     -11.521  12.296  66.664  1.00  0.00    -0.373 C  
ENDROOT
BRANCH   2   3
HETATM    3  O   UNL     1     -11.696  10.964  66.164  1.00  0.00     0.191 OA 
BRANCH   3   4
HETATM    4  C   UNL     1     -10.653  10.112  66.308  1.00  0.00    -0.051 C  
HETATM    5  O   UNL     1     -10.775   8.900  66.232  1.00  0.00     0.090 OA 
BRANCH   4   6
HETATM    6  C   UNL     1      -9.352  10.840  66.521  1.00  0.00    -0.192 C  
HETATM    7  C   UNL     1      -8.368  10.892  65.582  1.00  0.00    -0.105 C  
HETATM    8  C   UNL     1      -7.720  12.119  68.083  1.00  0.00    -0.129 C  
HETATM    9  N   UNL     1      -7.202  11.592  65.833  1.00  0.00     0.330 NA 
HETATM   10  C   UNL     1      -6.838  12.123  67.052  1.00  0.00    -0.067 C  
HETATM   11  C   UNL     1      -9.150  11.562  67.888  1.00  0.00    -0.167 C  
HETATM   12  C   UNL     1      -5.444  12.705  67.108  1.00  0.00     0.074 C  
BRANCH   7  13
HETATM   13  C   UNL     1      -8.424  10.205  64.226  1.00  0.00    -0.176 C  
BRANCH  13  14
HETATM   14  O   UNL     1      -7.302   9.334  63.996  1.00  0.00    -0.098 OA 
BRANCH  14  15
HETATM   15  C   UNL     1      -6.817   9.576  62.660  1.00  0.00    -0.096 C  
BRANCH  15  16
HETATM   16  C   UNL     1      -6.714  11.074  62.381  1.00  0.00     0.076 C  
HETATM   17  N   UNL     1      -5.320  11.521  62.429  1.00  0.00    -0.322 NA 
HETATM   18  H2  UNL     1      -4.729  10.980  61.799  1.00  0.00     0.000 HD 
HETATM   19  H1  UNL     1      -5.251  12.521  62.243  1.00  0.00     0.000 HD 
ENDBRANCH  15  16
ENDBRANCH  14  15
ENDBRANCH  13  14
ENDBRANCH   7  13
BRANCH   8  20
HETATM   20  C   UNL     1      -7.294  12.669  69.403  1.00  0.00     0.353 C  
HETATM   21  O   UNL     1      -7.937  13.486  70.047  1.00  0.00     1.357 OA 
BRANCH  20  22
HETATM   22  O   UNL     1      -6.107  12.150  69.801  1.00  0.00    -0.120 OA 
HETATM   23  C   UNL     1      -5.383  12.964  70.732  1.00  0.00    -0.166 C  
ENDBRANCH  20  22
ENDBRANCH   8  20
BRANCH  11  24
HETATM   24  C   UNL     1      -9.631  10.718  69.078  1.00  0.00    -0.193 A  
HETATM   25  C   UNL     1     -10.791  11.092  69.784  1.00  0.00    -0.152 A  
HETATM   26  C   UNL     1     -11.189  10.396  70.929  1.00  0.00    -0.205 A  
HETATM   27  C   UNL     1     -10.451   9.309  71.387  1.00  0.00    -0.408 A  
HETATM   28  C   UNL     1      -9.308   8.913  70.697  1.00  0.00    -0.256 A  
HETATM   29  C   UNL     1      -8.894   9.610  69.556  1.00  0.00    -0.190 A  
HETATM   30 CL   UNL     1      -7.426   9.067  68.812  1.00  0.00    -0.076 Cl 
ENDBRANCH  11  24
ENDBRANCH   4   6
ENDBRANCH   3   4
ENDBRANCH   2   3
TORSDOF 10
ENDMDL
MODEL      206
REMARK 921   NORMALIZED FREE ENERGY PREDICTED BY IDOCK:    0.71 KCAL/MOL
REMARK 922        TOTAL FREE ENERGY PREDICTED BY IDOCK:   -0.43 KCAL/MOL
REMARK 923 INTER-LIGAND FREE ENERGY PREDICTED BY IDOCK:   -0.93 KCAL/MOL
REMARK 924 INTRA-LIGAND FREE ENERGY PREDICTED BY IDOCK:    0.50 KCAL/MOL
REMARK 927      BINDING AFFINITY PREDICTED BY RF-SCORE:    0.00 PKD
ROOT
HETATM    1  C   UNL     1     -10.756   6.066  69.694  1.00  0.00    -0.405 C  
HETATM    2  C   UNL     1     -11.243   6.921  68.531  1.00  0.00     0.010 C  
ENDROOT
BRANCH   2   3
HETATM    3  O   UNL     1     -10.264   7.913  68.198  1.00  0.00    -0.192 OA 
BRANCH   3   4
HETATM    4  C   UNL     1     -10.628   8.856  67.297  1.00  0.00    -0.234 C  
HETATM    5  O   UNL     1     -11.632   8.759  66.609  1.00  0.00     1.967 OA 
BRANCH   4   6
HETATM    6  C   UNL     1      -9.685  10.030  67.291  1.00  0.00    -0.206 C  
HETATM    7  C   UNL     1      -8.390   9.940  66.883  1.00  0.00    -0.124 C  
HETATM    8  C   UNL     1      -9.160  12.496  67.911  1.00  0.00    -0.199 C  
HETATM    9  N   UNL     1      -7.580  11.061  66.885  1.00  0.00    -0.127 NA 
HETATM   10  C   UNL     1      -7.904  12.278  67.446  1.00  0.00    -0.171 C  
HETATM   11  C   UNL     1     -10.246  11.401  67.777  1.00  0.00    -0.202 C  
HETATM   12  C   UNL     1      -6.788  13.297  67.459  1.00  0.00    -0.155 C  
BRANCH   7  13
HETATM   13  C   UNL     1      -7.712   8.660  66.418  1.00  0.00    -0.095 C  
BRANCH  13  14
HETATM   14  O   UNL     1      -6.389   8.887  65.900  1.00  0.00    -0.055 OA 
BRANCH  14  15
HETATM   15  C   UNL     1      -5.583   7.733  66.216  1.00  0.00    -0.029 C  
BRANCH  15  16
HETATM   16  C   UNL     1      -5.359   6.870  64.975  1.00  0.00    -0.027 C  
HETATM   17  N   UNL     1      -5.213   7.701  63.778  1.00  0.00    -0.033 NA 
HETATM   18  H2  UNL     1      -4.477   8.396  63.890  1.00  0.00     0.000 HD 
HETATM   19  H1  UNL     1      -5.064   7.125  62.951  1.00  0.00     0.000 HD 
ENDBRANCH  15  16
ENDBRANCH  14  15
ENDBRANCH  13  14
ENDBRANCH   7  13
BRANCH   8  20
HETATM   20  C   UNL     1      -9.481  13.809  68.544  1.00  0.00    -0.162 C  
HETATM   21  O   UNL     1      -9.102  14.146  69.657  1.00  0.00     0.542 OA 
BRANCH  20  22
HETATM   22  O   UNL     1     -10.241  14.582  67.731  1.00  0.00    -0.224 OA 
HETATM   23  C   UNL     1     -10.322  14.122  66.377  1.00  0.00    -0.287 C  
ENDBRANCH  20  22
ENDBRANCH   8  20
BRANCH  11  24
HETATM   24  C   UNL     1     -11.120  11.269  69.033  1.00  0.00    -0.301 A  
HETATM   25  C   UNL     1     -12.322  11.997  69.134  1.00  0.00     0.069 A  
HETATM   26  C   UNL     1     -13.081  11.968  70.309  1.00  0.00     0.638 A  
HETATM   27  C   UNL     1     -12.668  11.208  71.398  1.00  0.00    -0.524 A  
HETATM   28  C   UNL     1     -11.490  10.470  71.316  1.00  0.00     0.026 A  
HETATM   29  C   UNL     1     -10.717  10.500  70.149  1.00  0.00    -0.171 A  
HETATM   30 CL   UNL     1      -9.241   9.592  70.179  1.00  0.00    -0.259 Cl 
ENDBRANCH  11  24
ENDBRANCH   4   6
ENDBRANCH   3   4
ENDBRANCH   2   3
TORSDOF 10
ENDMDL
MODEL      207
REMARK 921   NORMALIZED FREE ENERGY PREDICTED BY IDOCK:    0.96 KCAL/MOL
REMARK 922        TOTAL FREE ENERGY PREDICTED BY IDOCK:   -0.04 KCAL/MOL
REMARK 923 INTER-LIGAND FREE ENERGY PREDICTED BY IDOCK:   -2.86 KCAL/MOL
REMARK 924 INTRA-LIGAND FREE ENERGY PREDICTED BY IDOCK:    2.82 KCAL/MOL
REMARK 927      BINDING AFFINITY PREDICTED BY RF-SCORE:    0.00 PKD
ROOT
HETATM    1  C   UNL     1     -10.799   8.873  70.844  1.00  0.00    -0.308 C  
HETATM    2  C   UNL     1      -9.808   9.414  69.821  1.00  0.00    -0.201 C  
ENDROOT
BRANCH   2   3
HETATM    3  O   UNL     1      -8.467   9.088  70.207  1.00  0.00    -0.133 OA 
BRANCH   3   4
HETATM    4  C   UNL     1      -8.300   7.982  70.971  1.00  0.00    -0.116 C  
HETATM    5  O   UNL     1      -8.169   8.030  72.184  1.00  0.00    -0.115 OA 
BRANCH   4   6
HETATM    6  C   UNL     1      -8.347   6.716  70.155  1.00  0.00    -0.135 C  
HETATM    7  C   UNL     1      -8.332   5.475  70.710  1.00  0.00    -0.122 C  
HETATM    8  C   UNL     1      -8.276   5.522  67.851  1.00  0.00    -0.100 C  
HETATM    9  N   UNL     1      -8.394   4.351  69.906  1.00  0.00    -0.062 NA 
HETATM   10  C   UNL     1      -8.291   4.349  68.531  1.00  0.00    -0.084 C  
HETATM   11  C   UNL     1      -8.420   6.866  68.605  1.00  0.00    -0.121 C  
HETATM   12  C   UNL     1      -8.230   2.979  67.895  1.00  0.00    -0.088 C  
BRANCH   7  13
HETATM   13  C   UNL     1      -8.229   5.190  72.202  1.00  0.00    -0.114 C  
BRANCH  13  14
HETATM   14  O   UNL     1      -7.230   4.202  72.512  1.00  0.00    -0.061 OA 
BRANCH  14  15
HETATM   15  C   UNL     1      -7.755   3.349  73.551  1.00  0.00    -0.066 C  
BRANCH  15  16
HETATM   16  C   UNL     1      -9.281   3.408  73.583  1.00  0.00    -0.092 C  
HETATM   17  N   UNL     1      -9.863   2.163  73.077  1.00  0.00    -0.099 NA 
HETATM   18  H2  UNL     1      -9.507   1.350  73.578  1.00  0.00     0.000 HD 
HETATM   19  H1  UNL     1     -10.882   2.201  73.099  1.00  0.00     0.000 HD 
ENDBRANCH  15  16
ENDBRANCH  14  15
ENDBRANCH  13  14
ENDBRANCH   7  13
BRANCH   8  20
HETATM   20  C   UNL     1      -8.131   5.498  66.366  1.00  0.00    -0.105 C  
HETATM   21  O   UNL     1      -8.742   6.233  65.604  1.00  0.00    -0.154 OA 
BRANCH  20  22
HETATM   22  O   UNL     1      -7.235   4.563  65.967  1.00  0.00    -0.073 OA 
HETATM   23  C   UNL     1      -7.671   3.751  64.870  1.00  0.00    -0.081 C  
ENDBRANCH  20  22
ENDBRANCH   8  20
BRANCH  11  24
HETATM   24  C   UNL     1      -7.476   7.954  68.073  1.00  0.00    -0.108 A  
HETATM   25  C   UNL     1      -7.965   8.943  67.196  1.00  0.00    -0.096 A  
HETATM   26  C   UNL     1      -7.103   9.883  66.622  1.00  0.00    -0.087 A  
HETATM   27  C   UNL     1      -5.743   9.865  66.917  1.00  0.00    -0.050 A  
HETATM   28  C   UNL     1      -5.240   8.906  67.791  1.00  0.00    -0.035 A  
HETATM   29  C   UNL     1      -6.092   7.954  68.363  1.00  0.00    -0.044 A  
HETATM   30 CL   UNL     1      -5.349   6.771  69.389  1.00  0.00    -0.014 Cl 
ENDBRANCH  11  24
ENDBRANCH   4   6
ENDBRANCH   3   4
ENDBRANCH   2   3
TORSDOF 10
ENDMDL
MODEL      208
REMARK 921   NORMALIZED FREE ENERGY PREDICTED BY IDOCK:    0.98 KCAL/MOL
REMARK 922        TOTAL FREE ENERGY PREDICTED BY IDOCK:   -0.00 KCAL/MOL
REMARK 923 INTER-LIGAND FREE ENERGY PREDICTED BY IDOCK:   -1.62 KCAL/MOL
REMARK 924 INTRA-LIGAND FREE ENERGY PREDICTED BY IDOCK:    1.62 KCAL/MOL
REMARK 927      BINDING AFFINITY PREDICTED BY RF-SCORE:    0.00 PKD
ROOT
HETATM    1  C   UNL     1     -10.765  13.921  68.919  1.00  0.00    -0.256 C  
HETATM    2  C   UNL     1      -9.309  13.515  69.106  1.00  0.00     0.505 C  
ENDROOT
BRANCH   2   3
HETATM    3  O   UNL     1      -9.226  12.190  69.646  1.00  0.00     1.218 OA 
BRANCH   3   4
HETATM    4  C   UNL     1      -9.997  11.241  69.063  1.00  0.00    -0.105 C  
HETATM    5  O   UNL     1     -11.160  11.049  69.377  1.00  0.00    -0.228 OA 
BRANCH   4   6
HETATM    6  C   UNL     1      -9.263  10.508  67.970  1.00  0.00    -0.143 C  
HETATM    7  C   UNL     1      -8.076   9.875  68.168  1.00  0.00    -0.104 C  
HETATM    8  C   UNL     1      -9.009   9.876  65.464  1.00  0.00    -0.209 C  
HETATM    9  N   UNL     1      -7.461   9.205  67.126  1.00  0.00    -0.087 NA 
HETATM   10  C   UNL     1      -7.851   9.256  65.805  1.00  0.00    -0.098 C  
HETATM   11  C   UNL     1      -9.920  10.488  66.556  1.00  0.00    -0.266 C  
HETATM   12  C   UNL     1      -6.923   8.563  64.834  1.00  0.00    -0.072 C  
BRANCH   7  13
HETATM   13  C   UNL     1      -7.315   9.847  69.485  1.00  0.00    -0.102 C  
BRANCH  13  14
HETATM   14  O   UNL     1      -7.263   8.534  70.071  1.00  0.00    -0.049 OA 
BRANCH  14  15
HETATM   15  C   UNL     1      -8.249   8.475  71.121  1.00  0.00    -0.144 C  
BRANCH  15  16
HETATM   16  C   UNL     1      -8.558   7.027  71.499  1.00  0.00    -0.117 C  
HETATM   17  N   UNL     1      -8.986   6.261  70.327  1.00  0.00    -0.152 NA 
HETATM   18  H2  UNL     1      -8.305   6.316  69.571  1.00  0.00     0.000 HD 
HETATM   19  H1  UNL     1      -9.192   5.294  70.578  1.00  0.00     0.000 HD 
ENDBRANCH  15  16
ENDBRANCH  14  15
ENDBRANCH  13  14
ENDBRANCH   7  13
BRANCH   8  20
HETATM   20  C   UNL     1      -9.396   9.949  64.025  1.00  0.00    -0.223 C  
HETATM   21  O   UNL     1      -8.847   9.319  63.133  1.00  0.00    -0.221 OA 
BRANCH  20  22
HETATM   22  O   UNL     1     -10.434  10.799  63.830  1.00  0.00    -0.319 OA 
HETATM   23  C   UNL     1     -10.274  11.687  62.717  1.00  0.00     0.114 C  
ENDBRANCH  20  22
ENDBRANCH   8  20
BRANCH  11  24
HETATM   24  C   UNL     1     -10.500  11.852  66.155  1.00  0.00    -0.272 A  
HETATM   25  C   UNL     1     -11.887  11.997  65.954  1.00  0.00    -0.232 A  
HETATM   26  C   UNL     1     -12.423  13.203  65.493  1.00  0.00    -0.516 A  
HETATM   27  C   UNL     1     -11.594  14.291  65.234  1.00  0.00    -0.348 A  
HETATM   28  C   UNL     1     -10.222  14.175  65.439  1.00  0.00    -0.380 A  
HETATM   29  C   UNL     1      -9.674  12.969  65.890  1.00  0.00    -0.178 A  
HETATM   30 CL   UNL     1      -7.949  12.920  66.053  1.00  0.00     1.363 Cl 
ENDBRANCH  11  24
ENDBRANCH   4   6
ENDBRANCH   3   4
ENDBRANCH   2   3
TORSDOF 10
ENDMDL
MODEL      209
REMARK 921   NORMALIZED FREE ENERGY PREDICTED BY IDOCK:    1.15 KCAL/MOL
REMARK 922        TOTAL FREE ENERGY PREDICTED BY IDOCK:    0.26 KCAL/MOL
REMARK 923 INTER-LIGAND FREE ENERGY PREDICTED BY IDOCK:   -3.23 KCAL/MOL
REMARK 924 INTRA-LIGAND FREE ENERGY PREDICTED BY IDOCK:    3.49 KCAL/MOL
REMARK 927      BINDING AFFINITY PREDICTED BY RF-SCORE:    0.00 PKD
ROOT
HETATM    1  C   UNL     1     -10.262   5.435  70.907  1.00  0.00    -0.303 C  
HETATM    2  C   UNL     1     -10.901   6.799  71.136  1.00  0.00    -0.238 C  
ENDROOT
BRANCH   2   3
HETATM    3  O   UNL     1     -11.343   7.357  69.891  1.00  0.00    -0.195 OA 
BRANCH   3   4
HETATM    4  C   UNL     1     -10.438   7.403  68.885  1.00  0.00    -0.203 C  
HETATM    5  O   UNL     1     -10.304   6.500  68.075  1.00  0.00    -0.153 OA 
BRANCH   4   6
HETATM    6  C   UNL     1      -9.675   8.702  68.867  1.00  0.00    -0.171 C  
HETATM    7  C   UNL     1      -9.894   9.679  67.946  1.00  0.00    -0.154 C  
HETATM    8  C   UNL     1      -7.739  10.184  69.757  1.00  0.00    -0.176 C  
HETATM    9  N   UNL     1      -9.171  10.857  67.995  1.00  0.00    -0.152 NA 
HETATM   10  C   UNL     1      -8.080  11.089  68.806  1.00  0.00    -0.145 C  
HETATM   11  C   UNL     1      -8.592   8.910  69.968  1.00  0.00    -0.145 C  
HETATM   12  C   UNL     1      -7.365  12.398  68.560  1.00  0.00    -0.105 C  
BRANCH   7  13
HETATM   13  C   UNL     1     -10.895   9.588  66.803  1.00  0.00     0.039 C  
BRANCH  13  14
HETATM   14  O   UNL     1     -11.398  10.874  66.400  1.00  0.00    -0.133 OA 
BRANCH  14  15
HETATM   15  C   UNL     1     -11.536  10.869  64.965  1.00  0.00     0.655 C  
BRANCH  15  16
HETATM   16  C   UNL     1     -10.240  11.318  64.292  1.00  0.00    -0.327 C  
HETATM   17  N   UNL     1      -9.597  12.388  65.056  1.00  0.00    -0.462 NA 
HETATM   18  H2  UNL     1      -9.442  12.118  66.026  1.00  0.00     0.000 HD 
HETATM   19  H1  UNL     1      -8.732  12.688  64.607  1.00  0.00     0.000 HD 
ENDBRANCH  15  16
ENDBRANCH  14  15
ENDBRANCH  13  14
ENDBRANCH   7  13
BRANCH   8  20
HETATM   20  C   UNL     1      -6.536  10.440  70.602  1.00  0.00     0.006 C  
HETATM   21  O   UNL     1      -5.960   9.581  71.255  1.00  0.00    -0.072 OA 
BRANCH  20  22
HETATM   22  O   UNL     1      -6.160  11.741  70.555  1.00  0.00    -0.262 OA 
HETATM   23  C   UNL     1      -5.208  12.048  69.529  1.00  0.00    -0.066 C  
ENDBRANCH  20  22
ENDBRANCH   8  20
BRANCH  11  24
HETATM   24  C   UNL     1      -7.741   7.654  70.205  1.00  0.00    -0.091 A  
HETATM   25  C   UNL     1      -7.526   7.186  71.516  1.00  0.00    -0.086 A  
HETATM   26  C   UNL     1      -6.674   6.103  71.761  1.00  0.00    -0.063 A  
HETATM   27  C   UNL     1      -6.031   5.459  70.708  1.00  0.00    -0.021 A  
HETATM   28  C   UNL     1      -6.241   5.896  69.403  1.00  0.00    -0.033 A  
HETATM   29  C   UNL     1      -7.082   6.985  69.148  1.00  0.00    -0.084 A  
HETATM   30 CL   UNL     1      -7.222   7.480  67.493  1.00  0.00    -0.088 Cl 
ENDBRANCH  11  24
ENDBRANCH   4   6
ENDBRANCH   3   4
ENDBRANCH   2   3
TORSDOF 10
ENDMDL
MODEL      210
REMARK 921   NORMALIZED FREE ENERGY PREDICTED BY IDOCK:    1.16 KCAL/MOL
REMARK 922        TOTAL FREE ENERGY PREDICTED BY IDOCK:    0.27 KCAL/MOL
REMARK 923 INTER-LIGAND FREE ENERGY PREDICTED BY IDOCK:    0.62 KCAL/MOL
REMARK 924 INTRA-LIGAND FREE ENERGY PREDICTED BY IDOCK:   -0.35 KCAL/MOL
REMARK 927      BINDING AFFINITY PREDICTED BY RF-SCORE:    0.00 PKD
ROOT
HETATM    1  C   UNL     1      -9.712   8.388  71.660  1.00  0.00    -0.287 C  
HETATM    2  C   UNL     1      -8.322   8.670  71.106  1.00  0.00    -0.164 C  
ENDROOT
BRANCH   2   3
HETATM    3  O   UNL     1      -8.398   9.599  70.017  1.00  0.00    -0.151 OA 
BRANCH   3   4
HETATM    4  C   UNL     1      -8.962   9.152  68.869  1.00  0.00    -0.139 C  
HETATM    5  O   UNL     1     -10.156   9.251  68.638  1.00  0.00    -0.176 OA 
BRANCH   4   6
HETATM    6  C   UNL     1      -7.941   8.579  67.921  1.00  0.00    -0.108 C  
HETATM    7  C   UNL     1      -7.289   9.328  66.991  1.00  0.00    -0.091 C  
HETATM    8  C   UNL     1      -6.718   6.526  66.906  1.00  0.00    -0.060 C  
HETATM    9  N   UNL     1      -6.349   8.744  66.160  1.00  0.00    -0.063 NA 
HETATM   10  C   UNL     1      -6.115   7.390  66.050  1.00  0.00    -0.038 C  
HETATM   11  C   UNL     1      -7.633   7.055  68.036  1.00  0.00    -0.111 C  
HETATM   12  C   UNL     1      -5.148   6.992  64.958  1.00  0.00    -0.027 C  
BRANCH   7  13
HETATM   13  C   UNL     1      -7.520  10.813  66.753  1.00  0.00    -0.129 C  
BRANCH  13  14
HETATM   14  O   UNL     1      -7.565  11.572  67.975  1.00  0.00    -0.101 OA 
BRANCH  14  15
HETATM   15  C   UNL     1      -8.399  12.727  67.750  1.00  0.00    -0.177 C  
BRANCH  15  16
HETATM   16  C   UNL     1      -9.783  12.311  67.253  1.00  0.00    -0.195 C  
HETATM   17  N   UNL     1     -10.775  12.407  68.326  1.00  0.00    -0.222 NA 
HETATM   18  H2  UNL     1     -10.789  13.337  68.744  1.00  0.00     0.000 HD 
HETATM   19  H1  UNL     1     -11.699  12.130  67.995  1.00  0.00     0.000 HD 
ENDBRANCH  15  16
ENDBRANCH  14  15
ENDBRANCH  13  14
ENDBRANCH   7  13
BRANCH   8  20
HETATM   20  C   UNL     1      -6.476   5.063  66.748  1.00  0.00    -0.041 C  
HETATM   21  O   UNL     1      -6.670   4.442  65.712  1.00  0.00    -0.050 OA 
BRANCH  20  22
HETATM   22  O   UNL     1      -6.012   4.507  67.894  1.00  0.00    -0.025 OA 
HETATM   23  C   UNL     1      -5.864   3.082  67.846  1.00  0.00    -0.023 C  
ENDBRANCH  20  22
ENDBRANCH   8  20
BRANCH  11  24
HETATM   24  C   UNL     1      -8.902   6.210  68.222  1.00  0.00    -0.112 A  
HETATM   25  C   UNL     1      -9.815   6.066  67.158  1.00  0.00    -0.165 A  
HETATM   26  C   UNL     1     -11.023   5.384  67.336  1.00  0.00     0.188 A  
HETATM   27  C   UNL     1     -11.341   4.823  68.569  1.00  0.00     3.374 A  
HETATM   28  C   UNL     1     -10.448   4.941  69.631  1.00  0.00    -0.037 A  
HETATM   29  C   UNL     1      -9.241   5.630  69.467  1.00  0.00    -0.129 A  
HETATM   30 CL   UNL     1      -8.234   5.766  70.870  1.00  0.00    -0.119 Cl 
ENDBRANCH  11  24
ENDBRANCH   4   6
ENDBRANCH   3   4
ENDBRANCH   2   3
TORSDOF 10
ENDMDL
MODEL      211
REMARK 921   NORMALIZED FREE ENERGY PREDICTED BY IDOCK:    1.30 KCAL/MOL
REMARK 922        TOTAL FREE ENERGY PREDICTED BY IDOCK:    0.50 KCAL/MOL
REMARK 923 INTER-LIGAND FREE ENERGY PREDICTED BY IDOCK:   -2.00 KCAL/MOL
REMARK 924 INTRA-LIGAND FREE ENERGY PREDICTED BY IDOCK:    2.51 KCAL/MOL
REMARK 927      BINDING AFFINITY PREDICTED BY RF-SCORE:    0.00 PKD
ROOT
HETATM    1  C   UNL     1     -10.851  16.644  65.332  1.00  0.00    -0.182 C  
HETATM    2  C   UNL     1     -10.931  18.090  65.804  1.00  0.00     0.249 C  
ENDROOT
BRANCH   2   3
HETATM    3  O   UNL     1     -10.491  18.196  67.164  1.00  0.00    -0.371 OA 
BRANCH   3   4
HETATM    4  C   UNL     1     -10.323  17.037  67.845  1.00  0.00    -0.338 C  
HETATM    5  O   UNL     1     -11.126  16.119  67.795  1.00  0.00    -0.323 OA 
BRANCH   4   6
HETATM    6  C   UNL     1      -9.027  17.013  68.612  1.00  0.00    -0.267 C  
HETATM    7  C   UNL     1      -8.162  18.062  68.641  1.00  0.00    -0.278 C  
HETATM    8  C   UNL     1      -7.260  15.713  70.000  1.00  0.00     0.152 C  
HETATM    9  N   UNL     1      -6.995  17.983  69.379  1.00  0.00    -0.149 NA 
HETATM   10  C   UNL     1      -6.505  16.840  69.975  1.00  0.00     0.127 C  
HETATM   11  C   UNL     1      -8.687  15.713  69.402  1.00  0.00    -0.249 C  
HETATM   12  C   UNL     1      -5.131  16.975  70.591  1.00  0.00    -0.245 C  
BRANCH   7  13
HETATM   13  C   UNL     1      -8.357  19.371  67.890  1.00  0.00    -0.308 C  
BRANCH  13  14
HETATM   14  O   UNL     1      -8.153  19.234  66.472  1.00  0.00    -0.272 OA 
BRANCH  14  15
HETATM   15  C   UNL     1      -7.006  20.029  66.108  1.00  0.00    -0.251 C  
BRANCH  15  16
HETATM   16  C   UNL     1      -5.735  19.479  66.752  1.00  0.00    -0.169 C  
HETATM   17  N   UNL     1      -5.397  18.164  66.202  1.00  0.00    -0.156 NA 
HETATM   18  H2  UNL     1      -5.323  18.189  65.186  1.00  0.00     0.000 HD 
HETATM   19  H1  UNL     1      -4.549  17.797  66.632  1.00  0.00     0.000 HD 
ENDBRANCH  15  16
ENDBRANCH  14  15
ENDBRANCH  13  14
ENDBRANCH   7  13
BRANCH   8  20
HETATM   20  C   UNL     1      -6.698  14.478  70.621  1.00  0.00     0.220 C  
HETATM   21  O   UNL     1      -5.935  13.710  70.054  1.00  0.00    -0.128 OA 
BRANCH  20  22
HETATM   22  O   UNL     1      -7.136  14.315  71.894  1.00  0.00     1.530 OA 
HETATM   23  C   UNL     1      -6.133  14.517  72.898  1.00  0.00     0.623 C  
ENDBRANCH  20  22
ENDBRANCH   8  20
BRANCH  11  24
HETATM   24  C   UNL     1      -9.001  14.438  68.604  1.00  0.00    -0.172 A  
HETATM   25  C   UNL     1      -8.138  14.024  67.570  1.00  0.00    -0.197 A  
HETATM   26  C   UNL     1      -8.456  12.924  66.768  1.00  0.00    -0.023 A  
HETATM   27  C   UNL     1      -9.630  12.208  66.984  1.00  0.00    -0.207 A  
HETATM   28  C   UNL     1     -10.490  12.591  68.009  1.00  0.00    -0.227 A  
HETATM   29  C   UNL     1     -10.187  13.697  68.812  1.00  0.00    -0.149 A  
HETATM   30 CL   UNL     1     -11.358  14.119  70.018  1.00  0.00    -0.242 Cl 
ENDBRANCH  11  24
ENDBRANCH   4   6
ENDBRANCH   3   4
ENDBRANCH   2   3
TORSDOF 10
ENDMDL
MODEL      212
REMARK 921   NORMALIZED FREE ENERGY PREDICTED BY IDOCK:    1.31 KCAL/MOL
REMARK 922        TOTAL FREE ENERGY PREDICTED BY IDOCK:    0.52 KCAL/MOL
REMARK 923 INTER-LIGAND FREE ENERGY PREDICTED BY IDOCK:   -2.33 KCAL/MOL
REMARK 924 INTRA-LIGAND FREE ENERGY PREDICTED BY IDOCK:    2.85 KCAL/MOL
REMARK 927      BINDING AFFINITY PREDICTED BY RF-SCORE:    0.00 PKD
ROOT
HETATM    1  C   UNL     1      -5.177  13.427  67.004  1.00  0.00     0.824 C  
HETATM    2  C   UNL     1      -6.087  14.591  67.374  1.00  0.00     0.241 C  
ENDROOT
BRANCH   2   3
HETATM    3  O   UNL     1      -7.393  14.111  67.722  1.00  0.00    -0.133 OA 
BRANCH   3   4
HETATM    4  C   UNL     1      -8.442  14.907  67.406  1.00  0.00    -0.195 C  
HETATM    5  O   UNL     1      -8.594  15.389  66.295  1.00  0.00    -0.269 OA 
BRANCH   4   6
HETATM    6  C   UNL     1      -9.396  15.073  68.560  1.00  0.00    -0.196 C  
HETATM    7  C   UNL     1      -9.199  15.970  69.563  1.00  0.00    -0.124 C  
HETATM    8  C   UNL     1     -11.480  14.274  69.888  1.00  0.00    -0.301 C  
HETATM    9  N   UNL     1     -10.122  16.085  70.586  1.00  0.00     0.554 NA 
HETATM   10  C   UNL     1     -11.183  15.231  70.803  1.00  0.00    -0.318 C  
HETATM   11  C   UNL     1     -10.663  14.164  68.578  1.00  0.00    -0.262 C  
HETATM   12  C   UNL     1     -11.955  15.477  72.079  1.00  0.00    -0.518 C  
BRANCH   7  13
HETATM   13  C   UNL     1      -7.992  16.889  69.682  1.00  0.00     0.630 C  
BRANCH  13  14
HETATM   14  O   UNL     1      -7.549  17.393  68.410  1.00  0.00    -0.233 OA 
BRANCH  14  15
HETATM   15  C   UNL     1      -6.395  18.228  68.639  1.00  0.00    -0.209 C  
BRANCH  15  16
HETATM   16  C   UNL     1      -6.808  19.582  69.213  1.00  0.00    -0.346 C  
HETATM   17  N   UNL     1      -6.476  19.670  70.636  1.00  0.00    -0.050 NA 
HETATM   18  H2  UNL     1      -5.490  19.475  70.806  1.00  0.00     0.000 HD 
HETATM   19  H1  UNL     1      -6.751  20.574  71.020  1.00  0.00     0.000 HD 
ENDBRANCH  15  16
ENDBRANCH  14  15
ENDBRANCH  13  14
ENDBRANCH   7  13
BRANCH   8  20
HETATM   20  C   UNL     1     -12.611  13.339  70.157  1.00  0.00    -0.044 C  
HETATM   21  O   UNL     1     -12.493  12.125  70.241  1.00  0.00    -0.198 OA 
BRANCH  20  22
HETATM   22  O   UNL     1     -13.784  14.003  70.301  1.00  0.00     0.570 OA 
HETATM   23  C   UNL     1     -13.942  14.664  71.562  1.00  0.00    -0.438 C  
ENDBRANCH  20  22
ENDBRANCH   8  20
BRANCH  11  24
HETATM   24  C   UNL     1     -10.352  12.711  68.189  1.00  0.00    -0.238 A  
HETATM   25  C   UNL     1      -9.608  11.892  69.061  1.00  0.00     0.192 A  
HETATM   26  C   UNL     1      -9.229  10.599  68.683  1.00  0.00    -0.181 A  
HETATM   27  C   UNL     1      -9.592  10.093  67.439  1.00  0.00    -0.180 A  
HETATM   28  C   UNL     1     -10.339  10.879  66.566  1.00  0.00    -0.299 A  
HETATM   29  C   UNL     1     -10.714  12.178  66.929  1.00  0.00    -0.236 A  
HETATM   30 CL   UNL     1     -11.590  13.088  65.743  1.00  0.00    -0.372 Cl 
ENDBRANCH  11  24
ENDBRANCH   4   6
ENDBRANCH   3   4
ENDBRANCH   2   3
TORSDOF 10
ENDMDL
MODEL      213
REMARK 921   NORMALIZED FREE ENERGY PREDICTED BY IDOCK:    2.79 KCAL/MOL
REMARK 922        TOTAL FREE ENERGY PREDICTED BY IDOCK:    2.87 KCAL/MOL
REMARK 923 INTER-LIGAND FREE ENERGY PREDICTED BY IDOCK:    3.20 KCAL/MOL
REMARK 924 INTRA-LIGAND FREE ENERGY PREDICTED BY IDOCK:   -0.33 KCAL/MOL
REMARK 927      BINDING AFFINITY PREDICTED BY RF-SCORE:    0.00 PKD
ROOT
HETATM    1  C   UNL     1     -11.396   5.827  69.757  1.00  0.00     0.018 C  
HETATM    2  C   UNL     1     -11.754   6.903  68.740  1.00  0.00     0.625 C  
ENDROOT
BRANCH   2   3
HETATM    3  O   UNL     1     -10.602   7.695  68.425  1.00  0.00    -0.190 OA 
BRANCH   3   4
HETATM    4  C   UNL     1     -10.787   8.741  67.586  1.00  0.00    -0.022 C  
HETATM    5  O   UNL     1     -11.885   9.055  67.155  1.00  0.00     2.239 OA 
BRANCH   4   6
HETATM    6  C   UNL     1      -9.503   9.475  67.302  1.00  0.00    -0.170 C  
HETATM    7  C   UNL     1      -9.392  10.830  67.368  1.00  0.00    -0.150 C  
HETATM    8  C   UNL     1      -7.045   9.466  66.467  1.00  0.00    -0.085 C  
HETATM    9  N   UNL     1      -8.179  11.443  67.112  1.00  0.00    -0.150 NA 
HETATM   10  C   UNL     1      -7.061  10.816  66.604  1.00  0.00    -0.133 C  
HETATM   11  C   UNL     1      -8.258   8.619  66.919  1.00  0.00    -0.105 C  
HETATM   12  C   UNL     1      -5.909  11.734  66.264  1.00  0.00     0.333 C  
BRANCH   7  13
HETATM   13  C   UNL     1     -10.534  11.781  67.695  1.00  0.00    -0.197 C  
BRANCH  13  14
HETATM   14  O   UNL     1     -10.075  13.073  68.129  1.00  0.00    -0.225 OA 
BRANCH  14  15
HETATM   15  C   UNL     1     -11.167  14.005  67.985  1.00  0.00    -0.279 C  
BRANCH  15  16
HETATM   16  C   UNL     1     -11.911  14.180  69.308  1.00  0.00    -0.340 C  
HETATM   17  N   UNL     1     -11.004  14.013  70.445  1.00  0.00    -0.263 NA 
HETATM   18  H2  UNL     1     -10.201  14.637  70.381  1.00  0.00     0.000 HD 
HETATM   19  H1  UNL     1     -11.501  14.130  71.328  1.00  0.00     0.000 HD 
ENDBRANCH  15  16
ENDBRANCH  14  15
ENDBRANCH  13  14
ENDBRANCH   7  13
BRANCH   8  20
HETATM   20  C   UNL     1      -5.837   8.811  65.885  1.00  0.00    -0.051 C  
HETATM   21  O   UNL     1      -5.519   8.882  64.706  1.00  0.00    -0.046 OA 
BRANCH  20  22
HETATM   22  O   UNL     1      -5.136   8.132  66.824  1.00  0.00    -0.029 OA 
HETATM   23  C   UNL     1      -5.586   8.338  68.168  1.00  0.00    -0.034 C  
ENDBRANCH  20  22
ENDBRANCH   8  20
BRANCH  11  24
HETATM   24  C   UNL     1      -8.598   7.489  65.936  1.00  0.00    -0.165 A  
HETATM   25  C   UNL     1      -8.372   6.147  66.299  1.00  0.00    -0.124 A  
HETATM   26  C   UNL     1      -8.581   5.111  65.383  1.00  0.00    -0.146 A  
HETATM   27  C   UNL     1      -9.030   5.387  64.095  1.00  0.00     0.203 A  
HETATM   28  C   UNL     1      -9.273   6.705  63.719  1.00  0.00     1.779 A  
HETATM   29  C   UNL     1      -9.057   7.751  64.624  1.00  0.00     0.933 A  
HETATM   30 CL   UNL     1      -9.335   9.355  64.029  1.00  0.00    -0.027 Cl 
ENDBRANCH  11  24
ENDBRANCH   4   6
ENDBRANCH   3   4
ENDBRANCH   2   3
TORSDOF 10
ENDMDL
MODEL      214
REMARK 921   NORMALIZED FREE ENERGY PREDICTED BY IDOCK:    4.21 KCAL/MOL
REMARK 922        TOTAL FREE ENERGY PREDICTED BY IDOCK:    5.12 KCAL/MOL
REMARK 923 INTER-LIGAND FREE ENERGY PREDICTED BY IDOCK:    3.05 KCAL/MOL
REMARK 924 INTRA-LIGAND FREE ENERGY PREDICTED BY IDOCK:    2.06 KCAL/MOL
REMARK 927      BINDING AFFINITY PREDICTED BY RF-SCORE:    0.00 PKD
ROOT
HETATM    1  C   UNL     1     -12.849  13.129  66.405  1.00  0.00     0.594 C  
HETATM    2  C   UNL     1     -11.730  12.151  66.739  1.00  0.00    -0.305 C  
ENDROOT
BRANCH   2   3
HETATM    3  O   UNL     1     -12.076  10.830  66.304  1.00  0.00     1.145 OA 
BRANCH   3   4
HETATM    4  C   UNL     1     -11.137   9.866  66.461  1.00  0.00     0.401 C  
HETATM    5  O   UNL     1     -11.410   8.678  66.497  1.00  0.00     1.156 OA 
BRANCH   4   6
HETATM    6  C   UNL     1      -9.745  10.438  66.533  1.00  0.00    -0.241 C  
HETATM    7  C   UNL     1      -8.799  10.210  65.582  1.00  0.00    -0.165 C  
HETATM    8  C   UNL     1      -7.904  11.715  67.843  1.00  0.00    -0.129 C  
HETATM    9  N   UNL     1      -7.543  10.777  65.698  1.00  0.00    -0.096 NA 
HETATM   10  C   UNL     1      -7.068  11.439  66.811  1.00  0.00    -0.132 C  
HETATM   11  C   UNL     1      -9.401  11.331  67.763  1.00  0.00    -0.163 C  
HETATM   12  C   UNL     1      -5.609  11.830  66.750  1.00  0.00    -0.113 C  
BRANCH   7  13
HETATM   13  C   UNL     1      -8.994   9.333  64.354  1.00  0.00    -0.116 C  
BRANCH  13  14
HETATM   14  O   UNL     1      -9.611   8.070  64.664  1.00  0.00     1.370 OA 
BRANCH  14  15
HETATM   15  C   UNL     1      -8.866   7.034  63.992  1.00  0.00     0.916 C  
BRANCH  15  16
HETATM   16  C   UNL     1      -7.363   7.235  64.177  1.00  0.00    -0.091 C  
HETATM   17  N   UNL     1      -6.825   6.290  65.157  1.00  0.00    -0.046 NA 
HETATM   18  H2  UNL     1      -7.048   5.326  64.911  1.00  0.00     0.000 HD 
HETATM   19  H1  UNL     1      -5.822   6.424  65.281  1.00  0.00     0.000 HD 
ENDBRANCH  15  16
ENDBRANCH  14  15
ENDBRANCH  13  14
ENDBRANCH   7  13
BRANCH   8  20
HETATM   20  C   UNL     1      -7.361  12.402  69.051  1.00  0.00     0.031 C  
HETATM   21  O   UNL     1      -7.896  13.357  69.598  1.00  0.00     0.633 OA 
BRANCH  20  22
HETATM   22  O   UNL     1      -6.203  11.836  69.470  1.00  0.00    -0.091 OA 
HETATM   23  C   UNL     1      -5.343  12.715  70.206  1.00  0.00    -0.125 C  
ENDBRANCH  20  22
ENDBRANCH   8  20
BRANCH  11  24
HETATM   24  C   UNL     1      -9.942  10.755  69.080  1.00  0.00    -0.206 A  
HETATM   25  C   UNL     1      -9.522   9.483  69.518  1.00  0.00    -0.195 A  
HETATM   26  C   UNL     1     -10.077   8.899  70.661  1.00  0.00    -0.262 A  
HETATM   27  C   UNL     1     -11.048   9.572  71.397  1.00  0.00    -0.438 A  
HETATM   28  C   UNL     1     -11.467  10.836  70.991  1.00  0.00     0.035 A  
HETATM   29  C   UNL     1     -10.927  11.425  69.842  1.00  0.00     0.041 A  
HETATM   30 CL   UNL     1     -11.565  12.973  69.397  1.00  0.00    -0.354 Cl 
ENDBRANCH  11  24
ENDBRANCH   4   6
ENDBRANCH   3   4
ENDBRANCH   2   3
TORSDOF 10
ENDMDL
MODEL      215
REMARK 921   NORMALIZED FREE ENERGY PREDICTED BY IDOCK:    4.34 KCAL/MOL
REMARK 922        TOTAL FREE ENERGY PREDICTED BY IDOCK:    5.32 KCAL/MOL
REMARK 923 INTER-LIGAND FREE ENERGY PREDICTED BY IDOCK:    6.31 KCAL/MOL
REMARK 924 INTRA-LIGAND FREE ENERGY PREDICTED BY IDOCK:   -1.00 KCAL/MOL
REMARK 927      BINDING AFFINITY PREDICTED BY RF-SCORE:    0.00 PKD
ROOT
HETATM    1  C   UNL     1     -11.198   4.777  69.318  1.00  0.00     2.677 C  
HETATM    2  C   UNL     1     -11.434   5.800  68.214  1.00  0.00     1.014 C  
ENDROOT
BRANCH   2   3
HETATM    3  O   UNL     1     -10.184   6.309  67.731  1.00  0.00    -0.139 OA 
BRANCH   3   4
HETATM    4  C   UNL     1     -10.240   7.323  66.836  1.00  0.00    -0.269 C  
HETATM    5  O   UNL     1     -11.260   7.960  66.622  1.00  0.00     0.481 OA 
BRANCH   4   6
HETATM    6  C   UNL     1      -8.904   7.587  66.192  1.00  0.00    -0.185 C  
HETATM    7  C   UNL     1      -8.380   8.834  66.054  1.00  0.00    -0.126 C  
HETATM    8  C   UNL     1      -6.841   6.737  64.865  1.00  0.00    -0.050 C  
HETATM    9  N   UNL     1      -7.139   9.008  65.469  1.00  0.00    -0.080 NA 
HETATM   10  C   UNL     1      -6.418   8.026  64.823  1.00  0.00    -0.049 C  
HETATM   11  C   UNL     1      -8.105   6.354  65.672  1.00  0.00    -0.131 C  
HETATM   12  C   UNL     1      -5.163   8.502  64.129  1.00  0.00    -0.048 C  
BRANCH   7  13
HETATM   13  C   UNL     1      -9.069  10.120  66.487  1.00  0.00    -0.144 C  
BRANCH  13  14
HETATM   14  O   UNL     1      -8.143  11.196  66.724  1.00  0.00    -0.143 OA 
BRANCH  14  15
HETATM   15  C   UNL     1      -8.886  12.432  66.720  1.00  0.00    -0.189 C  
BRANCH  15  16
HETATM   16  C   UNL     1     -10.148  12.306  65.868  1.00  0.00    -0.251 C  
HETATM   17  N   UNL     1      -9.844  12.504  64.449  1.00  0.00    -0.551 NA 
HETATM   18  H2  UNL     1      -9.110  11.872  64.130  1.00  0.00     0.000 HD 
HETATM   19  H1  UNL     1     -10.686  12.419  63.880  1.00  0.00     0.000 HD 
ENDBRANCH  15  16
ENDBRANCH  14  15
ENDBRANCH  13  14
ENDBRANCH   7  13
BRANCH   8  20
HETATM   20  C   UNL     1      -6.064   5.695  64.132  1.00  0.00    -0.025 C  
HETATM   21  O   UNL     1      -6.179   5.468  62.935  1.00  0.00    -0.020 OA 
BRANCH  20  22
HETATM   22  O   UNL     1      -5.214   5.034  64.955  1.00  0.00    -0.012 OA 
HETATM   23  C   UNL     1      -5.495   3.637  65.102  1.00  0.00    -0.010 C  
ENDBRANCH  20  22
ENDBRANCH   8  20
BRANCH  11  24
HETATM   24  C   UNL     1      -8.996   5.339  64.940  1.00  0.00    -0.046 A  
HETATM   25  C   UNL     1      -9.070   4.009  65.397  1.00  0.00    -0.142 A  
HETATM   26  C   UNL     1      -9.796   3.046  64.688  1.00  0.00    -0.062 A  
HETATM   27  C   UNL     1     -10.471   3.389  63.520  1.00  0.00    -0.248 A  
HETATM   28  C   UNL     1     -10.423   4.701  63.058  1.00  0.00     0.460 A  
HETATM   29  C   UNL     1      -9.690   5.670  63.753  1.00  0.00     1.668 A  
HETATM   30 CL   UNL     1      -9.650   7.255  63.054  1.00  0.00     2.935 Cl 
ENDBRANCH  11  24
ENDBRANCH   4   6
ENDBRANCH   3   4
ENDBRANCH   2   3
TORSDOF 10
ENDMDL
MODEL      216
REMARK 921   NORMALIZED FREE ENERGY PREDICTED BY IDOCK:    4.44 KCAL/MOL
REMARK 922        TOTAL FREE ENERGY PREDICTED BY IDOCK:    5.48 KCAL/MOL
REMARK 923 INTER-LIGAND FREE ENERGY PREDICTED BY IDOCK:    4.26 KCAL/MOL
REMARK 924 INTRA-LIGAND FREE ENERGY PREDICTED BY IDOCK:    1.22 KCAL/MOL
REMARK 927      BINDING AFFINITY PREDICTED BY RF-SCORE:    0.00 PKD
ROOT
HETATM    1  C   UNL     1      -7.536  12.995  67.150  1.00  0.00    -0.004 C  
HETATM    2  C   UNL     1      -6.894  14.030  66.235  1.00  0.00     3.988 C  
ENDROOT
BRANCH   2   3
HETATM    3  O   UNL     1      -5.935  14.810  66.962  1.00  0.00    -0.040 OA 
BRANCH   3   4
HETATM    4  C   UNL     1      -6.058  16.157  66.886  1.00  0.00     0.172 C  
HETATM    5  O   UNL     1      -5.143  16.884  66.533  1.00  0.00    -0.318 OA 
BRANCH   4   6
HETATM    6  C   UNL     1      -7.447  16.621  67.236  1.00  0.00    -0.197 C  
HETATM    7  C   UNL     1      -8.066  17.654  66.604  1.00  0.00    -0.254 C  
HETATM    8  C   UNL     1      -9.525  16.525  68.790  1.00  0.00    -0.246 C  
HETATM    9  N   UNL     1      -9.351  18.021  66.962  1.00  0.00    -0.259 NA 
HETATM   10  C   UNL     1     -10.040  17.545  68.057  1.00  0.00    -0.332 C  
HETATM   11  C   UNL     1      -8.189  15.862  68.378  1.00  0.00    -0.161 C  
HETATM   12  C   UNL     1     -11.367  18.217  68.323  1.00  0.00     0.988 C  
BRANCH   7  13
HETATM   13  C   UNL     1      -7.443  18.497  65.501  1.00  0.00     0.189 C  
BRANCH  13  14
HETATM   14  O   UNL     1      -7.510  19.908  65.773  1.00  0.00    -0.323 OA 
BRANCH  14  15
HETATM   15  C   UNL     1      -6.263  20.303  66.382  1.00  0.00    -0.191 C  
BRANCH  15  16
HETATM   16  C   UNL     1      -6.506  21.248  67.558  1.00  0.00    -0.323 C  
HETATM   17  N   UNL     1      -6.999  20.514  68.726  1.00  0.00    -0.079 NA 
HETATM   18  H2  UNL     1      -6.375  19.749  68.980  1.00  0.00     0.000 HD 
HETATM   19  H1  UNL     1      -7.161  21.144  69.511  1.00  0.00     0.000 HD 
ENDBRANCH  15  16
ENDBRANCH  14  15
ENDBRANCH  13  14
ENDBRANCH   7  13
BRANCH   8  20
HETATM   20  C   UNL     1     -10.271  16.046  69.990  1.00  0.00    -0.129 C  
HETATM   21  O   UNL     1     -10.315  16.645  71.055  1.00  0.00     1.127 OA 
BRANCH  20  22
HETATM   22  O   UNL     1     -10.897  14.868  69.752  1.00  0.00    -0.257 OA 
HETATM   23  C   UNL     1     -12.314  14.895  69.957  1.00  0.00    -0.312 C  
ENDBRANCH  20  22
ENDBRANCH   8  20
BRANCH  11  24
HETATM   24  C   UNL     1      -7.277  15.561  69.577  1.00  0.00    -0.201 A  
HETATM   25  C   UNL     1      -6.513  16.594  70.156  1.00  0.00     0.255 A  
HETATM   26  C   UNL     1      -5.602  16.323  71.183  1.00  0.00     0.248 A  
HETATM   27  C   UNL     1      -5.442  15.025  71.660  1.00  0.00     0.060 A  
HETATM   28  C   UNL     1      -6.197  13.992  71.112  1.00  0.00     0.043 A  
HETATM   29  C   UNL     1      -7.103  14.250  70.077  1.00  0.00     0.173 A  
HETATM   30 CL   UNL     1      -7.945  12.880  69.430  1.00  0.00     0.642 Cl 
ENDBRANCH  11  24
ENDBRANCH   4   6
ENDBRANCH   3   4
ENDBRANCH   2   3
TORSDOF 10
ENDMDL
MODEL      217
REMARK 921   NORMALIZED FREE ENERGY PREDICTED BY IDOCK:    6.00 KCAL/MOL
REMARK 922        TOTAL FREE ENERGY PREDICTED BY IDOCK:    7.95 KCAL/MOL
REMARK 923 INTER-LIGAND FREE ENERGY PREDICTED BY IDOCK:    4.38 KCAL/MOL
REMARK 924 INTRA-LIGAND FREE ENERGY PREDICTED BY IDOCK:    3.57 KCAL/MOL
REMARK 927      BINDING AFFINITY PREDICTED BY RF-SCORE:    0.00 PKD
ROOT
HETATM    1  C   UNL     1      -9.688  15.405  69.410  1.00  0.00    -0.273 C  
HETATM    2  C   UNL     1      -8.791  15.625  68.199  1.00  0.00    -0.174 C  
ENDROOT
BRANCH   2   3
HETATM    3  O   UNL     1      -7.978  14.468  67.965  1.00  0.00    -0.118 OA 
BRANCH   3   4
HETATM    4  C   UNL     1      -8.485  13.273  68.353  1.00  0.00    -0.128 C  
HETATM    5  O   UNL     1      -8.708  12.999  69.522  1.00  0.00     1.047 OA 
BRANCH   4   6
HETATM    6  C   UNL     1      -8.776  12.372  67.182  1.00  0.00    -0.195 C  
HETATM    7  C   UNL     1      -7.889  11.453  66.714  1.00  0.00    -0.157 C  
HETATM    8  C   UNL     1     -10.300  11.689  65.194  1.00  0.00    -0.326 C  
HETATM    9  N   UNL     1      -8.223  10.643  65.644  1.00  0.00    -0.162 NA 
HETATM   10  C   UNL     1      -9.343  10.792  64.852  1.00  0.00    -0.222 C  
HETATM   11  C   UNL     1     -10.167  12.520  66.494  1.00  0.00    -0.255 C  
HETATM   12  C   UNL     1      -9.403   9.879  63.649  1.00  0.00    -0.242 C  
BRANCH   7  13
HETATM   13  C   UNL     1      -6.490  11.232  67.272  1.00  0.00    -0.085 C  
BRANCH  13  14
HETATM   14  O   UNL     1      -6.118   9.843  67.308  1.00  0.00    -0.057 OA 
BRANCH  14  15
HETATM   15  C   UNL     1      -5.335   9.622  68.499  1.00  0.00    -0.033 C  
BRANCH  15  16
HETATM   16  C   UNL     1      -5.737   8.316  69.181  1.00  0.00    -0.034 C  
HETATM   17  N   UNL     1      -6.800   8.543  70.162  1.00  0.00    -0.038 NA 
HETATM   18  H2  UNL     1      -7.603   9.013  69.745  1.00  0.00     0.000 HD 
HETATM   19  H1  UNL     1      -7.069   7.672  70.618  1.00  0.00     0.000 HD 
ENDBRANCH  15  16
ENDBRANCH  14  15
ENDBRANCH  13  14
ENDBRANCH   7  13
BRANCH   8  20
HETATM   20  C   UNL     1     -11.487  11.857  64.306  1.00  0.00    -0.346 C  
HETATM   21  O   UNL     1     -11.649  11.254  63.254  1.00  0.00    -0.125 OA 
BRANCH  20  22
HETATM   22  O   UNL     1     -12.365  12.758  64.810  1.00  0.00    -0.433 OA 
HETATM   23  C   UNL     1     -13.660  12.734  64.197  1.00  0.00     1.544 C  
ENDBRANCH  20  22
ENDBRANCH   8  20
BRANCH  11  24
HETATM   24  C   UNL     1     -10.583  13.987  66.311  1.00  0.00    -0.281 A  
HETATM   25  C   UNL     1     -11.503  14.574  67.202  1.00  0.00    -0.383 A  
HETATM   26  C   UNL     1     -11.970  15.876  66.995  1.00  0.00     0.884 A  
HETATM   27  C   UNL     1     -11.523  16.622  65.908  1.00  0.00     0.851 A  
HETATM   28  C   UNL     1     -10.603  16.067  65.023  1.00  0.00    -0.342 A  
HETATM   29  C   UNL     1     -10.138  14.761  65.214  1.00  0.00    -0.354 A  
HETATM   30 CL   UNL     1      -9.042  14.151  64.019  1.00  0.00     4.821 Cl 
ENDBRANCH  11  24
ENDBRANCH   4   6
ENDBRANCH   3   4
ENDBRANCH   2   3
TORSDOF 10
ENDMDL
MODEL      218
REMARK 921   NORMALIZED FREE ENERGY PREDICTED BY IDOCK:    6.99 KCAL/MOL
REMARK 922        TOTAL FREE ENERGY PREDICTED BY IDOCK:    9.53 KCAL/MOL
REMARK 923 INTER-LIGAND FREE ENERGY PREDICTED BY IDOCK:   -2.52 KCAL/MOL
REMARK 924 INTRA-LIGAND FREE ENERGY PREDICTED BY IDOCK:   12.05 KCAL/MOL
REMARK 927      BINDING AFFINITY PREDICTED BY RF-SCORE:    0.00 PKD
ROOT
HETATM    1  C   UNL     1      -6.516   7.717  69.356  1.00  0.00    -0.035 C  
HETATM    2  C   UNL     1      -5.407   7.871  68.322  1.00  0.00    -0.032 C  
ENDROOT
BRANCH   2   3
HETATM    3  O   UNL     1      -5.357   6.719  67.470  1.00  0.00    -0.008 OA 
BRANCH   3   4
HETATM    4  C   UNL     1      -6.484   6.415  66.783  1.00  0.00    -0.046 C  
HETATM    5  O   UNL     1      -6.510   5.582  65.892  1.00  0.00    -0.038 OA 
BRANCH   4   6
HETATM    6  C   UNL     1      -7.678   7.186  67.283  1.00  0.00    -0.109 C  
HETATM    7  C   UNL     1      -8.009   8.422  66.823  1.00  0.00    -0.098 C  
HETATM    8  C   UNL     1      -9.647   7.446  68.956  1.00  0.00    -0.148 C  
HETATM    9  N   UNL     1      -9.129   9.070  67.311  1.00  0.00    -0.133 NA 
HETATM   10  C   UNL     1      -9.885   8.655  68.388  1.00  0.00    -0.172 C  
HETATM   11  C   UNL     1      -8.560   6.508  68.375  1.00  0.00    -0.119 C  
HETATM   12  C   UNL     1     -10.965   9.618  68.824  1.00  0.00    -0.153 C  
BRANCH   7  13
HETATM   13  C   UNL     1      -7.217   9.206  65.787  1.00  0.00    -0.089 C  
BRANCH  13  14
HETATM   14  O   UNL     1      -7.837   9.197  64.489  1.00  0.00    -0.110 OA 
BRANCH  14  15
HETATM   15  C   UNL     1      -8.801  10.269  64.449  1.00  0.00    -0.209 C  
BRANCH  15  16
HETATM   16  C   UNL     1      -8.216  11.503  63.764  1.00  0.00     1.082 C  
HETATM   17  N   UNL     1      -8.535  11.509  62.335  1.00  0.00    -0.605 NA 
HETATM   18  H2  UNL     1      -9.538  11.429  62.172  1.00  0.00     0.000 HD 
HETATM   19  H1  UNL     1      -8.144  12.332  61.877  1.00  0.00     0.000 HD 
ENDBRANCH  15  16
ENDBRANCH  14  15
ENDBRANCH  13  14
ENDBRANCH   7  13
BRANCH   8  20
HETATM   20  C   UNL     1     -10.453   7.030  70.140  1.00  0.00    -0.214 C  
HETATM   21  O   UNL     1     -11.571   6.538  70.071  1.00  0.00    -0.407 OA 
BRANCH  20  22
HETATM   22  O   UNL     1      -9.793   7.261  71.300  1.00  0.00    -0.180 OA 
HETATM   23  C   UNL     1     -10.547   7.987  72.279  1.00  0.00    -0.291 C  
ENDBRANCH  20  22
ENDBRANCH   8  20
BRANCH  11  24
HETATM   24  C   UNL     1      -7.725   5.816  69.463  1.00  0.00    -0.092 A  
HETATM   25  C   UNL     1      -6.866   6.576  70.281  1.00  0.00    -0.058 A  
HETATM   26  C   UNL     1      -6.024   5.954  71.209  1.00  0.00    -0.026 A  
HETATM   27  C   UNL     1      -6.029   4.569  71.350  1.00  0.00    -0.017 A  
HETATM   28  C   UNL     1      -6.880   3.800  70.561  1.00  0.00    -0.033 A  
HETATM   29  C   UNL     1      -7.719   4.411  69.622  1.00  0.00    -0.054 A  
HETATM   30 CL   UNL     1      -8.692   3.353  68.654  1.00  0.00    -0.126 Cl 
ENDBRANCH  11  24
ENDBRANCH   4   6
ENDBRANCH   3   4
ENDBRANCH   2   3
TORSDOF 10
ENDMDL
MODEL      219
REMARK 921   NORMALIZED FREE ENERGY PREDICTED BY IDOCK:    8.02 KCAL/MOL
REMARK 922        TOTAL FREE ENERGY PREDICTED BY IDOCK:   11.16 KCAL/MOL
REMARK 923 INTER-LIGAND FREE ENERGY PREDICTED BY IDOCK:   11.95 KCAL/MOL
REMARK 924 INTRA-LIGAND FREE ENERGY PREDICTED BY IDOCK:   -0.79 KCAL/MOL
REMARK 927      BINDING AFFINITY PREDICTED BY RF-SCORE:    0.00 PKD
ROOT
HETATM    1  C   UNL     1      -7.536  12.995  67.150  1.00  0.00    -0.004 C  
HETATM    2  C   UNL     1      -6.879  14.025  66.240  1.00  0.00     3.988 C  
ENDROOT
BRANCH   2   3
HETATM    3  O   UNL     1      -5.932  14.809  66.976  1.00  0.00    -0.040 OA 
BRANCH   3   4
HETATM    4  C   UNL     1      -6.061  16.155  66.903  1.00  0.00     0.172 C  
HETATM    5  O   UNL     1      -5.148  16.888  66.561  1.00  0.00    -0.318 OA 
BRANCH   4   6
HETATM    6  C   UNL     1      -7.457  16.610  67.243  1.00  0.00    -0.197 C  
HETATM    7  C   UNL     1      -8.229  17.336  66.390  1.00  0.00    -0.282 C  
HETATM    8  C   UNL     1      -9.376  16.879  68.970  1.00  0.00    -0.188 C  
HETATM    9  N   UNL     1      -9.510  17.708  66.756  1.00  0.00    -0.270 NA 
HETATM   10  C   UNL     1     -10.052  17.567  68.016  1.00  0.00    -0.332 C  
HETATM   11  C   UNL     1      -8.018  16.213  68.642  1.00  0.00    -0.201 C  
HETATM   12  C   UNL     1     -11.414  18.195  68.203  1.00  0.00     1.133 C  
BRANCH   7  13
HETATM   13  C   UNL     1      -7.791  17.815  65.014  1.00  0.00     2.926 C  
BRANCH  13  14
HETATM   14  O   UNL     1      -7.982  19.229  64.831  1.00  0.00     0.716 OA 
BRANCH  14  15
HETATM   15  C   UNL     1      -6.737  19.891  65.139  1.00  0.00    -0.272 C  
BRANCH  15  16
HETATM   16  C   UNL     1      -5.727  19.706  64.008  1.00  0.00    -0.278 C  
HETATM   17  N   UNL     1      -5.981  20.653  62.921  1.00  0.00    -0.229 NA 
HETATM   18  H2  UNL     1      -5.999  21.616  63.256  1.00  0.00     0.000 HD 
HETATM   19  H1  UNL     1      -5.307  20.531  62.165  1.00  0.00     0.000 HD 
ENDBRANCH  15  16
ENDBRANCH  14  15
ENDBRANCH  13  14
ENDBRANCH   7  13
BRANCH   8  20
HETATM   20  C   UNL     1      -9.965  16.766  70.336  1.00  0.00     1.336 C  
HETATM   21  O   UNL     1     -10.532  17.680  70.918  1.00  0.00     1.399 OA 
BRANCH  20  22
HETATM   22  O   UNL     1      -9.798  15.523  70.851  1.00  0.00     0.562 OA 
HETATM   23  C   UNL     1     -10.921  15.030  71.593  1.00  0.00     0.173 C  
ENDBRANCH  20  22
ENDBRANCH   8  20
BRANCH  11  24
HETATM   24  C   UNL     1      -6.982  16.383  69.763  1.00  0.00     0.076 A  
HETATM   25  C   UNL     1      -6.479  15.251  70.434  1.00  0.00     0.045 A  
HETATM   26  C   UNL     1      -5.611  15.389  71.523  1.00  0.00     0.258 A  
HETATM   27  C   UNL     1      -5.219  16.652  71.957  1.00  0.00     0.712 A  
HETATM   28  C   UNL     1      -5.694  17.784  71.300  1.00  0.00     0.547 A  
HETATM   29  C   UNL     1      -6.571  17.658  70.217  1.00  0.00     0.758 A  
HETATM   30 CL   UNL     1      -7.145  19.134  69.513  1.00  0.00    -0.239 Cl 
ENDBRANCH  11  24
ENDBRANCH   4   6
ENDBRANCH   3   4
ENDBRANCH   2   3
TORSDOF 10
ENDMDL
MODEL      220
REMARK 921   NORMALIZED FREE ENERGY PREDICTED BY IDOCK:    8.08 KCAL/MOL
REMARK 922        TOTAL FREE ENERGY PREDICTED BY IDOCK:   11.24 KCAL/MOL
REMARK 923 INTER-LIGAND FREE ENERGY PREDICTED BY IDOCK:   -1.38 KCAL/MOL
REMARK 924 INTRA-LIGAND FREE ENERGY PREDICTED BY IDOCK:   12.62 KCAL/MOL
REMARK 927      BINDING AFFINITY PREDICTED BY RF-SCORE:    0.00 PKD
ROOT
HETATM    1  C   UNL     1      -5.863   7.870  68.732  1.00  0.00    -0.035 C  
HETATM    2  C   UNL     1      -5.159   7.850  67.381  1.00  0.00    -0.031 C  
ENDROOT
BRANCH   2   3
HETATM    3  O   UNL     1      -5.804   6.925  66.497  1.00  0.00    -0.027 OA 
BRANCH   3   4
HETATM    4  C   UNL     1      -7.150   7.023  66.383  1.00  0.00    -0.074 C  
HETATM    5  O   UNL     1      -7.743   6.796  65.340  1.00  0.00    -0.088 OA 
BRANCH   4   6
HETATM    6  C   UNL     1      -7.805   7.389  67.689  1.00  0.00    -0.113 C  
HETATM    7  C   UNL     1      -7.478   8.504  68.396  1.00  0.00    -0.095 C  
HETATM    8  C   UNL     1      -9.386   6.787  69.659  1.00  0.00    -0.144 C  
HETATM    9  N   UNL     1      -8.129   8.793  69.582  1.00  0.00    -0.098 NA 
HETATM   10  C   UNL     1      -8.992   7.946  70.245  1.00  0.00    -0.151 C  
HETATM   11  C   UNL     1      -8.908   6.430  68.231  1.00  0.00    -0.115 C  
HETATM   12  C   UNL     1      -9.451   8.430  71.601  1.00  0.00    -0.281 C  
BRANCH   7  13
HETATM   13  C   UNL     1      -6.400   9.501  67.998  1.00  0.00    -0.057 C  
BRANCH  13  14
HETATM   14  O   UNL     1      -6.939  10.775  67.601  1.00  0.00    -0.079 OA 
BRANCH  14  15
HETATM   15  C   UNL     1      -7.203  11.539  68.795  1.00  0.00    -0.112 C  
BRANCH  15  16
HETATM   16  C   UNL     1      -5.985  11.546  69.717  1.00  0.00    -0.116 C  
HETATM   17  N   UNL     1      -5.144  12.718  69.464  1.00  0.00    -0.071 NA 
HETATM   18  H2  UNL     1      -5.675  13.585  69.536  1.00  0.00     0.000 HD 
HETATM   19  H1  UNL     1      -4.331  12.723  70.079  1.00  0.00     0.000 HD 
ENDBRANCH  15  16
ENDBRANCH  14  15
ENDBRANCH  13  14
ENDBRANCH   7  13
BRANCH   8  20
HETATM   20  C   UNL     1     -10.294   5.869  70.407  1.00  0.00    -0.231 C  
HETATM   21  O   UNL     1     -11.510   5.992  70.451  1.00  0.00    -0.317 OA 
BRANCH  20  22
HETATM   22  O   UNL     1      -9.604   4.882  71.029  1.00  0.00    -0.154 OA 
HETATM   23  C   UNL     1      -9.902   4.736  72.422  1.00  0.00    -0.161 C  
ENDBRANCH  20  22
ENDBRANCH   8  20
BRANCH  11  24
HETATM   24  C   UNL     1      -8.528   4.949  68.081  1.00  0.00    -0.102 A  
HETATM   25  C   UNL     1      -7.207   4.532  68.336  1.00  0.00    -0.060 A  
HETATM   26  C   UNL     1      -6.816   3.208  68.111  1.00  0.00    -0.049 A  
HETATM   27  C   UNL     1      -7.732   2.272  67.639  1.00  0.00    -0.060 A  
HETATM   28  C   UNL     1      -9.047   2.659  67.394  1.00  0.00    -0.205 A  
HETATM   29  C   UNL     1      -9.446   3.984  67.605  1.00  0.00    -0.183 A  
HETATM   30 CL   UNL     1     -11.089   4.367  67.210  1.00  0.00     1.829 Cl 
ENDBRANCH  11  24
ENDBRANCH   4   6
ENDBRANCH   3   4
ENDBRANCH   2   3
TORSDOF 10
ENDMDL
MODEL      221
REMARK 921   NORMALIZED FREE ENERGY PREDICTED BY IDOCK:   10.43 KCAL/MOL
REMARK 922        TOTAL FREE ENERGY PREDICTED BY IDOCK:   14.97 KCAL/MOL
REMARK 923 INTER-LIGAND FREE ENERGY PREDICTED BY IDOCK:    1.32 KCAL/MOL
REMARK 924 INTRA-LIGAND FREE ENERGY PREDICTED BY IDOCK:   13.65 KCAL/MOL
REMARK 927      BINDING AFFINITY PREDICTED BY RF-SCORE:    0.00 PKD
ROOT
HETATM    1  C   UNL     1     -11.198   4.777  69.318  1.00  0.00     2.677 C  
HETATM    2  C   UNL     1     -11.431   5.789  68.203  1.00  0.00     1.068 C  
ENDROOT
BRANCH   2   3
HETATM    3  O   UNL     1     -10.180   6.302  67.727  1.00  0.00    -0.139 OA 
BRANCH   3   4
HETATM    4  C   UNL     1     -10.235   7.308  66.822  1.00  0.00    -0.235 C  
HETATM    5  O   UNL     1     -11.256   7.937  66.595  1.00  0.00     0.481 OA 
BRANCH   4   6
HETATM    6  C   UNL     1      -8.894   7.574  66.188  1.00  0.00    -0.185 C  
HETATM    7  C   UNL     1      -8.376   8.824  66.044  1.00  0.00    -0.126 C  
HETATM    8  C   UNL     1      -6.815   6.726  64.885  1.00  0.00    -0.050 C  
HETATM    9  N   UNL     1      -7.132   9.000  65.467  1.00  0.00    -0.080 NA 
HETATM   10  C   UNL     1      -6.400   8.017  64.836  1.00  0.00    -0.048 C  
HETATM   11  C   UNL     1      -8.083   6.342  65.685  1.00  0.00    -0.129 C  
HETATM   12  C   UNL     1      -5.141   8.495  64.148  1.00  0.00    -0.044 C  
BRANCH   7  13
HETATM   13  C   UNL     1      -9.077  10.109  66.460  1.00  0.00    -0.144 C  
BRANCH  13  14
HETATM   14  O   UNL     1      -9.159  10.261  67.889  1.00  0.00    -0.131 OA 
BRANCH  14  15
HETATM   15  C   UNL     1     -10.396   9.664  68.330  1.00  0.00    -0.204 C  
BRANCH  15  16
HETATM   16  C   UNL     1     -11.097  10.556  69.353  1.00  0.00    -0.258 C  
HETATM   17  N   UNL     1     -10.873  10.066  70.715  1.00  0.00    -0.342 NA 
HETATM   18  H2  UNL     1      -9.879   9.966  70.920  1.00  0.00     0.000 HD 
HETATM   19  H1  UNL     1     -11.340  10.661  71.398  1.00  0.00     0.000 HD 
ENDBRANCH  15  16
ENDBRANCH  14  15
ENDBRANCH  13  14
ENDBRANCH   7  13
BRANCH   8  20
HETATM   20  C   UNL     1      -6.026   5.683  64.168  1.00  0.00    -0.025 C  
HETATM   21  O   UNL     1      -5.932   5.608  62.951  1.00  0.00    -0.017 OA 
BRANCH  20  22
HETATM   22  O   UNL     1      -5.424   4.830  65.031  1.00  0.00    -0.013 OA 
HETATM   23  C   UNL     1      -5.402   3.464  64.600  1.00  0.00    -0.009 C  
ENDBRANCH  20  22
ENDBRANCH   8  20
BRANCH  11  24
HETATM   24  C   UNL     1      -8.962   5.316  64.954  1.00  0.00    -0.046 A  
HETATM   25  C   UNL     1      -8.766   5.072  63.580  1.00  0.00    -0.079 A  
HETATM   26  C   UNL     1      -9.618   4.216  62.875  1.00  0.00    -0.137 A  
HETATM   27  C   UNL     1     -10.673   3.579  63.522  1.00  0.00    -0.254 A  
HETATM   28  C   UNL     1     -10.876   3.794  64.882  1.00  0.00     0.166 A  
HETATM   29  C   UNL     1     -10.036   4.657  65.596  1.00  0.00    -0.218 A  
HETATM   30 CL   UNL     1     -10.419   4.897  67.269  1.00  0.00    -0.159 Cl 
ENDBRANCH  11  24
ENDBRANCH   4   6
ENDBRANCH   3   4
ENDBRANCH   2   3
TORSDOF 10
ENDMDL
MODEL      222
REMARK 921   NORMALIZED FREE ENERGY PREDICTED BY IDOCK:   13.60 KCAL/MOL
REMARK 922        TOTAL FREE ENERGY PREDICTED BY IDOCK:   19.99 KCAL/MOL
REMARK 923 INTER-LIGAND FREE ENERGY PREDICTED BY IDOCK:    2.84 KCAL/MOL
REMARK 924 INTRA-LIGAND FREE ENERGY PREDICTED BY IDOCK:   17.15 KCAL/MOL
REMARK 927      BINDING AFFINITY PREDICTED BY RF-SCORE:    0.00 PKD
ROOT
HETATM    1  C   UNL     1     -11.427  18.368  69.460  1.00  0.00     3.765 C  
HETATM    2  C   UNL     1     -11.476  17.075  68.657  1.00  0.00     0.352 C  
ENDROOT
BRANCH   2   3
HETATM    3  O   UNL     1     -10.678  16.065  69.289  1.00  0.00    -0.234 OA 
BRANCH   3   4
HETATM    4  C   UNL     1      -9.497  15.760  68.702  1.00  0.00    -0.208 C  
HETATM    5  O   UNL     1      -8.543  16.521  68.701  1.00  0.00    -0.221 OA 
BRANCH   4   6
HETATM    6  C   UNL     1      -9.500  14.375  68.108  1.00  0.00    -0.204 C  
HETATM    7  C   UNL     1      -8.594  13.420  68.448  1.00  0.00    -0.134 C  
HETATM    8  C   UNL     1     -10.417  12.674  66.374  1.00  0.00    -0.267 C  
HETATM    9  N   UNL     1      -8.661  12.161  67.878  1.00  0.00    -0.158 NA 
HETATM   10  C   UNL     1      -9.478  11.805  66.827  1.00  0.00    -0.193 C  
HETATM   11  C   UNL     1     -10.608  14.048  67.061  1.00  0.00    -0.279 C  
HETATM   12  C   UNL     1      -9.253  10.413  66.282  1.00  0.00    -0.195 C  
BRANCH   7  13
HETATM   13  C   UNL     1      -7.447  13.619  69.428  1.00  0.00     0.292 C  
BRANCH  13  14
HETATM   14  O   UNL     1      -6.275  12.862  69.075  1.00  0.00    -0.082 OA 
BRANCH  14  15
HETATM   15  C   UNL     1      -6.561  11.467  69.301  1.00  0.00    -0.106 C  
BRANCH  15  16
HETATM   16  C   UNL     1      -5.941  10.991  70.614  1.00  0.00    -0.079 C  
HETATM   17  N   UNL     1      -5.173  12.062  71.249  1.00  0.00    -0.282 NA 
HETATM   18  H2  UNL     1      -5.735  12.902  71.382  1.00  0.00     0.000 HD 
HETATM   19  H1  UNL     1      -4.759  11.745  72.126  1.00  0.00     0.000 HD 
ENDBRANCH  15  16
ENDBRANCH  14  15
ENDBRANCH  13  14
ENDBRANCH   7  13
BRANCH   8  20
HETATM   20  C   UNL     1     -11.269  12.281  65.214  1.00  0.00    -0.328 C  
HETATM   21  O   UNL     1     -11.041  11.325  64.486  1.00  0.00    -0.283 OA 
BRANCH  20  22
HETATM   22  O   UNL     1     -12.329  13.113  65.068  1.00  0.00    -0.411 OA 
HETATM   23  C   UNL     1     -13.130  12.858  63.908  1.00  0.00     0.430 C  
ENDBRANCH  20  22
ENDBRANCH   8  20
BRANCH  11  24
HETATM   24  C   UNL     1     -10.828  15.191  66.058  1.00  0.00    -0.335 A  
HETATM   25  C   UNL     1      -9.999  16.329  66.095  1.00  0.00    -0.355 A  
HETATM   26  C   UNL     1     -10.245  17.423  65.258  1.00  0.00     0.359 A  
HETATM   27  C   UNL     1     -11.310  17.401  64.363  1.00  0.00     1.852 A  
HETATM   28  C   UNL     1     -12.134  16.281  64.300  1.00  0.00     0.561 A  
HETATM   29  C   UNL     1     -11.904  15.186  65.141  1.00  0.00    -0.116 A  
HETATM   30 CL   UNL     1     -13.027  13.872  65.019  1.00  0.00    -0.294 Cl 
ENDBRANCH  11  24
ENDBRANCH   4   6
ENDBRANCH   3   4
ENDBRANCH   2   3
TORSDOF 10
ENDMDL
MODEL      223
REMARK 921   NORMALIZED FREE ENERGY PREDICTED BY IDOCK:   14.51 KCAL/MOL
REMARK 922        TOTAL FREE ENERGY PREDICTED BY IDOCK:   21.44 KCAL/MOL
REMARK 923 INTER-LIGAND FREE ENERGY PREDICTED BY IDOCK:   16.00 KCAL/MOL
REMARK 924 INTRA-LIGAND FREE ENERGY PREDICTED BY IDOCK:    5.43 KCAL/MOL
REMARK 927      BINDING AFFINITY PREDICTED BY RF-SCORE:    0.00 PKD
ROOT
HETATM    1  C   UNL     1     -13.057  13.368  66.451  1.00  0.00     1.053 C  
HETATM    2  C   UNL     1     -12.013  14.051  67.325  1.00  0.00    -0.413 C  
ENDROOT
BRANCH   2   3
HETATM    3  O   UNL     1     -11.142  13.077  67.914  1.00  0.00    -0.237 OA 
BRANCH   3   4
HETATM    4  C   UNL     1     -10.047  13.545  68.560  1.00  0.00    -0.215 C  
HETATM    5  O   UNL     1      -9.579  13.000  69.547  1.00  0.00     0.880 OA 
BRANCH   4   6
HETATM    6  C   UNL     1      -9.470  14.764  67.889  1.00  0.00    -0.201 C  
HETATM    7  C   UNL     1      -8.159  14.870  67.543  1.00  0.00    -0.182 C  
HETATM    8  C   UNL     1      -9.729  17.214  67.069  1.00  0.00    -0.265 C  
HETATM    9  N   UNL     1      -7.695  16.011  66.913  1.00  0.00    -0.232 NA 
HETATM   10  C   UNL     1      -8.412  17.176  66.745  1.00  0.00    -0.235 C  
HETATM   11  C   UNL     1     -10.445  15.942  67.585  1.00  0.00    -0.289 C  
HETATM   12  C   UNL     1      -7.630  18.334  66.167  1.00  0.00    -0.276 C  
BRANCH   7  13
HETATM   13  C   UNL     1      -7.100  13.811  67.811  1.00  0.00    -0.167 C  
BRANCH  13  14
HETATM   14  O   UNL     1      -7.187  13.261  69.138  1.00  0.00    -0.056 OA 
BRANCH  14  15
HETATM   15  C   UNL     1      -5.861  13.249  69.704  1.00  0.00    -0.114 C  
BRANCH  15  16
HETATM   16  C   UNL     1      -5.915  13.408  71.223  1.00  0.00     0.186 C  
HETATM   17  N   UNL     1      -5.674  12.128  71.891  1.00  0.00    -0.018 NA 
HETATM   18  H2  UNL     1      -4.798  11.704  71.588  1.00  0.00     0.000 HD 
HETATM   19  H1  UNL     1      -5.710  12.233  72.905  1.00  0.00     0.000 HD 
ENDBRANCH  15  16
ENDBRANCH  14  15
ENDBRANCH  13  14
ENDBRANCH   7  13
BRANCH   8  20
HETATM   20  C   UNL     1     -10.478  18.494  66.911  1.00  0.00    -0.396 C  
HETATM   21  O   UNL     1     -11.613  18.575  66.463  1.00  0.00     1.114 OA 
BRANCH  20  22
HETATM   22  O   UNL     1      -9.746  19.556  67.329  1.00  0.00    -0.317 OA 
HETATM   23  C   UNL     1     -10.109  20.803  66.724  1.00  0.00     0.124 C  
ENDBRANCH  20  22
ENDBRANCH   8  20
BRANCH  11  24
HETATM   24  C   UNL     1     -11.406  16.228  68.749  1.00  0.00    -0.329 A  
HETATM   25  C   UNL     1     -10.925  16.234  70.073  1.00  0.00    -0.356 A  
HETATM   26  C   UNL     1     -11.800  16.394  71.153  1.00  0.00    -0.131 A  
HETATM   27  C   UNL     1     -13.165  16.561  70.937  1.00  0.00     3.211 A  
HETATM   28  C   UNL     1     -13.660  16.572  69.636  1.00  0.00     4.987 A  
HETATM   29  C   UNL     1     -12.794  16.402  68.548  1.00  0.00     2.654 A  
HETATM   30 CL   UNL     1     -13.527  16.373  66.978  1.00  0.00     6.223 Cl 
ENDBRANCH  11  24
ENDBRANCH   4   6
ENDBRANCH   3   4
ENDBRANCH   2   3
TORSDOF 10
ENDMDL
MODEL      224
REMARK 921   NORMALIZED FREE ENERGY PREDICTED BY IDOCK:   17.00 KCAL/MOL
REMARK 922        TOTAL FREE ENERGY PREDICTED BY IDOCK:   25.38 KCAL/MOL
REMARK 923 INTER-LIGAND FREE ENERGY PREDICTED BY IDOCK:   21.25 KCAL/MOL
REMARK 924 INTRA-LIGAND FREE ENERGY PREDICTED BY IDOCK:    4.13 KCAL/MOL
REMARK 927      BINDING AFFINITY PREDICTED BY RF-SCORE:    0.00 PKD
ROOT
HETATM    1  C   UNL     1     -12.973  13.421  66.644  1.00  0.00     0.982 C  
HETATM    2  C   UNL     1     -11.800  13.872  67.504  1.00  0.00    -0.396 C  
ENDROOT
BRANCH   2   3
HETATM    3  O   UNL     1     -11.068  12.736  67.983  1.00  0.00    -0.228 OA 
BRANCH   3   4
HETATM    4  C   UNL     1      -9.897  12.985  68.616  1.00  0.00    -0.068 C  
HETATM    5  O   UNL     1      -9.410  12.216  69.429  1.00  0.00     0.620 OA 
BRANCH   4   6
HETATM    6  C   UNL     1      -9.268  14.275  68.160  1.00  0.00    -0.202 C  
HETATM    7  C   UNL     1      -8.316  14.335  67.191  1.00  0.00    -0.180 C  
HETATM    8  C   UNL     1      -8.922  16.832  68.446  1.00  0.00    -0.233 C  
HETATM    9  N   UNL     1      -7.789  15.554  66.805  1.00  0.00    -0.192 NA 
HETATM   10  C   UNL     1      -8.009  16.756  67.445  1.00  0.00    -0.170 C  
HETATM   11  C   UNL     1      -9.753  15.589  68.845  1.00  0.00    -0.223 C  
HETATM   12  C   UNL     1      -7.196  17.919  66.925  1.00  0.00    -0.221 C  
BRANCH   7  13
HETATM   13  C   UNL     1      -7.733  13.129  66.468  1.00  0.00     0.976 C  
BRANCH  13  14
HETATM   14  O   UNL     1      -7.471  12.024  67.352  1.00  0.00    -0.132 OA 
BRANCH  14  15
HETATM   15  C   UNL     1      -6.142  11.537  67.075  1.00  0.00    -0.131 C  
BRANCH  15  16
HETATM   16  C   UNL     1      -5.506  10.945  68.332  1.00  0.00    -0.043 C  
HETATM   17  N   UNL     1      -5.519   9.482  68.285  1.00  0.00    -0.037 NA 
HETATM   18  H2  UNL     1      -5.077   9.128  67.437  1.00  0.00     0.000 HD 
HETATM   19  H1  UNL     1      -5.095   9.086  69.123  1.00  0.00     0.000 HD 
ENDBRANCH  15  16
ENDBRANCH  14  15
ENDBRANCH  13  14
ENDBRANCH   7  13
BRANCH   8  20
HETATM   20  C   UNL     1      -9.120  18.134  69.148  1.00  0.00     0.091 C  
HETATM   21  O   UNL     1     -10.206  18.554  69.522  1.00  0.00    -0.046 OA 
BRANCH  20  22
HETATM   22  O   UNL     1      -7.948  18.792  69.322  1.00  0.00    -0.109 OA 
HETATM   23  C   UNL     1      -8.077  20.213  69.451  1.00  0.00     0.504 C  
ENDBRANCH  20  22
ENDBRANCH   8  20
BRANCH  11  24
HETATM   24  C   UNL     1      -9.909  15.438  70.366  1.00  0.00     0.308 A  
HETATM   25  C   UNL     1      -9.166  14.461  71.057  1.00  0.00     3.841 A  
HETATM   26  C   UNL     1      -9.367  14.241  72.423  1.00  0.00     8.380 A  
HETATM   27  C   UNL     1     -10.300  14.994  73.130  1.00  0.00     4.008 A  
HETATM   28  C   UNL     1     -11.035  15.974  72.470  1.00  0.00     1.110 A  
HETATM   29  C   UNL     1     -10.851  16.196  71.101  1.00  0.00     0.313 A  
HETATM   30 CL   UNL     1     -11.862  17.399  70.371  1.00  0.00     2.732 Cl 
ENDBRANCH  11  24
ENDBRANCH   4   6
ENDBRANCH   3   4
ENDBRANCH   2   3
TORSDOF 10
ENDMDL
MODEL      225
REMARK 921   NORMALIZED FREE ENERGY PREDICTED BY IDOCK:   19.28 KCAL/MOL
REMARK 922        TOTAL FREE ENERGY PREDICTED BY IDOCK:   28.99 KCAL/MOL
REMARK 923 INTER-LIGAND FREE ENERGY PREDICTED BY IDOCK:   19.36 KCAL/MOL
REMARK 924 INTRA-LIGAND FREE ENERGY PREDICTED BY IDOCK:    9.63 KCAL/MOL
REMARK 927      BINDING AFFINITY PREDICTED BY RF-SCORE:    0.00 PKD
ROOT
HETATM    1  C   UNL     1      -9.409  10.245  72.131  1.00  0.00     6.238 C  
HETATM    2  C   UNL     1      -8.319  11.293  71.950  1.00  0.00    12.170 C  
ENDROOT
BRANCH   2   3
HETATM    3  O   UNL     1      -7.046  10.662  71.765  1.00  0.00     1.897 OA 
BRANCH   3   4
HETATM    4  C   UNL     1      -7.046   9.445  71.169  1.00  0.00     0.008 C  
HETATM    5  O   UNL     1      -6.449   8.485  71.629  1.00  0.00    -0.055 OA 
BRANCH   4   6
HETATM    6  C   UNL     1      -7.896   9.423  69.926  1.00  0.00    -0.126 C  
HETATM    7  C   UNL     1      -8.275   8.272  69.307  1.00  0.00    -0.118 C  
HETATM    8  C   UNL     1      -9.059  10.678  67.974  1.00  0.00    -0.147 C  
HETATM    9  N   UNL     1      -9.071   8.318  68.177  1.00  0.00    -0.135 NA 
HETATM   10  C   UNL     1      -9.395   9.461  67.477  1.00  0.00    -0.127 C  
HETATM   11  C   UNL     1      -8.352  10.796  69.346  1.00  0.00    -0.018 C  
HETATM   12  C   UNL     1     -10.148   9.232  66.186  1.00  0.00    -0.304 C  
BRANCH   7  13
HETATM   13  C   UNL     1      -7.872   6.873  69.750  1.00  0.00    -0.115 C  
BRANCH  13  14
HETATM   14  O   UNL     1      -9.002   6.047  70.082  1.00  0.00    -0.143 OA 
BRANCH  14  15
HETATM   15  C   UNL     1      -8.517   4.898  70.807  1.00  0.00    -0.110 C  
BRANCH  15  16
HETATM   16  C   UNL     1      -7.063   5.097  71.231  1.00  0.00    -0.057 C  
HETATM   17  N   UNL     1      -6.955   5.229  72.686  1.00  0.00    -0.082 NA 
HETATM   18  H2  UNL     1      -7.384   4.439  73.168  1.00  0.00     0.000 HD 
HETATM   19  H1  UNL     1      -5.985   5.361  72.969  1.00  0.00     0.000 HD 
ENDBRANCH  15  16
ENDBRANCH  14  15
ENDBRANCH  13  14
ENDBRANCH   7  13
BRANCH   8  20
HETATM   20  C   UNL     1      -9.389  11.900  67.184  1.00  0.00    -0.180 C  
HETATM   21  O   UNL     1      -8.928  13.010  67.410  1.00  0.00    -0.185 OA 
BRANCH  20  22
HETATM   22  O   UNL     1     -10.261  11.627  66.183  1.00  0.00    -0.213 OA 
HETATM   23  C   UNL     1     -11.367  12.534  66.093  1.00  0.00    -0.343 C  
ENDBRANCH  20  22
ENDBRANCH   8  20
BRANCH  11  24
HETATM   24  C   UNL     1      -7.227  11.841  69.351  1.00  0.00     0.075 A  
HETATM   25  C   UNL     1      -7.032  12.660  70.480  1.00  0.00     1.873 A  
HETATM   26  C   UNL     1      -6.079  13.684  70.468  1.00  0.00    -0.101 A  
HETATM   27  C   UNL     1      -5.295  13.906  69.339  1.00  0.00    -0.083 A  
HETATM   28  C   UNL     1      -5.462  13.100  68.217  1.00  0.00    -0.089 A  
HETATM   29  C   UNL     1      -6.420  12.079  68.214  1.00  0.00    -0.053 A  
HETATM   30 CL   UNL     1      -6.582  11.178  66.743  1.00  0.00    -0.122 Cl 
ENDBRANCH  11  24
ENDBRANCH   4   6
ENDBRANCH   3   4
ENDBRANCH   2   3
TORSDOF 10
ENDMDL
