MODEL        1
REMARK 921   NORMALIZED FREE ENERGY PREDICTED BY IDOCK:   -7.69 KCAL/MOL
REMARK 922        TOTAL FREE ENERGY PREDICTED BY IDOCK:  -11.40 KCAL/MOL
REMARK 923 INTER-LIGAND FREE ENERGY PREDICTED BY IDOCK:  -10.38 KCAL/MOL
REMARK 924 INTRA-LIGAND FREE ENERGY PREDICTED BY IDOCK:   -1.01 KCAL/MOL
REMARK 927      BINDING AFFINITY PREDICTED BY RF-SCORE:    0.00 PKD
ROOT
HETATM    1  C   UNL     1      -7.225  17.495  66.231  1.00  0.00    -0.351 C  
HETATM    2  C   UNL     1      -8.062  17.636  67.498  1.00  0.00    -0.211 C  
ENDROOT
BRANCH   2   3
HETATM    3  N   UNL     1      -9.504  17.368  67.293  1.00  0.00    -0.247 NA 
BRANCH   3   4
HETATM    4  C   UNL     1     -10.365  18.490  67.708  1.00  0.00    -0.402 C  
HETATM    5  C   UNL     1     -10.643  19.568  66.660  1.00  0.00    -0.583 C  
ENDBRANCH   3   4
BRANCH   3   6
HETATM    6  C   UNL     1      -9.795  16.950  65.898  1.00  0.00    -0.215 C  
BRANCH   6   7
HETATM    7  C   UNL     1     -10.475  15.597  65.828  1.00  0.00    -0.383 A  
HETATM    8  C   UNL     1     -11.429  15.285  64.851  1.00  0.00    -0.343 A  
HETATM    9  C   UNL     1     -12.214  14.150  64.966  1.00  0.00    -0.450 A  
HETATM   10  O   UNL     1     -11.701  16.133  63.814  1.00  0.00    -1.404 OA 
HETATM   11  C   UNL     1     -12.055  13.310  66.073  1.00  0.00    -0.491 A  
HETATM   12  H   UNL     1     -12.349  15.921  63.152  1.00  0.00     0.000 HD 
HETATM   13  C   UNL     1     -11.058  13.548  67.030  1.00  0.00    -0.296 A  
HETATM   14  C   UNL     1     -10.240  14.671  66.859  1.00  0.00    -0.262 A  
BRANCH  13  15
HETATM   15  N   UNL     1     -10.792  12.701  68.136  1.00  0.00    -0.218 NA 
HETATM   16  H   UNL     1      -9.850  12.313  68.192  1.00  0.00     0.000 HD 
BRANCH  15  17
HETATM   17  C   UNL     1     -11.691  12.331  69.180  1.00  0.00    -0.323 A  
HETATM   18  C   UNL     1     -12.230  13.271  70.089  1.00  0.00    -0.376 A  
HETATM   19  C   UNL     1     -12.177  14.668  69.878  1.00  0.00    -0.365 A  
HETATM   20  C   UNL     1     -12.572  15.556  70.870  1.00  0.00    -0.512 A  
HETATM   21  C   UNL     1     -13.042  15.052  72.073  1.00  0.00    -0.350 A  
HETATM   22 CL   UNL     1     -13.422  16.132  73.356  1.00  0.00    -0.577 Cl 
HETATM   23  C   UNL     1     -13.193  13.678  72.252  1.00  0.00    -0.565 A  
HETATM   24  C   UNL     1     -12.832  12.777  71.262  1.00  0.00    -0.262 A  
HETATM   25  N   UNL     1     -13.033  11.464  71.471  1.00  0.00    -0.440 NA 
HETATM   26  C   UNL     1     -12.623  10.597  70.522  1.00  0.00    -0.348 A  
HETATM   27  C   UNL     1     -11.930  10.970  69.391  1.00  0.00    -0.408 A  
ENDBRANCH  15  17
ENDBRANCH  13  15
ENDBRANCH   6   7
ENDBRANCH   3   6
ENDBRANCH   2   3
TORSDOF 6
ENDMDL
MODEL        2
REMARK 921   NORMALIZED FREE ENERGY PREDICTED BY IDOCK:   -7.42 KCAL/MOL
REMARK 922        TOTAL FREE ENERGY PREDICTED BY IDOCK:  -11.03 KCAL/MOL
REMARK 923 INTER-LIGAND FREE ENERGY PREDICTED BY IDOCK:  -10.01 KCAL/MOL
REMARK 924 INTRA-LIGAND FREE ENERGY PREDICTED BY IDOCK:   -1.02 KCAL/MOL
REMARK 927      BINDING AFFINITY PREDICTED BY RF-SCORE:    0.00 PKD
ROOT
HETATM    1  C   UNL     1     -10.768  16.878  69.175  1.00  0.00    -0.298 C  
HETATM    2  C   UNL     1      -9.922  17.767  68.269  1.00  0.00    -0.355 C  
ENDROOT
BRANCH   2   3
HETATM    3  N   UNL     1     -10.334  17.733  66.847  1.00  0.00    -0.346 NA 
BRANCH   3   4
HETATM    4  C   UNL     1     -10.255  19.051  66.191  1.00  0.00    -0.446 C  
HETATM    5  C   UNL     1      -9.991  20.255  67.095  1.00  0.00    -0.593 C  
ENDBRANCH   3   4
BRANCH   3   6
HETATM    6  C   UNL     1      -9.590  16.702  66.080  1.00  0.00    -0.294 C  
BRANCH   6   7
HETATM    7  C   UNL     1     -10.448  15.500  65.740  1.00  0.00    -0.378 A  
HETATM    8  C   UNL     1     -11.399  15.522  64.713  1.00  0.00    -0.357 A  
HETATM    9  C   UNL     1     -12.338  14.509  64.597  1.00  0.00    -0.419 A  
HETATM   10  O   UNL     1     -11.514  16.583  63.860  1.00  0.00    -1.608 OA 
HETATM   11  C   UNL     1     -12.338  13.458  65.519  1.00  0.00    -0.528 A  
HETATM   12  H   UNL     1     -12.159  16.598  63.164  1.00  0.00     0.000 HD 
HETATM   13  C   UNL     1     -11.353  13.362  66.513  1.00  0.00    -0.320 A  
HETATM   14  C   UNL     1     -10.382  14.369  66.572  1.00  0.00    -0.281 A  
BRANCH  13  15
HETATM   15  N   UNL     1     -11.248  12.289  67.434  1.00  0.00    -0.281 NA 
HETATM   16  H   UNL     1     -10.864  11.416  67.070  1.00  0.00     0.000 HD 
BRANCH  15  17
HETATM   17  C   UNL     1     -11.616  12.291  68.812  1.00  0.00    -0.330 A  
HETATM   18  C   UNL     1     -11.606  11.119  69.604  1.00  0.00    -0.398 A  
HETATM   19  C   UNL     1     -10.959   9.926  69.210  1.00  0.00    -0.244 A  
HETATM   20  C   UNL     1     -11.111   8.755  69.942  1.00  0.00    -0.129 A  
HETATM   21  C   UNL     1     -11.895   8.776  71.085  1.00  0.00    -0.295 A  
HETATM   22 CL   UNL     1     -12.193   7.312  71.937  1.00  0.00    -0.339 Cl 
HETATM   23  C   UNL     1     -12.453   9.970  71.537  1.00  0.00    -0.516 A  
HETATM   24  C   UNL     1     -12.288  11.155  70.836  1.00  0.00    -0.399 A  
HETATM   25  N   UNL     1     -12.815  12.286  71.335  1.00  0.00    -0.339 NA 
HETATM   26  C   UNL     1     -12.695  13.420  70.612  1.00  0.00    -0.176 A  
HETATM   27  C   UNL     1     -12.142  13.469  69.350  1.00  0.00    -0.340 A  
ENDBRANCH  15  17
ENDBRANCH  13  15
ENDBRANCH   6   7
ENDBRANCH   3   6
ENDBRANCH   2   3
TORSDOF 6
ENDMDL
MODEL        3
REMARK 921   NORMALIZED FREE ENERGY PREDICTED BY IDOCK:   -7.16 KCAL/MOL
REMARK 922        TOTAL FREE ENERGY PREDICTED BY IDOCK:  -10.69 KCAL/MOL
REMARK 923 INTER-LIGAND FREE ENERGY PREDICTED BY IDOCK:   -9.70 KCAL/MOL
REMARK 924 INTRA-LIGAND FREE ENERGY PREDICTED BY IDOCK:   -0.98 KCAL/MOL
REMARK 927      BINDING AFFINITY PREDICTED BY RF-SCORE:    0.00 PKD
ROOT
HETATM    1  C   UNL     1      -9.004  17.388  68.724  1.00  0.00    -0.219 C  
HETATM    2  C   UNL     1     -10.306  18.011  68.229  1.00  0.00    -0.380 C  
ENDROOT
BRANCH   2   3
HETATM    3  N   UNL     1     -10.557  17.796  66.786  1.00  0.00    -0.284 NA 
BRANCH   3   4
HETATM    4  C   UNL     1     -10.315  19.001  65.972  1.00  0.00    -0.446 C  
HETATM    5  C   UNL     1      -9.920  20.272  66.724  1.00  0.00    -0.587 C  
ENDBRANCH   3   4
BRANCH   3   6
HETATM    6  C   UNL     1      -9.804  16.629  66.261  1.00  0.00    -0.310 C  
BRANCH   6   7
HETATM    7  C   UNL     1     -10.707  15.460  65.922  1.00  0.00    -0.343 A  
HETATM    8  C   UNL     1     -11.506  15.437  64.772  1.00  0.00    -0.336 A  
HETATM    9  C   UNL     1     -12.503  14.486  64.623  1.00  0.00    -0.339 A  
HETATM   10  O   UNL     1     -11.414  16.404  63.811  1.00  0.00    -1.590 OA 
HETATM   11  C   UNL     1     -12.716  13.544  65.635  1.00  0.00    -0.478 A  
HETATM   12  H   UNL     1     -11.957  16.388  63.031  1.00  0.00     0.000 HD 
HETATM   13  C   UNL     1     -11.887  13.488  66.764  1.00  0.00    -0.406 A  
HETATM   14  C   UNL     1     -10.850  14.425  66.862  1.00  0.00    -0.301 A  
BRANCH  13  15
HETATM   15  N   UNL     1     -11.997  12.518  67.792  1.00  0.00    -0.429 NA 
HETATM   16  H   UNL     1     -12.588  12.765  68.586  1.00  0.00     0.000 HD 
BRANCH  15  17
HETATM   17  C   UNL     1     -11.377  11.234  67.841  1.00  0.00    -0.299 A  
HETATM   18  C   UNL     1     -11.433  10.405  68.986  1.00  0.00    -0.258 A  
HETATM   19  C   UNL     1     -12.335  10.622  70.052  1.00  0.00    -0.341 A  
HETATM   20  C   UNL     1     -12.246   9.882  71.225  1.00  0.00    -0.480 A  
HETATM   21  C   UNL     1     -11.266   8.908  71.330  1.00  0.00    -0.312 A  
HETATM   22 CL   UNL     1     -11.061   8.066  72.816  1.00  0.00    -0.455 Cl 
HETATM   23  C   UNL     1     -10.438   8.619  70.246  1.00  0.00    -0.229 A  
HETATM   24  C   UNL     1     -10.532   9.325  69.057  1.00  0.00    -0.216 A  
HETATM   25  N   UNL     1      -9.736   8.982  68.030  1.00  0.00    -0.151 NA 
HETATM   26  C   UNL     1      -9.799   9.717  66.900  1.00  0.00    -0.200 A  
HETATM   27  C   UNL     1     -10.568  10.853  66.767  1.00  0.00    -0.313 A  
ENDBRANCH  15  17
ENDBRANCH  13  15
ENDBRANCH   6   7
ENDBRANCH   3   6
ENDBRANCH   2   3
TORSDOF 6
ENDMDL
MODEL        4
REMARK 921   NORMALIZED FREE ENERGY PREDICTED BY IDOCK:   -7.03 KCAL/MOL
REMARK 922        TOTAL FREE ENERGY PREDICTED BY IDOCK:  -10.50 KCAL/MOL
REMARK 923 INTER-LIGAND FREE ENERGY PREDICTED BY IDOCK:   -9.17 KCAL/MOL
REMARK 924 INTRA-LIGAND FREE ENERGY PREDICTED BY IDOCK:   -1.34 KCAL/MOL
REMARK 927      BINDING AFFINITY PREDICTED BY RF-SCORE:    0.00 PKD
ROOT
HETATM    1  C   UNL     1      -6.802   9.432  64.982  1.00  0.00    -0.089 C  
HETATM    2  C   UNL     1      -8.038   8.579  64.716  1.00  0.00    -0.151 C  
ENDROOT
BRANCH   2   3
HETATM    3  N   UNL     1      -9.298   9.192  65.194  1.00  0.00    -0.180 NA 
BRANCH   3   4
HETATM    4  C   UNL     1      -9.885   8.482  66.344  1.00  0.00    -0.257 C  
HETATM    5  C   UNL     1      -9.430   8.927  67.734  1.00  0.00    -0.163 C  
ENDBRANCH   3   4
BRANCH   3   6
HETATM    6  C   UNL     1      -9.136  10.640  65.478  1.00  0.00    -0.190 C  
BRANCH   6   7
HETATM    7  C   UNL     1     -10.400  11.431  65.204  1.00  0.00    -0.344 A  
HETATM    8  C   UNL     1     -10.933  11.574  63.918  1.00  0.00    -0.401 A  
HETATM    9  C   UNL     1     -11.927  12.504  63.663  1.00  0.00    -0.621 A  
HETATM   10  O   UNL     1     -10.426  10.891  62.848  1.00  0.00    -0.758 OA 
HETATM   11  C   UNL     1     -12.398  13.313  64.703  1.00  0.00    -0.447 A  
HETATM   12  H   UNL     1     -10.787  10.988  61.975  1.00  0.00     0.000 HD 
HETATM   13  C   UNL     1     -11.944  13.145  66.019  1.00  0.00    -0.433 A  
HETATM   14  C   UNL     1     -10.980  12.158  66.258  1.00  0.00    -0.332 A  
BRANCH  13  15
HETATM   15  N   UNL     1     -12.429  13.877  67.133  1.00  0.00    -0.466 NA 
HETATM   16  H   UNL     1     -13.409  13.733  67.376  1.00  0.00     0.000 HD 
BRANCH  15  17
HETATM   17  C   UNL     1     -11.701  14.791  67.951  1.00  0.00    -0.341 A  
HETATM   18  C   UNL     1     -11.784  14.778  69.363  1.00  0.00    -0.358 A  
HETATM   19  C   UNL     1     -12.335  13.702  70.096  1.00  0.00    -0.372 A  
HETATM   20  C   UNL     1     -12.542  13.802  71.466  1.00  0.00    -0.405 A  
HETATM   21  C   UNL     1     -12.180  14.972  72.115  1.00  0.00    -0.368 A  
HETATM   22 CL   UNL     1     -12.539  15.162  73.786  1.00  0.00    -0.689 Cl 
HETATM   23  C   UNL     1     -11.543  15.998  71.419  1.00  0.00    -0.520 A  
HETATM   24  C   UNL     1     -11.300  15.905  70.057  1.00  0.00    -0.358 A  
HETATM   25  N   UNL     1     -10.649  16.906  69.441  1.00  0.00    -0.335 NA 
HETATM   26  C   UNL     1     -10.473  16.826  68.105  1.00  0.00    -0.332 A  
HETATM   27  C   UNL     1     -10.998  15.821  67.322  1.00  0.00    -0.259 A  
ENDBRANCH  15  17
ENDBRANCH  13  15
ENDBRANCH   6   7
ENDBRANCH   3   6
ENDBRANCH   2   3
TORSDOF 6
ENDMDL
MODEL        5
REMARK 921   NORMALIZED FREE ENERGY PREDICTED BY IDOCK:   -7.02 KCAL/MOL
REMARK 922        TOTAL FREE ENERGY PREDICTED BY IDOCK:  -10.49 KCAL/MOL
REMARK 923 INTER-LIGAND FREE ENERGY PREDICTED BY IDOCK:   -9.41 KCAL/MOL
REMARK 924 INTRA-LIGAND FREE ENERGY PREDICTED BY IDOCK:   -1.08 KCAL/MOL
REMARK 927      BINDING AFFINITY PREDICTED BY RF-SCORE:    0.00 PKD
ROOT
HETATM    1  C   UNL     1      -9.304   7.761  73.798  1.00  0.00    -0.286 C  
HETATM    2  C   UNL     1     -10.654   7.195  73.370  1.00  0.00    -0.382 C  
ENDROOT
BRANCH   2   3
HETATM    3  N   UNL     1     -10.802   7.053  71.903  1.00  0.00    -0.222 NA 
BRANCH   3   4
HETATM    4  C   UNL     1     -10.514   5.689  71.424  1.00  0.00    -0.239 C  
HETATM    5  C   UNL     1     -10.464   5.488  69.909  1.00  0.00    -0.386 C  
ENDBRANCH   3   4
BRANCH   3   6
HETATM    6  C   UNL     1     -12.131   7.521  71.435  1.00  0.00    -0.327 C  
BRANCH   6   7
HETATM    7  C   UNL     1     -12.262   9.030  71.475  1.00  0.00    -0.403 A  
HETATM    8  C   UNL     1     -13.236   9.680  72.244  1.00  0.00    -0.404 A  
HETATM    9  C   UNL     1     -13.497  11.028  72.062  1.00  0.00    -0.286 A  
HETATM   10  O   UNL     1     -14.038   8.999  73.116  1.00  0.00    -1.130 OA 
HETATM   11  C   UNL     1     -12.784  11.745  71.095  1.00  0.00    -0.405 A  
HETATM   12  H   UNL     1     -14.698   9.440  73.637  1.00  0.00     0.000 HD 
HETATM   13  C   UNL     1     -11.748  11.148  70.362  1.00  0.00    -0.320 A  
HETATM   14  C   UNL     1     -11.467   9.798  70.607  1.00  0.00    -0.397 A  
BRANCH  13  15
HETATM   15  N   UNL     1     -10.936  11.831  69.421  1.00  0.00    -0.425 NA 
HETATM   16  H   UNL     1      -9.961  11.974  69.685  1.00  0.00     0.000 HD 
BRANCH  15  17
HETATM   17  C   UNL     1     -11.328  12.340  68.147  1.00  0.00    -0.295 A  
HETATM   18  C   UNL     1     -10.989  11.697  66.934  1.00  0.00    -0.342 A  
HETATM   19  C   UNL     1     -10.507  10.369  66.871  1.00  0.00    -0.300 A  
HETATM   20  C   UNL     1     -10.034   9.836  65.679  1.00  0.00    -0.352 A  
HETATM   21  C   UNL     1     -10.060  10.621  64.537  1.00  0.00    -0.353 A  
HETATM   22 CL   UNL     1      -9.369  10.022  63.080  1.00  0.00    -0.321 Cl 
HETATM   23  C   UNL     1     -10.626  11.894  64.567  1.00  0.00    -0.358 A  
HETATM   24  C   UNL     1     -11.130  12.432  65.741  1.00  0.00    -0.315 A  
HETATM   25  N   UNL     1     -11.700  13.649  65.708  1.00  0.00    -0.335 NA 
HETATM   26  C   UNL     1     -12.133  14.183  66.870  1.00  0.00    -0.432 A  
HETATM   27  C   UNL     1     -11.945  13.592  68.101  1.00  0.00    -0.390 A  
ENDBRANCH  15  17
ENDBRANCH  13  15
ENDBRANCH   6   7
ENDBRANCH   3   6
ENDBRANCH   2   3
TORSDOF 6
ENDMDL
MODEL        6
REMARK 921   NORMALIZED FREE ENERGY PREDICTED BY IDOCK:   -7.00 KCAL/MOL
REMARK 922        TOTAL FREE ENERGY PREDICTED BY IDOCK:  -10.47 KCAL/MOL
REMARK 923 INTER-LIGAND FREE ENERGY PREDICTED BY IDOCK:   -9.26 KCAL/MOL
REMARK 924 INTRA-LIGAND FREE ENERGY PREDICTED BY IDOCK:   -1.21 KCAL/MOL
REMARK 927      BINDING AFFINITY PREDICTED BY RF-SCORE:    0.00 PKD
ROOT
HETATM    1  C   UNL     1     -10.590   9.818  69.158  1.00  0.00    -0.237 C  
HETATM    2  C   UNL     1      -9.874   9.284  67.921  1.00  0.00    -0.167 C  
ENDROOT
BRANCH   2   3
HETATM    3  N   UNL     1      -9.364  10.344  67.023  1.00  0.00    -0.153 NA 
BRANCH   3   4
HETATM    4  C   UNL     1      -7.892  10.435  67.016  1.00  0.00    -0.112 C  
HETATM    5  C   UNL     1      -7.288  11.831  67.174  1.00  0.00    -0.146 C  
ENDBRANCH   3   4
BRANCH   3   6
HETATM    6  C   UNL     1      -9.903  10.210  65.646  1.00  0.00    -0.280 C  
BRANCH   6   7
HETATM    7  C   UNL     1     -10.840  11.342  65.277  1.00  0.00    -0.297 A  
HETATM    8  C   UNL     1     -11.077  11.720  63.950  1.00  0.00    -0.408 A  
HETATM    9  C   UNL     1     -11.725  12.909  63.658  1.00  0.00    -0.572 A  
HETATM   10  O   UNL     1     -10.587  10.999  62.898  1.00  0.00    -0.777 OA 
HETATM   11  C   UNL     1     -12.142  13.743  64.700  1.00  0.00    -0.452 A  
HETATM   12  H   UNL     1     -10.748  11.255  61.997  1.00  0.00     0.000 HD 
HETATM   13  C   UNL     1     -11.992  13.362  66.042  1.00  0.00    -0.415 A  
HETATM   14  C   UNL     1     -11.385  12.128  66.308  1.00  0.00    -0.411 A  
BRANCH  13  15
HETATM   15  N   UNL     1     -12.456  14.121  67.146  1.00  0.00    -0.536 NA 
HETATM   16  H   UNL     1     -13.454  14.060  67.349  1.00  0.00     0.000 HD 
BRANCH  15  17
HETATM   17  C   UNL     1     -11.685  14.958  68.005  1.00  0.00    -0.320 A  
HETATM   18  C   UNL     1     -11.820  14.934  69.413  1.00  0.00    -0.356 A  
HETATM   19  C   UNL     1     -12.488  13.899  70.108  1.00  0.00    -0.355 A  
HETATM   20  C   UNL     1     -12.737  13.998  71.471  1.00  0.00    -0.443 A  
HETATM   21  C   UNL     1     -12.302  15.125  72.152  1.00  0.00    -0.358 A  
HETATM   22 CL   UNL     1     -12.705  15.322  73.812  1.00  0.00    -0.680 Cl 
HETATM   23  C   UNL     1     -11.555  16.102  71.496  1.00  0.00    -0.502 A  
HETATM   24  C   UNL     1     -11.270  16.006  70.142  1.00  0.00    -0.373 A  
HETATM   25  N   UNL     1     -10.514  16.957  69.567  1.00  0.00    -0.279 NA 
HETATM   26  C   UNL     1     -10.295  16.880  68.237  1.00  0.00    -0.335 A  
HETATM   27  C   UNL     1     -10.874  15.934  67.419  1.00  0.00    -0.291 A  
ENDBRANCH  15  17
ENDBRANCH  13  15
ENDBRANCH   6   7
ENDBRANCH   3   6
ENDBRANCH   2   3
TORSDOF 6
ENDMDL
MODEL        7
REMARK 921   NORMALIZED FREE ENERGY PREDICTED BY IDOCK:   -6.90 KCAL/MOL
REMARK 922        TOTAL FREE ENERGY PREDICTED BY IDOCK:  -10.34 KCAL/MOL
REMARK 923 INTER-LIGAND FREE ENERGY PREDICTED BY IDOCK:   -9.31 KCAL/MOL
REMARK 924 INTRA-LIGAND FREE ENERGY PREDICTED BY IDOCK:   -1.03 KCAL/MOL
REMARK 927      BINDING AFFINITY PREDICTED BY RF-SCORE:    0.00 PKD
ROOT
HETATM    1  C   UNL     1     -10.575  19.895  66.058  1.00  0.00    -0.527 C  
HETATM    2  C   UNL     1      -9.762  20.221  67.306  1.00  0.00    -0.450 C  
ENDROOT
BRANCH   2   3
HETATM    3  N   UNL     1      -8.580  19.348  67.492  1.00  0.00    -0.294 NA 
BRANCH   3   4
HETATM    4  C   UNL     1      -7.311  20.096  67.534  1.00  0.00    -0.290 C  
HETATM    5  C   UNL     1      -6.309  19.693  68.616  1.00  0.00    -0.304 C  
ENDBRANCH   3   4
BRANCH   3   6
HETATM    6  C   UNL     1      -8.726  18.465  68.677  1.00  0.00    -0.283 C  
BRANCH   6   7
HETATM    7  C   UNL     1      -9.396  17.148  68.340  1.00  0.00    -0.273 A  
HETATM    8  C   UNL     1      -8.950  16.322  67.301  1.00  0.00    -0.195 A  
HETATM    9  C   UNL     1      -9.727  15.267  66.852  1.00  0.00    -0.243 A  
HETATM   10  O   UNL     1      -7.796  16.585  66.617  1.00  0.00    -0.226 OA 
HETATM   11  C   UNL     1     -10.973  15.028  67.441  1.00  0.00    -0.315 A  
HETATM   12  H   UNL     1      -7.493  16.025  65.912  1.00  0.00     0.000 HD 
HETATM   13  C   UNL     1     -11.418  15.784  68.535  1.00  0.00    -0.379 A  
HETATM   14  C   UNL     1     -10.587  16.808  69.005  1.00  0.00    -0.343 A  
BRANCH  13  15
HETATM   15  N   UNL     1     -12.634  15.552  69.226  1.00  0.00    -0.526 NA 
HETATM   16  H   UNL     1     -13.480  15.917  68.788  1.00  0.00     0.000 HD 
BRANCH  15  17
HETATM   17  C   UNL     1     -12.808  14.866  70.465  1.00  0.00    -0.326 A  
HETATM   18  C   UNL     1     -12.561  13.481  70.609  1.00  0.00    -0.345 A  
HETATM   19  C   UNL     1     -11.848  12.720  69.654  1.00  0.00    -0.384 A  
HETATM   20  C   UNL     1     -11.770  11.337  69.756  1.00  0.00    -0.422 A  
HETATM   21  C   UNL     1     -12.387  10.708  70.827  1.00  0.00    -0.376 A  
HETATM   22 CL   UNL     1     -12.404   8.990  70.907  1.00  0.00    -0.219 Cl 
HETATM   23  C   UNL     1     -13.005  11.458  71.826  1.00  0.00    -0.519 A  
HETATM   24  C   UNL     1     -13.067  12.841  71.757  1.00  0.00    -0.356 A  
HETATM   25  N   UNL     1     -13.641  13.519  72.766  1.00  0.00    -0.671 NA 
HETATM   26  C   UNL     1     -13.746  14.860  72.655  1.00  0.00    -0.450 A  
HETATM   27  C   UNL     1     -13.380  15.567  71.530  1.00  0.00    -0.593 A  
ENDBRANCH  15  17
ENDBRANCH  13  15
ENDBRANCH   6   7
ENDBRANCH   3   6
ENDBRANCH   2   3
TORSDOF 6
ENDMDL
MODEL        8
REMARK 921   NORMALIZED FREE ENERGY PREDICTED BY IDOCK:   -6.90 KCAL/MOL
REMARK 922        TOTAL FREE ENERGY PREDICTED BY IDOCK:  -10.33 KCAL/MOL
REMARK 923 INTER-LIGAND FREE ENERGY PREDICTED BY IDOCK:   -9.10 KCAL/MOL
REMARK 924 INTRA-LIGAND FREE ENERGY PREDICTED BY IDOCK:   -1.22 KCAL/MOL
REMARK 927      BINDING AFFINITY PREDICTED BY RF-SCORE:    0.00 PKD
ROOT
HETATM    1  C   UNL     1     -12.551  11.989  63.647  1.00  0.00    -0.605 C  
HETATM    2  C   UNL     1     -11.885  13.350  63.817  1.00  0.00    -0.431 C  
ENDROOT
BRANCH   2   3
HETATM    3  N   UNL     1     -10.972  13.426  64.981  1.00  0.00    -0.303 NA 
BRANCH   3   4
HETATM    4  C   UNL     1     -10.069  12.266  65.082  1.00  0.00    -0.261 C  
HETATM    5  C   UNL     1     -10.011  11.555  66.434  1.00  0.00    -0.241 C  
ENDBRANCH   3   4
BRANCH   3   6
HETATM    6  C   UNL     1     -10.216  14.704  65.007  1.00  0.00    -0.361 C  
BRANCH   6   7
HETATM    7  C   UNL     1     -10.216  15.350  66.378  1.00  0.00    -0.296 A  
HETATM    8  C   UNL     1      -9.068  15.921  66.940  1.00  0.00    -0.231 A  
HETATM    9  C   UNL     1      -9.033  16.266  68.282  1.00  0.00    -0.192 A  
HETATM   10  O   UNL     1      -7.910  16.058  66.229  1.00  0.00    -0.208 OA 
HETATM   11  C   UNL     1     -10.156  16.035  69.083  1.00  0.00    -0.242 A  
HETATM   12  H   UNL     1      -7.131  16.445  66.610  1.00  0.00     0.000 HD 
HETATM   13  C   UNL     1     -11.349  15.538  68.539  1.00  0.00    -0.351 A  
HETATM   14  C   UNL     1     -11.375  15.251  67.169  1.00  0.00    -0.247 A  
BRANCH  13  15
HETATM   15  N   UNL     1     -12.547  15.348  69.275  1.00  0.00    -0.541 NA 
HETATM   16  H   UNL     1     -13.402  15.700  68.844  1.00  0.00     0.000 HD 
BRANCH  15  17
HETATM   17  C   UNL     1     -12.691  14.722  70.548  1.00  0.00    -0.343 A  
HETATM   18  C   UNL     1     -12.484  13.336  70.742  1.00  0.00    -0.403 A  
HETATM   19  C   UNL     1     -11.838  12.511  69.792  1.00  0.00    -0.380 A  
HETATM   20  C   UNL     1     -11.801  11.131  69.952  1.00  0.00    -0.439 A  
HETATM   21  C   UNL     1     -12.392  10.570  71.073  1.00  0.00    -0.399 A  
HETATM   22 CL   UNL     1     -12.463   8.859  71.228  1.00  0.00    -0.336 Cl 
HETATM   23  C   UNL     1     -12.942  11.382  72.063  1.00  0.00    -0.378 A  
HETATM   24  C   UNL     1     -12.961  12.763  71.936  1.00  0.00    -0.295 A  
HETATM   25  N   UNL     1     -13.469  13.502  72.937  1.00  0.00    -0.569 NA 
HETATM   26  C   UNL     1     -13.534  14.840  72.773  1.00  0.00    -0.474 A  
HETATM   27  C   UNL     1     -13.193  15.486  71.604  1.00  0.00    -0.575 A  
ENDBRANCH  15  17
ENDBRANCH  13  15
ENDBRANCH   6   7
ENDBRANCH   3   6
ENDBRANCH   2   3
TORSDOF 6
ENDMDL
MODEL        9
REMARK 921   NORMALIZED FREE ENERGY PREDICTED BY IDOCK:   -6.88 KCAL/MOL
REMARK 922        TOTAL FREE ENERGY PREDICTED BY IDOCK:  -10.30 KCAL/MOL
REMARK 923 INTER-LIGAND FREE ENERGY PREDICTED BY IDOCK:   -9.02 KCAL/MOL
REMARK 924 INTRA-LIGAND FREE ENERGY PREDICTED BY IDOCK:   -1.28 KCAL/MOL
REMARK 927      BINDING AFFINITY PREDICTED BY RF-SCORE:    0.00 PKD
ROOT
HETATM    1  C   UNL     1     -14.354   8.437  72.136  1.00  0.00    -0.520 C  
HETATM    2  C   UNL     1     -12.894   8.379  72.571  1.00  0.00    -0.207 C  
ENDROOT
BRANCH   2   3
HETATM    3  N   UNL     1     -12.039   9.402  71.929  1.00  0.00    -0.371 NA 
BRANCH   3   4
HETATM    4  C   UNL     1     -10.684   8.911  71.619  1.00  0.00    -0.347 C  
HETATM    5  C   UNL     1     -10.067   7.921  72.607  1.00  0.00    -0.343 C  
ENDBRANCH   3   4
BRANCH   3   6
HETATM    6  C   UNL     1     -12.687   9.990  70.730  1.00  0.00    -0.273 C  
BRANCH   6   7
HETATM    7  C   UNL     1     -12.355  11.459  70.552  1.00  0.00    -0.439 A  
HETATM    8  C   UNL     1     -12.816  12.445  71.432  1.00  0.00    -0.260 A  
HETATM    9  C   UNL     1     -12.717  13.788  71.104  1.00  0.00    -0.438 A  
HETATM   10  O   UNL     1     -13.475  12.130  72.587  1.00  0.00    -0.582 OA 
HETATM   11  C   UNL     1     -12.156  14.160  69.878  1.00  0.00    -0.405 A  
HETATM   12  H   UNL     1     -13.787  12.799  73.184  1.00  0.00     0.000 HD 
HETATM   13  C   UNL     1     -11.614  13.205  69.006  1.00  0.00    -0.312 A  
HETATM   14  C   UNL     1     -11.676  11.859  69.388  1.00  0.00    -0.401 A  
BRANCH  13  15
HETATM   15  N   UNL     1     -10.967  13.514  67.783  1.00  0.00    -0.261 NA 
HETATM   16  H   UNL     1     -10.032  13.916  67.856  1.00  0.00     0.000 HD 
BRANCH  15  17
HETATM   17  C   UNL     1     -11.474  13.326  66.463  1.00  0.00    -0.337 A  
HETATM   18  C   UNL     1     -10.978  12.327  65.593  1.00  0.00    -0.338 A  
HETATM   19  C   UNL     1     -10.172  11.251  66.031  1.00  0.00    -0.295 A  
HETATM   20  C   UNL     1      -9.576  10.387  65.120  1.00  0.00    -0.329 A  
HETATM   21  C   UNL     1      -9.800  10.582  63.766  1.00  0.00    -0.300 A  
HETATM   22 CL   UNL     1      -8.976   9.600  62.620  1.00  0.00    -0.258 Cl 
HETATM   23  C   UNL     1     -10.674  11.577  63.331  1.00  0.00    -0.444 A  
HETATM   24  C   UNL     1     -11.301  12.430  64.226  1.00  0.00    -0.360 A  
HETATM   25  N   UNL     1     -12.164  13.347  63.756  1.00  0.00    -0.659 NA 
HETATM   26  C   UNL     1     -12.721  14.207  64.635  1.00  0.00    -0.129 A  
HETATM   27  C   UNL     1     -12.391  14.258  65.972  1.00  0.00    -0.416 A  
ENDBRANCH  15  17
ENDBRANCH  13  15
ENDBRANCH   6   7
ENDBRANCH   3   6
ENDBRANCH   2   3
TORSDOF 6
ENDMDL
MODEL       10
REMARK 921   NORMALIZED FREE ENERGY PREDICTED BY IDOCK:   -6.85 KCAL/MOL
REMARK 922        TOTAL FREE ENERGY PREDICTED BY IDOCK:  -10.26 KCAL/MOL
REMARK 923 INTER-LIGAND FREE ENERGY PREDICTED BY IDOCK:   -8.97 KCAL/MOL
REMARK 924 INTRA-LIGAND FREE ENERGY PREDICTED BY IDOCK:   -1.29 KCAL/MOL
REMARK 927      BINDING AFFINITY PREDICTED BY RF-SCORE:    0.00 PKD
ROOT
HETATM    1  C   UNL     1     -12.452   8.993  71.941  1.00  0.00    -0.454 C  
HETATM    2  C   UNL     1     -11.068   9.451  71.495  1.00  0.00    -0.376 C  
ENDROOT
BRANCH   2   3
HETATM    3  N   UNL     1     -11.092  10.607  70.570  1.00  0.00    -0.211 NA 
BRANCH   3   4
HETATM    4  C   UNL     1     -10.429  10.331  69.283  1.00  0.00    -0.228 C  
HETATM    5  C   UNL     1     -11.250  10.576  68.018  1.00  0.00    -0.361 C  
ENDBRANCH   3   4
BRANCH   3   6
HETATM    6  C   UNL     1     -12.469  11.124  70.368  1.00  0.00    -0.299 C  
BRANCH   6   7
HETATM    7  C   UNL     1     -12.599  12.589  70.735  1.00  0.00    -0.299 A  
HETATM    8  C   UNL     1     -13.270  13.019  71.886  1.00  0.00    -0.430 A  
HETATM    9  C   UNL     1     -13.594  14.355  72.058  1.00  0.00    -0.514 A  
HETATM   10  O   UNL     1     -13.727  12.138  72.825  1.00  0.00    -0.479 OA 
HETATM   11  C   UNL     1     -13.253  15.281  71.068  1.00  0.00    -0.546 A  
HETATM   12  H   UNL     1     -14.183  12.430  73.605  1.00  0.00     0.000 HD 
HETATM   13  C   UNL     1     -12.513  14.901  69.939  1.00  0.00    -0.232 A  
HETATM   14  C   UNL     1     -12.148  13.554  69.818  1.00  0.00    -0.381 A  
BRANCH  13  15
HETATM   15  N   UNL     1     -12.069  15.797  68.933  1.00  0.00    -0.559 NA 
HETATM   16  H   UNL     1     -12.561  16.688  68.873  1.00  0.00     0.000 HD 
BRANCH  15  17
HETATM   17  C   UNL     1     -11.012  15.593  67.997  1.00  0.00    -0.318 A  
HETATM   18  C   UNL     1     -11.150  14.759  66.864  1.00  0.00    -0.339 A  
HETATM   19  C   UNL     1     -12.400  14.299  66.390  1.00  0.00    -0.378 A  
HETATM   20  C   UNL     1     -12.477  13.354  65.375  1.00  0.00    -0.543 A  
HETATM   21  C   UNL     1     -11.302  12.878  64.813  1.00  0.00    -0.315 A  
HETATM   22 CL   UNL     1     -11.371  11.621  63.641  1.00  0.00    -0.510 Cl 
HETATM   23  C   UNL     1     -10.070  13.399  65.203  1.00  0.00    -0.266 A  
HETATM   24  C   UNL     1      -9.975  14.365  66.193  1.00  0.00    -0.311 A  
HETATM   25  N   UNL     1      -8.766  14.861  66.506  1.00  0.00    -0.228 NA 
HETATM   26  C   UNL     1      -8.685  15.757  67.512  1.00  0.00    -0.176 A  
HETATM   27  C   UNL     1      -9.756  16.127  68.297  1.00  0.00    -0.220 A  
ENDBRANCH  15  17
ENDBRANCH  13  15
ENDBRANCH   6   7
ENDBRANCH   3   6
ENDBRANCH   2   3
TORSDOF 6
ENDMDL
MODEL       11
REMARK 921   NORMALIZED FREE ENERGY PREDICTED BY IDOCK:   -6.84 KCAL/MOL
REMARK 922        TOTAL FREE ENERGY PREDICTED BY IDOCK:  -10.25 KCAL/MOL
REMARK 923 INTER-LIGAND FREE ENERGY PREDICTED BY IDOCK:   -8.97 KCAL/MOL
REMARK 924 INTRA-LIGAND FREE ENERGY PREDICTED BY IDOCK:   -1.29 KCAL/MOL
REMARK 927      BINDING AFFINITY PREDICTED BY RF-SCORE:    0.00 PKD
ROOT
HETATM    1  C   UNL     1     -12.463  15.695  74.419  1.00  0.00    -0.790 C  
HETATM    2  C   UNL     1     -11.954  15.978  73.009  1.00  0.00    -0.492 C  
ENDROOT
BRANCH   2   3
HETATM    3  N   UNL     1     -12.461  15.031  71.991  1.00  0.00    -0.320 NA 
BRANCH   3   4
HETATM    4  C   UNL     1     -13.616  14.244  72.460  1.00  0.00    -0.520 C  
HETATM    5  C   UNL     1     -13.526  12.726  72.298  1.00  0.00    -0.591 C  
ENDBRANCH   3   4
BRANCH   3   6
HETATM    6  C   UNL     1     -12.757  15.710  70.704  1.00  0.00    -0.394 C  
BRANCH   6   7
HETATM    7  C   UNL     1     -11.885  15.209  69.570  1.00  0.00    -0.358 A  
HETATM    8  C   UNL     1     -10.955  16.029  68.919  1.00  0.00    -0.309 A  
HETATM    9  C   UNL     1     -10.366  15.626  67.731  1.00  0.00    -0.266 A  
HETATM   10  O   UNL     1     -10.675  17.292  69.359  1.00  0.00    -0.376 OA 
HETATM   11  C   UNL     1     -10.709  14.389  67.175  1.00  0.00    -0.283 A  
HETATM   12  H   UNL     1     -10.045  17.848  68.918  1.00  0.00     0.000 HD 
HETATM   13  C   UNL     1     -11.576  13.509  67.838  1.00  0.00    -0.342 A  
HETATM   14  C   UNL     1     -12.113  13.918  69.065  1.00  0.00    -0.365 A  
BRANCH  13  15
HETATM   15  N   UNL     1     -11.911  12.212  67.371  1.00  0.00    -0.565 NA 
HETATM   16  H   UNL     1     -12.824  12.114  66.926  1.00  0.00     0.000 HD 
BRANCH  15  17
HETATM   17  C   UNL     1     -11.115  11.031  67.451  1.00  0.00    -0.305 A  
HETATM   18  C   UNL     1     -10.965  10.296  68.651  1.00  0.00    -0.289 A  
HETATM   19  C   UNL     1     -11.801  10.475  69.777  1.00  0.00    -0.329 A  
HETATM   20  C   UNL     1     -11.516   9.850  70.984  1.00  0.00    -0.466 A  
HETATM   21  C   UNL     1     -10.405   9.026  71.067  1.00  0.00    -0.278 A  
HETATM   22 CL   UNL     1      -9.967   8.341  72.583  1.00  0.00    -0.362 Cl 
HETATM   23  C   UNL     1      -9.633   8.764  69.936  1.00  0.00    -0.182 A  
HETATM   24  C   UNL     1      -9.919   9.355  68.715  1.00  0.00    -0.179 A  
HETATM   25  N   UNL     1      -9.167   9.039  67.647  1.00  0.00    -0.135 NA 
HETATM   26  C   UNL     1      -9.421   9.667  66.479  1.00  0.00    -0.181 A  
HETATM   27  C   UNL     1     -10.348  10.677  66.339  1.00  0.00    -0.291 A  
ENDBRANCH  15  17
ENDBRANCH  13  15
ENDBRANCH   6   7
ENDBRANCH   3   6
ENDBRANCH   2   3
TORSDOF 6
ENDMDL
MODEL       12
REMARK 921   NORMALIZED FREE ENERGY PREDICTED BY IDOCK:   -6.79 KCAL/MOL
REMARK 922        TOTAL FREE ENERGY PREDICTED BY IDOCK:  -10.19 KCAL/MOL
REMARK 923 INTER-LIGAND FREE ENERGY PREDICTED BY IDOCK:   -9.23 KCAL/MOL
REMARK 924 INTRA-LIGAND FREE ENERGY PREDICTED BY IDOCK:   -0.96 KCAL/MOL
REMARK 927      BINDING AFFINITY PREDICTED BY RF-SCORE:    0.00 PKD
ROOT
HETATM    1  C   UNL     1     -12.368  15.541  74.547  1.00  0.00    -0.756 C  
HETATM    2  C   UNL     1     -12.160  16.019  73.113  1.00  0.00    -0.511 C  
ENDROOT
BRANCH   2   3
HETATM    3  N   UNL     1     -12.524  15.014  72.090  1.00  0.00    -0.328 NA 
BRANCH   3   4
HETATM    4  C   UNL     1     -13.558  14.069  72.552  1.00  0.00    -0.566 C  
HETATM    5  C   UNL     1     -13.358  12.598  72.188  1.00  0.00    -0.570 C  
ENDBRANCH   3   4
BRANCH   3   6
HETATM    6  C   UNL     1     -12.908  15.648  70.804  1.00  0.00    -0.404 C  
BRANCH   6   7
HETATM    7  C   UNL     1     -11.982  15.262  69.668  1.00  0.00    -0.364 A  
HETATM    8  C   UNL     1     -11.037  16.147  69.135  1.00  0.00    -0.329 A  
HETATM    9  C   UNL     1     -10.393  15.861  67.942  1.00  0.00    -0.269 A  
HETATM   10  O   UNL     1     -10.792  17.367  69.701  1.00  0.00    -0.319 OA 
HETATM   11  C   UNL     1     -10.695  14.677  67.261  1.00  0.00    -0.290 A  
HETATM   12  H   UNL     1     -10.151  17.967  69.340  1.00  0.00     0.000 HD 
HETATM   13  C   UNL     1     -11.578  13.731  67.802  1.00  0.00    -0.346 A  
HETATM   14  C   UNL     1     -12.172  14.020  69.037  1.00  0.00    -0.280 A  
BRANCH  13  15
HETATM   15  N   UNL     1     -11.876  12.480  67.204  1.00  0.00    -0.490 NA 
HETATM   16  H   UNL     1     -12.251  11.761  67.823  1.00  0.00     0.000 HD 
BRANCH  15  17
HETATM   17  C   UNL     1     -11.710  12.113  65.836  1.00  0.00    -0.328 A  
HETATM   18  C   UNL     1     -10.685  11.242  65.400  1.00  0.00    -0.291 A  
HETATM   19  C   UNL     1      -9.935  10.430  66.282  1.00  0.00    -0.283 A  
HETATM   20  C   UNL     1      -8.834   9.713  65.832  1.00  0.00    -0.180 A  
HETATM   21  C   UNL     1      -8.488   9.787  64.491  1.00  0.00    -0.176 A  
HETATM   22 CL   UNL     1      -7.060   9.005  63.938  1.00  0.00    -0.091 Cl 
HETATM   23  C   UNL     1      -9.281  10.504  63.596  1.00  0.00    -0.298 A  
HETATM   24  C   UNL     1     -10.401  11.201  64.022  1.00  0.00    -0.376 A  
HETATM   25  N   UNL     1     -11.153  11.844  63.112  1.00  0.00    -0.264 NA 
HETATM   26  C   UNL     1     -12.206  12.566  63.550  1.00  0.00    -0.558 A  
HETATM   27  C   UNL     1     -12.504  12.756  64.882  1.00  0.00    -0.563 A  
ENDBRANCH  15  17
ENDBRANCH  13  15
ENDBRANCH   6   7
ENDBRANCH   3   6
ENDBRANCH   2   3
TORSDOF 6
ENDMDL
MODEL       13
REMARK 921   NORMALIZED FREE ENERGY PREDICTED BY IDOCK:   -6.73 KCAL/MOL
REMARK 922        TOTAL FREE ENERGY PREDICTED BY IDOCK:  -10.10 KCAL/MOL
REMARK 923 INTER-LIGAND FREE ENERGY PREDICTED BY IDOCK:   -9.25 KCAL/MOL
REMARK 924 INTRA-LIGAND FREE ENERGY PREDICTED BY IDOCK:   -0.84 KCAL/MOL
REMARK 927      BINDING AFFINITY PREDICTED BY RF-SCORE:    0.00 PKD
ROOT
HETATM    1  C   UNL     1     -10.125  19.895  66.894  1.00  0.00    -0.579 C  
HETATM    2  C   UNL     1      -9.148  19.341  65.862  1.00  0.00     0.053 C  
ENDROOT
BRANCH   2   3
HETATM    3  N   UNL     1      -9.074  17.862  65.845  1.00  0.00    -0.500 NA 
BRANCH   3   4
HETATM    4  C   UNL     1      -7.705  17.351  66.035  1.00  0.00    -0.198 C  
HETATM    5  C   UNL     1      -7.331  16.888  67.443  1.00  0.00    -0.186 C  
ENDBRANCH   3   4
BRANCH   3   6
HETATM    6  C   UNL     1     -10.018  17.250  66.814  1.00  0.00    -0.301 C  
BRANCH   6   7
HETATM    7  C   UNL     1     -10.543  15.908  66.344  1.00  0.00    -0.298 A  
HETATM    8  C   UNL     1     -11.154  15.735  65.097  1.00  0.00    -0.324 A  
HETATM    9  C   UNL     1     -11.848  14.572  64.804  1.00  0.00    -0.446 A  
HETATM   10  O   UNL     1     -11.188  16.735  64.166  1.00  0.00    -1.415 OA 
HETATM   11  C   UNL     1     -11.943  13.564  65.769  1.00  0.00    -0.439 A  
HETATM   12  H   UNL     1     -11.603  16.617  63.320  1.00  0.00     0.000 HD 
HETATM   13  C   UNL     1     -11.280  13.669  67.000  1.00  0.00    -0.312 A  
HETATM   14  C   UNL     1     -10.538  14.830  67.247  1.00  0.00    -0.273 A  
BRANCH  13  15
HETATM   15  N   UNL     1     -11.271  12.657  67.994  1.00  0.00    -0.247 NA 
HETATM   16  H   UNL     1     -10.865  11.761  67.724  1.00  0.00     0.000 HD 
BRANCH  15  17
HETATM   17  C   UNL     1     -11.766  12.751  69.329  1.00  0.00    -0.319 A  
HETATM   18  C   UNL     1     -11.932  11.619  70.160  1.00  0.00    -0.441 A  
HETATM   19  C   UNL     1     -11.357  10.360  69.874  1.00  0.00    -0.370 A  
HETATM   20  C   UNL     1     -11.678   9.239  70.629  1.00  0.00    -0.276 A  
HETATM   21  C   UNL     1     -12.561   9.375  71.689  1.00  0.00    -0.375 A  
HETATM   22 CL   UNL     1     -13.064   7.980  72.560  1.00  0.00    -0.034 Cl 
HETATM   23  C   UNL     1     -13.053  10.631  72.041  1.00  0.00    -0.501 A  
HETATM   24  C   UNL     1     -12.720  11.766  71.318  1.00  0.00    -0.316 A  
HETATM   25  N   UNL     1     -13.191  12.958  71.722  1.00  0.00    -0.419 NA 
HETATM   26  C   UNL     1     -12.906  14.044  70.973  1.00  0.00    -0.340 A  
HETATM   27  C   UNL     1     -12.235  13.991  69.771  1.00  0.00    -0.396 A  
ENDBRANCH  15  17
ENDBRANCH  13  15
ENDBRANCH   6   7
ENDBRANCH   3   6
ENDBRANCH   2   3
TORSDOF 6
ENDMDL
MODEL       14
REMARK 921   NORMALIZED FREE ENERGY PREDICTED BY IDOCK:   -6.69 KCAL/MOL
REMARK 922        TOTAL FREE ENERGY PREDICTED BY IDOCK:  -10.04 KCAL/MOL
REMARK 923 INTER-LIGAND FREE ENERGY PREDICTED BY IDOCK:   -9.13 KCAL/MOL
REMARK 924 INTRA-LIGAND FREE ENERGY PREDICTED BY IDOCK:   -0.91 KCAL/MOL
REMARK 927      BINDING AFFINITY PREDICTED BY RF-SCORE:    0.00 PKD
ROOT
HETATM    1  C   UNL     1     -14.189  13.791  72.426  1.00  0.00    -0.501 C  
HETATM    2  C   UNL     1     -13.794  14.855  71.407  1.00  0.00    -0.459 C  
ENDROOT
BRANCH   2   3
HETATM    3  N   UNL     1     -12.478  14.615  70.773  1.00  0.00    -0.318 NA 
BRANCH   3   4
HETATM    4  C   UNL     1     -11.400  15.436  71.353  1.00  0.00    -0.389 C  
HETATM    5  C   UNL     1     -11.789  16.382  72.490  1.00  0.00    -0.547 C  
ENDBRANCH   3   4
BRANCH   3   6
HETATM    6  C   UNL     1     -12.119  13.174  70.774  1.00  0.00    -0.203 C  
BRANCH   6   7
HETATM    7  C   UNL     1     -11.694  12.682  69.405  1.00  0.00    -0.387 A  
HETATM    8  C   UNL     1     -11.890  11.360  68.987  1.00  0.00    -0.348 A  
HETATM    9  C   UNL     1     -11.266  10.878  67.848  1.00  0.00    -0.387 A  
HETATM   10  O   UNL     1     -12.605  10.467  69.735  1.00  0.00    -0.561 OA 
HETATM   11  C   UNL     1     -10.428  11.720  67.111  1.00  0.00    -0.250 A  
HETATM   12  H   UNL     1     -12.737   9.570  69.452  1.00  0.00     0.000 HD 
HETATM   13  C   UNL     1     -10.269  13.071  67.454  1.00  0.00    -0.231 A  
HETATM   14  C   UNL     1     -10.957  13.546  68.577  1.00  0.00    -0.291 A  
BRANCH  13  15
HETATM   15  N   UNL     1      -9.495  14.000  66.713  1.00  0.00    -0.273 NA 
HETATM   16  H   UNL     1      -8.482  13.908  66.791  1.00  0.00     0.000 HD 
BRANCH  15  17
HETATM   17  C   UNL     1      -9.972  15.047  65.870  1.00  0.00    -0.326 A  
HETATM   18  C   UNL     1      -9.737  16.414  66.148  1.00  0.00    -0.355 A  
HETATM   19  C   UNL     1      -8.778  16.857  67.087  1.00  0.00    -0.219 A  
HETATM   20  C   UNL     1      -8.694  18.197  67.444  1.00  0.00    -0.245 A  
HETATM   21  C   UNL     1      -9.556  19.105  66.848  1.00  0.00    -0.325 A  
HETATM   22 CL   UNL     1      -9.550  20.746  67.365  1.00  0.00    -0.564 Cl 
HETATM   23  C   UNL     1     -10.435  18.693  65.848  1.00  0.00    -0.395 A  
HETATM   24  C   UNL     1     -10.512  17.365  65.456  1.00  0.00    -0.101 A  
HETATM   25  N   UNL     1     -11.349  17.027  64.461  1.00  0.00    -0.986 NA 
HETATM   26  C   UNL     1     -11.455  15.722  64.132  1.00  0.00    -0.072 A  
HETATM   27  C   UNL     1     -10.823  14.706  64.815  1.00  0.00    -0.402 A  
ENDBRANCH  15  17
ENDBRANCH  13  15
ENDBRANCH   6   7
ENDBRANCH   3   6
ENDBRANCH   2   3
TORSDOF 6
ENDMDL
MODEL       15
REMARK 921   NORMALIZED FREE ENERGY PREDICTED BY IDOCK:   -6.68 KCAL/MOL
REMARK 922        TOTAL FREE ENERGY PREDICTED BY IDOCK:  -10.04 KCAL/MOL
REMARK 923 INTER-LIGAND FREE ENERGY PREDICTED BY IDOCK:   -8.98 KCAL/MOL
REMARK 924 INTRA-LIGAND FREE ENERGY PREDICTED BY IDOCK:   -1.05 KCAL/MOL
REMARK 927      BINDING AFFINITY PREDICTED BY RF-SCORE:    0.00 PKD
ROOT
HETATM    1  C   UNL     1      -8.531  19.604  66.387  1.00  0.00    -0.382 C  
HETATM    2  C   UNL     1      -8.157  18.279  67.043  1.00  0.00    -0.230 C  
ENDROOT
BRANCH   2   3
HETATM    3  N   UNL     1      -9.320  17.418  67.354  1.00  0.00    -0.235 NA 
BRANCH   3   4
HETATM    4  C   UNL     1     -10.050  17.847  68.561  1.00  0.00    -0.391 C  
HETATM    5  C   UNL     1     -10.650  16.744  69.432  1.00  0.00    -0.318 C  
ENDBRANCH   3   4
BRANCH   3   6
HETATM    6  C   UNL     1     -10.233  17.281  66.191  1.00  0.00    -0.331 C  
BRANCH   6   7
HETATM    7  C   UNL     1     -10.334  15.852  65.698  1.00  0.00    -0.413 A  
HETATM    8  C   UNL     1     -11.103  15.493  64.584  1.00  0.00    -0.359 A  
HETATM    9  C   UNL     1     -11.383  14.163  64.316  1.00  0.00    -0.241 A  
HETATM   10  O   UNL     1     -11.697  16.431  63.786  1.00  0.00    -1.553 OA 
HETATM   11  C   UNL     1     -10.897  13.169  65.171  1.00  0.00    -0.321 A  
HETATM   12  H   UNL     1     -12.218  16.188  63.031  1.00  0.00     0.000 HD 
HETATM   13  C   UNL     1     -10.060  13.484  66.251  1.00  0.00    -0.298 A  
HETATM   14  C   UNL     1      -9.746  14.831  66.465  1.00  0.00    -0.295 A  
BRANCH  13  15
HETATM   15  N   UNL     1      -9.472  12.524  67.114  1.00  0.00    -0.202 NA 
HETATM   16  H   UNL     1      -8.454  12.537  67.177  1.00  0.00     0.000 HD 
BRANCH  15  17
HETATM   17  C   UNL     1     -10.143  11.544  67.904  1.00  0.00    -0.189 A  
HETATM   18  C   UNL     1     -11.063  11.888  68.922  1.00  0.00    -0.299 A  
HETATM   19  C   UNL     1     -11.625  13.179  69.052  1.00  0.00    -0.360 A  
HETATM   20  C   UNL     1     -12.397  13.514  70.157  1.00  0.00    -0.345 A  
HETATM   21  C   UNL     1     -12.627  12.554  71.131  1.00  0.00    -0.253 A  
HETATM   22 CL   UNL     1     -13.476  12.984  72.563  1.00  0.00    -0.616 Cl 
HETATM   23  C   UNL     1     -12.162  11.251  70.961  1.00  0.00    -0.417 A  
HETATM   24  C   UNL     1     -11.416  10.889  69.850  1.00  0.00    -0.323 A  
HETATM   25  N   UNL     1     -11.024   9.611  69.717  1.00  0.00    -0.240 NA 
HETATM   26  C   UNL     1     -10.249   9.287  68.660  1.00  0.00    -0.199 A  
HETATM   27  C   UNL     1      -9.763  10.208  67.757  1.00  0.00    -0.176 A  
ENDBRANCH  15  17
ENDBRANCH  13  15
ENDBRANCH   6   7
ENDBRANCH   3   6
ENDBRANCH   2   3
TORSDOF 6
ENDMDL
MODEL       16
REMARK 921   NORMALIZED FREE ENERGY PREDICTED BY IDOCK:   -6.61 KCAL/MOL
REMARK 922        TOTAL FREE ENERGY PREDICTED BY IDOCK:   -9.95 KCAL/MOL
REMARK 923 INTER-LIGAND FREE ENERGY PREDICTED BY IDOCK:   -8.86 KCAL/MOL
REMARK 924 INTRA-LIGAND FREE ENERGY PREDICTED BY IDOCK:   -1.09 KCAL/MOL
REMARK 927      BINDING AFFINITY PREDICTED BY RF-SCORE:    0.00 PKD
ROOT
HETATM    1  C   UNL     1     -12.235  16.227  73.444  1.00  0.00    -0.614 C  
HETATM    2  C   UNL     1     -11.480  15.571  72.292  1.00  0.00    -0.402 C  
ENDROOT
BRANCH   2   3
HETATM    3  N   UNL     1     -12.360  14.913  71.301  1.00  0.00    -0.299 NA 
BRANCH   3   4
HETATM    4  C   UNL     1     -13.785  14.955  71.676  1.00  0.00    -0.439 C  
HETATM    5  C   UNL     1     -14.397  13.658  72.204  1.00  0.00    -0.388 C  
ENDBRANCH   3   4
BRANCH   3   6
HETATM    6  C   UNL     1     -12.146  15.446  69.932  1.00  0.00    -0.355 C  
BRANCH   6   7
HETATM    7  C   UNL     1     -11.711  14.374  68.953  1.00  0.00    -0.357 A  
HETATM    8  C   UNL     1     -11.275  14.672  67.656  1.00  0.00    -0.321 A  
HETATM    9  C   UNL     1     -11.134  13.670  66.709  1.00  0.00    -0.315 A  
HETATM   10  O   UNL     1     -11.080  15.959  67.239  1.00  0.00    -0.281 OA 
HETATM   11  C   UNL     1     -11.436  12.348  67.053  1.00  0.00    -0.423 A  
HETATM   12  H   UNL     1     -10.785  16.161  66.360  1.00  0.00     0.000 HD 
HETATM   13  C   UNL     1     -11.800  12.001  68.362  1.00  0.00    -0.300 A  
HETATM   14  C   UNL     1     -11.879  13.026  69.313  1.00  0.00    -0.370 A  
BRANCH  13  15
HETATM   15  N   UNL     1     -12.048  10.675  68.798  1.00  0.00    -0.790 NA 
HETATM   16  H   UNL     1     -12.252   9.990  68.070  1.00  0.00     0.000 HD 
BRANCH  15  17
HETATM   17  C   UNL     1     -12.045  10.190  70.140  1.00  0.00    -0.149 A  
HETATM   18  C   UNL     1     -10.904   9.603  70.734  1.00  0.00    -0.400 A  
HETATM   19  C   UNL     1      -9.606   9.708  70.184  1.00  0.00    -0.300 A  
HETATM   20  C   UNL     1      -8.545   8.983  70.711  1.00  0.00    -0.259 A  
HETATM   21  C   UNL     1      -8.772   8.161  71.805  1.00  0.00    -0.151 A  
HETATM   22 CL   UNL     1      -7.502   7.164  72.396  1.00  0.00    -0.087 Cl 
HETATM   23  C   UNL     1     -10.025   8.129  72.415  1.00  0.00    -0.345 A  
HETATM   24  C   UNL     1     -11.088   8.869  71.922  1.00  0.00    -0.372 A  
HETATM   25  N   UNL     1     -12.265   8.832  72.570  1.00  0.00    -0.333 NA 
HETATM   26  C   UNL     1     -13.306   9.512  72.044  1.00  0.00    -0.452 A  
HETATM   27  C   UNL     1     -13.257  10.170  70.835  1.00  0.00    -0.360 A  
ENDBRANCH  15  17
ENDBRANCH  13  15
ENDBRANCH   6   7
ENDBRANCH   3   6
ENDBRANCH   2   3
TORSDOF 6
ENDMDL
MODEL       17
REMARK 921   NORMALIZED FREE ENERGY PREDICTED BY IDOCK:   -6.58 KCAL/MOL
REMARK 922        TOTAL FREE ENERGY PREDICTED BY IDOCK:   -9.90 KCAL/MOL
REMARK 923 INTER-LIGAND FREE ENERGY PREDICTED BY IDOCK:   -8.97 KCAL/MOL
REMARK 924 INTRA-LIGAND FREE ENERGY PREDICTED BY IDOCK:   -0.93 KCAL/MOL
REMARK 927      BINDING AFFINITY PREDICTED BY RF-SCORE:    0.00 PKD
ROOT
HETATM    1  C   UNL     1      -6.411  19.045  67.819  1.00  0.00    -0.219 C  
HETATM    2  C   UNL     1      -7.493  19.299  68.864  1.00  0.00    -0.361 C  
ENDROOT
BRANCH   2   3
HETATM    3  N   UNL     1      -8.824  18.776  68.483  1.00  0.00    -0.339 NA 
BRANCH   3   4
HETATM    4  C   UNL     1      -9.829  19.838  68.293  1.00  0.00    -0.428 C  
HETATM    5  C   UNL     1     -10.200  20.185  66.851  1.00  0.00    -0.566 C  
ENDBRANCH   3   4
BRANCH   3   6
HETATM    6  C   UNL     1      -8.749  17.885  67.297  1.00  0.00    -0.239 C  
BRANCH   6   7
HETATM    7  C   UNL     1      -9.136  16.456  67.620  1.00  0.00    -0.198 A  
HETATM    8  C   UNL     1      -8.356  15.360  67.231  1.00  0.00    -0.199 A  
HETATM    9  C   UNL     1      -8.858  14.071  67.310  1.00  0.00    -0.225 A  
HETATM   10  O   UNL     1      -7.125  15.518  66.660  1.00  0.00    -0.246 OA 
HETATM   11  C   UNL     1     -10.160  13.864  67.778  1.00  0.00    -0.241 A  
HETATM   12  H   UNL     1      -6.596  14.775  66.396  1.00  0.00     0.000 HD 
HETATM   13  C   UNL     1     -10.942  14.929  68.249  1.00  0.00    -0.264 A  
HETATM   14  C   UNL     1     -10.388  16.215  68.211  1.00  0.00    -0.266 A  
BRANCH  13  15
HETATM   15  N   UNL     1     -12.239  14.785  68.803  1.00  0.00    -0.581 NA 
HETATM   16  H   UNL     1     -13.022  14.905  68.160  1.00  0.00     0.000 HD 
BRANCH  15  17
HETATM   17  C   UNL     1     -12.573  14.492  70.159  1.00  0.00    -0.288 A  
HETATM   18  C   UNL     1     -12.581  13.174  70.673  1.00  0.00    -0.286 A  
HETATM   19  C   UNL     1     -11.982  12.082  70.005  1.00  0.00    -0.400 A  
HETATM   20  C   UNL     1     -12.153  10.782  70.465  1.00  0.00    -0.459 A  
HETATM   21  C   UNL     1     -12.907  10.569  71.608  1.00  0.00    -0.475 A  
HETATM   22 CL   UNL     1     -13.231   8.961  72.125  1.00  0.00    -0.437 Cl 
HETATM   23  C   UNL     1     -13.416  11.648  72.329  1.00  0.00    -0.098 A  
HETATM   24  C   UNL     1     -13.230  12.954  71.903  1.00  0.00    -0.423 A  
HETATM   25  N   UNL     1     -13.709  13.960  72.655  1.00  0.00    -0.709 NA 
HETATM   26  C   UNL     1     -13.571  15.222  72.196  1.00  0.00    -0.472 A  
HETATM   27  C   UNL     1     -13.047  15.534  70.960  1.00  0.00    -0.551 A  
ENDBRANCH  15  17
ENDBRANCH  13  15
ENDBRANCH   6   7
ENDBRANCH   3   6
ENDBRANCH   2   3
TORSDOF 6
ENDMDL
MODEL       18
REMARK 921   NORMALIZED FREE ENERGY PREDICTED BY IDOCK:   -6.54 KCAL/MOL
REMARK 922        TOTAL FREE ENERGY PREDICTED BY IDOCK:   -9.84 KCAL/MOL
REMARK 923 INTER-LIGAND FREE ENERGY PREDICTED BY IDOCK:   -8.92 KCAL/MOL
REMARK 924 INTRA-LIGAND FREE ENERGY PREDICTED BY IDOCK:   -0.92 KCAL/MOL
REMARK 927      BINDING AFFINITY PREDICTED BY RF-SCORE:    0.00 PKD
ROOT
HETATM    1  C   UNL     1     -14.279   8.437  71.344  1.00  0.00    -0.406 C  
HETATM    2  C   UNL     1     -13.327   9.062  72.359  1.00  0.00    -0.460 C  
ENDROOT
BRANCH   2   3
HETATM    3  N   UNL     1     -12.359  10.011  71.763  1.00  0.00    -0.384 NA 
BRANCH   3   4
HETATM    4  C   UNL     1     -11.094   9.369  71.363  1.00  0.00    -0.380 C  
HETATM    5  C   UNL     1     -10.568   8.258  72.272  1.00  0.00    -0.393 C  
ENDBRANCH   3   4
BRANCH   3   6
HETATM    6  C   UNL     1     -12.956  10.776  70.638  1.00  0.00    -0.232 C  
BRANCH   6   7
HETATM    7  C   UNL     1     -12.365  12.165  70.504  1.00  0.00    -0.358 A  
HETATM    8  C   UNL     1     -12.802  13.246  71.278  1.00  0.00    -0.312 A  
HETATM    9  C   UNL     1     -12.433  14.542  70.957  1.00  0.00    -0.412 A  
HETATM   10  O   UNL     1     -13.691  13.085  72.304  1.00  0.00    -0.552 OA 
HETATM   11  C   UNL     1     -11.618  14.772  69.843  1.00  0.00    -0.330 A  
HETATM   12  H   UNL     1     -13.988  13.818  72.829  1.00  0.00     0.000 HD 
HETATM   13  C   UNL     1     -11.098  13.709  69.090  1.00  0.00    -0.231 A  
HETATM   14  C   UNL     1     -11.441  12.407  69.472  1.00  0.00    -0.309 A  
BRANCH  13  15
HETATM   15  N   UNL     1     -10.210  13.863  67.995  1.00  0.00    -0.240 NA 
HETATM   16  H   UNL     1      -9.373  13.280  68.007  1.00  0.00     0.000 HD 
BRANCH  15  17
HETATM   17  C   UNL     1     -10.354  14.742  66.881  1.00  0.00    -0.267 A  
HETATM   18  C   UNL     1     -10.053  16.122  66.956  1.00  0.00    -0.270 A  
HETATM   19  C   UNL     1      -9.314  16.695  68.016  1.00  0.00    -0.227 A  
HETATM   20  C   UNL     1      -9.182  18.073  68.131  1.00  0.00    -0.283 A  
HETATM   21  C   UNL     1      -9.771  18.886  67.176  1.00  0.00    -0.303 A  
HETATM   22 CL   UNL     1      -9.722  20.594  67.367  1.00  0.00    -0.601 Cl 
HETATM   23  C   UNL     1     -10.415  18.327  66.073  1.00  0.00    -0.380 A  
HETATM   24  C   UNL     1     -10.531  16.953  65.924  1.00  0.00    -0.285 A  
HETATM   25  N   UNL     1     -11.128  16.465  64.823  1.00  0.00    -0.613 NA 
HETATM   26  C   UNL     1     -11.285  15.128  64.722  1.00  0.00    -0.388 A  
HETATM   27  C   UNL     1     -10.949  14.240  65.720  1.00  0.00    -0.305 A  
ENDBRANCH  15  17
ENDBRANCH  13  15
ENDBRANCH   6   7
ENDBRANCH   3   6
ENDBRANCH   2   3
TORSDOF 6
ENDMDL
MODEL       19
REMARK 921   NORMALIZED FREE ENERGY PREDICTED BY IDOCK:   -6.52 KCAL/MOL
REMARK 922        TOTAL FREE ENERGY PREDICTED BY IDOCK:   -9.82 KCAL/MOL
REMARK 923 INTER-LIGAND FREE ENERGY PREDICTED BY IDOCK:   -9.02 KCAL/MOL
REMARK 924 INTRA-LIGAND FREE ENERGY PREDICTED BY IDOCK:   -0.80 KCAL/MOL
REMARK 927      BINDING AFFINITY PREDICTED BY RF-SCORE:    0.00 PKD
ROOT
HETATM    1  C   UNL     1     -12.762  12.091  63.374  1.00  0.00    -0.527 C  
HETATM    2  C   UNL     1     -12.502  12.504  64.820  1.00  0.00    -0.457 C  
ENDROOT
BRANCH   2   3
HETATM    3  N   UNL     1     -11.560  13.638  64.956  1.00  0.00    -0.321 NA 
BRANCH   3   4
HETATM    4  C   UNL     1     -11.820  14.463  66.149  1.00  0.00    -0.382 C  
HETATM    5  C   UNL     1     -10.743  15.478  66.532  1.00  0.00    -0.304 C  
ENDBRANCH   3   4
BRANCH   3   6
HETATM    6  C   UNL     1     -10.145  13.190  64.906  1.00  0.00    -0.217 C  
BRANCH   6   7
HETATM    7  C   UNL     1      -9.912  11.917  65.696  1.00  0.00    -0.269 A  
HETATM    8  C   UNL     1      -9.822  10.660  65.087  1.00  0.00    -0.284 A  
HETATM    9  C   UNL     1      -9.868   9.501  65.845  1.00  0.00    -0.360 A  
HETATM   10  O   UNL     1      -9.797  10.518  63.728  1.00  0.00    -0.305 OA 
HETATM   11  C   UNL     1     -10.013   9.590  67.234  1.00  0.00    -0.244 A  
HETATM   12  H   UNL     1      -9.736   9.665  63.315  1.00  0.00     0.000 HD 
HETATM   13  C   UNL     1     -10.028  10.832  67.886  1.00  0.00    -0.174 A  
HETATM   14  C   UNL     1      -9.921  11.986  67.100  1.00  0.00    -0.208 A  
BRANCH  13  15
HETATM   15  N   UNL     1     -10.098  10.996  69.293  1.00  0.00    -0.398 NA 
HETATM   16  H   UNL     1      -9.226  11.240  69.763  1.00  0.00     0.000 HD 
BRANCH  15  17
HETATM   17  C   UNL     1     -11.249  10.858  70.125  1.00  0.00    -0.237 A  
HETATM   18  C   UNL     1     -12.040  11.963  70.518  1.00  0.00    -0.422 A  
HETATM   19  C   UNL     1     -11.956  13.232  69.900  1.00  0.00    -0.400 A  
HETATM   20  C   UNL     1     -12.633  14.327  70.422  1.00  0.00    -0.405 A  
HETATM   21  C   UNL     1     -13.414  14.155  71.554  1.00  0.00    -0.344 A  
HETATM   22 CL   UNL     1     -14.161  15.520  72.286  1.00  0.00    -0.645 Cl 
HETATM   23  C   UNL     1     -13.583  12.887  72.110  1.00  0.00    -0.589 A  
HETATM   24  C   UNL     1     -12.940  11.777  71.584  1.00  0.00    -0.362 A  
HETATM   25  N   UNL     1     -13.167  10.572  72.134  1.00  0.00    -0.405 NA 
HETATM   26  C   UNL     1     -12.489   9.511  71.649  1.00  0.00    -0.391 A  
HETATM   27  C   UNL     1     -11.511   9.604  70.682  1.00  0.00    -0.376 A  
ENDBRANCH  15  17
ENDBRANCH  13  15
ENDBRANCH   6   7
ENDBRANCH   3   6
ENDBRANCH   2   3
TORSDOF 6
ENDMDL
MODEL       20
REMARK 921   NORMALIZED FREE ENERGY PREDICTED BY IDOCK:   -6.52 KCAL/MOL
REMARK 922        TOTAL FREE ENERGY PREDICTED BY IDOCK:   -9.82 KCAL/MOL
REMARK 923 INTER-LIGAND FREE ENERGY PREDICTED BY IDOCK:   -8.63 KCAL/MOL
REMARK 924 INTRA-LIGAND FREE ENERGY PREDICTED BY IDOCK:   -1.19 KCAL/MOL
REMARK 927      BINDING AFFINITY PREDICTED BY RF-SCORE:    0.00 PKD
ROOT
HETATM    1  C   UNL     1     -14.031  15.764  72.809  1.00  0.00    -0.541 C  
HETATM    2  C   UNL     1     -14.282  15.285  71.383  1.00  0.00    -0.485 C  
ENDROOT
BRANCH   2   3
HETATM    3  N   UNL     1     -13.123  14.593  70.775  1.00  0.00    -0.355 NA 
BRANCH   3   4
HETATM    4  C   UNL     1     -11.981  15.491  70.523  1.00  0.00    -0.371 C  
HETATM    5  C   UNL     1     -11.820  16.018  69.098  1.00  0.00    -0.268 C  
ENDBRANCH   3   4
BRANCH   3   6
HETATM    6  C   UNL     1     -12.713  13.404  71.564  1.00  0.00    -0.293 C  
BRANCH   6   7
HETATM    7  C   UNL     1     -12.367  12.217  70.688  1.00  0.00    -0.385 A  
HETATM    8  C   UNL     1     -12.549  10.894  71.108  1.00  0.00    -0.428 A  
HETATM    9  C   UNL     1     -11.989   9.843  70.400  1.00  0.00    -0.271 A  
HETATM   10  O   UNL     1     -13.182  10.592  72.281  1.00  0.00    -0.584 OA 
HETATM   11  C   UNL     1     -11.230  10.109  69.256  1.00  0.00    -0.247 A  
HETATM   12  H   UNL     1     -13.305   9.694  72.566  1.00  0.00     0.000 HD 
HETATM   13  C   UNL     1     -11.091  11.413  68.761  1.00  0.00    -0.235 A  
HETATM   14  C   UNL     1     -11.715  12.451  69.464  1.00  0.00    -0.388 A  
BRANCH  13  15
HETATM   15  N   UNL     1     -10.399  11.748  67.569  1.00  0.00    -0.194 NA 
HETATM   16  H   UNL     1      -9.503  11.283  67.421  1.00  0.00     0.000 HD 
BRANCH  15  17
HETATM   17  C   UNL     1     -10.814  12.661  66.554  1.00  0.00    -0.258 A  
HETATM   18  C   UNL     1     -10.223  13.935  66.390  1.00  0.00    -0.292 A  
HETATM   19  C   UNL     1      -8.999  14.304  66.995  1.00  0.00    -0.251 A  
HETATM   20  C   UNL     1      -8.540  15.614  66.938  1.00  0.00    -0.281 A  
HETATM   21  C   UNL     1      -9.292  16.559  66.259  1.00  0.00    -0.302 A  
HETATM   22 CL   UNL     1      -8.804  18.208  66.281  1.00  0.00    -0.242 Cl 
HETATM   23  C   UNL     1     -10.448  16.184  65.575  1.00  0.00    -0.407 A  
HETATM   24  C   UNL     1     -10.906  14.876  65.594  1.00  0.00    -0.341 A  
HETATM   25  N   UNL     1     -12.004  14.559  64.887  1.00  0.00    -0.410 NA 
HETATM   26  C   UNL     1     -12.470  13.295  64.964  1.00  0.00    -0.443 A  
HETATM   27  C   UNL     1     -11.938  12.331  65.794  1.00  0.00    -0.362 A  
ENDBRANCH  15  17
ENDBRANCH  13  15
ENDBRANCH   6   7
ENDBRANCH   3   6
ENDBRANCH   2   3
TORSDOF 6
ENDMDL
MODEL       21
REMARK 921   NORMALIZED FREE ENERGY PREDICTED BY IDOCK:   -6.50 KCAL/MOL
REMARK 922        TOTAL FREE ENERGY PREDICTED BY IDOCK:   -9.80 KCAL/MOL
REMARK 923 INTER-LIGAND FREE ENERGY PREDICTED BY IDOCK:   -8.82 KCAL/MOL
REMARK 924 INTRA-LIGAND FREE ENERGY PREDICTED BY IDOCK:   -0.98 KCAL/MOL
REMARK 927      BINDING AFFINITY PREDICTED BY RF-SCORE:    0.00 PKD
ROOT
HETATM    1  C   UNL     1     -11.056   7.387  73.166  1.00  0.00    -0.357 C  
HETATM    2  C   UNL     1     -11.070   8.567  72.199  1.00  0.00    -0.366 C  
ENDROOT
BRANCH   2   3
HETATM    3  N   UNL     1     -12.177   8.520  71.217  1.00  0.00    -0.293 NA 
BRANCH   3   4
HETATM    4  C   UNL     1     -12.879   7.223  71.201  1.00  0.00    -0.286 C  
HETATM    5  C   UNL     1     -14.388   7.254  71.442  1.00  0.00    -0.484 C  
ENDBRANCH   3   4
BRANCH   3   6
HETATM    6  C   UNL     1     -13.127   9.646  71.402  1.00  0.00    -0.385 C  
BRANCH   6   7
HETATM    7  C   UNL     1     -12.607  10.945  70.819  1.00  0.00    -0.470 A  
HETATM    8  C   UNL     1     -12.838  12.186  71.425  1.00  0.00    -0.276 A  
HETATM    9  C   UNL     1     -12.579  13.364  70.744  1.00  0.00    -0.369 A  
HETATM   10  O   UNL     1     -13.425  12.289  72.654  1.00  0.00    -0.597 OA 
HETATM   11  C   UNL     1     -12.087  13.312  69.435  1.00  0.00    -0.301 A  
HETATM   12  H   UNL     1     -13.582  13.131  73.065  1.00  0.00     0.000 HD 
HETATM   13  C   UNL     1     -11.771  12.090  68.825  1.00  0.00    -0.321 A  
HETATM   14  C   UNL     1     -11.988  10.917  69.557  1.00  0.00    -0.401 A  
BRANCH  13  15
HETATM   15  N   UNL     1     -11.202  11.965  67.532  1.00  0.00    -0.275 NA 
HETATM   16  H   UNL     1     -10.739  11.079  67.326  1.00  0.00     0.000 HD 
BRANCH  15  17
HETATM   17  C   UNL     1     -11.203  12.936  66.487  1.00  0.00    -0.302 A  
HETATM   18  C   UNL     1     -10.242  13.971  66.410  1.00  0.00    -0.293 A  
HETATM   19  C   UNL     1      -9.042  13.969  67.157  1.00  0.00    -0.239 A  
HETATM   20  C   UNL     1      -8.207  15.079  67.171  1.00  0.00    -0.251 A  
HETATM   21  C   UNL     1      -8.557  16.191  66.421  1.00  0.00    -0.330 A  
HETATM   22 CL   UNL     1      -7.601  17.617  66.520  1.00  0.00    -0.276 Cl 
HETATM   23  C   UNL     1      -9.685  16.164  65.603  1.00  0.00    -0.239 A  
HETATM   24  C   UNL     1     -10.514  15.054  65.552  1.00  0.00    -0.365 A  
HETATM   25  N   UNL     1     -11.568  15.066  64.717  1.00  0.00    -0.412 NA 
HETATM   26  C   UNL     1     -12.398  14.002  64.723  1.00  0.00    -0.413 A  
HETATM   27  C   UNL     1     -12.280  12.943  65.597  1.00  0.00    -0.519 A  
ENDBRANCH  15  17
ENDBRANCH  13  15
ENDBRANCH   6   7
ENDBRANCH   3   6
ENDBRANCH   2   3
TORSDOF 6
ENDMDL
MODEL       22
REMARK 921   NORMALIZED FREE ENERGY PREDICTED BY IDOCK:   -6.50 KCAL/MOL
REMARK 922        TOTAL FREE ENERGY PREDICTED BY IDOCK:   -9.79 KCAL/MOL
REMARK 923 INTER-LIGAND FREE ENERGY PREDICTED BY IDOCK:   -8.92 KCAL/MOL
REMARK 924 INTRA-LIGAND FREE ENERGY PREDICTED BY IDOCK:   -0.87 KCAL/MOL
REMARK 927      BINDING AFFINITY PREDICTED BY RF-SCORE:    0.00 PKD
ROOT
HETATM    1  C   UNL     1      -8.014  15.801  69.419  1.00  0.00    -0.211 C  
HETATM    2  C   UNL     1      -8.568  16.746  68.357  1.00  0.00    -0.235 C  
ENDROOT
BRANCH   2   3
HETATM    3  N   UNL     1      -9.842  17.394  68.742  1.00  0.00    -0.306 NA 
BRANCH   3   4
HETATM    4  C   UNL     1      -9.787  18.865  68.663  1.00  0.00    -0.407 C  
HETATM    5  C   UNL     1     -10.479  19.517  67.466  1.00  0.00    -0.596 C  
ENDBRANCH   3   4
BRANCH   3   6
HETATM    6  C   UNL     1     -10.992  16.854  67.974  1.00  0.00    -0.271 C  
BRANCH   6   7
HETATM    7  C   UNL     1     -11.531  15.567  68.564  1.00  0.00    -0.369 A  
HETATM    8  C   UNL     1     -11.753  15.405  69.937  1.00  0.00    -0.336 A  
HETATM    9  C   UNL     1     -11.995  14.150  70.472  1.00  0.00    -0.393 A  
HETATM   10  O   UNL     1     -11.632  16.446  70.814  1.00  0.00    -0.552 OA 
HETATM   11  C   UNL     1     -12.012  13.033  69.630  1.00  0.00    -0.367 A  
HETATM   12  H   UNL     1     -11.783  16.336  71.746  1.00  0.00     0.000 HD 
HETATM   13  C   UNL     1     -11.871  13.165  68.241  1.00  0.00    -0.349 A  
HETATM   14  C   UNL     1     -11.685  14.452  67.722  1.00  0.00    -0.407 A  
BRANCH  13  15
HETATM   15  N   UNL     1     -11.950  12.088  67.322  1.00  0.00    -0.590 NA 
HETATM   16  H   UNL     1     -12.106  11.163  67.723  1.00  0.00     0.000 HD 
BRANCH  15  17
HETATM   17  C   UNL     1     -11.835  12.152  65.902  1.00  0.00    -0.272 A  
HETATM   18  C   UNL     1     -10.868  11.411  65.183  1.00  0.00    -0.302 A  
HETATM   19  C   UNL     1     -10.143  10.336  65.745  1.00  0.00    -0.325 A  
HETATM   20  C   UNL     1      -9.092   9.744  65.056  1.00  0.00    -0.280 A  
HETATM   21  C   UNL     1      -8.774  10.211  63.790  1.00  0.00    -0.212 A  
HETATM   22 CL   UNL     1      -7.402   9.575  62.970  1.00  0.00    -0.106 Cl 
HETATM   23  C   UNL     1      -9.547  11.202  63.187  1.00  0.00    -0.388 A  
HETATM   24  C   UNL     1     -10.619  11.783  63.847  1.00  0.00    -0.393 A  
HETATM   25  N   UNL     1     -11.356  12.707  63.207  1.00  0.00    -0.388 NA 
HETATM   26  C   UNL     1     -12.358  13.305  63.884  1.00  0.00    -0.351 A  
HETATM   27  C   UNL     1     -12.615  13.090  65.221  1.00  0.00    -0.516 A  
ENDBRANCH  15  17
ENDBRANCH  13  15
ENDBRANCH   6   7
ENDBRANCH   3   6
ENDBRANCH   2   3
TORSDOF 6
ENDMDL
MODEL       23
REMARK 921   NORMALIZED FREE ENERGY PREDICTED BY IDOCK:   -6.49 KCAL/MOL
REMARK 922        TOTAL FREE ENERGY PREDICTED BY IDOCK:   -9.78 KCAL/MOL
REMARK 923 INTER-LIGAND FREE ENERGY PREDICTED BY IDOCK:   -8.68 KCAL/MOL
REMARK 924 INTRA-LIGAND FREE ENERGY PREDICTED BY IDOCK:   -1.10 KCAL/MOL
REMARK 927      BINDING AFFINITY PREDICTED BY RF-SCORE:    0.00 PKD
ROOT
HETATM    1  C   UNL     1     -10.586   5.391  70.047  1.00  0.00    -0.354 C  
HETATM    2  C   UNL     1     -11.661   6.353  70.543  1.00  0.00    -0.358 C  
ENDROOT
BRANCH   2   3
HETATM    3  N   UNL     1     -11.781   6.402  72.018  1.00  0.00    -0.318 NA 
BRANCH   3   4
HETATM    4  C   UNL     1     -11.411   5.133  72.670  1.00  0.00    -0.184 C  
HETATM    5  C   UNL     1     -10.554   5.232  73.932  1.00  0.00    -0.335 C  
ENDBRANCH   3   4
BRANCH   3   6
HETATM    6  C   UNL     1     -11.030   7.546  72.596  1.00  0.00    -0.336 C  
BRANCH   6   7
HETATM    7  C   UNL     1     -11.446   8.875  71.997  1.00  0.00    -0.431 A  
HETATM    8  C   UNL     1     -12.723   9.417  72.183  1.00  0.00    -0.382 A  
HETATM    9  C   UNL     1     -13.154  10.490  71.420  1.00  0.00    -0.509 A  
HETATM   10  O   UNL     1     -13.629   8.850  73.035  1.00  0.00    -0.914 OA 
HETATM   11  C   UNL     1     -12.306  11.033  70.450  1.00  0.00    -0.442 A  
HETATM   12  H   UNL     1     -14.496   9.217  73.161  1.00  0.00     0.000 HD 
HETATM   13  C   UNL     1     -10.993  10.567  70.288  1.00  0.00    -0.235 A  
HETATM   14  C   UNL     1     -10.564   9.519  71.112  1.00  0.00    -0.388 A  
BRANCH  13  15
HETATM   15  N   UNL     1     -10.055  11.116  69.377  1.00  0.00    -0.428 NA 
HETATM   16  H   UNL     1      -9.499  11.900  69.719  1.00  0.00     0.000 HD 
BRANCH  15  17
HETATM   17  C   UNL     1      -9.802  10.698  68.037  1.00  0.00    -0.160 A  
HETATM   18  C   UNL     1     -10.271  11.418  66.914  1.00  0.00    -0.254 A  
HETATM   19  C   UNL     1     -10.758  12.743  66.993  1.00  0.00    -0.272 A  
HETATM   20  C   UNL     1     -11.356  13.351  65.897  1.00  0.00    -0.327 A  
HETATM   21  C   UNL     1     -11.453  12.645  64.708  1.00  0.00    -0.321 A  
HETATM   22 CL   UNL     1     -12.297  13.335  63.378  1.00  0.00    -0.513 Cl 
HETATM   23  C   UNL     1     -10.886  11.377  64.592  1.00  0.00    -0.359 A  
HETATM   24  C   UNL     1     -10.257  10.766  65.666  1.00  0.00    -0.257 A  
HETATM   25  N   UNL     1      -9.694   9.558  65.489  1.00  0.00    -0.293 NA 
HETATM   26  C   UNL     1      -9.138   8.951  66.559  1.00  0.00    -0.166 A  
HETATM   27  C   UNL     1      -9.192   9.456  67.840  1.00  0.00    -0.139 A  
ENDBRANCH  15  17
ENDBRANCH  13  15
ENDBRANCH   6   7
ENDBRANCH   3   6
ENDBRANCH   2   3
TORSDOF 6
ENDMDL
MODEL       24
REMARK 921   NORMALIZED FREE ENERGY PREDICTED BY IDOCK:   -6.43 KCAL/MOL
REMARK 922        TOTAL FREE ENERGY PREDICTED BY IDOCK:   -9.70 KCAL/MOL
REMARK 923 INTER-LIGAND FREE ENERGY PREDICTED BY IDOCK:   -8.64 KCAL/MOL
REMARK 924 INTRA-LIGAND FREE ENERGY PREDICTED BY IDOCK:   -1.06 KCAL/MOL
REMARK 927      BINDING AFFINITY PREDICTED BY RF-SCORE:    0.00 PKD
ROOT
HETATM    1  C   UNL     1      -9.892   8.356  72.231  1.00  0.00    -0.383 C  
HETATM    2  C   UNL     1     -11.405   8.305  72.421  1.00  0.00    -0.388 C  
ENDROOT
BRANCH   2   3
HETATM    3  N   UNL     1     -12.161   9.029  71.374  1.00  0.00    -0.310 NA 
BRANCH   3   4
HETATM    4  C   UNL     1     -13.606   9.110  71.657  1.00  0.00    -0.390 C  
HETATM    5  C   UNL     1     -14.407   7.815  71.526  1.00  0.00    -0.574 C  
ENDBRANCH   3   4
BRANCH   3   6
HETATM    6  C   UNL     1     -11.587  10.372  71.105  1.00  0.00    -0.228 C  
BRANCH   6   7
HETATM    7  C   UNL     1     -11.603  10.725  69.632  1.00  0.00    -0.388 A  
HETATM    8  C   UNL     1     -11.131   9.852  68.644  1.00  0.00    -0.134 A  
HETATM    9  C   UNL     1     -10.918  10.297  67.349  1.00  0.00    -0.317 A  
HETATM   10  O   UNL     1     -10.758   8.570  68.934  1.00  0.00    -0.367 OA 
HETATM   11  C   UNL     1     -11.173  11.635  67.028  1.00  0.00    -0.376 A  
HETATM   12  H   UNL     1     -10.438   7.978  68.265  1.00  0.00     0.000 HD 
HETATM   13  C   UNL     1     -11.719  12.518  67.970  1.00  0.00    -0.355 A  
HETATM   14  C   UNL     1     -11.978  12.027  69.256  1.00  0.00    -0.329 A  
BRANCH  13  15
HETATM   15  N   UNL     1     -12.070  13.864  67.696  1.00  0.00    -0.463 NA 
HETATM   16  H   UNL     1     -12.789  14.275  68.292  1.00  0.00     0.000 HD 
BRANCH  15  17
HETATM   17  C   UNL     1     -11.531  14.710  66.681  1.00  0.00    -0.357 A  
HETATM   18  C   UNL     1     -10.616  15.751  66.965  1.00  0.00    -0.316 A  
HETATM   19  C   UNL     1      -9.930  15.862  68.196  1.00  0.00    -0.222 A  
HETATM   20  C   UNL     1      -9.167  16.985  68.491  1.00  0.00    -0.266 A  
HETATM   21  C   UNL     1      -9.070  17.996  67.547  1.00  0.00    -0.253 A  
HETATM   22 CL   UNL     1      -8.232  19.446  67.939  1.00  0.00    -0.333 Cl 
HETATM   23  C   UNL     1      -9.660  17.850  66.293  1.00  0.00    -0.252 A  
HETATM   24  C   UNL     1     -10.400  16.723  65.969  1.00  0.00    -0.335 A  
HETATM   25  N   UNL     1     -10.916  16.615  64.733  1.00  0.00    -0.743 NA 
HETATM   26  C   UNL     1     -11.682  15.539  64.453  1.00  0.00    -0.242 A  
HETATM   27  C   UNL     1     -12.040  14.590  65.386  1.00  0.00    -0.317 A  
ENDBRANCH  15  17
ENDBRANCH  13  15
ENDBRANCH   6   7
ENDBRANCH   3   6
ENDBRANCH   2   3
TORSDOF 6
ENDMDL
MODEL       25
REMARK 921   NORMALIZED FREE ENERGY PREDICTED BY IDOCK:   -6.37 KCAL/MOL
REMARK 922        TOTAL FREE ENERGY PREDICTED BY IDOCK:   -9.61 KCAL/MOL
REMARK 923 INTER-LIGAND FREE ENERGY PREDICTED BY IDOCK:   -8.17 KCAL/MOL
REMARK 924 INTRA-LIGAND FREE ENERGY PREDICTED BY IDOCK:   -1.44 KCAL/MOL
REMARK 927      BINDING AFFINITY PREDICTED BY RF-SCORE:    0.00 PKD
ROOT
HETATM    1  C   UNL     1      -9.916   9.360  70.934  1.00  0.00    -0.353 C  
HETATM    2  C   UNL     1      -8.773   9.530  69.938  1.00  0.00    -0.210 C  
ENDROOT
BRANCH   2   3
HETATM    3  N   UNL     1      -9.062   8.970  68.598  1.00  0.00    -0.137 NA 
BRANCH   3   4
HETATM    4  C   UNL     1      -8.574   7.588  68.433  1.00  0.00    -0.124 C  
HETATM    5  C   UNL     1      -9.625   6.516  68.148  1.00  0.00    -0.123 C  
ENDBRANCH   3   4
BRANCH   3   6
HETATM    6  C   UNL     1     -10.502   9.079  68.252  1.00  0.00    -0.200 C  
BRANCH   6   7
HETATM    7  C   UNL     1     -10.764  10.120  67.182  1.00  0.00    -0.286 A  
HETATM    8  C   UNL     1     -10.276   9.995  65.876  1.00  0.00    -0.205 A  
HETATM    9  C   UNL     1     -10.308  11.070  65.002  1.00  0.00    -0.360 A  
HETATM   10  O   UNL     1      -9.653   8.857  65.445  1.00  0.00    -0.454 OA 
HETATM   11  C   UNL     1     -10.829  12.294  65.434  1.00  0.00    -0.324 A  
HETATM   12  H   UNL     1      -9.322   8.772  64.559  1.00  0.00     0.000 HD 
HETATM   13  C   UNL     1     -11.397  12.436  66.708  1.00  0.00    -0.335 A  
HETATM   14  C   UNL     1     -11.403  11.317  67.550  1.00  0.00    -0.360 A  
BRANCH  13  15
HETATM   15  N   UNL     1     -12.007  13.623  67.185  1.00  0.00    -0.396 NA 
HETATM   16  H   UNL     1     -12.982  13.768  66.921  1.00  0.00     0.000 HD 
BRANCH  15  17
HETATM   17  C   UNL     1     -11.413  14.639  67.992  1.00  0.00    -0.324 A  
HETATM   18  C   UNL     1     -11.662  14.750  69.380  1.00  0.00    -0.358 A  
HETATM   19  C   UNL     1     -12.259  13.720  70.143  1.00  0.00    -0.425 A  
HETATM   20  C   UNL     1     -12.630  13.933  71.464  1.00  0.00    -0.419 A  
HETATM   21  C   UNL     1     -12.387  15.172  72.037  1.00  0.00    -0.356 A  
HETATM   22 CL   UNL     1     -12.948  15.495  73.631  1.00  0.00    -0.645 Cl 
HETATM   23  C   UNL     1     -11.708  16.159  71.325  1.00  0.00    -0.480 A  
HETATM   24  C   UNL     1     -11.302  15.954  70.015  1.00  0.00    -0.358 A  
HETATM   25  N   UNL     1     -10.617  16.924  69.386  1.00  0.00    -0.335 NA 
HETATM   26  C   UNL     1     -10.281  16.732  68.093  1.00  0.00    -0.301 A  
HETATM   27  C   UNL     1     -10.676  15.639  67.353  1.00  0.00    -0.309 A  
ENDBRANCH  15  17
ENDBRANCH  13  15
ENDBRANCH   6   7
ENDBRANCH   3   6
ENDBRANCH   2   3
TORSDOF 6
ENDMDL
MODEL       26
REMARK 921   NORMALIZED FREE ENERGY PREDICTED BY IDOCK:   -6.36 KCAL/MOL
REMARK 922        TOTAL FREE ENERGY PREDICTED BY IDOCK:   -9.61 KCAL/MOL
REMARK 923 INTER-LIGAND FREE ENERGY PREDICTED BY IDOCK:   -8.42 KCAL/MOL
REMARK 924 INTRA-LIGAND FREE ENERGY PREDICTED BY IDOCK:   -1.19 KCAL/MOL
REMARK 927      BINDING AFFINITY PREDICTED BY RF-SCORE:    0.00 PKD
ROOT
HETATM    1  C   UNL     1     -10.564   5.586  70.052  1.00  0.00    -0.384 C  
HETATM    2  C   UNL     1     -11.769   6.394  70.525  1.00  0.00    -0.317 C  
ENDROOT
BRANCH   2   3
HETATM    3  N   UNL     1     -11.775   6.657  71.982  1.00  0.00    -0.300 NA 
BRANCH   3   4
HETATM    4  C   UNL     1     -11.498   5.453  72.786  1.00  0.00    -0.268 C  
HETATM    5  C   UNL     1     -10.527   5.616  73.956  1.00  0.00    -0.297 C  
ENDBRANCH   3   4
BRANCH   3   6
HETATM    6  C   UNL     1     -10.866   7.772  72.346  1.00  0.00    -0.303 C  
BRANCH   6   7
HETATM    7  C   UNL     1     -11.342   9.108  71.811  1.00  0.00    -0.451 A  
HETATM    8  C   UNL     1     -12.599   9.639  72.127  1.00  0.00    -0.308 A  
HETATM    9  C   UNL     1     -13.106  10.721  71.426  1.00  0.00    -0.469 A  
HETATM   10  O   UNL     1     -13.418   9.052  73.050  1.00  0.00    -0.888 OA 
HETATM   11  C   UNL     1     -12.356  11.285  70.389  1.00  0.00    -0.415 A  
HETATM   12  H   UNL     1     -14.270   9.411  73.264  1.00  0.00     0.000 HD 
HETATM   13  C   UNL     1     -11.061  10.831  70.097  1.00  0.00    -0.223 A  
HETATM   14  C   UNL     1     -10.551   9.773  70.858  1.00  0.00    -0.344 A  
BRANCH  13  15
HETATM   15  N   UNL     1     -10.217  11.402  69.111  1.00  0.00    -0.406 NA 
HETATM   16  H   UNL     1      -9.234  11.127  69.144  1.00  0.00     0.000 HD 
BRANCH  15  17
HETATM   17  C   UNL     1     -10.585  12.315  68.079  1.00  0.00    -0.216 A  
HETATM   18  C   UNL     1     -10.351  13.707  68.176  1.00  0.00    -0.245 A  
HETATM   19  C   UNL     1      -9.484  14.279  69.135  1.00  0.00     0.101 A  
HETATM   20  C   UNL     1      -9.409  15.657  69.298  1.00  0.00    -0.267 A  
HETATM   21  C   UNL     1     -10.187  16.471  68.490  1.00  0.00    -0.266 A  
HETATM   22 CL   UNL     1     -10.200  18.170  68.758  1.00  0.00    -0.383 Cl 
HETATM   23  C   UNL     1     -10.968  15.920  67.475  1.00  0.00    -0.280 A  
HETATM   24  C   UNL     1     -11.032  14.549  67.276  1.00  0.00    -0.305 A  
HETATM   25  N   UNL     1     -11.770  14.072  66.260  1.00  0.00    -0.370 NA 
HETATM   26  C   UNL     1     -11.869  12.734  66.116  1.00  0.00    -0.425 A  
HETATM   27  C   UNL     1     -11.330  11.826  67.003  1.00  0.00    -0.387 A  
ENDBRANCH  15  17
ENDBRANCH  13  15
ENDBRANCH   6   7
ENDBRANCH   3   6
ENDBRANCH   2   3
TORSDOF 6
ENDMDL
MODEL       27
REMARK 921   NORMALIZED FREE ENERGY PREDICTED BY IDOCK:   -6.35 KCAL/MOL
REMARK 922        TOTAL FREE ENERGY PREDICTED BY IDOCK:   -9.59 KCAL/MOL
REMARK 923 INTER-LIGAND FREE ENERGY PREDICTED BY IDOCK:   -8.50 KCAL/MOL
REMARK 924 INTRA-LIGAND FREE ENERGY PREDICTED BY IDOCK:   -1.10 KCAL/MOL
REMARK 927      BINDING AFFINITY PREDICTED BY RF-SCORE:    0.00 PKD
ROOT
HETATM    1  C   UNL     1      -8.317   7.441  66.014  1.00  0.00    -0.143 C  
HETATM    2  C   UNL     1      -8.391   8.281  64.743  1.00  0.00    -0.119 C  
ENDROOT
BRANCH   2   3
HETATM    3  N   UNL     1      -8.065   9.709  64.953  1.00  0.00    -0.125 NA 
BRANCH   3   4
HETATM    4  C   UNL     1      -6.642  10.017  64.723  1.00  0.00    -0.127 C  
HETATM    5  C   UNL     1      -5.896  10.719  65.857  1.00  0.00    -0.142 C  
ENDBRANCH   3   4
BRANCH   3   6
HETATM    6  C   UNL     1      -8.946  10.600  64.156  1.00  0.00    -0.198 C  
BRANCH   6   7
HETATM    7  C   UNL     1     -10.099  11.154  64.969  1.00  0.00    -0.338 A  
HETATM    8  C   UNL     1     -11.186  11.811  64.380  1.00  0.00    -0.316 A  
HETATM    9  C   UNL     1     -12.084  12.527  65.155  1.00  0.00    -0.503 A  
HETATM   10  O   UNL     1     -11.346  11.867  63.024  1.00  0.00    -0.667 OA 
HETATM   11  C   UNL     1     -11.898  12.599  66.540  1.00  0.00    -0.463 A  
HETATM   12  H   UNL     1     -12.083  12.313  62.625  1.00  0.00     0.000 HD 
HETATM   13  C   UNL     1     -10.866  11.891  67.173  1.00  0.00    -0.255 A  
HETATM   14  C   UNL     1     -10.007  11.129  66.372  1.00  0.00    -0.257 A  
BRANCH  13  15
HETATM   15  N   UNL     1     -10.661  11.858  68.576  1.00  0.00    -0.216 NA 
HETATM   16  H   UNL     1      -9.705  12.014  68.897  1.00  0.00     0.000 HD 
BRANCH  15  17
HETATM   17  C   UNL     1     -11.640  11.633  69.589  1.00  0.00    -0.330 A  
HETATM   18  C   UNL     1     -12.234  12.687  70.320  1.00  0.00    -0.347 A  
HETATM   19  C   UNL     1     -12.151  14.043  69.928  1.00  0.00    -0.406 A  
HETATM   20  C   UNL     1     -12.610  15.057  70.759  1.00  0.00    -0.429 A  
HETATM   21  C   UNL     1     -13.174  14.720  71.980  1.00  0.00    -0.351 A  
HETATM   22 CL   UNL     1     -13.637  15.963  73.073  1.00  0.00    -0.665 Cl 
HETATM   23  C   UNL     1     -13.352  13.382  72.330  1.00  0.00    -0.641 A  
HETATM   24  C   UNL     1     -12.928  12.356  71.500  1.00  0.00    -0.285 A  
HETATM   25  N   UNL     1     -13.158  11.084  71.868  1.00  0.00    -0.483 NA 
HETATM   26  C   UNL     1     -12.687  10.096  71.078  1.00  0.00    -0.386 A  
HETATM   27  C   UNL     1     -11.908  10.313  69.962  1.00  0.00    -0.305 A  
ENDBRANCH  15  17
ENDBRANCH  13  15
ENDBRANCH   6   7
ENDBRANCH   3   6
ENDBRANCH   2   3
TORSDOF 6
ENDMDL
MODEL       28
REMARK 921   NORMALIZED FREE ENERGY PREDICTED BY IDOCK:   -6.29 KCAL/MOL
REMARK 922        TOTAL FREE ENERGY PREDICTED BY IDOCK:   -9.51 KCAL/MOL
REMARK 923 INTER-LIGAND FREE ENERGY PREDICTED BY IDOCK:   -8.42 KCAL/MOL
REMARK 924 INTRA-LIGAND FREE ENERGY PREDICTED BY IDOCK:   -1.10 KCAL/MOL
REMARK 927      BINDING AFFINITY PREDICTED BY RF-SCORE:    0.00 PKD
ROOT
HETATM    1  C   UNL     1     -10.495   5.764  69.418  1.00  0.00    -0.360 C  
HETATM    2  C   UNL     1     -11.469   6.569  70.272  1.00  0.00    -0.411 C  
ENDROOT
BRANCH   2   3
HETATM    3  N   UNL     1     -11.244   8.031  70.217  1.00  0.00    -0.233 NA 
BRANCH   3   4
HETATM    4  C   UNL     1     -11.251   8.667  71.547  1.00  0.00    -0.290 C  
HETATM    5  C   UNL     1     -10.421   7.990  72.638  1.00  0.00    -0.408 C  
ENDBRANCH   3   4
BRANCH   3   6
HETATM    6  C   UNL     1     -10.012   8.371  69.461  1.00  0.00    -0.190 C  
BRANCH   6   7
HETATM    7  C   UNL     1     -10.306   9.142  68.190  1.00  0.00    -0.263 A  
HETATM    8  C   UNL     1      -9.690   8.842  66.969  1.00  0.00    -0.190 A  
HETATM    9  C   UNL     1      -9.779   9.716  65.898  1.00  0.00    -0.343 A  
HETATM   10  O   UNL     1      -8.891   7.744  66.816  1.00  0.00    -0.128 OA 
HETATM   11  C   UNL     1     -10.488  10.913  66.040  1.00  0.00    -0.287 A  
HETATM   12  H   UNL     1      -8.473   7.540  65.988  1.00  0.00     0.000 HD 
HETATM   13  C   UNL     1     -11.182  11.212  67.221  1.00  0.00    -0.277 A  
HETATM   14  C   UNL     1     -11.123  10.284  68.268  1.00  0.00    -0.311 A  
BRANCH  13  15
HETATM   15  N   UNL     1     -11.980  12.369  67.410  1.00  0.00    -0.520 NA 
HETATM   16  H   UNL     1     -12.964  12.287  67.155  1.00  0.00     0.000 HD 
BRANCH  15  17
HETATM   17  C   UNL     1     -11.561  13.635  67.917  1.00  0.00    -0.341 A  
HETATM   18  C   UNL     1     -11.886  14.078  69.221  1.00  0.00    -0.389 A  
HETATM   19  C   UNL     1     -12.379  13.217  70.228  1.00  0.00    -0.334 A  
HETATM   20  C   UNL     1     -12.836  13.723  71.439  1.00  0.00    -0.449 A  
HETATM   21  C   UNL     1     -12.784  15.091  71.657  1.00  0.00    -0.340 A  
HETATM   22 CL   UNL     1     -13.456  15.747  73.098  1.00  0.00    -0.664 Cl 
HETATM   23  C   UNL     1     -12.207  15.935  70.710  1.00  0.00    -0.373 A  
HETATM   24  C   UNL     1     -11.718  15.446  69.509  1.00  0.00    -0.346 A  
HETATM   25  N   UNL     1     -11.136  16.298  68.647  1.00  0.00    -0.342 NA 
HETATM   26  C   UNL     1     -10.718  15.816  67.457  1.00  0.00    -0.317 A  
HETATM   27  C   UNL     1     -10.932  14.520  67.038  1.00  0.00    -0.312 A  
ENDBRANCH  15  17
ENDBRANCH  13  15
ENDBRANCH   6   7
ENDBRANCH   3   6
ENDBRANCH   2   3
TORSDOF 6
ENDMDL
MODEL       29
REMARK 921   NORMALIZED FREE ENERGY PREDICTED BY IDOCK:   -6.27 KCAL/MOL
REMARK 922        TOTAL FREE ENERGY PREDICTED BY IDOCK:   -9.49 KCAL/MOL
REMARK 923 INTER-LIGAND FREE ENERGY PREDICTED BY IDOCK:   -8.27 KCAL/MOL
REMARK 924 INTRA-LIGAND FREE ENERGY PREDICTED BY IDOCK:   -1.21 KCAL/MOL
REMARK 927      BINDING AFFINITY PREDICTED BY RF-SCORE:    0.00 PKD
ROOT
HETATM    1  C   UNL     1      -9.257   8.026  73.028  1.00  0.00    -0.337 C  
HETATM    2  C   UNL     1     -10.759   7.764  73.026  1.00  0.00    -0.384 C  
ENDROOT
BRANCH   2   3
HETATM    3  N   UNL     1     -11.459   8.313  71.843  1.00  0.00    -0.288 NA 
BRANCH   3   4
HETATM    4  C   UNL     1     -12.904   8.506  72.065  1.00  0.00    -0.374 C  
HETATM    5  C   UNL     1     -13.839   7.456  71.465  1.00  0.00    -0.483 C  
ENDBRANCH   3   4
BRANCH   3   6
HETATM    6  C   UNL     1     -10.818   9.558  71.350  1.00  0.00    -0.312 C  
BRANCH   6   7
HETATM    7  C   UNL     1     -10.943   9.719  69.848  1.00  0.00    -0.299 A  
HETATM    8  C   UNL     1     -10.315   8.854  68.944  1.00  0.00    -0.212 A  
HETATM    9  C   UNL     1     -10.233   9.175  67.598  1.00  0.00    -0.293 A  
HETATM   10  O   UNL     1      -9.665   7.726  69.359  1.00  0.00    -0.166 OA 
HETATM   11  C   UNL     1     -10.780  10.378  67.141  1.00  0.00    -0.316 A  
HETATM   12  H   UNL     1      -9.238   7.140  68.746  1.00  0.00     0.000 HD 
HETATM   13  C   UNL     1     -11.484  11.231  68.002  1.00  0.00    -0.298 A  
HETATM   14  C   UNL     1     -11.601  10.855  69.345  1.00  0.00    -0.387 A  
BRANCH  13  15
HETATM   15  N   UNL     1     -12.127  12.428  67.594  1.00  0.00    -0.449 NA 
HETATM   16  H   UNL     1     -12.969  12.687  68.107  1.00  0.00     0.000 HD 
BRANCH  15  17
HETATM   17  C   UNL     1     -11.727  13.311  66.547  1.00  0.00    -0.377 A  
HETATM   18  C   UNL     1     -10.833  14.386  66.759  1.00  0.00    -0.301 A  
HETATM   19  C   UNL     1     -10.031  14.508  67.917  1.00  0.00    -0.226 A  
HETATM   20  C   UNL     1      -9.289  15.658  68.156  1.00  0.00    -0.194 A  
HETATM   21  C   UNL     1      -9.329  16.686  67.227  1.00  0.00    -0.230 A  
HETATM   22 CL   UNL     1      -8.517  18.164  67.561  1.00  0.00    -0.246 Cl 
HETATM   23  C   UNL     1     -10.036  16.534  66.035  1.00  0.00    -0.368 A  
HETATM   24  C   UNL     1     -10.758  15.381  65.765  1.00  0.00    -0.351 A  
HETATM   25  N   UNL     1     -11.390  15.270  64.585  1.00  0.00    -0.389 NA 
HETATM   26  C   UNL     1     -12.136  14.167  64.362  1.00  0.00    -0.463 A  
HETATM   27  C   UNL     1     -12.359  13.189  65.307  1.00  0.00    -0.532 A  
ENDBRANCH  15  17
ENDBRANCH  13  15
ENDBRANCH   6   7
ENDBRANCH   3   6
ENDBRANCH   2   3
TORSDOF 6
ENDMDL
MODEL       30
REMARK 921   NORMALIZED FREE ENERGY PREDICTED BY IDOCK:   -6.26 KCAL/MOL
REMARK 922        TOTAL FREE ENERGY PREDICTED BY IDOCK:   -9.48 KCAL/MOL
REMARK 923 INTER-LIGAND FREE ENERGY PREDICTED BY IDOCK:   -8.53 KCAL/MOL
REMARK 924 INTRA-LIGAND FREE ENERGY PREDICTED BY IDOCK:   -0.94 KCAL/MOL
REMARK 927      BINDING AFFINITY PREDICTED BY RF-SCORE:    0.00 PKD
ROOT
HETATM    1  C   UNL     1     -13.134  12.144  71.505  1.00  0.00    -0.357 C  
HETATM    2  C   UNL     1     -12.288  13.369  71.173  1.00  0.00    -0.259 C  
ENDROOT
BRANCH   2   3
HETATM    3  N   UNL     1     -13.064  14.491  70.598  1.00  0.00    -0.319 NA 
BRANCH   3   4
HETATM    4  C   UNL     1     -14.181  14.921  71.458  1.00  0.00    -0.527 C  
HETATM    5  C   UNL     1     -13.813  15.630  72.761  1.00  0.00    -0.628 C  
ENDBRANCH   3   4
BRANCH   3   6
HETATM    6  C   UNL     1     -12.192  15.636  70.233  1.00  0.00    -0.386 C  
BRANCH   6   7
HETATM    7  C   UNL     1     -11.592  15.490  68.848  1.00  0.00    -0.384 A  
HETATM    8  C   UNL     1     -10.721  16.441  68.302  1.00  0.00    -0.337 A  
HETATM    9  C   UNL     1     -10.399  16.414  66.955  1.00  0.00    -0.293 A  
HETATM   10  O   UNL     1     -10.245  17.488  69.039  1.00  0.00    -0.345 OA 
HETATM   11  C   UNL     1     -10.955  15.430  66.132  1.00  0.00    -0.279 A  
HETATM   12  H   UNL     1      -9.654  18.133  68.669  1.00  0.00     0.000 HD 
HETATM   13  C   UNL     1     -11.770  14.416  66.657  1.00  0.00    -0.394 A  
HETATM   14  C   UNL     1     -12.033  14.434  68.032  1.00  0.00    -0.326 A  
BRANCH  13  15
HETATM   15  N   UNL     1     -12.308  13.346  65.896  1.00  0.00    -0.443 NA 
HETATM   16  H   UNL     1     -13.325  13.308  65.827  1.00  0.00     0.000 HD 
BRANCH  15  17
HETATM   17  C   UNL     1     -11.588  12.319  65.217  1.00  0.00    -0.355 A  
HETATM   18  C   UNL     1     -10.982  11.237  65.898  1.00  0.00    -0.221 A  
HETATM   19  C   UNL     1     -11.276  10.907  67.240  1.00  0.00    -0.307 A  
HETATM   20  C   UNL     1     -10.542   9.941  67.916  1.00  0.00    -0.303 A  
HETATM   21  C   UNL     1      -9.521   9.284  67.246  1.00  0.00    -0.144 A  
HETATM   22 CL   UNL     1      -8.523   8.173  68.099  1.00  0.00    -0.126 Cl 
HETATM   23  C   UNL     1      -9.291   9.531  65.894  1.00  0.00    -0.285 A  
HETATM   24  C   UNL     1     -10.033  10.470  65.194  1.00  0.00    -0.309 A  
HETATM   25  N   UNL     1      -9.796  10.642  63.883  1.00  0.00    -0.318 NA 
HETATM   26  C   UNL     1     -10.487  11.601  63.230  1.00  0.00    -0.383 A  
HETATM   27  C   UNL     1     -11.357  12.473  63.848  1.00  0.00    -0.504 A  
ENDBRANCH  15  17
ENDBRANCH  13  15
ENDBRANCH   6   7
ENDBRANCH   3   6
ENDBRANCH   2   3
TORSDOF 6
ENDMDL
MODEL       31
REMARK 921   NORMALIZED FREE ENERGY PREDICTED BY IDOCK:   -6.25 KCAL/MOL
REMARK 922        TOTAL FREE ENERGY PREDICTED BY IDOCK:   -9.45 KCAL/MOL
REMARK 923 INTER-LIGAND FREE ENERGY PREDICTED BY IDOCK:   -8.53 KCAL/MOL
REMARK 924 INTRA-LIGAND FREE ENERGY PREDICTED BY IDOCK:   -0.93 KCAL/MOL
REMARK 927      BINDING AFFINITY PREDICTED BY RF-SCORE:    0.00 PKD
ROOT
HETATM    1  C   UNL     1     -10.241   9.373  67.171  1.00  0.00    -0.319 C  
HETATM    2  C   UNL     1     -11.305  10.095  67.992  1.00  0.00    -0.078 C  
ENDROOT
BRANCH   2   3
HETATM    3  N   UNL     1     -11.613  11.458  67.503  1.00  0.00    -0.558 NA 
BRANCH   3   4
HETATM    4  C   UNL     1     -11.807  12.432  68.592  1.00  0.00    -0.302 C  
HETATM    5  C   UNL     1     -12.160  11.866  69.967  1.00  0.00    -0.366 C  
ENDBRANCH   3   4
BRANCH   3   6
HETATM    6  C   UNL     1     -10.602  11.935  66.525  1.00  0.00    -0.243 C  
BRANCH   6   7
HETATM    7  C   UNL     1     -10.951  13.292  65.945  1.00  0.00    -0.288 A  
HETATM    8  C   UNL     1     -12.055  13.489  65.108  1.00  0.00    -0.404 A  
HETATM    9  C   UNL     1     -12.199  14.667  64.393  1.00  0.00    -0.473 A  
HETATM   10  O   UNL     1     -12.970  12.500  64.876  1.00  0.00    -0.821 OA 
HETATM   11  C   UNL     1     -11.226  15.666  64.505  1.00  0.00    -0.337 A  
HETATM   12  H   UNL     1     -13.718  12.635  64.307  1.00  0.00     0.000 HD 
HETATM   13  C   UNL     1     -10.148  15.536  65.392  1.00  0.00    -0.352 A  
HETATM   14  C   UNL     1     -10.058  14.359  66.145  1.00  0.00    -0.323 A  
BRANCH  13  15
HETATM   15  N   UNL     1      -9.167  16.536  65.611  1.00  0.00    -0.448 NA 
HETATM   16  H   UNL     1      -8.257  16.379  65.177  1.00  0.00     0.000 HD 
BRANCH  15  17
HETATM   17  C   UNL     1      -9.308  17.735  66.370  1.00  0.00    -0.249 A  
HETATM   18  C   UNL     1      -8.315  18.187  67.270  1.00  0.00    -0.244 A  
HETATM   19  C   UNL     1      -6.995  17.680  67.284  1.00  0.00    -0.189 A  
HETATM   20  C   UNL     1      -6.103  18.035  68.287  1.00  0.00    -0.178 A  
HETATM   21  C   UNL     1      -6.518  18.917  69.272  1.00  0.00    -0.285 A  
HETATM   22 CL   UNL     1      -5.471  19.275  70.588  1.00  0.00    -0.239 Cl 
HETATM   23  C   UNL     1      -7.783  19.500  69.211  1.00  0.00    -0.194 A  
HETATM   24  C   UNL     1      -8.677  19.181  68.200  1.00  0.00    -0.324 A  
HETATM   25  N   UNL     1      -9.869  19.801  68.165  1.00  0.00    -0.402 NA 
HETATM   26  C   UNL     1     -10.750  19.436  67.210  1.00  0.00    -0.490 A  
HETATM   27  C   UNL     1     -10.534  18.404  66.322  1.00  0.00    -0.421 A  
ENDBRANCH  15  17
ENDBRANCH  13  15
ENDBRANCH   6   7
ENDBRANCH   3   6
ENDBRANCH   2   3
TORSDOF 6
ENDMDL
MODEL       32
REMARK 921   NORMALIZED FREE ENERGY PREDICTED BY IDOCK:   -6.24 KCAL/MOL
REMARK 922        TOTAL FREE ENERGY PREDICTED BY IDOCK:   -9.45 KCAL/MOL
REMARK 923 INTER-LIGAND FREE ENERGY PREDICTED BY IDOCK:   -8.18 KCAL/MOL
REMARK 924 INTRA-LIGAND FREE ENERGY PREDICTED BY IDOCK:   -1.27 KCAL/MOL
REMARK 927      BINDING AFFINITY PREDICTED BY RF-SCORE:    0.00 PKD
ROOT
HETATM    1  C   UNL     1     -10.264   5.563  69.567  1.00  0.00    -0.331 C  
HETATM    2  C   UNL     1     -11.480   6.476  69.691  1.00  0.00    -0.352 C  
ENDROOT
BRANCH   2   3
HETATM    3  N   UNL     1     -11.383   7.450  70.801  1.00  0.00    -0.275 NA 
BRANCH   3   4
HETATM    4  C   UNL     1     -11.348   6.810  72.129  1.00  0.00    -0.271 C  
HETATM    5  C   UNL     1     -10.575   7.542  73.226  1.00  0.00    -0.438 C  
ENDBRANCH   3   4
BRANCH   3   6
HETATM    6  C   UNL     1     -10.242   8.383  70.620  1.00  0.00    -0.194 C  
BRANCH   6   7
HETATM    7  C   UNL     1     -10.673   9.727  70.068  1.00  0.00    -0.326 A  
HETATM    8  C   UNL     1     -11.713  10.474  70.634  1.00  0.00    -0.357 A  
HETATM    9  C   UNL     1     -12.252  11.559  69.963  1.00  0.00    -0.354 A  
HETATM   10  O   UNL     1     -12.310  10.104  71.807  1.00  0.00    -0.388 OA 
HETATM   11  C   UNL     1     -11.754  11.908  68.703  1.00  0.00    -0.380 A  
HETATM   12  H   UNL     1     -13.016  10.610  72.190  1.00  0.00     0.000 HD 
HETATM   13  C   UNL     1     -10.662  11.232  68.139  1.00  0.00    -0.204 A  
HETATM   14  C   UNL     1     -10.100  10.175  68.865  1.00  0.00    -0.211 A  
BRANCH  13  15
HETATM   15  N   UNL     1     -10.060  11.576  66.902  1.00  0.00    -0.209 NA 
HETATM   16  H   UNL     1      -9.113  11.228  66.748  1.00  0.00     0.000 HD 
BRANCH  15  17
HETATM   17  C   UNL     1     -10.627  12.354  65.849  1.00  0.00    -0.258 A  
HETATM   18  C   UNL     1     -10.444  13.754  65.754  1.00  0.00    -0.303 A  
HETATM   19  C   UNL     1      -9.463  14.456  66.491  1.00  0.00    -0.309 A  
HETATM   20  C   UNL     1      -9.426  15.845  66.488  1.00  0.00    -0.299 A  
HETATM   21  C   UNL     1     -10.358  16.539  65.732  1.00  0.00    -0.341 A  
HETATM   22 CL   UNL     1     -10.406  18.257  65.811  1.00  0.00    -0.289 Cl 
HETATM   23  C   UNL     1     -11.264  15.854  64.924  1.00  0.00    -0.345 A  
HETATM   24  C   UNL     1     -11.296  14.468  64.890  1.00  0.00    -0.394 A  
HETATM   25  N   UNL     1     -12.163  13.857  64.065  1.00  0.00    -0.631 NA 
HETATM   26  C   UNL     1     -12.223  12.508  64.087  1.00  0.00    -0.467 A  
HETATM   27  C   UNL     1     -11.510  11.724  64.969  1.00  0.00    -0.253 A  
ENDBRANCH  15  17
ENDBRANCH  13  15
ENDBRANCH   6   7
ENDBRANCH   3   6
ENDBRANCH   2   3
TORSDOF 6
ENDMDL
MODEL       33
REMARK 921   NORMALIZED FREE ENERGY PREDICTED BY IDOCK:   -6.24 KCAL/MOL
REMARK 922        TOTAL FREE ENERGY PREDICTED BY IDOCK:   -9.44 KCAL/MOL
REMARK 923 INTER-LIGAND FREE ENERGY PREDICTED BY IDOCK:   -9.13 KCAL/MOL
REMARK 924 INTRA-LIGAND FREE ENERGY PREDICTED BY IDOCK:   -0.31 KCAL/MOL
REMARK 927      BINDING AFFINITY PREDICTED BY RF-SCORE:    0.00 PKD
ROOT
HETATM    1  C   UNL     1     -10.085  19.257  66.272  1.00  0.00    -0.519 C  
HETATM    2  C   UNL     1     -10.639  17.956  66.844  1.00  0.00    -0.265 C  
ENDROOT
BRANCH   2   3
HETATM    3  N   UNL     1      -9.614  16.905  67.037  1.00  0.00    -0.241 NA 
BRANCH   3   4
HETATM    4  C   UNL     1      -9.966  15.945  68.098  1.00  0.00    -0.222 C  
HETATM    5  C   UNL     1      -8.857  15.568  69.081  1.00  0.00    -0.253 C  
ENDBRANCH   3   4
BRANCH   3   6
HETATM    6  C   UNL     1      -9.288  16.211  65.766  1.00  0.00    -0.185 C  
BRANCH   6   7
HETATM    7  C   UNL     1     -10.302  15.141  65.412  1.00  0.00    -0.415 A  
HETATM    8  C   UNL     1     -11.355  15.370  64.518  1.00  0.00    -0.313 A  
HETATM    9  C   UNL     1     -12.403  14.470  64.415  1.00  0.00    -0.437 A  
HETATM   10  O   UNL     1     -11.451  16.528  63.800  1.00  0.00    -1.615 OA 
HETATM   11  C   UNL     1     -12.411  13.324  65.217  1.00  0.00    -0.543 A  
HETATM   12  H   UNL     1     -12.166  16.683  63.193  1.00  0.00     0.000 HD 
HETATM   13  C   UNL     1     -11.337  13.023  66.067  1.00  0.00    -0.310 A  
HETATM   14  C   UNL     1     -10.264  13.921  66.109  1.00  0.00    -0.307 A  
BRANCH  13  15
HETATM   15  N   UNL     1     -11.244  11.846  66.853  1.00  0.00    -0.308 NA 
HETATM   16  H   UNL     1     -11.050  10.980  66.349  1.00  0.00     0.000 HD 
BRANCH  15  17
HETATM   17  C   UNL     1     -11.389  11.736  68.268  1.00  0.00    -0.282 A  
HETATM   18  C   UNL     1     -11.143  10.530  68.966  1.00  0.00    -0.300 A  
HETATM   19  C   UNL     1     -10.456   9.434  68.396  1.00  0.00    -0.256 A  
HETATM   20  C   UNL     1     -10.379   8.216  69.060  1.00  0.00    -0.229 A  
HETATM   21  C   UNL     1     -10.971   8.093  70.307  1.00  0.00    -0.240 A  
HETATM   22 CL   UNL     1     -10.991   6.563  71.091  1.00  0.00    -0.299 Cl 
HETATM   23  C   UNL     1     -11.561   9.197  70.920  1.00  0.00    -0.350 A  
HETATM   24  C   UNL     1     -11.622  10.429  70.286  1.00  0.00    -0.327 A  
HETATM   25  N   UNL     1     -12.168  11.470  70.937  1.00  0.00    -0.357 NA 
HETATM   26  C   UNL     1     -12.272  12.647  70.284  1.00  0.00    -0.271 A  
HETATM   27  C   UNL     1     -11.932  12.821  68.960  1.00  0.00    -0.288 A  
ENDBRANCH  15  17
ENDBRANCH  13  15
ENDBRANCH   6   7
ENDBRANCH   3   6
ENDBRANCH   2   3
TORSDOF 6
ENDMDL
MODEL       34
REMARK 921   NORMALIZED FREE ENERGY PREDICTED BY IDOCK:   -6.23 KCAL/MOL
REMARK 922        TOTAL FREE ENERGY PREDICTED BY IDOCK:   -9.43 KCAL/MOL
REMARK 923 INTER-LIGAND FREE ENERGY PREDICTED BY IDOCK:   -8.69 KCAL/MOL
REMARK 924 INTRA-LIGAND FREE ENERGY PREDICTED BY IDOCK:   -0.74 KCAL/MOL
REMARK 927      BINDING AFFINITY PREDICTED BY RF-SCORE:    0.00 PKD
ROOT
HETATM    1  C   UNL     1     -10.046   7.694  67.034  1.00  0.00    -0.338 C  
HETATM    2  C   UNL     1     -10.470   9.078  66.553  1.00  0.00    -0.122 C  
ENDROOT
BRANCH   2   3
HETATM    3  N   UNL     1      -9.474   9.735  65.676  1.00  0.00    -0.226 NA 
BRANCH   3   4
HETATM    4  C   UNL     1      -8.509   8.789  65.088  1.00  0.00    -0.174 C  
HETATM    5  C   UNL     1      -8.203   8.953  63.599  1.00  0.00    -0.172 C  
ENDBRANCH   3   4
BRANCH   3   6
HETATM    6  C   UNL     1     -10.122  10.566  64.630  1.00  0.00    -0.338 C  
BRANCH   6   7
HETATM    7  C   UNL     1     -11.029  11.631  65.214  1.00  0.00    -0.327 A  
HETATM    8  C   UNL     1     -12.126  12.150  64.515  1.00  0.00    -0.334 A  
HETATM    9  C   UNL     1     -12.773  13.291  64.961  1.00  0.00    -0.438 A  
HETATM   10  O   UNL     1     -12.531  11.627  63.319  1.00  0.00    -0.854 OA 
HETATM   11  C   UNL     1     -12.322  13.933  66.119  1.00  0.00    -0.504 A  
HETATM   12  H   UNL     1     -13.274  11.980  62.845  1.00  0.00     0.000 HD 
HETATM   13  C   UNL     1     -11.277  13.399  66.887  1.00  0.00    -0.308 A  
HETATM   14  C   UNL     1     -10.678  12.214  66.444  1.00  0.00    -0.292 A  
BRANCH  13  15
HETATM   15  N   UNL     1     -10.816  13.955  68.108  1.00  0.00    -0.243 NA 
HETATM   16  H   UNL     1      -9.866  14.328  68.105  1.00  0.00     0.000 HD 
BRANCH  15  17
HETATM   17  C   UNL     1     -11.530  14.052  69.339  1.00  0.00    -0.290 A  
HETATM   18  C   UNL     1     -11.873  12.917  70.111  1.00  0.00    -0.319 A  
HETATM   19  C   UNL     1     -11.298  11.642  69.907  1.00  0.00    -0.230 A  
HETATM   20  C   UNL     1     -11.779  10.525  70.578  1.00  0.00    -0.443 A  
HETATM   21  C   UNL     1     -12.827  10.680  71.473  1.00  0.00    -0.462 A  
HETATM   22 CL   UNL     1     -13.517   9.294  72.221  1.00  0.00    -0.517 Cl 
HETATM   23  C   UNL     1     -13.332  11.949  71.755  1.00  0.00    -0.334 A  
HETATM   24  C   UNL     1     -12.844  13.079  71.118  1.00  0.00    -0.245 A  
HETATM   25  N   UNL     1     -13.339  14.282  71.454  1.00  0.00    -0.341 NA 
HETATM   26  C   UNL     1     -12.895  15.366  70.783  1.00  0.00    -0.466 A  
HETATM   27  C   UNL     1     -12.029  15.302  69.713  1.00  0.00    -0.374 A  
ENDBRANCH  15  17
ENDBRANCH  13  15
ENDBRANCH   6   7
ENDBRANCH   3   6
ENDBRANCH   2   3
TORSDOF 6
ENDMDL
MODEL       35
REMARK 921   NORMALIZED FREE ENERGY PREDICTED BY IDOCK:   -6.23 KCAL/MOL
REMARK 922        TOTAL FREE ENERGY PREDICTED BY IDOCK:   -9.43 KCAL/MOL
REMARK 923 INTER-LIGAND FREE ENERGY PREDICTED BY IDOCK:   -8.35 KCAL/MOL
REMARK 924 INTRA-LIGAND FREE ENERGY PREDICTED BY IDOCK:   -1.08 KCAL/MOL
REMARK 927      BINDING AFFINITY PREDICTED BY RF-SCORE:    0.00 PKD
ROOT
HETATM    1  C   UNL     1      -9.323  19.835  65.983  1.00  0.00    -0.367 C  
HETATM    2  C   UNL     1     -10.316  18.779  66.458  1.00  0.00    -0.424 C  
ENDROOT
BRANCH   2   3
HETATM    3  N   UNL     1      -9.893  17.390  66.170  1.00  0.00    -0.447 NA 
BRANCH   3   4
HETATM    4  C   UNL     1      -8.443  17.183  66.333  1.00  0.00    -0.272 C  
HETATM    5  C   UNL     1      -7.968  16.676  67.694  1.00  0.00    -0.188 C  
ENDBRANCH   3   4
BRANCH   3   6
HETATM    6  C   UNL     1     -10.671  16.401  66.958  1.00  0.00    -0.217 C  
BRANCH   6   7
HETATM    7  C   UNL     1     -11.048  15.178  66.145  1.00  0.00    -0.311 A  
HETATM    8  C   UNL     1     -11.374  15.251  64.785  1.00  0.00    -0.391 A  
HETATM    9  C   UNL     1     -11.958  14.174  64.139  1.00  0.00    -0.421 A  
HETATM   10  O   UNL     1     -11.235  16.409  64.072  1.00  0.00    -1.333 OA 
HETATM   11  C   UNL     1     -12.230  13.004  64.855  1.00  0.00    -0.490 A  
HETATM   12  H   UNL     1     -11.457  16.458  63.150  1.00  0.00     0.000 HD 
HETATM   13  C   UNL     1     -11.847  12.866  66.197  1.00  0.00    -0.429 A  
HETATM   14  C   UNL     1     -11.206  13.950  66.810  1.00  0.00    -0.328 A  
BRANCH  13  15
HETATM   15  N   UNL     1     -12.024  11.686  66.963  1.00  0.00    -0.539 NA 
HETATM   16  H   UNL     1     -12.934  11.230  66.887  1.00  0.00     0.000 HD 
BRANCH  15  17
HETATM   17  C   UNL     1     -11.075  11.064  67.828  1.00  0.00    -0.295 A  
HETATM   18  C   UNL     1     -10.103  10.150  67.358  1.00  0.00    -0.251 A  
HETATM   19  C   UNL     1      -9.785   9.996  65.989  1.00  0.00    -0.301 A  
HETATM   20  C   UNL     1      -8.944   8.977  65.561  1.00  0.00    -0.252 A  
HETATM   21  C   UNL     1      -8.400   8.116  66.502  1.00  0.00    -0.113 A  
HETATM   22 CL   UNL     1      -7.456   6.776  65.982  1.00  0.00    -0.079 Cl 
HETATM   23  C   UNL     1      -8.628   8.322  67.862  1.00  0.00    -0.132 A  
HETATM   24  C   UNL     1      -9.440   9.352  68.310  1.00  0.00    -0.137 A  
HETATM   25  N   UNL     1      -9.596   9.530  69.633  1.00  0.00    -0.188 NA 
HETATM   26  C   UNL     1     -10.435  10.500  70.052  1.00  0.00    -0.109 A  
HETATM   27  C   UNL     1     -11.210  11.262  69.204  1.00  0.00    -0.337 A  
ENDBRANCH  15  17
ENDBRANCH  13  15
ENDBRANCH   6   7
ENDBRANCH   3   6
ENDBRANCH   2   3
TORSDOF 6
ENDMDL
MODEL       36
REMARK 921   NORMALIZED FREE ENERGY PREDICTED BY IDOCK:   -6.21 KCAL/MOL
REMARK 922        TOTAL FREE ENERGY PREDICTED BY IDOCK:   -9.40 KCAL/MOL
REMARK 923 INTER-LIGAND FREE ENERGY PREDICTED BY IDOCK:   -8.18 KCAL/MOL
REMARK 924 INTRA-LIGAND FREE ENERGY PREDICTED BY IDOCK:   -1.23 KCAL/MOL
REMARK 927      BINDING AFFINITY PREDICTED BY RF-SCORE:    0.00 PKD
ROOT
HETATM    1  C   UNL     1      -9.373  15.037  67.964  1.00  0.00    -0.185 C  
HETATM    2  C   UNL     1     -10.864  15.349  67.891  1.00  0.00    -0.300 C  
ENDROOT
BRANCH   2   3
HETATM    3  N   UNL     1     -11.730  14.160  68.061  1.00  0.00    -0.340 NA 
BRANCH   3   4
HETATM    4  C   UNL     1     -12.284  13.664  66.788  1.00  0.00    -0.369 C  
HETATM    5  C   UNL     1     -11.599  12.448  66.166  1.00  0.00    -0.452 C  
ENDBRANCH   3   4
BRANCH   3   6
HETATM    6  C   UNL     1     -11.043  13.078  68.809  1.00  0.00    -0.270 C  
BRANCH   6   7
HETATM    7  C   UNL     1     -11.954  12.397  69.811  1.00  0.00    -0.359 A  
HETATM    8  C   UNL     1     -12.613  13.100  70.827  1.00  0.00    -0.260 A  
HETATM    9  C   UNL     1     -13.223  12.426  71.873  1.00  0.00    -0.486 A  
HETATM   10  O   UNL     1     -12.588  14.465  70.892  1.00  0.00    -0.310 OA 
HETATM   11  C   UNL     1     -13.175  11.029  71.916  1.00  0.00    -0.503 A  
HETATM   12  H   UNL     1     -13.035  14.941  71.581  1.00  0.00     0.000 HD 
HETATM   13  C   UNL     1     -12.592  10.288  70.877  1.00  0.00    -0.371 A  
HETATM   14  C   UNL     1     -12.033  10.993  69.804  1.00  0.00    -0.428 A  
BRANCH  13  15
HETATM   15  N   UNL     1     -12.571   8.872  70.817  1.00  0.00    -0.487 NA 
HETATM   16  H   UNL     1     -13.328   8.430  70.295  1.00  0.00     0.000 HD 
BRANCH  15  17
HETATM   17  C   UNL     1     -11.612   7.995  71.405  1.00  0.00    -0.267 A  
HETATM   18  C   UNL     1     -10.981   6.959  70.676  1.00  0.00    -0.304 A  
HETATM   19  C   UNL     1     -11.005   6.883  69.265  1.00  0.00    -0.260 A  
HETATM   20  C   UNL     1     -10.513   5.766  68.601  1.00  0.00    -0.298 A  
HETATM   21  C   UNL     1      -9.974   4.727  69.345  1.00  0.00    -0.199 A  
HETATM   22 CL   UNL     1      -9.471   3.287  68.551  1.00  0.00    -0.234 Cl 
HETATM   23  C   UNL     1      -9.855   4.838  70.729  1.00  0.00    -0.280 A  
HETATM   24  C   UNL     1     -10.313   5.958  71.406  1.00  0.00    -0.218 A  
HETATM   25  N   UNL     1     -10.138   6.031  72.737  1.00  0.00    -0.180 NA 
HETATM   26  C   UNL     1     -10.642   7.100  73.389  1.00  0.00    -0.382 A  
HETATM   27  C   UNL     1     -11.402   8.078  72.784  1.00  0.00    -0.439 A  
ENDBRANCH  15  17
ENDBRANCH  13  15
ENDBRANCH   6   7
ENDBRANCH   3   6
ENDBRANCH   2   3
TORSDOF 6
ENDMDL
MODEL       37
REMARK 921   NORMALIZED FREE ENERGY PREDICTED BY IDOCK:   -6.21 KCAL/MOL
REMARK 922        TOTAL FREE ENERGY PREDICTED BY IDOCK:   -9.40 KCAL/MOL
REMARK 923 INTER-LIGAND FREE ENERGY PREDICTED BY IDOCK:   -8.65 KCAL/MOL
REMARK 924 INTRA-LIGAND FREE ENERGY PREDICTED BY IDOCK:   -0.75 KCAL/MOL
REMARK 927      BINDING AFFINITY PREDICTED BY RF-SCORE:    0.00 PKD
ROOT
HETATM    1  C   UNL     1     -10.512   8.267  67.041  1.00  0.00    -0.384 C  
HETATM    2  C   UNL     1      -9.812   7.803  68.315  1.00  0.00    -0.167 C  
ENDROOT
BRANCH   2   3
HETATM    3  N   UNL     1     -10.737   7.291  69.351  1.00  0.00    -0.237 NA 
BRANCH   3   4
HETATM    4  C   UNL     1     -10.883   5.824  69.320  1.00  0.00    -0.303 C  
HETATM    5  C   UNL     1     -10.402   5.058  70.552  1.00  0.00    -0.285 C  
ENDBRANCH   3   4
BRANCH   3   6
HETATM    6  C   UNL     1     -10.368   7.769  70.707  1.00  0.00    -0.203 C  
BRANCH   6   7
HETATM    7  C   UNL     1     -11.353   8.783  71.253  1.00  0.00    -0.357 A  
HETATM    8  C   UNL     1     -12.435   8.419  72.063  1.00  0.00    -0.359 A  
HETATM    9  C   UNL     1     -13.454   9.319  72.329  1.00  0.00    -0.548 A  
HETATM   10  O   UNL     1     -12.590   7.143  72.528  1.00  0.00    -0.489 OA 
HETATM   11  C   UNL     1     -13.402  10.604  71.778  1.00  0.00    -0.437 A  
HETATM   12  H   UNL     1     -13.325   6.896  73.077  1.00  0.00     0.000 HD 
HETATM   13  C   UNL     1     -12.296  11.029  71.027  1.00  0.00    -0.385 A  
HETATM   14  C   UNL     1     -11.254  10.117  70.821  1.00  0.00    -0.414 A  
BRANCH  13  15
HETATM   15  N   UNL     1     -12.142  12.337  70.500  1.00  0.00    -0.474 NA 
HETATM   16  H   UNL     1     -12.418  13.106  71.111  1.00  0.00     0.000 HD 
BRANCH  15  17
HETATM   17  C   UNL     1     -11.644  12.698  69.213  1.00  0.00    -0.318 A  
HETATM   18  C   UNL     1     -11.269  14.023  68.887  1.00  0.00    -0.303 A  
HETATM   19  C   UNL     1     -11.066  15.029  69.859  1.00  0.00    -0.298 A  
HETATM   20  C   UNL     1     -10.857  16.351  69.486  1.00  0.00    -0.338 A  
HETATM   21  C   UNL     1     -10.831  16.671  68.137  1.00  0.00    -0.348 A  
HETATM   22 CL   UNL     1     -10.695  18.317  67.657  1.00  0.00    -0.423 Cl 
HETATM   23  C   UNL     1     -10.929  15.670  67.172  1.00  0.00    -0.270 A  
HETATM   24  C   UNL     1     -11.107  14.341  67.525  1.00  0.00    -0.298 A  
HETATM   25  N   UNL     1     -11.158  13.411  66.556  1.00  0.00    -0.294 NA 
HETATM   26  C   UNL     1     -11.390  12.130  66.913  1.00  0.00    -0.343 A  
HETATM   27  C   UNL     1     -11.667  11.732  68.204  1.00  0.00    -0.377 A  
ENDBRANCH  15  17
ENDBRANCH  13  15
ENDBRANCH   6   7
ENDBRANCH   3   6
ENDBRANCH   2   3
TORSDOF 6
ENDMDL
MODEL       38
REMARK 921   NORMALIZED FREE ENERGY PREDICTED BY IDOCK:   -6.20 KCAL/MOL
REMARK 922        TOTAL FREE ENERGY PREDICTED BY IDOCK:   -9.39 KCAL/MOL
REMARK 923 INTER-LIGAND FREE ENERGY PREDICTED BY IDOCK:   -8.09 KCAL/MOL
REMARK 924 INTRA-LIGAND FREE ENERGY PREDICTED BY IDOCK:   -1.29 KCAL/MOL
REMARK 927      BINDING AFFINITY PREDICTED BY RF-SCORE:    0.00 PKD
ROOT
HETATM    1  C   UNL     1     -11.932  13.998  66.425  1.00  0.00    -0.462 C  
HETATM    2  C   UNL     1     -11.037  15.026  67.108  1.00  0.00    -0.332 C  
ENDROOT
BRANCH   2   3
HETATM    3  N   UNL     1     -10.469  14.561  68.394  1.00  0.00    -0.240 NA 
BRANCH   3   4
HETATM    4  C   UNL     1      -9.010  14.352  68.339  1.00  0.00    -0.188 C  
HETATM    5  C   UNL     1      -8.520  13.125  67.570  1.00  0.00    -0.198 C  
ENDBRANCH   3   4
BRANCH   3   6
HETATM    6  C   UNL     1     -10.844  15.455  69.519  1.00  0.00    -0.267 C  
BRANCH   6   7
HETATM    7  C   UNL     1     -11.819  14.802  70.478  1.00  0.00    -0.362 A  
HETATM    8  C   UNL     1     -12.240  15.423  71.660  1.00  0.00    -0.375 A  
HETATM    9  C   UNL     1     -12.919  14.706  72.633  1.00  0.00    -0.534 A  
HETATM   10  O   UNL     1     -11.909  16.716  71.953  1.00  0.00    -0.654 OA 
HETATM   11  C   UNL     1     -13.180  13.347  72.432  1.00  0.00    -0.564 A  
HETATM   12  H   UNL     1     -12.194  17.137  72.755  1.00  0.00     0.000 HD 
HETATM   13  C   UNL     1     -12.842  12.710  71.229  1.00  0.00    -0.250 A  
HETATM   14  C   UNL     1     -12.209  13.472  70.240  1.00  0.00    -0.417 A  
BRANCH  13  15
HETATM   15  N   UNL     1     -13.141  11.357  70.929  1.00  0.00    -0.097 NA 
HETATM   16  H   UNL     1     -14.104  11.156  70.658  1.00  0.00     0.000 HD 
BRANCH  15  17
HETATM   17  C   UNL     1     -12.247  10.245  70.961  1.00  0.00    -0.384 A  
HETATM   18  C   UNL     1     -11.480   9.853  69.840  1.00  0.00    -0.234 A  
HETATM   19  C   UNL     1     -11.294  10.675  68.705  1.00  0.00    -0.345 A  
HETATM   20  C   UNL     1     -10.671  10.187  67.563  1.00  0.00    -0.347 A  
HETATM   21  C   UNL     1     -10.211   8.879  67.557  1.00  0.00    -0.248 A  
HETATM   22 CL   UNL     1      -9.546   8.220  66.115  1.00  0.00    -0.258 Cl 
HETATM   23  C   UNL     1     -10.299   8.095  68.706  1.00  0.00    -0.220 A  
HETATM   24  C   UNL     1     -10.891   8.574  69.864  1.00  0.00    -0.205 A  
HETATM   25  N   UNL     1     -10.916   7.790  70.956  1.00  0.00    -0.240 NA 
HETATM   26  C   UNL     1     -11.548   8.249  72.057  1.00  0.00    -0.340 A  
HETATM   27  C   UNL     1     -12.245   9.437  72.101  1.00  0.00    -0.336 A  
ENDBRANCH  15  17
ENDBRANCH  13  15
ENDBRANCH   6   7
ENDBRANCH   3   6
ENDBRANCH   2   3
TORSDOF 6
ENDMDL
MODEL       39
REMARK 921   NORMALIZED FREE ENERGY PREDICTED BY IDOCK:   -6.20 KCAL/MOL
REMARK 922        TOTAL FREE ENERGY PREDICTED BY IDOCK:   -9.39 KCAL/MOL
REMARK 923 INTER-LIGAND FREE ENERGY PREDICTED BY IDOCK:   -8.31 KCAL/MOL
REMARK 924 INTRA-LIGAND FREE ENERGY PREDICTED BY IDOCK:   -1.08 KCAL/MOL
REMARK 927      BINDING AFFINITY PREDICTED BY RF-SCORE:    0.00 PKD
ROOT
HETATM    1  C   UNL     1     -10.789  19.135  67.172  1.00  0.00    -0.507 C  
HETATM    2  C   UNL     1      -9.664  18.652  66.261  1.00  0.00    -0.307 C  
ENDROOT
BRANCH   2   3
HETATM    3  N   UNL     1      -9.466  17.185  66.286  1.00  0.00    -0.365 NA 
BRANCH   3   4
HETATM    4  C   UNL     1      -8.216  16.783  66.955  1.00  0.00    -0.194 C  
HETATM    5  C   UNL     1      -8.333  16.295  68.399  1.00  0.00    -0.190 C  
ENDBRANCH   3   4
BRANCH   3   6
HETATM    6  C   UNL     1     -10.638  16.479  66.862  1.00  0.00    -0.238 C  
BRANCH   6   7
HETATM    7  C   UNL     1     -10.974  15.205  66.113  1.00  0.00    -0.331 A  
HETATM    8  C   UNL     1     -11.469  15.211  64.803  1.00  0.00    -0.383 A  
HETATM    9  C   UNL     1     -12.006  14.063  64.245  1.00  0.00    -0.463 A  
HETATM   10  O   UNL     1     -11.547  16.360  64.068  1.00  0.00    -1.447 OA 
HETATM   11  C   UNL     1     -12.058  12.887  65.000  1.00  0.00    -0.480 A  
HETATM   12  H   UNL     1     -11.883  16.365  63.180  1.00  0.00     0.000 HD 
HETATM   13  C   UNL     1     -11.502  12.822  66.285  1.00  0.00    -0.354 A  
HETATM   14  C   UNL     1     -10.914  13.982  66.804  1.00  0.00    -0.298 A  
BRANCH  13  15
HETATM   15  N   UNL     1     -11.453  11.647  67.078  1.00  0.00    -0.490 NA 
HETATM   16  H   UNL     1     -12.351  11.230  67.323  1.00  0.00     0.000 HD 
BRANCH  15  17
HETATM   17  C   UNL     1     -10.291  10.983  67.571  1.00  0.00    -0.198 A  
HETATM   18  C   UNL     1     -10.304  10.201  68.750  1.00  0.00    -0.211 A  
HETATM   19  C   UNL     1     -11.495   9.760  69.371  1.00  0.00    -0.015 A  
HETATM   20  C   UNL     1     -11.465   9.133  70.611  1.00  0.00    -0.310 A  
HETATM   21  C   UNL     1     -10.241   8.926  71.228  1.00  0.00    -0.291 A  
HETATM   22 CL   UNL     1     -10.192   8.263  72.814  1.00  0.00    -0.364 Cl 
HETATM   23  C   UNL     1      -9.056   9.266  70.577  1.00  0.00    -0.307 A  
HETATM   24  C   UNL     1      -9.064   9.864  69.327  1.00  0.00    -0.189 A  
HETATM   25  N   UNL     1      -7.893  10.137  68.727  1.00  0.00    -0.092 NA 
HETATM   26  C   UNL     1      -7.918  10.773  67.537  1.00  0.00    -0.110 A  
HETATM   27  C   UNL     1      -9.070  11.237  66.941  1.00  0.00    -0.172 A  
ENDBRANCH  15  17
ENDBRANCH  13  15
ENDBRANCH   6   7
ENDBRANCH   3   6
ENDBRANCH   2   3
TORSDOF 6
ENDMDL
MODEL       40
REMARK 921   NORMALIZED FREE ENERGY PREDICTED BY IDOCK:   -6.19 KCAL/MOL
REMARK 922        TOTAL FREE ENERGY PREDICTED BY IDOCK:   -9.37 KCAL/MOL
REMARK 923 INTER-LIGAND FREE ENERGY PREDICTED BY IDOCK:   -8.21 KCAL/MOL
REMARK 924 INTRA-LIGAND FREE ENERGY PREDICTED BY IDOCK:   -1.16 KCAL/MOL
REMARK 927      BINDING AFFINITY PREDICTED BY RF-SCORE:    0.00 PKD
ROOT
HETATM    1  C   UNL     1     -10.905  15.416  64.764  1.00  0.00    -0.385 C  
HETATM    2  C   UNL     1     -12.266  14.776  64.509  1.00  0.00    -0.428 C  
ENDROOT
BRANCH   2   3
HETATM    3  N   UNL     1     -12.438  13.461  65.166  1.00  0.00    -0.505 NA 
BRANCH   3   4
HETATM    4  C   UNL     1     -12.731  12.374  64.213  1.00  0.00    -0.342 C  
HETATM    5  C   UNL     1     -11.538  11.758  63.484  1.00  0.00    -0.487 C  
ENDBRANCH   3   4
BRANCH   3   6
HETATM    6  C   UNL     1     -11.283  13.121  66.034  1.00  0.00    -0.292 C  
BRANCH   6   7
HETATM    7  C   UNL     1     -11.697  12.827  67.462  1.00  0.00    -0.422 A  
HETATM    8  C   UNL     1     -11.918  13.839  68.404  1.00  0.00    -0.360 A  
HETATM    9  C   UNL     1     -12.039  13.538  69.751  1.00  0.00    -0.381 A  
HETATM   10  O   UNL     1     -11.912  15.161  68.056  1.00  0.00    -0.489 OA 
HETATM   11  C   UNL     1     -11.934  12.208  70.173  1.00  0.00    -0.394 A  
HETATM   12  H   UNL     1     -12.061  15.847  68.696  1.00  0.00     0.000 HD 
HETATM   13  C   UNL     1     -11.791  11.161  69.252  1.00  0.00    -0.352 A  
HETATM   14  C   UNL     1     -11.729  11.489  67.892  1.00  0.00    -0.317 A  
BRANCH  13  15
HETATM   15  N   UNL     1     -11.751   9.787  69.601  1.00  0.00    -0.451 NA 
HETATM   16  H   UNL     1     -12.071   9.130  68.889  1.00  0.00     0.000 HD 
BRANCH  15  17
HETATM   17  C   UNL     1     -11.314   9.220  70.835  1.00  0.00    -0.308 A  
HETATM   18  C   UNL     1      -9.948   9.012  71.135  1.00  0.00    -0.365 A  
HETATM   19  C   UNL     1      -8.896   9.604  70.400  1.00  0.00    -0.227 A  
HETATM   20  C   UNL     1      -7.574   9.245  70.627  1.00  0.00    -0.161 A  
HETATM   21  C   UNL     1      -7.293   8.305  71.607  1.00  0.00    -0.091 A  
HETATM   22 CL   UNL     1      -5.677   7.758  71.821  1.00  0.00    -0.035 Cl 
HETATM   23  C   UNL     1      -8.314   7.792  72.406  1.00  0.00    -0.164 A  
HETATM   24  C   UNL     1      -9.637   8.161  72.214  1.00  0.00    -0.251 A  
HETATM   25  N   UNL     1     -10.577   7.665  73.036  1.00  0.00    -0.347 NA 
HETATM   26  C   UNL     1     -11.866   7.988  72.799  1.00  0.00    -0.243 A  
HETATM   27  C   UNL     1     -12.284   8.725  71.711  1.00  0.00    -0.415 A  
ENDBRANCH  15  17
ENDBRANCH  13  15
ENDBRANCH   6   7
ENDBRANCH   3   6
ENDBRANCH   2   3
TORSDOF 6
ENDMDL
MODEL       41
REMARK 921   NORMALIZED FREE ENERGY PREDICTED BY IDOCK:   -6.15 KCAL/MOL
REMARK 922        TOTAL FREE ENERGY PREDICTED BY IDOCK:   -9.32 KCAL/MOL
REMARK 923 INTER-LIGAND FREE ENERGY PREDICTED BY IDOCK:   -8.24 KCAL/MOL
REMARK 924 INTRA-LIGAND FREE ENERGY PREDICTED BY IDOCK:   -1.08 KCAL/MOL
REMARK 927      BINDING AFFINITY PREDICTED BY RF-SCORE:    0.00 PKD
ROOT
HETATM    1  C   UNL     1     -11.918  16.439  72.653  1.00  0.00    -0.595 C  
HETATM    2  C   UNL     1     -11.616  16.087  71.200  1.00  0.00    -0.443 C  
ENDROOT
BRANCH   2   3
HETATM    3  N   UNL     1     -12.391  14.932  70.693  1.00  0.00    -0.320 NA 
BRANCH   3   4
HETATM    4  C   UNL     1     -13.711  14.796  71.335  1.00  0.00    -0.431 C  
HETATM    5  C   UNL     1     -13.977  13.497  72.095  1.00  0.00    -0.575 C  
ENDBRANCH   3   4
BRANCH   3   6
HETATM    6  C   UNL     1     -12.509  14.953  69.213  1.00  0.00     0.012 C  
BRANCH   6   7
HETATM    7  C   UNL     1     -11.849  13.755  68.561  1.00  0.00    -0.406 A  
HETATM    8  C   UNL     1     -11.966  13.483  67.193  1.00  0.00    -0.381 A  
HETATM    9  C   UNL     1     -11.576  12.258  66.678  1.00  0.00    -0.438 A  
HETATM   10  O   UNL     1     -12.567  14.361  66.333  1.00  0.00    -0.496 OA 
HETATM   11  C   UNL     1     -11.064  11.280  67.537  1.00  0.00    -0.346 A  
HETATM   12  H   UNL     1     -12.647  14.176  65.405  1.00  0.00     0.000 HD 
HETATM   13  C   UNL     1     -10.859  11.543  68.900  1.00  0.00    -0.218 A  
HETATM   14  C   UNL     1     -11.209  12.810  69.382  1.00  0.00    -0.198 A  
BRANCH  13  15
HETATM   15  N   UNL     1     -10.278  10.627  69.813  1.00  0.00    -0.436 NA 
HETATM   16  H   UNL     1      -9.308  10.803  70.074  1.00  0.00     0.000 HD 
BRANCH  15  17
HETATM   17  C   UNL     1     -10.896   9.487  70.407  1.00  0.00    -0.282 A  
HETATM   18  C   UNL     1     -10.492   8.163  70.114  1.00  0.00    -0.225 A  
HETATM   19  C   UNL     1      -9.277   7.852  69.462  1.00  0.00    -0.152 A  
HETATM   20  C   UNL     1      -8.998   6.555  69.052  1.00  0.00    -0.129 A  
HETATM   21  C   UNL     1      -9.924   5.556  69.309  1.00  0.00    -0.196 A  
HETATM   22 CL   UNL     1      -9.652   3.970  68.704  1.00  0.00    -0.214 Cl 
HETATM   23  C   UNL     1     -11.077   5.834  70.041  1.00  0.00    -0.329 A  
HETATM   24  C   UNL     1     -11.359   7.117  70.485  1.00  0.00    -0.297 A  
HETATM   25  N   UNL     1     -12.466   7.324  71.219  1.00  0.00    -0.361 NA 
HETATM   26  C   UNL     1     -12.756   8.588  71.594  1.00  0.00    -0.332 A  
HETATM   27  C   UNL     1     -12.033   9.690  71.194  1.00  0.00    -0.452 A  
ENDBRANCH  15  17
ENDBRANCH  13  15
ENDBRANCH   6   7
ENDBRANCH   3   6
ENDBRANCH   2   3
TORSDOF 6
ENDMDL
MODEL       42
REMARK 921   NORMALIZED FREE ENERGY PREDICTED BY IDOCK:   -6.13 KCAL/MOL
REMARK 922        TOTAL FREE ENERGY PREDICTED BY IDOCK:   -9.29 KCAL/MOL
REMARK 923 INTER-LIGAND FREE ENERGY PREDICTED BY IDOCK:   -8.23 KCAL/MOL
REMARK 924 INTRA-LIGAND FREE ENERGY PREDICTED BY IDOCK:   -1.07 KCAL/MOL
REMARK 927      BINDING AFFINITY PREDICTED BY RF-SCORE:    0.00 PKD
ROOT
HETATM    1  C   UNL     1     -11.009  15.546  64.874  1.00  0.00    -0.452 C  
HETATM    2  C   UNL     1     -12.338  14.839  64.629  1.00  0.00    -0.333 C  
ENDROOT
BRANCH   2   3
HETATM    3  N   UNL     1     -12.415  13.488  65.230  1.00  0.00    -0.476 NA 
BRANCH   3   4
HETATM    4  C   UNL     1     -12.520  12.415  64.225  1.00  0.00    -0.437 C  
HETATM    5  C   UNL     1     -11.233  11.666  63.881  1.00  0.00    -0.479 C  
ENDBRANCH   3   4
BRANCH   3   6
HETATM    6  C   UNL     1     -11.296  13.239  66.173  1.00  0.00    -0.309 C  
BRANCH   6   7
HETATM    7  C   UNL     1     -11.777  12.940  67.579  1.00  0.00    -0.422 A  
HETATM    8  C   UNL     1     -12.086  13.951  68.498  1.00  0.00    -0.296 A  
HETATM    9  C   UNL     1     -12.270  13.655  69.839  1.00  0.00    -0.367 A  
HETATM   10  O   UNL     1     -12.109  15.269  68.138  1.00  0.00    -0.499 OA 
HETATM   11  C   UNL     1     -12.140  12.334  70.279  1.00  0.00    -0.376 A  
HETATM   12  H   UNL     1     -12.318  15.954  68.761  1.00  0.00     0.000 HD 
HETATM   13  C   UNL     1     -11.908  11.286  69.377  1.00  0.00    -0.355 A  
HETATM   14  C   UNL     1     -11.783  11.605  68.019  1.00  0.00    -0.351 A  
BRANCH  13  15
HETATM   15  N   UNL     1     -11.837   9.917  69.741  1.00  0.00    -0.463 NA 
HETATM   16  H   UNL     1     -12.715   9.397  69.718  1.00  0.00     0.000 HD 
BRANCH  15  17
HETATM   17  C   UNL     1     -10.679   9.185  70.137  1.00  0.00    -0.233 A  
HETATM   18  C   UNL     1     -10.755   7.982  70.877  1.00  0.00    -0.240 A  
HETATM   19  C   UNL     1     -11.951   7.245  71.032  1.00  0.00    -0.362 A  
HETATM   20  C   UNL     1     -12.015   6.161  71.899  1.00  0.00    -0.278 A  
HETATM   21  C   UNL     1     -10.876   5.795  72.600  1.00  0.00    -0.254 A  
HETATM   22 CL   UNL     1     -10.966   4.534  73.766  1.00  0.00    -0.363 Cl 
HETATM   23  C   UNL     1      -9.668   6.452  72.377  1.00  0.00    -0.159 A  
HETATM   24  C   UNL     1      -9.577   7.517  71.494  1.00  0.00    -0.154 A  
HETATM   25  N   UNL     1      -8.380   8.092  71.287  1.00  0.00    -0.112 NA 
HETATM   26  C   UNL     1      -8.320   9.164  70.469  1.00  0.00    -0.194 A  
HETATM   27  C   UNL     1      -9.426   9.760  69.903  1.00  0.00    -0.264 A  
ENDBRANCH  15  17
ENDBRANCH  13  15
ENDBRANCH   6   7
ENDBRANCH   3   6
ENDBRANCH   2   3
TORSDOF 6
ENDMDL
MODEL       43
REMARK 921   NORMALIZED FREE ENERGY PREDICTED BY IDOCK:   -6.12 KCAL/MOL
REMARK 922        TOTAL FREE ENERGY PREDICTED BY IDOCK:   -9.28 KCAL/MOL
REMARK 923 INTER-LIGAND FREE ENERGY PREDICTED BY IDOCK:   -8.11 KCAL/MOL
REMARK 924 INTRA-LIGAND FREE ENERGY PREDICTED BY IDOCK:   -1.18 KCAL/MOL
REMARK 927      BINDING AFFINITY PREDICTED BY RF-SCORE:    0.00 PKD
ROOT
HETATM    1  C   UNL     1     -10.841  19.461  67.266  1.00  0.00    -0.561 C  
HETATM    2  C   UNL     1     -10.375  18.408  68.266  1.00  0.00    -0.355 C  
ENDROOT
BRANCH   2   3
HETATM    3  N   UNL     1     -10.720  17.022  67.877  1.00  0.00    -0.362 NA 
BRANCH   3   4
HETATM    4  C   UNL     1     -10.423  16.729  66.463  1.00  0.00    -0.258 C  
HETATM    5  C   UNL     1      -9.308  15.720  66.188  1.00  0.00    -0.381 C  
ENDBRANCH   3   4
BRANCH   3   6
HETATM    6  C   UNL     1     -10.094  16.022  68.779  1.00  0.00    -0.225 C  
BRANCH   6   7
HETATM    7  C   UNL     1     -11.109  15.076  69.389  1.00  0.00    -0.290 A  
HETATM    8  C   UNL     1     -11.716  15.320  70.627  1.00  0.00    -0.332 A  
HETATM    9  C   UNL     1     -12.432  14.326  71.272  1.00  0.00    -0.439 A  
HETATM   10  O   UNL     1     -11.538  16.499  71.296  1.00  0.00    -0.615 OA 
HETATM   11  C   UNL     1     -12.544  13.062  70.683  1.00  0.00    -0.270 A  
HETATM   12  H   UNL     1     -11.950  16.664  72.136  1.00  0.00     0.000 HD 
HETATM   13  C   UNL     1     -12.016  12.803  69.410  1.00  0.00    -0.263 A  
HETATM   14  C   UNL     1     -11.347  13.844  68.755  1.00  0.00    -0.310 A  
BRANCH  13  15
HETATM   15  N   UNL     1     -12.155  11.572  68.721  1.00  0.00    -0.471 NA 
HETATM   16  H   UNL     1     -13.106  11.291  68.483  1.00  0.00     0.000 HD 
BRANCH  15  17
HETATM   17  C   UNL     1     -11.114  10.681  68.323  1.00  0.00    -0.279 A  
HETATM   18  C   UNL     1     -10.613  10.639  67.001  1.00  0.00    -0.317 A  
HETATM   19  C   UNL     1     -10.868  11.650  66.046  1.00  0.00    -0.339 A  
HETATM   20  C   UNL     1     -10.493  11.490  64.718  1.00  0.00    -0.354 A  
HETATM   21  C   UNL     1      -9.842  10.325  64.341  1.00  0.00    -0.305 A  
HETATM   22 CL   UNL     1      -9.479  10.054  62.682  1.00  0.00    -0.291 Cl 
HETATM   23  C   UNL     1      -9.498   9.368  65.294  1.00  0.00    -0.296 A  
HETATM   24  C   UNL     1      -9.837   9.524  66.629  1.00  0.00    -0.231 A  
HETATM   25  N   UNL     1      -9.448   8.590  67.514  1.00  0.00    -0.146 NA 
HETATM   26  C   UNL     1      -9.836   8.728  68.799  1.00  0.00    -0.171 A  
HETATM   27  C   UNL     1     -10.682   9.721  69.242  1.00  0.00    -0.246 A  
ENDBRANCH  15  17
ENDBRANCH  13  15
ENDBRANCH   6   7
ENDBRANCH   3   6
ENDBRANCH   2   3
TORSDOF 6
ENDMDL
MODEL       44
REMARK 921   NORMALIZED FREE ENERGY PREDICTED BY IDOCK:   -6.12 KCAL/MOL
REMARK 922        TOTAL FREE ENERGY PREDICTED BY IDOCK:   -9.28 KCAL/MOL
REMARK 923 INTER-LIGAND FREE ENERGY PREDICTED BY IDOCK:   -8.30 KCAL/MOL
REMARK 924 INTRA-LIGAND FREE ENERGY PREDICTED BY IDOCK:   -0.98 KCAL/MOL
REMARK 927      BINDING AFFINITY PREDICTED BY RF-SCORE:    0.00 PKD
ROOT
HETATM    1  C   UNL     1     -10.624  15.958  65.438  1.00  0.00    -0.439 C  
HETATM    2  C   UNL     1     -11.444  14.884  64.730  1.00  0.00    -0.410 C  
ENDROOT
BRANCH   2   3
HETATM    3  N   UNL     1     -11.453  13.581  65.434  1.00  0.00    -0.299 NA 
BRANCH   3   4
HETATM    4  C   UNL     1     -12.540  12.692  64.987  1.00  0.00    -0.430 C  
HETATM    5  C   UNL     1     -12.433  12.132  63.569  1.00  0.00    -0.666 C  
ENDBRANCH   3   4
BRANCH   3   6
HETATM    6  C   UNL     1     -10.134  12.903  65.358  1.00  0.00    -0.251 C  
BRANCH   6   7
HETATM    7  C   UNL     1     -10.058  11.681  66.251  1.00  0.00    -0.254 A  
HETATM    8  C   UNL     1      -9.980  10.380  65.739  1.00  0.00    -0.270 A  
HETATM    9  C   UNL     1     -10.172   9.283  66.563  1.00  0.00    -0.316 A  
HETATM   10  O   UNL     1      -9.822  10.140  64.403  1.00  0.00    -0.322 OA 
HETATM   11  C   UNL     1     -10.455   9.478  67.918  1.00  0.00    -0.293 A  
HETATM   12  H   UNL     1      -9.769   9.258  64.056  1.00  0.00     0.000 HD 
HETATM   13  C   UNL     1     -10.465  10.762  68.482  1.00  0.00    -0.187 A  
HETATM   14  C   UNL     1     -10.210  11.850  67.638  1.00  0.00    -0.215 A  
BRANCH  13  15
HETATM   15  N   UNL     1     -10.670  11.030  69.860  1.00  0.00    -0.463 NA 
HETATM   16  H   UNL     1     -10.208  11.859  70.233  1.00  0.00     0.000 HD 
BRANCH  15  17
HETATM   17  C   UNL     1     -11.450  10.271  70.782  1.00  0.00    -0.351 A  
HETATM   18  C   UNL     1     -10.929   9.162  71.487  1.00  0.00    -0.434 A  
HETATM   19  C   UNL     1      -9.545   8.886  71.579  1.00  0.00    -0.362 A  
HETATM   20  C   UNL     1      -9.088   7.701  72.143  1.00  0.00    -0.180 A  
HETATM   21  C   UNL     1     -10.012   6.793  72.635  1.00  0.00    -0.171 A  
HETATM   22 CL   UNL     1      -9.474   5.270  73.225  1.00  0.00    -0.144 Cl 
HETATM   23  C   UNL     1     -11.372   7.101  72.640  1.00  0.00    -0.306 A  
HETATM   24  C   UNL     1     -11.844   8.292  72.110  1.00  0.00    -0.369 A  
HETATM   25  N   UNL     1     -13.161   8.557  72.174  1.00  0.00    -0.357 NA 
HETATM   26  C   UNL     1     -13.612   9.693  71.601  1.00  0.00    -0.324 A  
HETATM   27  C   UNL     1     -12.815  10.554  70.878  1.00  0.00    -0.485 A  
ENDBRANCH  15  17
ENDBRANCH  13  15
ENDBRANCH   6   7
ENDBRANCH   3   6
ENDBRANCH   2   3
TORSDOF 6
ENDMDL
MODEL       45
REMARK 921   NORMALIZED FREE ENERGY PREDICTED BY IDOCK:   -6.12 KCAL/MOL
REMARK 922        TOTAL FREE ENERGY PREDICTED BY IDOCK:   -9.27 KCAL/MOL
REMARK 923 INTER-LIGAND FREE ENERGY PREDICTED BY IDOCK:   -8.10 KCAL/MOL
REMARK 924 INTRA-LIGAND FREE ENERGY PREDICTED BY IDOCK:   -1.17 KCAL/MOL
REMARK 927      BINDING AFFINITY PREDICTED BY RF-SCORE:    0.00 PKD
ROOT
HETATM    1  C   UNL     1      -9.042  16.554  66.591  1.00  0.00    -0.283 C  
HETATM    2  C   UNL     1     -10.506  16.296  66.250  1.00  0.00    -0.308 C  
ENDROOT
BRANCH   2   3
HETATM    3  N   UNL     1     -11.110  15.184  67.019  1.00  0.00    -0.334 NA 
BRANCH   3   4
HETATM    4  C   UNL     1     -11.756  15.630  68.267  1.00  0.00    -0.242 C  
HETATM    5  C   UNL     1     -11.872  14.598  69.389  1.00  0.00    -0.368 C  
ENDBRANCH   3   4
BRANCH   3   6
HETATM    6  C   UNL     1     -12.039  14.378  66.187  1.00  0.00    -0.357 C  
BRANCH   6   7
HETATM    7  C   UNL     1     -11.328  13.284  65.417  1.00  0.00    -0.317 A  
HETATM    8  C   UNL     1     -11.573  13.037  64.061  1.00  0.00    -0.430 A  
HETATM    9  C   UNL     1     -11.109  11.881  63.457  1.00  0.00    -0.506 A  
HETATM   10  O   UNL     1     -12.366  13.861  63.311  1.00  0.00    -1.115 OA 
HETATM   11  C   UNL     1     -10.393  10.947  64.212  1.00  0.00    -0.436 A  
HETATM   12  H   UNL     1     -12.533  13.693  62.392  1.00  0.00     0.000 HD 
HETATM   13  C   UNL     1     -10.061  11.195  65.552  1.00  0.00    -0.257 A  
HETATM   14  C   UNL     1     -10.493  12.398  66.122  1.00  0.00    -0.274 A  
BRANCH  13  15
HETATM   15  N   UNL     1      -9.276  10.329  66.356  1.00  0.00    -0.155 NA 
HETATM   16  H   UNL     1      -8.333  10.648  66.576  1.00  0.00     0.000 HD 
BRANCH  15  17
HETATM   17  C   UNL     1      -9.658   9.063  66.892  1.00  0.00    -0.185 A  
HETATM   18  C   UNL     1     -10.288   8.929  68.151  1.00  0.00    -0.261 A  
HETATM   19  C   UNL     1     -10.863  10.017  68.847  1.00  0.00    -0.250 A  
HETATM   20  C   UNL     1     -11.326   9.869  70.148  1.00  0.00    -0.335 A  
HETATM   21  C   UNL     1     -11.236   8.625  70.754  1.00  0.00    -0.261 A  
HETATM   22 CL   UNL     1     -11.692   8.449  72.403  1.00  0.00    -0.453 Cl 
HETATM   23  C   UNL     1     -10.764   7.524  70.041  1.00  0.00    -0.248 A  
HETATM   24  C   UNL     1     -10.326   7.646  68.731  1.00  0.00    -0.204 A  
HETATM   25  N   UNL     1      -9.916   6.547  68.076  1.00  0.00    -0.129 NA 
HETATM   26  C   UNL     1      -9.437   6.692  66.822  1.00  0.00    -0.160 A  
HETATM   27  C   UNL     1      -9.261   7.912  66.206  1.00  0.00    -0.231 A  
ENDBRANCH  15  17
ENDBRANCH  13  15
ENDBRANCH   6   7
ENDBRANCH   3   6
ENDBRANCH   2   3
TORSDOF 6
ENDMDL
MODEL       46
REMARK 921   NORMALIZED FREE ENERGY PREDICTED BY IDOCK:   -6.10 KCAL/MOL
REMARK 922        TOTAL FREE ENERGY PREDICTED BY IDOCK:   -9.26 KCAL/MOL
REMARK 923 INTER-LIGAND FREE ENERGY PREDICTED BY IDOCK:   -8.00 KCAL/MOL
REMARK 924 INTRA-LIGAND FREE ENERGY PREDICTED BY IDOCK:   -1.26 KCAL/MOL
REMARK 927      BINDING AFFINITY PREDICTED BY RF-SCORE:    0.00 PKD
ROOT
HETATM    1  C   UNL     1      -9.334  15.671  66.564  1.00  0.00    -0.305 C  
HETATM    2  C   UNL     1     -10.244  14.684  65.840  1.00  0.00    -0.326 C  
ENDROOT
BRANCH   2   3
HETATM    3  N   UNL     1     -11.265  14.063  66.714  1.00  0.00    -0.307 NA 
BRANCH   3   4
HETATM    4  C   UNL     1     -12.490  13.681  65.988  1.00  0.00    -0.426 C  
HETATM    5  C   UNL     1     -12.348  12.596  64.921  1.00  0.00    -0.563 C  
ENDBRANCH   3   4
BRANCH   3   6
HETATM    6  C   UNL     1     -10.713  12.919  67.483  1.00  0.00    -0.226 C  
BRANCH   6   7
HETATM    7  C   UNL     1     -11.544  12.588  68.707  1.00  0.00    -0.366 A  
HETATM    8  C   UNL     1     -11.910  13.555  69.651  1.00  0.00    -0.336 A  
HETATM    9  C   UNL     1     -12.439  13.183  70.876  1.00  0.00    -0.407 A  
HETATM   10  O   UNL     1     -11.662  14.884  69.454  1.00  0.00    -0.286 OA 
HETATM   11  C   UNL     1     -12.603  11.826  71.174  1.00  0.00    -0.412 A  
HETATM   12  H   UNL     1     -11.910  15.540  70.094  1.00  0.00     0.000 HD 
HETATM   13  C   UNL     1     -12.320  10.833  70.225  1.00  0.00    -0.341 A  
HETATM   14  C   UNL     1     -11.841  11.240  68.974  1.00  0.00    -0.421 A  
BRANCH  13  15
HETATM   15  N   UNL     1     -12.531   9.446  70.430  1.00  0.00    -0.460 NA 
HETATM   16  H   UNL     1     -13.413   9.066  70.085  1.00  0.00     0.000 HD 
BRANCH  15  17
HETATM   17  C   UNL     1     -11.649   8.521  71.065  1.00  0.00    -0.279 A  
HETATM   18  C   UNL     1     -11.046   7.446  70.371  1.00  0.00    -0.284 A  
HETATM   19  C   UNL     1     -11.012   7.360  68.961  1.00  0.00    -0.035 A  
HETATM   20  C   UNL     1     -10.554   6.212  68.326  1.00  0.00    -0.324 A  
HETATM   21  C   UNL     1     -10.109   5.151  69.099  1.00  0.00    -0.204 A  
HETATM   22 CL   UNL     1      -9.653   3.678  68.337  1.00  0.00    -0.203 Cl 
HETATM   23  C   UNL     1     -10.045   5.266  70.487  1.00  0.00    -0.315 A  
HETATM   24  C   UNL     1     -10.468   6.415  71.136  1.00  0.00    -0.221 A  
HETATM   25  N   UNL     1     -10.350   6.489  72.473  1.00  0.00    -0.190 NA 
HETATM   26  C   UNL     1     -10.821   7.590  73.096  1.00  0.00    -0.395 A  
HETATM   27  C   UNL     1     -11.497   8.604  72.452  1.00  0.00    -0.369 A  
ENDBRANCH  15  17
ENDBRANCH  13  15
ENDBRANCH   6   7
ENDBRANCH   3   6
ENDBRANCH   2   3
TORSDOF 6
ENDMDL
MODEL       47
REMARK 921   NORMALIZED FREE ENERGY PREDICTED BY IDOCK:   -6.10 KCAL/MOL
REMARK 922        TOTAL FREE ENERGY PREDICTED BY IDOCK:   -9.25 KCAL/MOL
REMARK 923 INTER-LIGAND FREE ENERGY PREDICTED BY IDOCK:   -8.05 KCAL/MOL
REMARK 924 INTRA-LIGAND FREE ENERGY PREDICTED BY IDOCK:   -1.20 KCAL/MOL
REMARK 927      BINDING AFFINITY PREDICTED BY RF-SCORE:    0.00 PKD
ROOT
HETATM    1  C   UNL     1      -7.018   9.173  65.473  1.00  0.00    -0.081 C  
HETATM    2  C   UNL     1      -8.327   8.483  65.101  1.00  0.00    -0.169 C  
ENDROOT
BRANCH   2   3
HETATM    3  N   UNL     1      -9.534   9.247  65.489  1.00  0.00    -0.256 NA 
BRANCH   3   4
HETATM    4  C   UNL     1     -10.137   8.775  66.748  1.00  0.00    -0.288 C  
HETATM    5  C   UNL     1     -10.475   7.286  66.834  1.00  0.00    -0.369 C  
ENDBRANCH   3   4
BRANCH   3   6
HETATM    6  C   UNL     1      -9.274  10.708  65.529  1.00  0.00    -0.196 C  
BRANCH   6   7
HETATM    7  C   UNL     1     -10.488  11.525  65.135  1.00  0.00    -0.340 A  
HETATM    8  C   UNL     1     -10.985  11.551  63.826  1.00  0.00    -0.409 A  
HETATM    9  C   UNL     1     -11.923  12.495  63.444  1.00  0.00    -0.602 A  
HETATM   10  O   UNL     1     -10.491  10.730  62.852  1.00  0.00    -0.747 OA 
HETATM   11  C   UNL     1     -12.375  13.437  64.375  1.00  0.00    -0.399 A  
HETATM   12  H   UNL     1     -10.827  10.747  61.964  1.00  0.00     0.000 HD 
HETATM   13  C   UNL     1     -11.959  13.393  65.714  1.00  0.00    -0.407 A  
HETATM   14  C   UNL     1     -11.053  12.392  66.087  1.00  0.00    -0.340 A  
BRANCH  13  15
HETATM   15  N   UNL     1     -12.430  14.267  66.727  1.00  0.00    -0.547 NA 
HETATM   16  H   UNL     1     -13.418  14.516  66.686  1.00  0.00     0.000 HD 
BRANCH  15  17
HETATM   17  C   UNL     1     -11.677  14.838  67.796  1.00  0.00    -0.343 A  
HETATM   18  C   UNL     1     -10.505  15.599  67.580  1.00  0.00    -0.285 A  
HETATM   19  C   UNL     1     -10.140  16.114  66.314  1.00  0.00    -0.337 A  
HETATM   20  C   UNL     1      -8.904  16.715  66.116  1.00  0.00    -0.323 A  
HETATM   21  C   UNL     1      -8.032  16.824  67.189  1.00  0.00    -0.181 A  
HETATM   22 CL   UNL     1      -6.452  17.455  66.937  1.00  0.00    -0.200 Cl 
HETATM   23  C   UNL     1      -8.423  16.411  68.461  1.00  0.00    -0.211 A  
HETATM   24  C   UNL     1      -9.664  15.836  68.685  1.00  0.00    -0.205 A  
HETATM   25  N   UNL     1     -10.007  15.490  69.937  1.00  0.00    -0.279 NA 
HETATM   26  C   UNL     1     -11.194  14.878  70.129  1.00  0.00    -0.239 A  
HETATM   27  C   UNL     1     -12.039  14.507  69.105  1.00  0.00    -0.299 A  
ENDBRANCH  15  17
ENDBRANCH  13  15
ENDBRANCH   6   7
ENDBRANCH   3   6
ENDBRANCH   2   3
TORSDOF 6
ENDMDL
MODEL       48
REMARK 921   NORMALIZED FREE ENERGY PREDICTED BY IDOCK:   -6.09 KCAL/MOL
REMARK 922        TOTAL FREE ENERGY PREDICTED BY IDOCK:   -9.24 KCAL/MOL
REMARK 923 INTER-LIGAND FREE ENERGY PREDICTED BY IDOCK:   -7.88 KCAL/MOL
REMARK 924 INTRA-LIGAND FREE ENERGY PREDICTED BY IDOCK:   -1.37 KCAL/MOL
REMARK 927      BINDING AFFINITY PREDICTED BY RF-SCORE:    0.00 PKD
ROOT
HETATM    1  C   UNL     1      -9.667   8.587  72.001  1.00  0.00    -0.377 C  
HETATM    2  C   UNL     1      -8.974   9.077  70.733  1.00  0.00    -0.236 C  
ENDROOT
BRANCH   2   3
HETATM    3  N   UNL     1      -9.032   8.113  69.611  1.00  0.00    -0.153 NA 
BRANCH   3   4
HETATM    4  C   UNL     1      -8.629   6.749  70.000  1.00  0.00    -0.141 C  
HETATM    5  C   UNL     1      -9.575   5.614  69.610  1.00  0.00    -0.197 C  
ENDBRANCH   3   4
BRANCH   3   6
HETATM    6  C   UNL     1     -10.361   8.115  68.949  1.00  0.00    -0.211 C  
BRANCH   6   7
HETATM    7  C   UNL     1     -10.428   9.085  67.787  1.00  0.00    -0.305 A  
HETATM    8  C   UNL     1      -9.602   8.970  66.663  1.00  0.00    -0.213 A  
HETATM    9  C   UNL     1      -9.504  10.005  65.747  1.00  0.00    -0.270 A  
HETATM   10  O   UNL     1      -8.781   7.892  66.480  1.00  0.00    -0.133 OA 
HETATM   11  C   UNL     1     -10.235  11.179  65.952  1.00  0.00    -0.303 A  
HETATM   12  H   UNL     1      -8.220   7.814  65.717  1.00  0.00     0.000 HD 
HETATM   13  C   UNL     1     -11.132  11.301  67.023  1.00  0.00    -0.293 A  
HETATM   14  C   UNL     1     -11.254  10.217  67.902  1.00  0.00    -0.290 A  
BRANCH  13  15
HETATM   15  N   UNL     1     -11.958  12.431  67.252  1.00  0.00    -0.537 NA 
HETATM   16  H   UNL     1     -12.941  12.331  66.998  1.00  0.00     0.000 HD 
BRANCH  15  17
HETATM   17  C   UNL     1     -11.570  13.691  67.796  1.00  0.00    -0.338 A  
HETATM   18  C   UNL     1     -11.853  14.062  69.131  1.00  0.00    -0.391 A  
HETATM   19  C   UNL     1     -12.261  13.138  70.120  1.00  0.00    -0.360 A  
HETATM   20  C   UNL     1     -12.682  13.570  71.372  1.00  0.00    -0.423 A  
HETATM   21  C   UNL     1     -12.678  14.928  71.649  1.00  0.00    -0.330 A  
HETATM   22 CL   UNL     1     -13.309  15.491  73.146  1.00  0.00    -0.618 Cl 
HETATM   23  C   UNL     1     -12.181  15.837  70.716  1.00  0.00    -0.441 A  
HETATM   24  C   UNL     1     -11.728  15.423  69.473  1.00  0.00    -0.346 A  
HETATM   25  N   UNL     1     -11.224  16.336  68.626  1.00  0.00    -0.356 NA 
HETATM   26  C   UNL     1     -10.842  15.925  67.398  1.00  0.00    -0.291 A  
HETATM   27  C   UNL     1     -11.020  14.640  66.931  1.00  0.00    -0.324 A  
ENDBRANCH  15  17
ENDBRANCH  13  15
ENDBRANCH   6   7
ENDBRANCH   3   6
ENDBRANCH   2   3
TORSDOF 6
ENDMDL
MODEL       49
REMARK 921   NORMALIZED FREE ENERGY PREDICTED BY IDOCK:   -6.07 KCAL/MOL
REMARK 922        TOTAL FREE ENERGY PREDICTED BY IDOCK:   -9.22 KCAL/MOL
REMARK 923 INTER-LIGAND FREE ENERGY PREDICTED BY IDOCK:   -8.42 KCAL/MOL
REMARK 924 INTRA-LIGAND FREE ENERGY PREDICTED BY IDOCK:   -0.80 KCAL/MOL
REMARK 927      BINDING AFFINITY PREDICTED BY RF-SCORE:    0.00 PKD
ROOT
HETATM    1  C   UNL     1     -10.042   6.809  68.031  1.00  0.00    -0.183 C  
HETATM    2  C   UNL     1     -11.027   6.366  69.108  1.00  0.00    -0.355 C  
ENDROOT
BRANCH   2   3
HETATM    3  N   UNL     1     -10.484   6.450  70.483  1.00  0.00    -0.211 NA 
BRANCH   3   4
HETATM    4  C   UNL     1      -9.566   5.344  70.809  1.00  0.00    -0.173 C  
HETATM    5  C   UNL     1     -10.083   4.284  71.781  1.00  0.00    -0.227 C  
ENDBRANCH   3   4
BRANCH   3   6
HETATM    6  C   UNL     1      -9.858   7.770  70.749  1.00  0.00    -0.180 C  
BRANCH   6   7
HETATM    7  C   UNL     1     -10.873   8.826  71.139  1.00  0.00    -0.335 A  
HETATM    8  C   UNL     1     -11.828   8.617  72.142  1.00  0.00    -0.377 A  
HETATM    9  C   UNL     1     -12.894   9.487  72.297  1.00  0.00    -0.426 A  
HETATM   10  O   UNL     1     -11.812   7.500  72.931  1.00  0.00    -0.580 OA 
HETATM   11  C   UNL     1     -13.021  10.583  71.436  1.00  0.00    -0.542 A  
HETATM   12  H   UNL     1     -12.459   7.359  73.611  1.00  0.00     0.000 HD 
HETATM   13  C   UNL     1     -12.045  10.868  70.471  1.00  0.00    -0.371 A  
HETATM   14  C   UNL     1     -10.947  10.003  70.375  1.00  0.00    -0.384 A  
BRANCH  13  15
HETATM   15  N   UNL     1     -12.070  11.998  69.616  1.00  0.00    -0.264 NA 
HETATM   16  H   UNL     1     -12.030  11.809  68.614  1.00  0.00     0.000 HD 
BRANCH  15  17
HETATM   17  C   UNL     1     -12.146  13.371  69.997  1.00  0.00    -0.334 A  
HETATM   18  C   UNL     1     -11.762  14.423  69.133  1.00  0.00    -0.354 A  
HETATM   19  C   UNL     1     -11.562  14.248  67.745  1.00  0.00    -0.383 A  
HETATM   20  C   UNL     1     -11.031  15.268  66.965  1.00  0.00    -0.324 A  
HETATM   21  C   UNL     1     -10.715  16.476  67.566  1.00  0.00    -0.283 A  
HETATM   22 CL   UNL     1      -9.946  17.708  66.645  1.00  0.00    -0.313 Cl 
HETATM   23  C   UNL     1     -11.004  16.692  68.913  1.00  0.00    -0.294 A  
HETATM   24  C   UNL     1     -11.562  15.696  69.700  1.00  0.00    -0.356 A  
HETATM   25  N   UNL     1     -11.855  15.968  70.983  1.00  0.00    -0.412 NA 
HETATM   26  C   UNL     1     -12.343  14.971  71.752  1.00  0.00    -0.344 A  
HETATM   27  C   UNL     1     -12.475  13.668  71.322  1.00  0.00    -0.412 A  
ENDBRANCH  15  17
ENDBRANCH  13  15
ENDBRANCH   6   7
ENDBRANCH   3   6
ENDBRANCH   2   3
TORSDOF 6
ENDMDL
MODEL       50
REMARK 921   NORMALIZED FREE ENERGY PREDICTED BY IDOCK:   -6.05 KCAL/MOL
REMARK 922        TOTAL FREE ENERGY PREDICTED BY IDOCK:   -9.19 KCAL/MOL
REMARK 923 INTER-LIGAND FREE ENERGY PREDICTED BY IDOCK:   -7.92 KCAL/MOL
REMARK 924 INTRA-LIGAND FREE ENERGY PREDICTED BY IDOCK:   -1.27 KCAL/MOL
REMARK 927      BINDING AFFINITY PREDICTED BY RF-SCORE:    0.00 PKD
ROOT
HETATM    1  C   UNL     1     -10.928  15.482  64.819  1.00  0.00    -0.416 C  
HETATM    2  C   UNL     1     -12.203  14.714  64.488  1.00  0.00    -0.456 C  
ENDROOT
BRANCH   2   3
HETATM    3  N   UNL     1     -12.329  13.429  65.213  1.00  0.00    -0.441 NA 
BRANCH   3   4
HETATM    4  C   UNL     1     -12.510  12.274  64.314  1.00  0.00    -0.413 C  
HETATM    5  C   UNL     1     -11.241  11.637  63.748  1.00  0.00    -0.498 C  
ENDBRANCH   3   4
BRANCH   3   6
HETATM    6  C   UNL     1     -11.199  13.211  66.151  1.00  0.00    -0.295 C  
BRANCH   6   7
HETATM    7  C   UNL     1     -11.667  12.893  67.558  1.00  0.00    -0.422 A  
HETATM    8  C   UNL     1     -11.972  13.891  68.492  1.00  0.00    -0.359 A  
HETATM    9  C   UNL     1     -12.143  13.579  69.831  1.00  0.00    -0.408 A  
HETATM   10  O   UNL     1     -12.003  15.214  68.149  1.00  0.00    -0.505 OA 
HETATM   11  C   UNL     1     -12.003  12.253  70.253  1.00  0.00    -0.373 A  
HETATM   12  H   UNL     1     -12.209  15.890  68.782  1.00  0.00     0.000 HD 
HETATM   13  C   UNL     1     -11.776  11.216  69.337  1.00  0.00    -0.332 A  
HETATM   14  C   UNL     1     -11.664  11.553  67.982  1.00  0.00    -0.343 A  
BRANCH  13  15
HETATM   15  N   UNL     1     -11.697   9.844  69.684  1.00  0.00    -0.456 NA 
HETATM   16  H   UNL     1     -12.580   9.379  69.892  1.00  0.00     0.000 HD 
BRANCH  15  17
HETATM   17  C   UNL     1     -10.522   9.040  69.773  1.00  0.00    -0.218 A  
HETATM   18  C   UNL     1     -10.290   7.933  68.922  1.00  0.00    -0.225 A  
HETATM   19  C   UNL     1     -11.026   7.703  67.737  1.00  0.00    -0.021 A  
HETATM   20  C   UNL     1     -10.875   6.523  67.020  1.00  0.00    -0.465 A  
HETATM   21  C   UNL     1      -9.972   5.574  67.474  1.00  0.00    -0.160 A  
HETATM   22 CL   UNL     1      -9.859   4.057  66.670  1.00  0.00    -0.220 Cl 
HETATM   23  C   UNL     1      -9.170   5.835  68.584  1.00  0.00    -0.125 A  
HETATM   24  C   UNL     1      -9.285   7.020  69.294  1.00  0.00    -0.139 A  
HETATM   25  N   UNL     1      -8.461   7.239  70.334  1.00  0.00    -0.138 NA 
HETATM   26  C   UNL     1      -8.625   8.371  71.051  1.00  0.00    -0.155 A  
HETATM   27  C   UNL     1      -9.644   9.274  70.834  1.00  0.00    -0.339 A  
ENDBRANCH  15  17
ENDBRANCH  13  15
ENDBRANCH   6   7
ENDBRANCH   3   6
ENDBRANCH   2   3
TORSDOF 6
ENDMDL
MODEL       51
REMARK 921   NORMALIZED FREE ENERGY PREDICTED BY IDOCK:   -6.04 KCAL/MOL
REMARK 922        TOTAL FREE ENERGY PREDICTED BY IDOCK:   -9.18 KCAL/MOL
REMARK 923 INTER-LIGAND FREE ENERGY PREDICTED BY IDOCK:   -7.82 KCAL/MOL
REMARK 924 INTRA-LIGAND FREE ENERGY PREDICTED BY IDOCK:   -1.36 KCAL/MOL
REMARK 927      BINDING AFFINITY PREDICTED BY RF-SCORE:    0.00 PKD
ROOT
HETATM    1  C   UNL     1      -6.919  19.752  65.773  1.00  0.00    -0.316 C  
HETATM    2  C   UNL     1      -6.854  19.430  67.262  1.00  0.00    -0.197 C  
ENDROOT
BRANCH   2   3
HETATM    3  N   UNL     1      -7.936  18.532  67.725  1.00  0.00    -0.247 NA 
BRANCH   3   4
HETATM    4  C   UNL     1      -9.070  19.256  68.328  1.00  0.00    -0.345 C  
HETATM    5  C   UNL     1     -10.335  19.381  67.480  1.00  0.00    -0.556 C  
ENDBRANCH   3   4
BRANCH   3   6
HETATM    6  C   UNL     1      -8.390  17.614  66.650  1.00  0.00    -0.260 C  
BRANCH   6   7
HETATM    7  C   UNL     1      -8.426  16.167  67.098  1.00  0.00    -0.218 A  
HETATM    8  C   UNL     1      -7.267  15.393  67.232  1.00  0.00    -0.194 A  
HETATM    9  C   UNL     1      -7.349  14.018  67.389  1.00  0.00    -0.135 A  
HETATM   10  O   UNL     1      -6.020  15.935  67.104  1.00  0.00    -0.324 OA 
HETATM   11  C   UNL     1      -8.603  13.399  67.407  1.00  0.00    -0.204 A  
HETATM   12  H   UNL     1      -5.234  15.410  67.195  1.00  0.00     0.000 HD 
HETATM   13  C   UNL     1      -9.787  14.149  67.354  1.00  0.00    -0.239 A  
HETATM   14  C   UNL     1      -9.675  15.541  67.253  1.00  0.00    -0.218 A  
BRANCH  13  15
HETATM   15  N   UNL     1     -11.089  13.596  67.441  1.00  0.00    -0.276 NA 
HETATM   16  H   UNL     1     -11.666  13.664  66.602  1.00  0.00     0.000 HD 
BRANCH  15  17
HETATM   17  C   UNL     1     -11.684  12.955  68.568  1.00  0.00    -0.339 A  
HETATM   18  C   UNL     1     -12.090  13.667  69.721  1.00  0.00    -0.396 A  
HETATM   19  C   UNL     1     -12.227  15.073  69.753  1.00  0.00    -0.324 A  
HETATM   20  C   UNL     1     -12.470  15.741  70.946  1.00  0.00    -0.451 A  
HETATM   21  C   UNL     1     -12.599  15.004  72.113  1.00  0.00    -0.330 A  
HETATM   22 CL   UNL     1     -12.780  15.818  73.617  1.00  0.00    -0.660 Cl 
HETATM   23  C   UNL     1     -12.567  13.610  72.075  1.00  0.00    -0.208 A  
HETATM   24  C   UNL     1     -12.355  12.925  70.889  1.00  0.00    -0.275 A  
HETATM   25  N   UNL     1     -12.372  11.581  70.901  1.00  0.00    -0.382 NA 
HETATM   26  C   UNL     1     -12.105  10.929  69.749  1.00  0.00    -0.338 A  
HETATM   27  C   UNL     1     -11.731  11.559  68.582  1.00  0.00    -0.389 A  
ENDBRANCH  15  17
ENDBRANCH  13  15
ENDBRANCH   6   7
ENDBRANCH   3   6
ENDBRANCH   2   3
TORSDOF 6
ENDMDL
MODEL       52
REMARK 921   NORMALIZED FREE ENERGY PREDICTED BY IDOCK:   -6.03 KCAL/MOL
REMARK 922        TOTAL FREE ENERGY PREDICTED BY IDOCK:   -9.15 KCAL/MOL
REMARK 923 INTER-LIGAND FREE ENERGY PREDICTED BY IDOCK:   -8.05 KCAL/MOL
REMARK 924 INTRA-LIGAND FREE ENERGY PREDICTED BY IDOCK:   -1.11 KCAL/MOL
REMARK 927      BINDING AFFINITY PREDICTED BY RF-SCORE:    0.00 PKD
ROOT
HETATM    1  C   UNL     1     -12.478  12.900  65.226  1.00  0.00    -0.552 C  
HETATM    2  C   UNL     1     -11.812  13.475  66.472  1.00  0.00    -0.399 C  
ENDROOT
BRANCH   2   3
HETATM    3  N   UNL     1     -11.065  12.472  67.265  1.00  0.00    -0.261 NA 
BRANCH   3   4
HETATM    4  C   UNL     1      -9.830  12.016  66.603  1.00  0.00    -0.204 C  
HETATM    5  C   UNL     1      -9.416  10.564  66.842  1.00  0.00    -0.191 C  
ENDBRANCH   3   4
BRANCH   3   6
HETATM    6  C   UNL     1     -10.795  12.949  68.645  1.00  0.00    -0.258 C  
BRANCH   6   7
HETATM    7  C   UNL     1     -11.727  12.329  69.666  1.00  0.00    -0.386 A  
HETATM    8  C   UNL     1     -12.327  13.077  70.687  1.00  0.00    -0.310 A  
HETATM    9  C   UNL     1     -12.958  12.447  71.748  1.00  0.00    -0.422 A  
HETATM   10  O   UNL     1     -12.222  14.438  70.740  1.00  0.00    -0.298 OA 
HETATM   11  C   UNL     1     -12.989  11.049  71.801  1.00  0.00    -0.544 A  
HETATM   12  H   UNL     1     -12.629  14.945  71.433  1.00  0.00     0.000 HD 
HETATM   13  C   UNL     1     -12.467  10.269  70.759  1.00  0.00    -0.346 A  
HETATM   14  C   UNL     1     -11.887  10.933  69.672  1.00  0.00    -0.416 A  
BRANCH  13  15
HETATM   15  N   UNL     1     -12.529   8.853  70.711  1.00  0.00    -0.491 NA 
HETATM   16  H   UNL     1     -13.334   8.452  70.229  1.00  0.00     0.000 HD 
BRANCH  15  17
HETATM   17  C   UNL     1     -11.594   7.927  71.260  1.00  0.00    -0.276 A  
HETATM   18  C   UNL     1     -10.976   6.918  70.484  1.00  0.00    -0.313 A  
HETATM   19  C   UNL     1     -10.987   6.917  69.070  1.00  0.00    -0.225 A  
HETATM   20  C   UNL     1     -10.511   5.826  68.353  1.00  0.00    -0.283 A  
HETATM   21  C   UNL     1     -10.001   4.739  69.046  1.00  0.00    -0.143 A  
HETATM   22 CL   UNL     1      -9.519   3.332  68.182  1.00  0.00    -0.241 Cl 
HETATM   23  C   UNL     1      -9.894   4.774  70.435  1.00  0.00    -0.309 A  
HETATM   24  C   UNL     1     -10.336   5.866  71.166  1.00  0.00    -0.221 A  
HETATM   25  N   UNL     1     -10.174   5.865  72.500  1.00  0.00    -0.183 NA 
HETATM   26  C   UNL     1     -10.663   6.909  73.203  1.00  0.00    -0.308 A  
HETATM   27  C   UNL     1     -11.396   7.933  72.644  1.00  0.00    -0.468 A  
ENDBRANCH  15  17
ENDBRANCH  13  15
ENDBRANCH   6   7
ENDBRANCH   3   6
ENDBRANCH   2   3
TORSDOF 6
ENDMDL
MODEL       53
REMARK 921   NORMALIZED FREE ENERGY PREDICTED BY IDOCK:   -6.02 KCAL/MOL
REMARK 922        TOTAL FREE ENERGY PREDICTED BY IDOCK:   -9.14 KCAL/MOL
REMARK 923 INTER-LIGAND FREE ENERGY PREDICTED BY IDOCK:   -7.78 KCAL/MOL
REMARK 924 INTRA-LIGAND FREE ENERGY PREDICTED BY IDOCK:   -1.36 KCAL/MOL
REMARK 927      BINDING AFFINITY PREDICTED BY RF-SCORE:    0.00 PKD
ROOT
HETATM    1  C   UNL     1     -11.883  12.836  63.793  1.00  0.00    -0.572 C  
HETATM    2  C   UNL     1     -12.225  14.220  64.335  1.00  0.00    -0.447 C  
ENDROOT
BRANCH   2   3
HETATM    3  N   UNL     1     -11.149  14.822  65.154  1.00  0.00    -0.362 NA 
BRANCH   3   4
HETATM    4  C   UNL     1     -10.858  16.220  64.786  1.00  0.00    -0.224 C  
HETATM    5  C   UNL     1     -10.396  17.146  65.912  1.00  0.00    -0.294 C  
ENDBRANCH   3   4
BRANCH   3   6
HETATM    6  C   UNL     1     -11.421  14.691  66.607  1.00  0.00    -0.357 C  
BRANCH   6   7
HETATM    7  C   UNL     1     -10.744  13.480  67.217  1.00  0.00    -0.272 A  
HETATM    8  C   UNL     1      -9.375  13.228  67.067  1.00  0.00    -0.242 A  
HETATM    9  C   UNL     1      -8.840  11.997  67.408  1.00  0.00    -0.178 A  
HETATM   10  O   UNL     1      -8.536  14.135  66.481  1.00  0.00    -0.438 OA 
HETATM   11  C   UNL     1      -9.679  10.993  67.903  1.00  0.00    -0.183 A  
HETATM   12  H   UNL     1      -7.608  13.964  66.379  1.00  0.00     0.000 HD 
HETATM   13  C   UNL     1     -11.040  11.232  68.140  1.00  0.00    -0.259 A  
HETATM   14  C   UNL     1     -11.543  12.504  67.839  1.00  0.00    -0.403 A  
BRANCH  13  15
HETATM   15  N   UNL     1     -11.932  10.287  68.706  1.00  0.00    -0.659 NA 
HETATM   16  H   UNL     1     -12.538   9.790  68.053  1.00  0.00     0.000 HD 
BRANCH  15  17
HETATM   17  C   UNL     1     -12.079   9.953  70.085  1.00  0.00    -0.025 A  
HETATM   18  C   UNL     1     -11.564   8.756  70.636  1.00  0.00    -0.236 A  
HETATM   19  C   UNL     1     -10.620   7.942  69.970  1.00  0.00    -0.242 A  
HETATM   20  C   UNL     1     -10.266   6.697  70.475  1.00  0.00    -0.215 A  
HETATM   21  C   UNL     1     -10.839   6.268  71.663  1.00  0.00    -0.251 A  
HETATM   22 CL   UNL     1     -10.506   4.684  72.242  1.00  0.00    -0.258 Cl 
HETATM   23  C   UNL     1     -11.692   7.107  72.378  1.00  0.00    -0.261 A  
HETATM   24  C   UNL     1     -12.034   8.364  71.905  1.00  0.00    -0.338 A  
HETATM   25  N   UNL     1     -12.831   9.147  72.652  1.00  0.00    -0.314 NA 
HETATM   26  C   UNL     1     -13.201  10.344  72.150  1.00  0.00    -0.312 A  
HETATM   27  C   UNL     1     -12.883  10.774  70.879  1.00  0.00    -0.443 A  
ENDBRANCH  15  17
ENDBRANCH  13  15
ENDBRANCH   6   7
ENDBRANCH   3   6
ENDBRANCH   2   3
TORSDOF 6
ENDMDL
MODEL       54
REMARK 921   NORMALIZED FREE ENERGY PREDICTED BY IDOCK:   -6.01 KCAL/MOL
REMARK 922        TOTAL FREE ENERGY PREDICTED BY IDOCK:   -9.13 KCAL/MOL
REMARK 923 INTER-LIGAND FREE ENERGY PREDICTED BY IDOCK:   -8.05 KCAL/MOL
REMARK 924 INTRA-LIGAND FREE ENERGY PREDICTED BY IDOCK:   -1.08 KCAL/MOL
REMARK 927      BINDING AFFINITY PREDICTED BY RF-SCORE:    0.00 PKD
ROOT
HETATM    1  C   UNL     1     -10.522  18.897  67.807  1.00  0.00    -0.487 C  
HETATM    2  C   UNL     1     -10.137  17.916  68.910  1.00  0.00    -0.348 C  
ENDROOT
BRANCH   2   3
HETATM    3  N   UNL     1     -10.879  16.636  68.854  1.00  0.00    -0.325 NA 
BRANCH   3   4
HETATM    4  C   UNL     1     -10.849  16.009  67.520  1.00  0.00    -0.292 C  
HETATM    5  C   UNL     1      -9.753  14.974  67.270  1.00  0.00    -0.220 C  
ENDBRANCH   3   4
BRANCH   3   6
HETATM    6  C   UNL     1     -10.427  15.689  69.906  1.00  0.00    -0.320 C  
BRANCH   6   7
HETATM    7  C   UNL     1     -11.584  14.988  70.590  1.00  0.00    -0.358 A  
HETATM    8  C   UNL     1     -12.226  15.519  71.715  1.00  0.00    -0.394 A  
HETATM    9  C   UNL     1     -13.095  14.744  72.466  1.00  0.00    -0.492 A  
HETATM   10  O   UNL     1     -11.943  16.773  72.180  1.00  0.00    -0.574 OA 
HETATM   11  C   UNL     1     -13.327  13.415  72.098  1.00  0.00    -0.613 A  
HETATM   12  H   UNL     1     -12.379  17.133  72.943  1.00  0.00     0.000 HD 
HETATM   13  C   UNL     1     -12.763  12.871  70.935  1.00  0.00    -0.207 A  
HETATM   14  C   UNL     1     -11.934  13.695  70.163  1.00  0.00    -0.407 A  
BRANCH  13  15
HETATM   15  N   UNL     1     -13.012  11.558  70.463  1.00  0.00     0.013 NA 
HETATM   16  H   UNL     1     -13.552  11.482  69.600  1.00  0.00     0.000 HD 
BRANCH  15  17
HETATM   17  C   UNL     1     -12.593  10.330  71.056  1.00  0.00    -0.390 A  
HETATM   18  C   UNL     1     -11.423   9.648  70.647  1.00  0.00    -0.376 A  
HETATM   19  C   UNL     1     -10.420  10.244  69.850  1.00  0.00    -0.304 A  
HETATM   20  C   UNL     1      -9.370   9.491  69.339  1.00  0.00    -0.185 A  
HETATM   21  C   UNL     1      -9.307   8.139  69.640  1.00  0.00    -0.159 A  
HETATM   22 CL   UNL     1      -8.086   7.165  68.921  1.00  0.00    -0.120 Cl 
HETATM   23  C   UNL     1     -10.235   7.564  70.508  1.00  0.00    -0.201 A  
HETATM   24  C   UNL     1     -11.271   8.307  71.052  1.00  0.00    -0.259 A  
HETATM   25  N   UNL     1     -12.116   7.714  71.913  1.00  0.00    -0.289 NA 
HETATM   26  C   UNL     1     -13.154   8.435  72.387  1.00  0.00    -0.234 A  
HETATM   27  C   UNL     1     -13.450   9.716  71.973  1.00  0.00    -0.514 A  
ENDBRANCH  15  17
ENDBRANCH  13  15
ENDBRANCH   6   7
ENDBRANCH   3   6
ENDBRANCH   2   3
TORSDOF 6
ENDMDL
MODEL       55
REMARK 921   NORMALIZED FREE ENERGY PREDICTED BY IDOCK:   -5.99 KCAL/MOL
REMARK 922        TOTAL FREE ENERGY PREDICTED BY IDOCK:   -9.10 KCAL/MOL
REMARK 923 INTER-LIGAND FREE ENERGY PREDICTED BY IDOCK:   -7.60 KCAL/MOL
REMARK 924 INTRA-LIGAND FREE ENERGY PREDICTED BY IDOCK:   -1.50 KCAL/MOL
REMARK 927      BINDING AFFINITY PREDICTED BY RF-SCORE:    0.00 PKD
ROOT
HETATM    1  C   UNL     1     -11.565  11.190  69.506  1.00  0.00    -0.392 C  
HETATM    2  C   UNL     1     -11.178   9.776  69.928  1.00  0.00    -0.229 C  
ENDROOT
BRANCH   2   3
HETATM    3  N   UNL     1     -10.007   9.236  69.200  1.00  0.00    -0.173 NA 
BRANCH   3   4
HETATM    4  C   UNL     1      -8.888   8.881  70.091  1.00  0.00    -0.163 C  
HETATM    5  C   UNL     1      -9.199   8.785  71.584  1.00  0.00    -0.333 C  
ENDBRANCH   3   4
BRANCH   3   6
HETATM    6  C   UNL     1     -10.380   8.099  68.321  1.00  0.00    -0.197 C  
BRANCH   6   7
HETATM    7  C   UNL     1      -9.774   8.214  66.936  1.00  0.00    -0.291 A  
HETATM    8  C   UNL     1      -9.014   7.188  66.361  1.00  0.00    -0.155 A  
HETATM    9  C   UNL     1      -8.264   7.418  65.219  1.00  0.00    -0.128 A  
HETATM   10  O   UNL     1      -8.890   5.963  66.955  1.00  0.00    -0.113 OA 
HETATM   11  C   UNL     1      -8.263   8.690  64.639  1.00  0.00    -0.167 A  
HETATM   12  H   UNL     1      -8.375   5.268  66.565  1.00  0.00     0.000 HD 
HETATM   13  C   UNL     1      -9.072   9.720  65.141  1.00  0.00    -0.222 A  
HETATM   14  C   UNL     1      -9.863   9.444  66.262  1.00  0.00    -0.351 A  
BRANCH  13  15
HETATM   15  N   UNL     1      -9.177  11.010  64.561  1.00  0.00    -0.299 NA 
HETATM   16  H   UNL     1      -8.330  11.383  64.132  1.00  0.00     0.000 HD 
BRANCH  15  17
HETATM   17  C   UNL     1     -10.332  11.845  64.511  1.00  0.00    -0.292 A  
HETATM   18  C   UNL     1     -10.622  12.805  65.509  1.00  0.00    -0.303 A  
HETATM   19  C   UNL     1      -9.673  13.235  66.465  1.00  0.00    -0.273 A  
HETATM   20  C   UNL     1     -10.046  14.055  67.523  1.00  0.00    -0.237 A  
HETATM   21  C   UNL     1     -11.367  14.466  67.619  1.00  0.00    -0.329 A  
HETATM   22 CL   UNL     1     -11.874  15.380  68.985  1.00  0.00    -0.366 Cl 
HETATM   23  C   UNL     1     -12.285  14.130  66.626  1.00  0.00    -0.450 A  
HETATM   24  C   UNL     1     -11.925  13.338  65.547  1.00  0.00    -0.405 A  
HETATM   25  N   UNL     1     -12.839  13.075  64.597  1.00  0.00    -0.732 NA 
HETATM   26  C   UNL     1     -12.489  12.255  63.584  1.00  0.00    -0.541 A  
HETATM   27  C   UNL     1     -11.278  11.600  63.512  1.00  0.00    -0.462 A  
ENDBRANCH  15  17
ENDBRANCH  13  15
ENDBRANCH   6   7
ENDBRANCH   3   6
ENDBRANCH   2   3
TORSDOF 6
ENDMDL
MODEL       56
REMARK 921   NORMALIZED FREE ENERGY PREDICTED BY IDOCK:   -5.99 KCAL/MOL
REMARK 922        TOTAL FREE ENERGY PREDICTED BY IDOCK:   -9.10 KCAL/MOL
REMARK 923 INTER-LIGAND FREE ENERGY PREDICTED BY IDOCK:   -8.01 KCAL/MOL
REMARK 924 INTRA-LIGAND FREE ENERGY PREDICTED BY IDOCK:   -1.09 KCAL/MOL
REMARK 927      BINDING AFFINITY PREDICTED BY RF-SCORE:    0.00 PKD
ROOT
HETATM    1  C   UNL     1     -11.932  12.758  63.662  1.00  0.00    -0.616 C  
HETATM    2  C   UNL     1     -10.575  13.134  64.249  1.00  0.00    -0.412 C  
ENDROOT
BRANCH   2   3
HETATM    3  N   UNL     1     -10.659  14.070  65.393  1.00  0.00    -0.322 NA 
BRANCH   3   4
HETATM    4  C   UNL     1     -10.108  15.403  65.089  1.00  0.00    -0.264 C  
HETATM    5  C   UNL     1      -9.207  16.034  66.151  1.00  0.00    -0.388 C  
ENDBRANCH   3   4
BRANCH   3   6
HETATM    6  C   UNL     1     -12.041  14.165  65.928  1.00  0.00    -0.426 C  
BRANCH   6   7
HETATM    7  C   UNL     1     -12.118  13.813  67.400  1.00  0.00    -0.378 A  
HETATM    8  C   UNL     1     -12.039  14.780  68.410  1.00  0.00    -0.167 A  
HETATM    9  C   UNL     1     -11.853  14.410  69.732  1.00  0.00    -0.375 A  
HETATM   10  O   UNL     1     -12.030  16.117  68.127  1.00  0.00    -0.171 OA 
HETATM   11  C   UNL     1     -11.736  13.055  70.059  1.00  0.00    -0.285 A  
HETATM   12  H   UNL     1     -11.977  16.773  68.812  1.00  0.00     0.000 HD 
HETATM   13  C   UNL     1     -11.888  12.055  69.087  1.00  0.00    -0.311 A  
HETATM   14  C   UNL     1     -12.133  12.456  67.768  1.00  0.00    -0.074 A  
BRANCH  13  15
HETATM   15  N   UNL     1     -11.855  10.664  69.358  1.00  0.00    -0.442 NA 
HETATM   16  H   UNL     1     -11.719  10.050  68.554  1.00  0.00     0.000 HD 
BRANCH  15  17
HETATM   17  C   UNL     1     -11.991  10.025  70.626  1.00  0.00    -0.313 A  
HETATM   18  C   UNL     1     -10.930   9.319  71.240  1.00  0.00    -0.421 A  
HETATM   19  C   UNL     1      -9.585   9.427  70.820  1.00  0.00    -0.322 A  
HETATM   20  C   UNL     1      -8.603   8.596  71.344  1.00  0.00    -0.247 A  
HETATM   21  C   UNL     1      -8.958   7.663  72.306  1.00  0.00    -0.135 A  
HETATM   22 CL   UNL     1      -7.783   6.545  72.878  1.00  0.00    -0.100 Cl 
HETATM   23  C   UNL     1     -10.261   7.618  72.799  1.00  0.00    -0.336 A  
HETATM   24  C   UNL     1     -11.248   8.460  72.310  1.00  0.00    -0.376 A  
HETATM   25  N   UNL     1     -12.479   8.402  72.846  1.00  0.00    -0.176 NA 
HETATM   26  C   UNL     1     -13.442   9.187  72.320  1.00  0.00    -0.486 A  
HETATM   27  C   UNL     1     -13.261   9.980  71.207  1.00  0.00    -0.469 A  
ENDBRANCH  15  17
ENDBRANCH  13  15
ENDBRANCH   6   7
ENDBRANCH   3   6
ENDBRANCH   2   3
TORSDOF 6
ENDMDL
MODEL       57
REMARK 921   NORMALIZED FREE ENERGY PREDICTED BY IDOCK:   -5.97 KCAL/MOL
REMARK 922        TOTAL FREE ENERGY PREDICTED BY IDOCK:   -9.08 KCAL/MOL
REMARK 923 INTER-LIGAND FREE ENERGY PREDICTED BY IDOCK:   -8.04 KCAL/MOL
REMARK 924 INTRA-LIGAND FREE ENERGY PREDICTED BY IDOCK:   -1.03 KCAL/MOL
REMARK 927      BINDING AFFINITY PREDICTED BY RF-SCORE:    0.00 PKD
ROOT
HETATM    1  C   UNL     1     -10.535  19.440  67.358  1.00  0.00    -0.581 C  
HETATM    2  C   UNL     1     -10.329  18.402  68.457  1.00  0.00    -0.294 C  
ENDROOT
BRANCH   2   3
HETATM    3  N   UNL     1     -10.475  17.004  67.992  1.00  0.00    -0.339 NA 
BRANCH   3   4
HETATM    4  C   UNL     1      -9.903  16.780  66.652  1.00  0.00    -0.277 C  
HETATM    5  C   UNL     1     -10.286  15.478  65.949  1.00  0.00    -0.365 C  
ENDBRANCH   3   4
BRANCH   3   6
HETATM    6  C   UNL     1      -9.935  16.034  68.979  1.00  0.00    -0.242 C  
BRANCH   6   7
HETATM    7  C   UNL     1     -11.014  15.152  69.574  1.00  0.00    -0.279 A  
HETATM    8  C   UNL     1     -11.749  15.524  70.706  1.00  0.00    -0.362 A  
HETATM    9  C   UNL     1     -12.536  14.599  71.374  1.00  0.00    -0.410 A  
HETATM   10  O   UNL     1     -11.639  16.769  71.259  1.00  0.00    -0.544 OA 
HETATM   11  C   UNL     1     -12.589  13.279  70.916  1.00  0.00    -0.386 A  
HETATM   12  H   UNL     1     -12.138  17.021  72.027  1.00  0.00     0.000 HD 
HETATM   13  C   UNL     1     -11.928  12.888  69.742  1.00  0.00    -0.296 A  
HETATM   14  C   UNL     1     -11.187  13.857  69.054  1.00  0.00    -0.312 A  
BRANCH  13  15
HETATM   15  N   UNL     1     -11.997  11.588  69.179  1.00  0.00    -0.330 NA 
HETATM   16  H   UNL     1     -12.848  11.364  68.664  1.00  0.00     0.000 HD 
BRANCH  15  17
HETATM   17  C   UNL     1     -11.011  10.560  69.252  1.00  0.00    -0.244 A  
HETATM   18  C   UNL     1     -10.987   9.601  70.291  1.00  0.00    -0.337 A  
HETATM   19  C   UNL     1     -12.077   9.381  71.165  1.00  0.00    -0.406 A  
HETATM   20  C   UNL     1     -11.952   8.547  72.268  1.00  0.00    -0.454 A  
HETATM   21  C   UNL     1     -10.741   7.911  72.493  1.00  0.00    -0.328 A  
HETATM   22 CL   UNL     1     -10.528   6.971  73.918  1.00  0.00    -0.399 Cl 
HETATM   23  C   UNL     1      -9.694   8.042  71.583  1.00  0.00    -0.222 A  
HETATM   24  C   UNL     1      -9.810   8.846  70.459  1.00  0.00    -0.200 A  
HETATM   25  N   UNL     1      -8.785   8.908  69.593  1.00  0.00    -0.136 NA 
HETATM   26  C   UNL     1      -8.892   9.741  68.536  1.00  0.00    -0.121 A  
HETATM   27  C   UNL     1      -9.953  10.598  68.340  1.00  0.00    -0.176 A  
ENDBRANCH  15  17
ENDBRANCH  13  15
ENDBRANCH   6   7
ENDBRANCH   3   6
ENDBRANCH   2   3
TORSDOF 6
ENDMDL
MODEL       58
REMARK 921   NORMALIZED FREE ENERGY PREDICTED BY IDOCK:   -5.97 KCAL/MOL
REMARK 922        TOTAL FREE ENERGY PREDICTED BY IDOCK:   -9.07 KCAL/MOL
REMARK 923 INTER-LIGAND FREE ENERGY PREDICTED BY IDOCK:   -7.99 KCAL/MOL
REMARK 924 INTRA-LIGAND FREE ENERGY PREDICTED BY IDOCK:   -1.08 KCAL/MOL
REMARK 927      BINDING AFFINITY PREDICTED BY RF-SCORE:    0.00 PKD
ROOT
HETATM    1  C   UNL     1      -8.101  10.315  69.161  1.00  0.00    -0.138 C  
HETATM    2  C   UNL     1      -8.107   8.800  69.340  1.00  0.00    -0.106 C  
ENDROOT
BRANCH   2   3
HETATM    3  N   UNL     1      -9.410   8.258  69.788  1.00  0.00    -0.158 NA 
BRANCH   3   4
HETATM    4  C   UNL     1      -9.684   6.907  69.266  1.00  0.00    -0.156 C  
HETATM    5  C   UNL     1     -11.140   6.443  69.285  1.00  0.00    -0.437 C  
ENDBRANCH   3   4
BRANCH   3   6
HETATM    6  C   UNL     1      -9.549   8.304  71.266  1.00  0.00    -0.171 C  
BRANCH   6   7
HETATM    7  C   UNL     1     -10.882   8.877  71.706  1.00  0.00    -0.436 A  
HETATM    8  C   UNL     1     -11.753   8.185  72.556  1.00  0.00    -0.394 A  
HETATM    9  C   UNL     1     -13.059   8.613  72.730  1.00  0.00    -0.145 A  
HETATM   10  O   UNL     1     -11.393   7.012  73.157  1.00  0.00    -0.521 OA 
HETATM   11  C   UNL     1     -13.513   9.744  72.044  1.00  0.00    -0.498 A  
HETATM   12  H   UNL     1     -11.985   6.543  73.733  1.00  0.00     0.000 HD 
HETATM   13  C   UNL     1     -12.648  10.506  71.245  1.00  0.00    -0.426 A  
HETATM   14  C   UNL     1     -11.318  10.084  71.132  1.00  0.00    -0.397 A  
BRANCH  13  15
HETATM   15  N   UNL     1     -13.019  11.702  70.579  1.00  0.00     0.051 NA 
HETATM   16  H   UNL     1     -13.362  11.601  69.624  1.00  0.00     0.000 HD 
BRANCH  15  17
HETATM   17  C   UNL     1     -12.967  13.031  71.095  1.00  0.00    -0.181 A  
HETATM   18  C   UNL     1     -12.395  14.105  70.373  1.00  0.00    -0.428 A  
HETATM   19  C   UNL     1     -12.104  14.039  68.991  1.00  0.00    -0.358 A  
HETATM   20  C   UNL     1     -11.397  15.055  68.360  1.00  0.00    -0.323 A  
HETATM   21  C   UNL     1     -10.995  16.154  69.104  1.00  0.00    -0.309 A  
HETATM   22 CL   UNL     1     -10.016  17.363  68.371  1.00  0.00    -0.309 Cl 
HETATM   23  C   UNL     1     -11.365  16.274  70.443  1.00  0.00    -0.313 A  
HETATM   24  C   UNL     1     -12.096  15.285  71.082  1.00  0.00    -0.348 A  
HETATM   25  N   UNL     1     -12.460  15.468  72.363  1.00  0.00    -0.365 NA 
HETATM   26  C   UNL     1     -13.121  14.471  72.987  1.00  0.00    -0.510 A  
HETATM   27  C   UNL     1     -13.367  13.240  72.417  1.00  0.00    -0.616 A  
ENDBRANCH  15  17
ENDBRANCH  13  15
ENDBRANCH   6   7
ENDBRANCH   3   6
ENDBRANCH   2   3
TORSDOF 6
ENDMDL
MODEL       59
REMARK 921   NORMALIZED FREE ENERGY PREDICTED BY IDOCK:   -5.95 KCAL/MOL
REMARK 922        TOTAL FREE ENERGY PREDICTED BY IDOCK:   -9.05 KCAL/MOL
REMARK 923 INTER-LIGAND FREE ENERGY PREDICTED BY IDOCK:   -8.14 KCAL/MOL
REMARK 924 INTRA-LIGAND FREE ENERGY PREDICTED BY IDOCK:   -0.91 KCAL/MOL
REMARK 927      BINDING AFFINITY PREDICTED BY RF-SCORE:    0.00 PKD
ROOT
HETATM    1  C   UNL     1     -10.793  19.151  66.768  1.00  0.00    -0.404 C  
HETATM    2  C   UNL     1     -10.421  18.076  67.785  1.00  0.00    -0.408 C  
ENDROOT
BRANCH   2   3
HETATM    3  N   UNL     1     -10.507  16.697  67.252  1.00  0.00    -0.320 NA 
BRANCH   3   4
HETATM    4  C   UNL     1      -9.187  16.100  66.980  1.00  0.00    -0.211 C  
HETATM    5  C   UNL     1      -8.036  16.531  67.889  1.00  0.00    -0.165 C  
ENDBRANCH   3   4
BRANCH   3   6
HETATM    6  C   UNL     1     -11.327  15.818  68.123  1.00  0.00    -0.337 C  
BRANCH   6   7
HETATM    7  C   UNL     1     -11.226  14.357  67.733  1.00  0.00    -0.316 A  
HETATM    8  C   UNL     1     -11.705  13.870  66.511  1.00  0.00    -0.393 A  
HETATM    9  C   UNL     1     -11.834  12.508  66.293  1.00  0.00    -0.453 A  
HETATM   10  O   UNL     1     -12.164  14.707  65.533  1.00  0.00    -0.305 OA 
HETATM   11  C   UNL     1     -11.488  11.611  67.309  1.00  0.00    -0.350 A  
HETATM   12  H   UNL     1     -12.489  14.377  64.704  1.00  0.00     0.000 HD 
HETATM   13  C   UNL     1     -10.933  12.057  68.517  1.00  0.00    -0.240 A  
HETATM   14  C   UNL     1     -10.760  13.436  68.688  1.00  0.00    -0.275 A  
BRANCH  13  15
HETATM   15  N   UNL     1     -10.492  11.203  69.559  1.00  0.00    -0.439 NA 
HETATM   16  H   UNL     1      -9.490  11.015  69.597  1.00  0.00     0.000 HD 
BRANCH  15  17
HETATM   17  C   UNL     1     -11.291  10.577  70.562  1.00  0.00    -0.314 A  
HETATM   18  C   UNL     1     -10.974   9.311  71.106  1.00  0.00    -0.409 A  
HETATM   19  C   UNL     1      -9.713   8.694  70.943  1.00  0.00    -0.254 A  
HETATM   20  C   UNL     1      -9.499   7.384  71.356  1.00  0.00    -0.160 A  
HETATM   21  C   UNL     1     -10.540   6.691  71.953  1.00  0.00    -0.211 A  
HETATM   22 CL   UNL     1     -10.333   5.033  72.360  1.00  0.00    -0.252 Cl 
HETATM   23  C   UNL     1     -11.755   7.325  72.209  1.00  0.00    -0.304 A  
HETATM   24  C   UNL     1     -11.978   8.640  71.832  1.00  0.00    -0.356 A  
HETATM   25  N   UNL     1     -13.153   9.216  72.137  1.00  0.00    -0.415 NA 
HETATM   26  C   UNL     1     -13.376  10.477  71.711  1.00  0.00    -0.344 A  
HETATM   27  C   UNL     1     -12.504  11.179  70.907  1.00  0.00    -0.509 A  
ENDBRANCH  15  17
ENDBRANCH  13  15
ENDBRANCH   6   7
ENDBRANCH   3   6
ENDBRANCH   2   3
TORSDOF 6
ENDMDL
MODEL       60
REMARK 921   NORMALIZED FREE ENERGY PREDICTED BY IDOCK:   -5.95 KCAL/MOL
REMARK 922        TOTAL FREE ENERGY PREDICTED BY IDOCK:   -9.05 KCAL/MOL
REMARK 923 INTER-LIGAND FREE ENERGY PREDICTED BY IDOCK:   -7.74 KCAL/MOL
REMARK 924 INTRA-LIGAND FREE ENERGY PREDICTED BY IDOCK:   -1.30 KCAL/MOL
REMARK 927      BINDING AFFINITY PREDICTED BY RF-SCORE:    0.00 PKD
ROOT
HETATM    1  C   UNL     1     -12.342  12.867  65.416  1.00  0.00    -0.538 C  
HETATM    2  C   UNL     1     -12.066  13.830  66.567  1.00  0.00    -0.443 C  
ENDROOT
BRANCH   2   3
HETATM    3  N   UNL     1     -11.081  13.319  67.548  1.00  0.00    -0.263 NA 
BRANCH   3   4
HETATM    4  C   UNL     1      -9.702  13.305  67.027  1.00  0.00    -0.238 C  
HETATM    5  C   UNL     1      -8.823  12.125  67.440  1.00  0.00    -0.181 C  
ENDBRANCH   3   4
BRANCH   3   6
HETATM    6  C   UNL     1     -11.163  14.044  68.841  1.00  0.00    -0.272 C  
BRANCH   6   7
HETATM    7  C   UNL     1     -12.032  13.327  69.854  1.00  0.00    -0.400 A  
HETATM    8  C   UNL     1     -12.618  13.985  70.943  1.00  0.00    -0.361 A  
HETATM    9  C   UNL     1     -13.184  13.266  71.983  1.00  0.00    -0.541 A  
HETATM   10  O   UNL     1     -12.558  15.343  71.080  1.00  0.00    -0.363 OA 
HETATM   11  C   UNL     1     -13.164  11.868  71.947  1.00  0.00    -0.467 A  
HETATM   12  H   UNL     1     -12.955  15.790  71.818  1.00  0.00     0.000 HD 
HETATM   13  C   UNL     1     -12.657  11.175  70.838  1.00  0.00    -0.386 A  
HETATM   14  C   UNL     1     -12.143  11.927  69.775  1.00  0.00    -0.321 A  
BRANCH  13  15
HETATM   15  N   UNL     1     -12.672   9.764  70.701  1.00  0.00    -0.524 NA 
HETATM   16  H   UNL     1     -13.466   9.367  70.199  1.00  0.00     0.000 HD 
BRANCH  15  17
HETATM   17  C   UNL     1     -11.702   8.837  71.185  1.00  0.00    -0.291 A  
HETATM   18  C   UNL     1     -10.717   8.261  70.349  1.00  0.00    -0.239 A  
HETATM   19  C   UNL     1     -10.409   8.758  69.062  1.00  0.00    -0.227 A  
HETATM   20  C   UNL     1      -9.552   8.067  68.215  1.00  0.00    -0.156 A  
HETATM   21  C   UNL     1      -8.982   6.883  68.658  1.00  0.00    -0.129 A  
HETATM   22 CL   UNL     1      -8.016   5.951  67.582  1.00  0.00    -0.102 Cl 
HETATM   23  C   UNL     1      -9.200   6.438  69.961  1.00  0.00    -0.159 A  
HETATM   24  C   UNL     1     -10.028   7.131  70.831  1.00  0.00    -0.189 A  
HETATM   25  N   UNL     1     -10.174   6.680  72.089  1.00  0.00    -0.190 NA 
HETATM   26  C   UNL     1     -11.029   7.332  72.905  1.00  0.00    -0.337 A  
HETATM   27  C   UNL     1     -11.827   8.379  72.499  1.00  0.00    -0.427 A  
ENDBRANCH  15  17
ENDBRANCH  13  15
ENDBRANCH   6   7
ENDBRANCH   3   6
ENDBRANCH   2   3
TORSDOF 6
ENDMDL
MODEL       61
REMARK 921   NORMALIZED FREE ENERGY PREDICTED BY IDOCK:   -5.94 KCAL/MOL
REMARK 922        TOTAL FREE ENERGY PREDICTED BY IDOCK:   -9.04 KCAL/MOL
REMARK 923 INTER-LIGAND FREE ENERGY PREDICTED BY IDOCK:   -7.76 KCAL/MOL
REMARK 924 INTRA-LIGAND FREE ENERGY PREDICTED BY IDOCK:   -1.28 KCAL/MOL
REMARK 927      BINDING AFFINITY PREDICTED BY RF-SCORE:    0.00 PKD
ROOT
HETATM    1  C   UNL     1      -5.901  19.624  66.399  1.00  0.00    -0.173 C  
HETATM    2  C   UNL     1      -7.282  19.696  65.755  1.00  0.00    -0.310 C  
ENDROOT
BRANCH   2   3
HETATM    3  N   UNL     1      -8.338  19.007  66.531  1.00  0.00    -0.295 NA 
BRANCH   3   4
HETATM    4  C   UNL     1      -9.655  19.658  66.417  1.00  0.00    -0.401 C  
HETATM    5  C   UNL     1     -10.234  20.270  67.692  1.00  0.00    -0.469 C  
ENDBRANCH   3   4
BRANCH   3   6
HETATM    6  C   UNL     1      -8.418  17.563  66.194  1.00  0.00    -0.142 C  
BRANCH   6   7
HETATM    7  C   UNL     1      -9.161  16.763  67.245  1.00  0.00    -0.228 A  
HETATM    8  C   UNL     1      -8.729  16.684  68.575  1.00  0.00    -0.242 A  
HETATM    9  C   UNL     1      -9.272  15.749  69.441  1.00  0.00    -0.263 A  
HETATM   10  O   UNL     1      -7.690  17.440  69.041  1.00  0.00    -0.238 OA 
HETATM   11  C   UNL     1     -10.257  14.870  68.979  1.00  0.00    -0.243 A  
HETATM   12  H   UNL     1      -7.397  17.387  69.942  1.00  0.00     0.000 HD 
HETATM   13  C   UNL     1     -10.769  14.970  67.677  1.00  0.00    -0.274 A  
HETATM   14  C   UNL     1     -10.243  15.962  66.841  1.00  0.00    -0.277 A  
BRANCH  13  15
HETATM   15  N   UNL     1     -11.817  14.163  67.165  1.00  0.00    -0.405 NA 
HETATM   16  H   UNL     1     -12.646  14.073  67.753  1.00  0.00     0.000 HD 
BRANCH  15  17
HETATM   17  C   UNL     1     -11.843  13.465  65.922  1.00  0.00    -0.376 A  
HETATM   18  C   UNL     1     -11.209  12.214  65.739  1.00  0.00    -0.384 A  
HETATM   19  C   UNL     1     -10.762  11.410  66.812  1.00  0.00    -0.316 A  
HETATM   20  C   UNL     1     -10.003  10.269  66.583  1.00  0.00    -0.270 A  
HETATM   21  C   UNL     1      -9.704   9.914  65.276  1.00  0.00    -0.313 A  
HETATM   22 CL   UNL     1      -8.665   8.577  64.976  1.00  0.00    -0.167 Cl 
HETATM   23  C   UNL     1     -10.225  10.644  64.209  1.00  0.00    -0.391 A  
HETATM   24  C   UNL     1     -11.010  11.768  64.418  1.00  0.00    -0.339 A  
HETATM   25  N   UNL     1     -11.520  12.413  63.355  1.00  0.00    -0.462 NA 
HETATM   26  C   UNL     1     -12.233  13.538  63.572  1.00  0.00    -0.346 A  
HETATM   27  C   UNL     1     -12.394  14.114  64.814  1.00  0.00    -0.436 A  
ENDBRANCH  15  17
ENDBRANCH  13  15
ENDBRANCH   6   7
ENDBRANCH   3   6
ENDBRANCH   2   3
TORSDOF 6
ENDMDL
MODEL       62
REMARK 921   NORMALIZED FREE ENERGY PREDICTED BY IDOCK:   -5.93 KCAL/MOL
REMARK 922        TOTAL FREE ENERGY PREDICTED BY IDOCK:   -9.02 KCAL/MOL
REMARK 923 INTER-LIGAND FREE ENERGY PREDICTED BY IDOCK:   -7.88 KCAL/MOL
REMARK 924 INTRA-LIGAND FREE ENERGY PREDICTED BY IDOCK:   -1.15 KCAL/MOL
REMARK 927      BINDING AFFINITY PREDICTED BY RF-SCORE:    0.00 PKD
ROOT
HETATM    1  C   UNL     1     -10.643   9.486  69.093  1.00  0.00    -0.237 C  
HETATM    2  C   UNL     1     -10.001   9.189  67.742  1.00  0.00    -0.189 C  
ENDROOT
BRANCH   2   3
HETATM    3  N   UNL     1      -9.560  10.399  67.012  1.00  0.00    -0.163 NA 
BRANCH   3   4
HETATM    4  C   UNL     1      -8.134  10.710  67.221  1.00  0.00    -0.116 C  
HETATM    5  C   UNL     1      -7.146  10.121  66.214  1.00  0.00    -0.110 C  
ENDBRANCH   3   4
BRANCH   3   6
HETATM    6  C   UNL     1      -9.891  10.324  65.567  1.00  0.00    -0.282 C  
BRANCH   6   7
HETATM    7  C   UNL     1     -10.832  11.429  65.130  1.00  0.00    -0.302 A  
HETATM    8  C   UNL     1     -11.057  11.735  63.782  1.00  0.00    -0.436 A  
HETATM    9  C   UNL     1     -11.711  12.902  63.421  1.00  0.00    -0.526 A  
HETATM   10  O   UNL     1     -10.552  10.964  62.774  1.00  0.00    -0.780 OA 
HETATM   11  C   UNL     1     -12.144  13.786  64.415  1.00  0.00    -0.474 A  
HETATM   12  H   UNL     1     -10.704  11.171  61.860  1.00  0.00     0.000 HD 
HETATM   13  C   UNL     1     -12.006  13.477  65.776  1.00  0.00    -0.403 A  
HETATM   14  C   UNL     1     -11.393  12.263  66.112  1.00  0.00    -0.402 A  
BRANCH  13  15
HETATM   15  N   UNL     1     -12.486  14.289  66.834  1.00  0.00    -0.543 NA 
HETATM   16  H   UNL     1     -13.485  14.499  66.826  1.00  0.00     0.000 HD 
BRANCH  15  17
HETATM   17  C   UNL     1     -11.732  14.845  67.910  1.00  0.00    -0.321 A  
HETATM   18  C   UNL     1     -10.563  15.614  67.701  1.00  0.00    -0.294 A  
HETATM   19  C   UNL     1     -10.206  16.151  66.443  1.00  0.00    -0.315 A  
HETATM   20  C   UNL     1      -8.973  16.761  66.250  1.00  0.00    -0.325 A  
HETATM   21  C   UNL     1      -8.097  16.855  67.321  1.00  0.00    -0.184 A  
HETATM   22 CL   UNL     1      -6.520  17.496  67.074  1.00  0.00    -0.184 Cl 
HETATM   23  C   UNL     1      -8.481  16.419  68.588  1.00  0.00    -0.229 A  
HETATM   24  C   UNL     1      -9.719  15.836  68.807  1.00  0.00    -0.213 A  
HETATM   25  N   UNL     1     -10.055  15.468  70.055  1.00  0.00    -0.290 NA 
HETATM   26  C   UNL     1     -11.240  14.848  70.241  1.00  0.00    -0.231 A  
HETATM   27  C   UNL     1     -12.087  14.491  69.214  1.00  0.00    -0.325 A  
ENDBRANCH  15  17
ENDBRANCH  13  15
ENDBRANCH   6   7
ENDBRANCH   3   6
ENDBRANCH   2   3
TORSDOF 6
ENDMDL
MODEL       63
REMARK 921   NORMALIZED FREE ENERGY PREDICTED BY IDOCK:   -5.93 KCAL/MOL
REMARK 922        TOTAL FREE ENERGY PREDICTED BY IDOCK:   -9.02 KCAL/MOL
REMARK 923 INTER-LIGAND FREE ENERGY PREDICTED BY IDOCK:   -8.00 KCAL/MOL
REMARK 924 INTRA-LIGAND FREE ENERGY PREDICTED BY IDOCK:   -1.02 KCAL/MOL
REMARK 927      BINDING AFFINITY PREDICTED BY RF-SCORE:    0.00 PKD
ROOT
HETATM    1  C   UNL     1     -10.080   9.400  66.176  1.00  0.00    -0.324 C  
HETATM    2  C   UNL     1      -9.066  10.204  65.370  1.00  0.00    -0.188 C  
ENDROOT
BRANCH   2   3
HETATM    3  N   UNL     1      -9.676  11.257  64.526  1.00  0.00    -0.245 NA 
BRANCH   3   4
HETATM    4  C   UNL     1      -9.709  10.904  63.096  1.00  0.00    -0.363 C  
HETATM    5  C   UNL     1      -8.467  10.219  62.526  1.00  0.00    -0.198 C  
ENDBRANCH   3   4
BRANCH   3   6
HETATM    6  C   UNL     1     -11.021  11.649  65.018  1.00  0.00    -0.273 C  
BRANCH   6   7
HETATM    7  C   UNL     1     -10.977  12.863  65.924  1.00  0.00    -0.300 A  
HETATM    8  C   UNL     1     -11.560  12.872  67.197  1.00  0.00    -0.363 A  
HETATM    9  C   UNL     1     -11.730  14.061  67.888  1.00  0.00    -0.397 A  
HETATM   10  O   UNL     1     -12.081  11.741  67.759  1.00  0.00    -0.595 OA 
HETATM   11  C   UNL     1     -11.320  15.264  67.305  1.00  0.00    -0.269 A  
HETATM   12  H   UNL     1     -12.476  11.747  68.622  1.00  0.00     0.000 HD 
HETATM   13  C   UNL     1     -10.663  15.285  66.066  1.00  0.00    -0.320 A  
HETATM   14  C   UNL     1     -10.452  14.064  65.415  1.00  0.00    -0.365 A  
BRANCH  13  15
HETATM   15  N   UNL     1     -10.155  16.457  65.449  1.00  0.00    -0.563 NA 
HETATM   16  H   UNL     1     -10.064  16.430  64.434  1.00  0.00     0.000 HD 
BRANCH  15  17
HETATM   17  C   UNL     1      -9.759  17.670  66.088  1.00  0.00    -0.213 A  
HETATM   18  C   UNL     1      -8.627  17.749  66.933  1.00  0.00    -0.260 A  
HETATM   19  C   UNL     1      -7.631  16.747  66.987  1.00  0.00    -0.235 A  
HETATM   20  C   UNL     1      -6.626  16.790  67.945  1.00  0.00    -0.153 A  
HETATM   21  C   UNL     1      -6.599  17.846  68.842  1.00  0.00    -0.241 A  
HETATM   22 CL   UNL     1      -5.436  17.854  70.110  1.00  0.00    -0.235 Cl 
HETATM   23  C   UNL     1      -7.516  18.890  68.732  1.00  0.00    -0.360 A  
HETATM   24  C   UNL     1      -8.508  18.880  67.764  1.00  0.00    -0.284 A  
HETATM   25  N   UNL     1      -9.344  19.929  67.677  1.00  0.00    -0.341 NA 
HETATM   26  C   UNL     1     -10.340  19.878  66.768  1.00  0.00    -0.474 A  
HETATM   27  C   UNL     1     -10.606  18.776  65.984  1.00  0.00    -0.442 A  
ENDBRANCH  15  17
ENDBRANCH  13  15
ENDBRANCH   6   7
ENDBRANCH   3   6
ENDBRANCH   2   3
TORSDOF 6
ENDMDL
MODEL       64
REMARK 921   NORMALIZED FREE ENERGY PREDICTED BY IDOCK:   -5.90 KCAL/MOL
REMARK 922        TOTAL FREE ENERGY PREDICTED BY IDOCK:   -8.98 KCAL/MOL
REMARK 923 INTER-LIGAND FREE ENERGY PREDICTED BY IDOCK:   -7.80 KCAL/MOL
REMARK 924 INTRA-LIGAND FREE ENERGY PREDICTED BY IDOCK:   -1.18 KCAL/MOL
REMARK 927      BINDING AFFINITY PREDICTED BY RF-SCORE:    0.00 PKD
ROOT
HETATM    1  C   UNL     1     -10.829   6.981  66.993  1.00  0.00    -0.413 C  
HETATM    2  C   UNL     1      -9.432   7.591  67.066  1.00  0.00    -0.162 C  
ENDROOT
BRANCH   2   3
HETATM    3  N   UNL     1      -9.417   8.989  67.553  1.00  0.00    -0.135 NA 
BRANCH   3   4
HETATM    4  C   UNL     1      -8.951   9.109  68.946  1.00  0.00    -0.139 C  
HETATM    5  C   UNL     1     -10.018   9.366  70.010  1.00  0.00    -0.253 C  
ENDBRANCH   3   4
BRANCH   3   6
HETATM    6  C   UNL     1      -8.651   9.882  66.648  1.00  0.00    -0.125 C  
BRANCH   6   7
HETATM    7  C   UNL     1      -9.525  10.524  65.589  1.00  0.00    -0.259 A  
HETATM    8  C   UNL     1      -9.454  10.166  64.237  1.00  0.00    -0.305 A  
HETATM    9  C   UNL     1     -10.069  10.940  63.267  1.00  0.00    -0.368 A  
HETATM   10  O   UNL     1      -8.692   9.114  63.810  1.00  0.00    -0.313 OA 
HETATM   11  C   UNL     1     -10.763  12.094  63.642  1.00  0.00    -0.518 A  
HETATM   12  H   UNL     1      -8.643   8.872  62.893  1.00  0.00     0.000 HD 
HETATM   13  C   UNL     1     -10.921  12.442  64.992  1.00  0.00    -0.298 A  
HETATM   14  C   UNL     1     -10.338  11.610  65.955  1.00  0.00    -0.289 A  
BRANCH  13  15
HETATM   15  N   UNL     1     -11.672  13.555  65.449  1.00  0.00    -0.321 NA 
HETATM   16  H   UNL     1     -12.662  13.565  65.201  1.00  0.00     0.000 HD 
BRANCH  15  17
HETATM   17  C   UNL     1     -11.200  14.662  66.216  1.00  0.00    -0.340 A  
HETATM   18  C   UNL     1     -11.423  14.772  67.608  1.00  0.00    -0.363 A  
HETATM   19  C   UNL     1     -11.852  13.689  68.410  1.00  0.00    -0.407 A  
HETATM   20  C   UNL     1     -12.212  13.882  69.738  1.00  0.00    -0.388 A  
HETATM   21  C   UNL     1     -12.126  15.156  70.278  1.00  0.00    -0.341 A  
HETATM   22 CL   UNL     1     -12.681  15.439  71.881  1.00  0.00    -0.417 Cl 
HETATM   23  C   UNL     1     -11.608  16.209  69.524  1.00  0.00    -0.254 A  
HETATM   24  C   UNL     1     -11.214  16.029  68.207  1.00  0.00    -0.350 A  
HETATM   25  N   UNL     1     -10.686  17.068  67.537  1.00  0.00    -0.307 NA 
HETATM   26  C   UNL     1     -10.363  16.892  66.239  1.00  0.00    -0.308 A  
HETATM   27  C   UNL     1     -10.625  15.737  65.534  1.00  0.00    -0.424 A  
ENDBRANCH  15  17
ENDBRANCH  13  15
ENDBRANCH   6   7
ENDBRANCH   3   6
ENDBRANCH   2   3
TORSDOF 6
ENDMDL
MODEL       65
REMARK 921   NORMALIZED FREE ENERGY PREDICTED BY IDOCK:   -5.88 KCAL/MOL
REMARK 922        TOTAL FREE ENERGY PREDICTED BY IDOCK:   -8.95 KCAL/MOL
REMARK 923 INTER-LIGAND FREE ENERGY PREDICTED BY IDOCK:   -7.86 KCAL/MOL
REMARK 924 INTRA-LIGAND FREE ENERGY PREDICTED BY IDOCK:   -1.09 KCAL/MOL
REMARK 927      BINDING AFFINITY PREDICTED BY RF-SCORE:    0.00 PKD
ROOT
HETATM    1  C   UNL     1      -6.204  21.166  67.458  1.00  0.00    -0.429 C  
HETATM    2  C   UNL     1      -7.161  20.497  66.477  1.00  0.00    -0.226 C  
ENDROOT
BRANCH   2   3
HETATM    3  N   UNL     1      -8.277  19.776  67.131  1.00  0.00    -0.287 NA 
BRANCH   3   4
HETATM    4  C   UNL     1      -9.577  20.450  66.962  1.00  0.00    -0.431 C  
HETATM    5  C   UNL     1     -10.560  19.813  65.979  1.00  0.00    -0.573 C  
ENDBRANCH   3   4
BRANCH   3   6
HETATM    6  C   UNL     1      -8.344  18.356  66.701  1.00  0.00    -0.265 C  
BRANCH   6   7
HETATM    7  C   UNL     1      -8.419  17.398  67.873  1.00  0.00    -0.228 A  
HETATM    8  C   UNL     1      -7.279  16.954  68.555  1.00  0.00    -0.199 A  
HETATM    9  C   UNL     1      -7.355  15.892  69.441  1.00  0.00    -0.217 A  
HETATM   10  O   UNL     1      -6.040  17.468  68.297  1.00  0.00    -0.161 OA 
HETATM   11  C   UNL     1      -8.581  15.254  69.652  1.00  0.00    -0.104 A  
HETATM   12  H   UNL     1      -5.267  17.166  68.759  1.00  0.00     0.000 HD 
HETATM   13  C   UNL     1      -9.757  15.719  69.047  1.00  0.00    -0.242 A  
HETATM   14  C   UNL     1      -9.663  16.831  68.200  1.00  0.00    -0.247 A  
BRANCH  13  15
HETATM   15  N   UNL     1     -11.045  15.169  69.270  1.00  0.00    -0.258 NA 
HETATM   16  H   UNL     1     -11.681  15.724  69.843  1.00  0.00     0.000 HD 
BRANCH  15  17
HETATM   17  C   UNL     1     -11.552  13.927  68.785  1.00  0.00    -0.335 A  
HETATM   18  C   UNL     1     -12.119  12.951  69.638  1.00  0.00    -0.290 A  
HETATM   19  C   UNL     1     -12.509  13.222  70.970  1.00  0.00    -0.422 A  
HETATM   20  C   UNL     1     -12.910  12.199  71.819  1.00  0.00    -0.367 A  
HETATM   21  C   UNL     1     -12.943  10.900  71.336  1.00  0.00    -0.424 A  
HETATM   22 CL   UNL     1     -13.319   9.606  72.404  1.00  0.00    -0.484 Cl 
HETATM   23  C   UNL     1     -12.658  10.638  69.997  1.00  0.00    -0.232 A  
HETATM   24  C   UNL     1     -12.285  11.650  69.126  1.00  0.00    -0.137 A  
HETATM   25  N   UNL     1     -12.058  11.349  67.836  1.00  0.00    -0.621 NA 
HETATM   26  C   UNL     1     -11.639  12.335  67.015  1.00  0.00    -0.349 A  
HETATM   27  C   UNL     1     -11.345  13.613  67.439  1.00  0.00    -0.340 A  
ENDBRANCH  15  17
ENDBRANCH  13  15
ENDBRANCH   6   7
ENDBRANCH   3   6
ENDBRANCH   2   3
TORSDOF 6
ENDMDL
MODEL       66
REMARK 921   NORMALIZED FREE ENERGY PREDICTED BY IDOCK:   -5.87 KCAL/MOL
REMARK 922        TOTAL FREE ENERGY PREDICTED BY IDOCK:   -8.94 KCAL/MOL
REMARK 923 INTER-LIGAND FREE ENERGY PREDICTED BY IDOCK:   -7.84 KCAL/MOL
REMARK 924 INTRA-LIGAND FREE ENERGY PREDICTED BY IDOCK:   -1.10 KCAL/MOL
REMARK 927      BINDING AFFINITY PREDICTED BY RF-SCORE:    0.00 PKD
ROOT
HETATM    1  C   UNL     1     -12.070  14.417  64.630  1.00  0.00    -0.485 C  
HETATM    2  C   UNL     1     -10.935  15.289  65.157  1.00  0.00    -0.416 C  
ENDROOT
BRANCH   2   3
HETATM    3  N   UNL     1     -10.423  14.867  66.480  1.00  0.00    -0.289 NA 
BRANCH   3   4
HETATM    4  C   UNL     1      -8.978  15.108  66.644  1.00  0.00    -0.287 C  
HETATM    5  C   UNL     1      -8.271  14.328  67.752  1.00  0.00    -0.178 C  
ENDBRANCH   3   4
BRANCH   3   6
HETATM    6  C   UNL     1     -11.201  15.469  67.592  1.00  0.00    -0.291 C  
BRANCH   6   7
HETATM    7  C   UNL     1     -11.763  14.427  68.538  1.00  0.00    -0.370 A  
HETATM    8  C   UNL     1     -12.129  14.727  69.856  1.00  0.00    -0.332 A  
HETATM    9  C   UNL     1     -12.390  13.716  70.766  1.00  0.00    -0.446 A  
HETATM   10  O   UNL     1     -12.137  16.010  70.326  1.00  0.00    -0.378 OA 
HETATM   11  C   UNL     1     -12.280  12.381  70.364  1.00  0.00    -0.370 A  
HETATM   12  H   UNL     1     -12.385  16.214  71.220  1.00  0.00     0.000 HD 
HETATM   13  C   UNL     1     -11.992  12.041  69.034  1.00  0.00    -0.264 A  
HETATM   14  C   UNL     1     -11.789  13.084  68.122  1.00  0.00    -0.381 A  
BRANCH  13  15
HETATM   15  N   UNL     1     -11.937  10.713  68.541  1.00  0.00    -0.794 NA 
HETATM   16  H   UNL     1     -12.773  10.373  68.064  1.00  0.00     0.000 HD 
BRANCH  15  17
HETATM   17  C   UNL     1     -10.846   9.799  68.635  1.00  0.00    -0.188 A  
HETATM   18  C   UNL     1     -10.505   9.144  69.841  1.00  0.00    -0.239 A  
HETATM   19  C   UNL     1     -11.364   9.093  70.963  1.00  0.00    -0.377 A  
HETATM   20  C   UNL     1     -10.925   8.580  72.177  1.00  0.00    -0.427 A  
HETATM   21  C   UNL     1      -9.629   8.097  72.272  1.00  0.00    -0.251 A  
HETATM   22 CL   UNL     1      -9.028   7.571  73.795  1.00  0.00    -0.272 Cl 
HETATM   23  C   UNL     1      -8.809   8.051  71.145  1.00  0.00    -0.159 A  
HETATM   24  C   UNL     1      -9.240   8.529  69.918  1.00  0.00    -0.154 A  
HETATM   25  N   UNL     1      -8.424   8.426  68.855  1.00  0.00    -0.123 NA 
HETATM   26  C   UNL     1      -8.835   8.950  67.681  1.00  0.00    -0.134 A  
HETATM   27  C   UNL     1     -10.005   9.662  67.528  1.00  0.00    -0.231 A  
ENDBRANCH  15  17
ENDBRANCH  13  15
ENDBRANCH   6   7
ENDBRANCH   3   6
ENDBRANCH   2   3
TORSDOF 6
ENDMDL
MODEL       67
REMARK 921   NORMALIZED FREE ENERGY PREDICTED BY IDOCK:   -5.85 KCAL/MOL
REMARK 922        TOTAL FREE ENERGY PREDICTED BY IDOCK:   -8.91 KCAL/MOL
REMARK 923 INTER-LIGAND FREE ENERGY PREDICTED BY IDOCK:   -8.56 KCAL/MOL
REMARK 924 INTRA-LIGAND FREE ENERGY PREDICTED BY IDOCK:   -0.35 KCAL/MOL
REMARK 927      BINDING AFFINITY PREDICTED BY RF-SCORE:    0.00 PKD
ROOT
HETATM    1  C   UNL     1     -11.225   7.710  70.422  1.00  0.00    -0.258 C  
HETATM    2  C   UNL     1     -10.102   8.700  70.713  1.00  0.00    -0.198 C  
ENDROOT
BRANCH   2   3
HETATM    3  N   UNL     1     -10.379  10.073  70.233  1.00  0.00    -0.274 NA 
BRANCH   3   4
HETATM    4  C   UNL     1      -9.640  10.415  69.004  1.00  0.00    -0.204 C  
HETATM    5  C   UNL     1      -8.132  10.617  69.140  1.00  0.00    -0.143 C  
ENDBRANCH   3   4
BRANCH   3   6
HETATM    6  C   UNL     1     -11.834  10.320  70.076  1.00  0.00    -0.228 C  
BRANCH   6   7
HETATM    7  C   UNL     1     -12.267  11.641  70.681  1.00  0.00    -0.461 A  
HETATM    8  C   UNL     1     -13.065  11.715  71.830  1.00  0.00    -0.382 A  
HETATM    9  C   UNL     1     -13.654  12.912  72.205  1.00  0.00    -0.611 A  
HETATM   10  O   UNL     1     -13.384  10.604  72.559  1.00  0.00    -0.537 OA 
HETATM   11  C   UNL     1     -13.454  14.055  71.425  1.00  0.00    -0.360 A  
HETATM   12  H   UNL     1     -13.925  10.655  73.337  1.00  0.00     0.000 HD 
HETATM   13  C   UNL     1     -12.600  14.037  70.312  1.00  0.00    -0.291 A  
HETATM   14  C   UNL     1     -11.972  12.828  69.989  1.00  0.00    -0.371 A  
BRANCH  13  15
HETATM   15  N   UNL     1     -12.294  15.172  69.520  1.00  0.00    -0.566 NA 
HETATM   16  H   UNL     1     -12.567  16.078  69.902  1.00  0.00     0.000 HD 
BRANCH  15  17
HETATM   17  C   UNL     1     -11.646  15.191  68.249  1.00  0.00    -0.339 A  
HETATM   18  C   UNL     1     -10.810  16.256  67.837  1.00  0.00    -0.330 A  
HETATM   19  C   UNL     1     -10.302  17.228  68.729  1.00  0.00    -0.358 A  
HETATM   20  C   UNL     1      -9.621  18.344  68.257  1.00  0.00    -0.355 A  
HETATM   21  C   UNL     1      -9.426  18.482  66.892  1.00  0.00    -0.298 A  
HETATM   22 CL   UNL     1      -8.692  19.913  66.280  1.00  0.00    -0.393 Cl 
HETATM   23  C   UNL     1      -9.834  17.479  66.015  1.00  0.00    -0.195 A  
HETATM   24  C   UNL     1     -10.489  16.344  66.469  1.00  0.00    -0.282 A  
HETATM   25  N   UNL     1     -10.827  15.390  65.586  1.00  0.00    -0.344 NA 
HETATM   26  C   UNL     1     -11.516  14.319  66.036  1.00  0.00    -0.347 A  
HETATM   27  C   UNL     1     -11.969  14.189  67.331  1.00  0.00    -0.439 A  
ENDBRANCH  15  17
ENDBRANCH  13  15
ENDBRANCH   6   7
ENDBRANCH   3   6
ENDBRANCH   2   3
TORSDOF 6
ENDMDL
MODEL       68
REMARK 921   NORMALIZED FREE ENERGY PREDICTED BY IDOCK:   -5.84 KCAL/MOL
REMARK 922        TOTAL FREE ENERGY PREDICTED BY IDOCK:   -8.90 KCAL/MOL
REMARK 923 INTER-LIGAND FREE ENERGY PREDICTED BY IDOCK:   -8.23 KCAL/MOL
REMARK 924 INTRA-LIGAND FREE ENERGY PREDICTED BY IDOCK:   -0.67 KCAL/MOL
REMARK 927      BINDING AFFINITY PREDICTED BY RF-SCORE:    0.00 PKD
ROOT
HETATM    1  C   UNL     1      -9.927   7.432  67.813  1.00  0.00    -0.208 C  
HETATM    2  C   UNL     1      -8.989   8.616  67.597  1.00  0.00    -0.135 C  
ENDROOT
BRANCH   2   3
HETATM    3  N   UNL     1      -9.652   9.802  67.010  1.00  0.00    -0.166 NA 
BRANCH   3   4
HETATM    4  C   UNL     1      -9.506   9.880  65.546  1.00  0.00    -0.252 C  
HETATM    5  C   UNL     1     -10.205  11.044  64.844  1.00  0.00    -0.373 C  
ENDBRANCH   3   4
BRANCH   3   6
HETATM    6  C   UNL     1     -11.077   9.896  67.417  1.00  0.00    -0.030 C  
BRANCH   6   7
HETATM    7  C   UNL     1     -11.317  10.986  68.443  1.00  0.00    -0.363 A  
HETATM    8  C   UNL     1     -11.542  10.707  69.796  1.00  0.00    -0.309 A  
HETATM    9  C   UNL     1     -12.011  11.690  70.653  1.00  0.00    -0.356 A  
HETATM   10  O   UNL     1     -11.418   9.444  70.302  1.00  0.00    -0.315 OA 
HETATM   11  C   UNL     1     -12.268  12.973  70.157  1.00  0.00    -0.342 A  
HETATM   12  H   UNL     1     -11.571   9.255  71.220  1.00  0.00     0.000 HD 
HETATM   13  C   UNL     1     -11.981  13.310  68.826  1.00  0.00    -0.300 A  
HETATM   14  C   UNL     1     -11.454  12.312  67.997  1.00  0.00    -0.378 A  
BRANCH  13  15
HETATM   15  N   UNL     1     -12.146  14.606  68.275  1.00  0.00    -0.581 NA 
HETATM   16  H   UNL     1     -12.876  15.185  68.692  1.00  0.00     0.000 HD 
BRANCH  15  17
HETATM   17  C   UNL     1     -11.408  15.192  67.204  1.00  0.00    -0.290 A  
HETATM   18  C   UNL     1     -10.804  16.467  67.306  1.00  0.00    -0.194 A  
HETATM   19  C   UNL     1     -10.614  17.136  68.536  1.00  0.00    -0.361 A  
HETATM   20  C   UNL     1     -10.165  18.451  68.573  1.00  0.00    -0.394 A  
HETATM   21  C   UNL     1      -9.884  19.097  67.379  1.00  0.00    -0.329 A  
HETATM   22 CL   UNL     1      -9.444  20.759  67.397  1.00  0.00    -0.526 Cl 
HETATM   23  C   UNL     1      -9.972  18.413  66.168  1.00  0.00    -0.330 A  
HETATM   24  C   UNL     1     -10.388  17.091  66.114  1.00  0.00    -0.319 A  
HETATM   25  N   UNL     1     -10.419  16.466  64.924  1.00  0.00    -0.618 NA 
HETATM   26  C   UNL     1     -10.883  15.199  64.881  1.00  0.00    -0.418 A  
HETATM   27  C   UNL     1     -11.410  14.539  65.969  1.00  0.00    -0.341 A  
ENDBRANCH  15  17
ENDBRANCH  13  15
ENDBRANCH   6   7
ENDBRANCH   3   6
ENDBRANCH   2   3
TORSDOF 6
ENDMDL
MODEL       69
REMARK 921   NORMALIZED FREE ENERGY PREDICTED BY IDOCK:   -5.83 KCAL/MOL
REMARK 922        TOTAL FREE ENERGY PREDICTED BY IDOCK:   -8.89 KCAL/MOL
REMARK 923 INTER-LIGAND FREE ENERGY PREDICTED BY IDOCK:   -7.90 KCAL/MOL
REMARK 924 INTRA-LIGAND FREE ENERGY PREDICTED BY IDOCK:   -0.99 KCAL/MOL
REMARK 927      BINDING AFFINITY PREDICTED BY RF-SCORE:    0.00 PKD
ROOT
HETATM    1  C   UNL     1     -10.238  19.747  65.743  1.00  0.00    -0.478 C  
HETATM    2  C   UNL     1     -10.305  18.616  66.764  1.00  0.00    -0.407 C  
ENDROOT
BRANCH   2   3
HETATM    3  N   UNL     1      -9.932  17.293  66.214  1.00  0.00    -0.326 NA 
BRANCH   3   4
HETATM    4  C   UNL     1      -8.480  17.041  66.251  1.00  0.00    -0.269 C  
HETATM    5  C   UNL     1      -7.863  16.767  67.622  1.00  0.00    -0.189 C  
ENDBRANCH   3   4
BRANCH   3   6
HETATM    6  C   UNL     1     -10.688  16.192  66.863  1.00  0.00    -0.247 C  
BRANCH   6   7
HETATM    7  C   UNL     1     -10.980  15.049  65.911  1.00  0.00    -0.343 A  
HETATM    8  C   UNL     1     -11.446  15.257  64.608  1.00  0.00    -0.354 A  
HETATM    9  C   UNL     1     -11.946  14.204  63.859  1.00  0.00    -0.278 A  
HETATM   10  O   UNL     1     -11.532  16.508  64.064  1.00  0.00    -1.513 OA 
HETATM   11  C   UNL     1     -11.990  12.921  64.414  1.00  0.00    -0.456 A  
HETATM   12  H   UNL     1     -11.849  16.649  63.180  1.00  0.00     0.000 HD 
HETATM   13  C   UNL     1     -11.461  12.660  65.687  1.00  0.00    -0.350 A  
HETATM   14  C   UNL     1     -10.910  13.732  66.399  1.00  0.00    -0.287 A  
BRANCH  13  15
HETATM   15  N   UNL     1     -11.405  11.375  66.282  1.00  0.00    -0.280 NA 
HETATM   16  H   UNL     1     -12.092  11.184  67.012  1.00  0.00     0.000 HD 
BRANCH  15  17
HETATM   17  C   UNL     1     -10.497  10.318  65.976  1.00  0.00    -0.111 A  
HETATM   18  C   UNL     1     -10.064   9.382  66.945  1.00  0.00    -0.314 A  
HETATM   19  C   UNL     1     -10.699   9.217  68.197  1.00  0.00    -0.205 A  
HETATM   20  C   UNL     1     -10.145   8.405  69.178  1.00  0.00    -0.206 A  
HETATM   21  C   UNL     1      -8.962   7.736  68.905  1.00  0.00    -0.141 A  
HETATM   22 CL   UNL     1      -8.197   6.823  70.145  1.00  0.00    -0.131 Cl 
HETATM   23  C   UNL     1      -8.383   7.813  67.639  1.00  0.00    -0.121 A  
HETATM   24  C   UNL     1      -8.938   8.595  66.638  1.00  0.00    -0.145 A  
HETATM   25  N   UNL     1      -8.362   8.604  65.423  1.00  0.00    -0.148 NA 
HETATM   26  C   UNL     1      -8.880   9.415  64.477  1.00  0.00    -0.198 A  
HETATM   27  C   UNL     1      -9.911  10.301  64.708  1.00  0.00    -0.403 A  
ENDBRANCH  15  17
ENDBRANCH  13  15
ENDBRANCH   6   7
ENDBRANCH   3   6
ENDBRANCH   2   3
TORSDOF 6
ENDMDL
MODEL       70
REMARK 921   NORMALIZED FREE ENERGY PREDICTED BY IDOCK:   -5.81 KCAL/MOL
REMARK 922        TOTAL FREE ENERGY PREDICTED BY IDOCK:   -8.86 KCAL/MOL
REMARK 923 INTER-LIGAND FREE ENERGY PREDICTED BY IDOCK:   -7.51 KCAL/MOL
REMARK 924 INTRA-LIGAND FREE ENERGY PREDICTED BY IDOCK:   -1.35 KCAL/MOL
REMARK 927      BINDING AFFINITY PREDICTED BY RF-SCORE:    0.00 PKD
ROOT
HETATM    1  C   UNL     1     -11.902  12.296  63.810  1.00  0.00    -0.587 C  
HETATM    2  C   UNL     1     -12.459  12.593  65.199  1.00  0.00    -0.463 C  
ENDROOT
BRANCH   2   3
HETATM    3  N   UNL     1     -11.426  12.984  66.184  1.00  0.00    -0.324 NA 
BRANCH   3   4
HETATM    4  C   UNL     1     -11.539  14.390  66.612  1.00  0.00    -0.384 C  
HETATM    5  C   UNL     1     -10.746  15.420  65.807  1.00  0.00    -0.360 C  
ENDBRANCH   3   4
BRANCH   3   6
HETATM    6  C   UNL     1     -11.399  12.065  67.351  1.00  0.00    -0.327 C  
BRANCH   6   7
HETATM    7  C   UNL     1     -10.548  10.835  67.101  1.00  0.00    -0.306 A  
HETATM    8  C   UNL     1      -9.276  10.907  66.522  1.00  0.00    -0.171 A  
HETATM    9  C   UNL     1      -8.638   9.762  66.073  1.00  0.00    -0.146 A  
HETATM   10  O   UNL     1      -8.662  12.103  66.276  1.00  0.00    -0.373 OA 
HETATM   11  C   UNL     1      -9.276   8.523  66.194  1.00  0.00    -0.269 A  
HETATM   12  H   UNL     1      -7.799  12.151  65.883  1.00  0.00     0.000 HD 
HETATM   13  C   UNL     1     -10.516   8.403  66.838  1.00  0.00    -0.289 A  
HETATM   14  C   UNL     1     -11.112   9.569  67.334  1.00  0.00     0.063 A  
BRANCH  13  15
HETATM   15  N   UNL     1     -11.186   7.173  67.062  1.00  0.00    -0.565 NA 
HETATM   16  H   UNL     1     -12.117   7.086  66.655  1.00  0.00     0.000 HD 
BRANCH  15  17
HETATM   17  C   UNL     1     -10.704   6.045  67.790  1.00  0.00    -0.289 A  
HETATM   18  C   UNL     1     -10.835   5.934  69.194  1.00  0.00    -0.406 A  
HETATM   19  C   UNL     1     -11.697   6.755  69.957  1.00  0.00    -0.330 A  
HETATM   20  C   UNL     1     -11.674   6.720  71.346  1.00  0.00    -0.371 A  
HETATM   21  C   UNL     1     -10.801   5.849  71.980  1.00  0.00    -0.252 A  
HETATM   22 CL   UNL     1     -10.670   5.877  73.694  1.00  0.00    -0.283 Cl 
HETATM   23  C   UNL     1     -10.021   4.965  71.236  1.00  0.00    -0.271 A  
HETATM   24  C   UNL     1     -10.053   4.964  69.850  1.00  0.00    -0.262 A  
HETATM   25  N   UNL     1      -9.310   4.065  69.182  1.00  0.00    -0.154 NA 
HETATM   26  C   UNL     1      -9.307   4.116  67.833  1.00  0.00    -0.164 A  
HETATM   27  C   UNL     1      -9.952   5.090  67.102  1.00  0.00    -0.226 A  
ENDBRANCH  15  17
ENDBRANCH  13  15
ENDBRANCH   6   7
ENDBRANCH   3   6
ENDBRANCH   2   3
TORSDOF 6
ENDMDL
MODEL       71
REMARK 921   NORMALIZED FREE ENERGY PREDICTED BY IDOCK:   -5.78 KCAL/MOL
REMARK 922        TOTAL FREE ENERGY PREDICTED BY IDOCK:   -8.82 KCAL/MOL
REMARK 923 INTER-LIGAND FREE ENERGY PREDICTED BY IDOCK:   -7.75 KCAL/MOL
REMARK 924 INTRA-LIGAND FREE ENERGY PREDICTED BY IDOCK:   -1.08 KCAL/MOL
REMARK 927      BINDING AFFINITY PREDICTED BY RF-SCORE:    0.00 PKD
ROOT
HETATM    1  C   UNL     1     -10.118   5.157  66.595  1.00  0.00    -0.267 C  
HETATM    2  C   UNL     1      -9.129   5.682  67.630  1.00  0.00    -0.106 C  
ENDROOT
BRANCH   2   3
HETATM    3  N   UNL     1      -8.557   7.005  67.290  1.00  0.00    -0.120 NA 
BRANCH   3   4
HETATM    4  C   UNL     1      -7.092   6.974  67.123  1.00  0.00    -0.083 C  
HETATM    5  C   UNL     1      -6.290   8.029  67.885  1.00  0.00    -0.052 C  
ENDBRANCH   3   4
BRANCH   3   6
HETATM    6  C   UNL     1      -9.223   7.608  66.108  1.00  0.00    -0.116 C  
BRANCH   6   7
HETATM    7  C   UNL     1      -9.781   8.987  66.398  1.00  0.00    -0.337 A  
HETATM    8  C   UNL     1      -9.999   9.937  65.393  1.00  0.00    -0.279 A  
HETATM    9  C   UNL     1     -10.260  11.259  65.713  1.00  0.00    -0.301 A  
HETATM   10  O   UNL     1      -9.855   9.630  64.069  1.00  0.00    -0.425 OA 
HETATM   11  C   UNL     1     -10.301  11.649  67.056  1.00  0.00    -0.248 A  
HETATM   12  H   UNL     1     -10.002  10.274  63.387  1.00  0.00     0.000 HD 
HETATM   13  C   UNL     1     -10.165  10.712  68.091  1.00  0.00    -0.168 A  
HETATM   14  C   UNL     1      -9.959   9.373  67.738  1.00  0.00    -0.228 A  
BRANCH  13  15
HETATM   15  N   UNL     1     -10.268  11.023  69.470  1.00  0.00    -0.440 NA 
HETATM   16  H   UNL     1      -9.417  11.357  69.923  1.00  0.00     0.000 HD 
BRANCH  15  17
HETATM   17  C   UNL     1     -11.427  10.923  70.296  1.00  0.00    -0.302 A  
HETATM   18  C   UNL     1     -12.183  12.053  70.687  1.00  0.00    -0.409 A  
HETATM   19  C   UNL     1     -12.054  13.319  70.071  1.00  0.00    -0.385 A  
HETATM   20  C   UNL     1     -12.697  14.435  70.592  1.00  0.00    -0.421 A  
HETATM   21  C   UNL     1     -13.489  14.288  71.720  1.00  0.00    -0.381 A  
HETATM   22 CL   UNL     1     -14.194  15.676  72.449  1.00  0.00    -0.613 Cl 
HETATM   23  C   UNL     1     -13.703  13.026  72.272  1.00  0.00    -0.608 A  
HETATM   24  C   UNL     1     -13.095  11.896  71.749  1.00  0.00    -0.360 A  
HETATM   25  N   UNL     1     -13.364  10.698  72.296  1.00  0.00    -0.267 NA 
HETATM   26  C   UNL     1     -12.719   9.616  71.812  1.00  0.00    -0.420 A  
HETATM   27  C   UNL     1     -11.734   9.677  70.850  1.00  0.00    -0.412 A  
ENDBRANCH  15  17
ENDBRANCH  13  15
ENDBRANCH   6   7
ENDBRANCH   3   6
ENDBRANCH   2   3
TORSDOF 6
ENDMDL
MODEL       72
REMARK 921   NORMALIZED FREE ENERGY PREDICTED BY IDOCK:   -5.74 KCAL/MOL
REMARK 922        TOTAL FREE ENERGY PREDICTED BY IDOCK:   -8.77 KCAL/MOL
REMARK 923 INTER-LIGAND FREE ENERGY PREDICTED BY IDOCK:   -7.90 KCAL/MOL
REMARK 924 INTRA-LIGAND FREE ENERGY PREDICTED BY IDOCK:   -0.86 KCAL/MOL
REMARK 927      BINDING AFFINITY PREDICTED BY RF-SCORE:    0.00 PKD
ROOT
HETATM    1  C   UNL     1     -12.070  13.079  63.642  1.00  0.00    -0.604 C  
HETATM    2  C   UNL     1     -11.515  11.659  63.716  1.00  0.00    -0.364 C  
ENDROOT
BRANCH   2   3
HETATM    3  N   UNL     1     -10.864  11.341  65.007  1.00  0.00    -0.256 NA 
BRANCH   3   4
HETATM    4  C   UNL     1      -9.719  10.423  64.864  1.00  0.00    -0.309 C  
HETATM    5  C   UNL     1      -9.681   9.219  65.805  1.00  0.00    -0.339 C  
ENDBRANCH   3   4
BRANCH   3   6
HETATM    6  C   UNL     1     -10.483  12.568  65.751  1.00  0.00    -0.271 C  
BRANCH   6   7
HETATM    7  C   UNL     1     -11.114  12.630  67.128  1.00  0.00    -0.321 A  
HETATM    8  C   UNL     1     -11.920  13.699  67.538  1.00  0.00    -0.358 A  
HETATM    9  C   UNL     1     -12.265  13.855  68.870  1.00  0.00    -0.257 A  
HETATM   10  O   UNL     1     -12.305  14.684  66.672  1.00  0.00    -0.407 OA 
HETATM   11  C   UNL     1     -11.797  12.938  69.816  1.00  0.00    -0.380 A  
HETATM   12  H   UNL     1     -12.851  15.410  66.950  1.00  0.00     0.000 HD 
HETATM   13  C   UNL     1     -11.053  11.812  69.433  1.00  0.00    -0.181 A  
HETATM   14  C   UNL     1     -10.767  11.648  68.072  1.00  0.00    -0.246 A  
BRANCH  13  15
HETATM   15  N   UNL     1     -10.609  10.804  70.326  1.00  0.00    -0.389 NA 
HETATM   16  H   UNL     1      -9.633  10.858  70.619  1.00  0.00     0.000 HD 
BRANCH  15  17
HETATM   17  C   UNL     1     -11.372   9.725  70.862  1.00  0.00    -0.365 A  
HETATM   18  C   UNL     1     -10.923   8.384  70.825  1.00  0.00    -0.276 A  
HETATM   19  C   UNL     1      -9.585   8.025  70.542  1.00  0.00    -0.170 A  
HETATM   20  C   UNL     1      -9.225   6.696  70.358  1.00  0.00    -0.156 A  
HETATM   21  C   UNL     1     -10.198   5.715  70.476  1.00  0.00    -0.231 A  
HETATM   22 CL   UNL     1      -9.800   4.078  70.134  1.00  0.00    -0.264 Cl 
HETATM   23  C   UNL     1     -11.497   6.051  70.855  1.00  0.00    -0.230 A  
HETATM   24  C   UNL     1     -11.868   7.370  71.073  1.00  0.00    -0.307 A  
HETATM   25  N   UNL     1     -13.123   7.636  71.473  1.00  0.00    -0.347 NA 
HETATM   26  C   UNL     1     -13.484   8.928  71.624  1.00  0.00    -0.378 A  
HETATM   27  C   UNL     1     -12.669   9.993  71.306  1.00  0.00    -0.500 A  
ENDBRANCH  15  17
ENDBRANCH  13  15
ENDBRANCH   6   7
ENDBRANCH   3   6
ENDBRANCH   2   3
TORSDOF 6
ENDMDL
MODEL       73
REMARK 921   NORMALIZED FREE ENERGY PREDICTED BY IDOCK:   -5.71 KCAL/MOL
REMARK 922        TOTAL FREE ENERGY PREDICTED BY IDOCK:   -8.72 KCAL/MOL
REMARK 923 INTER-LIGAND FREE ENERGY PREDICTED BY IDOCK:   -7.31 KCAL/MOL
REMARK 924 INTRA-LIGAND FREE ENERGY PREDICTED BY IDOCK:   -1.41 KCAL/MOL
REMARK 927      BINDING AFFINITY PREDICTED BY RF-SCORE:    0.00 PKD
ROOT
HETATM    1  C   UNL     1     -10.396   7.494  66.953  1.00  0.00    -0.379 C  
HETATM    2  C   UNL     1      -9.456   8.416  66.182  1.00  0.00    -0.194 C  
ENDROOT
BRANCH   2   3
HETATM    3  N   UNL     1      -9.528   9.832  66.608  1.00  0.00    -0.163 NA 
BRANCH   3   4
HETATM    4  C   UNL     1      -8.360  10.623  66.182  1.00  0.00    -0.158 C  
HETATM    5  C   UNL     1      -7.322  10.952  67.255  1.00  0.00    -0.103 C  
ENDBRANCH   3   4
BRANCH   3   6
HETATM    6  C   UNL     1     -10.799  10.473  66.184  1.00  0.00     0.043 C  
BRANCH   6   7
HETATM    7  C   UNL     1     -11.366  11.395  67.245  1.00  0.00    -0.347 A  
HETATM    8  C   UNL     1     -11.711  12.726  66.978  1.00  0.00    -0.374 A  
HETATM    9  C   UNL     1     -11.977  13.608  68.012  1.00  0.00    -0.385 A  
HETATM   10  O   UNL     1     -11.691  13.235  65.710  1.00  0.00    -0.330 OA 
HETATM   11  C   UNL     1     -11.895  13.165  69.336  1.00  0.00    -0.383 A  
HETATM   12  H   UNL     1     -11.924  14.137  65.529  1.00  0.00     0.000 HD 
HETATM   13  C   UNL     1     -11.629  11.822  69.640  1.00  0.00    -0.323 A  
HETATM   14  C   UNL     1     -11.420  10.939  68.573  1.00  0.00    -0.380 A  
BRANCH  13  15
HETATM   15  N   UNL     1     -11.603  11.288  70.953  1.00  0.00    -0.242 NA 
HETATM   16  H   UNL     1     -11.143  11.858  71.663  1.00  0.00     0.000 HD 
BRANCH  15  17
HETATM   17  C   UNL     1     -12.148  10.046  71.393  1.00  0.00    -0.407 A  
HETATM   18  C   UNL     1     -11.454   8.821  71.259  1.00  0.00    -0.355 A  
HETATM   19  C   UNL     1     -10.073   8.743  70.967  1.00  0.00    -0.301 A  
HETATM   20  C   UNL     1      -9.469   7.524  70.685  1.00  0.00    -0.164 A  
HETATM   21  C   UNL     1     -10.239   6.372  70.715  1.00  0.00    -0.190 A  
HETATM   22 CL   UNL     1      -9.539   4.871  70.252  1.00  0.00    -0.244 Cl 
HETATM   23  C   UNL     1     -11.577   6.427  71.101  1.00  0.00    -0.378 A  
HETATM   24  C   UNL     1     -12.190   7.630  71.415  1.00  0.00    -0.326 A  
HETATM   25  N   UNL     1     -13.472   7.623  71.818  1.00  0.00    -0.342 NA 
HETATM   26  C   UNL     1     -14.070   8.808  72.063  1.00  0.00    -0.441 A  
HETATM   27  C   UNL     1     -13.472  10.029  71.840  1.00  0.00    -0.449 A  
ENDBRANCH  15  17
ENDBRANCH  13  15
ENDBRANCH   6   7
ENDBRANCH   3   6
ENDBRANCH   2   3
TORSDOF 6
ENDMDL
MODEL       74
REMARK 921   NORMALIZED FREE ENERGY PREDICTED BY IDOCK:   -5.70 KCAL/MOL
REMARK 922        TOTAL FREE ENERGY PREDICTED BY IDOCK:   -8.71 KCAL/MOL
REMARK 923 INTER-LIGAND FREE ENERGY PREDICTED BY IDOCK:   -7.76 KCAL/MOL
REMARK 924 INTRA-LIGAND FREE ENERGY PREDICTED BY IDOCK:   -0.95 KCAL/MOL
REMARK 927      BINDING AFFINITY PREDICTED BY RF-SCORE:    0.00 PKD
ROOT
HETATM    1  C   UNL     1     -10.683  16.019  65.470  1.00  0.00    -0.374 C  
HETATM    2  C   UNL     1     -11.376  14.883  64.724  1.00  0.00    -0.397 C  
ENDROOT
BRANCH   2   3
HETATM    3  N   UNL     1     -11.924  13.833  65.612  1.00  0.00    -0.366 NA 
BRANCH   3   4
HETATM    4  C   UNL     1     -12.488  12.689  64.873  1.00  0.00    -0.494 C  
HETATM    5  C   UNL     1     -12.056  12.529  63.416  1.00  0.00    -0.621 C  
ENDBRANCH   3   4
BRANCH   3   6
HETATM    6  C   UNL     1     -10.929  13.388  66.620  1.00  0.00    -0.287 C  
BRANCH   6   7
HETATM    7  C   UNL     1     -11.577  12.928  67.911  1.00  0.00    -0.391 A  
HETATM    8  C   UNL     1     -12.012  13.824  68.895  1.00  0.00    -0.359 A  
HETATM    9  C   UNL     1     -12.357  13.373  70.159  1.00  0.00    -0.322 A  
HETATM   10  O   UNL     1     -12.008  15.175  68.691  1.00  0.00    -0.497 OA 
HETATM   11  C   UNL     1     -12.264  12.009  70.455  1.00  0.00    -0.414 A  
HETATM   12  H   UNL     1     -12.302  15.783  69.359  1.00  0.00     0.000 HD 
HETATM   13  C   UNL     1     -11.908  11.074  69.473  1.00  0.00    -0.333 A  
HETATM   14  C   UNL     1     -11.620  11.550  68.189  1.00  0.00    -0.378 A  
BRANCH  13  15
HETATM   15  N   UNL     1     -11.865   9.672  69.682  1.00  0.00    -0.426 NA 
HETATM   16  H   UNL     1     -12.740   9.229  69.964  1.00  0.00     0.000 HD 
BRANCH  15  17
HETATM   17  C   UNL     1     -10.737   8.810  69.541  1.00  0.00    -0.188 A  
HETATM   18  C   UNL     1      -9.940   8.415  70.641  1.00  0.00    -0.212 A  
HETATM   19  C   UNL     1     -10.344   8.577  71.986  1.00  0.00    -0.408 A  
HETATM   20  C   UNL     1      -9.466   8.324  73.032  1.00  0.00    -0.298 A  
HETATM   21  C   UNL     1      -8.183   7.888  72.739  1.00  0.00    -0.144 A  
HETATM   22 CL   UNL     1      -7.044   7.686  74.012  1.00  0.00    -0.118 Cl 
HETATM   23  C   UNL     1      -7.809   7.628  71.422  1.00  0.00    -0.089 A  
HETATM   24  C   UNL     1      -8.681   7.845  70.367  1.00  0.00    -0.137 A  
HETATM   25  N   UNL     1      -8.284   7.543  69.119  1.00  0.00    -0.129 NA 
HETATM   26  C   UNL     1      -9.123   7.815  68.098  1.00  0.00    -0.129 A  
HETATM   27  C   UNL     1     -10.328   8.466  68.250  1.00  0.00    -0.244 A  
ENDBRANCH  15  17
ENDBRANCH  13  15
ENDBRANCH   6   7
ENDBRANCH   3   6
ENDBRANCH   2   3
TORSDOF 6
ENDMDL
MODEL       75
REMARK 921   NORMALIZED FREE ENERGY PREDICTED BY IDOCK:   -5.68 KCAL/MOL
REMARK 922        TOTAL FREE ENERGY PREDICTED BY IDOCK:   -8.69 KCAL/MOL
REMARK 923 INTER-LIGAND FREE ENERGY PREDICTED BY IDOCK:   -7.45 KCAL/MOL
REMARK 924 INTRA-LIGAND FREE ENERGY PREDICTED BY IDOCK:   -1.24 KCAL/MOL
REMARK 927      BINDING AFFINITY PREDICTED BY RF-SCORE:    0.00 PKD
ROOT
HETATM    1  C   UNL     1     -10.516  18.608  67.277  1.00  0.00    -0.468 C  
HETATM    2  C   UNL     1      -9.459  17.521  67.441  1.00  0.00    -0.255 C  
ENDROOT
BRANCH   2   3
HETATM    3  N   UNL     1      -9.944  16.163  67.105  1.00  0.00    -0.246 NA 
BRANCH   3   4
HETATM    4  C   UNL     1      -9.876  15.865  65.663  1.00  0.00    -0.302 C  
HETATM    5  C   UNL     1     -11.156  15.352  65.005  1.00  0.00    -0.428 C  
ENDBRANCH   3   4
BRANCH   3   6
HETATM    6  C   UNL     1      -9.258  15.117  67.906  1.00  0.00    -0.184 C  
BRANCH   6   7
HETATM    7  C   UNL     1     -10.163  13.946  68.229  1.00  0.00    -0.247 A  
HETATM    8  C   UNL     1     -11.460  14.114  68.728  1.00  0.00    -0.299 A  
HETATM    9  C   UNL     1     -12.161  13.040  69.253  1.00  0.00    -0.251 A  
HETATM   10  O   UNL     1     -12.042  15.347  68.822  1.00  0.00    -0.552 OA 
HETATM   11  C   UNL     1     -11.562  11.776  69.289  1.00  0.00    -0.378 A  
HETATM   12  H   UNL     1     -12.922  15.461  69.162  1.00  0.00     0.000 HD 
HETATM   13  C   UNL     1     -10.297  11.554  68.728  1.00  0.00    -0.196 A  
HETATM   14  C   UNL     1      -9.635  12.645  68.152  1.00  0.00    -0.219 A  
BRANCH  13  15
HETATM   15  N   UNL     1      -9.661  10.288  68.662  1.00  0.00    -0.160 NA 
HETATM   16  H   UNL     1      -8.643  10.289  68.734  1.00  0.00     0.000 HD 
BRANCH  15  17
HETATM   17  C   UNL     1     -10.283   9.014  68.509  1.00  0.00    -0.200 A  
HETATM   18  C   UNL     1     -10.650   8.208  69.613  1.00  0.00    -0.223 A  
HETATM   19  C   UNL     1     -10.716   8.697  70.938  1.00  0.00    -0.269 A  
HETATM   20  C   UNL     1     -10.922   7.835  72.008  1.00  0.00    -0.305 A  
HETATM   21  C   UNL     1     -11.084   6.482  71.757  1.00  0.00    -0.257 A  
HETATM   22 CL   UNL     1     -11.219   5.384  73.074  1.00  0.00    -0.360 Cl 
HETATM   23  C   UNL     1     -11.121   6.005  70.447  1.00  0.00    -0.399 A  
HETATM   24  C   UNL     1     -10.948   6.854  69.365  1.00  0.00    -0.237 A  
HETATM   25  N   UNL     1     -11.031   6.350  68.122  1.00  0.00    -0.310 NA 
HETATM   26  C   UNL     1     -10.801   7.178  67.081  1.00  0.00    -0.333 A  
HETATM   27  C   UNL     1     -10.400   8.490  67.219  1.00  0.00    -0.372 A  
ENDBRANCH  15  17
ENDBRANCH  13  15
ENDBRANCH   6   7
ENDBRANCH   3   6
ENDBRANCH   2   3
TORSDOF 6
ENDMDL
MODEL       76
REMARK 921   NORMALIZED FREE ENERGY PREDICTED BY IDOCK:   -5.67 KCAL/MOL
REMARK 922        TOTAL FREE ENERGY PREDICTED BY IDOCK:   -8.67 KCAL/MOL
REMARK 923 INTER-LIGAND FREE ENERGY PREDICTED BY IDOCK:   -7.32 KCAL/MOL
REMARK 924 INTRA-LIGAND FREE ENERGY PREDICTED BY IDOCK:   -1.36 KCAL/MOL
REMARK 927      BINDING AFFINITY PREDICTED BY RF-SCORE:    0.00 PKD
ROOT
HETATM    1  C   UNL     1     -10.039  15.718  69.471  1.00  0.00    -0.279 C  
HETATM    2  C   UNL     1      -8.766  16.153  68.751  1.00  0.00    -0.240 C  
ENDROOT
BRANCH   2   3
HETATM    3  N   UNL     1      -8.974  16.493  67.326  1.00  0.00    -0.197 NA 
BRANCH   3   4
HETATM    4  C   UNL     1      -8.331  17.760  66.934  1.00  0.00    -0.238 C  
HETATM    5  C   UNL     1      -9.208  18.784  66.213  1.00  0.00    -0.255 C  
ENDBRANCH   3   4
BRANCH   3   6
HETATM    6  C   UNL     1      -8.570  15.381  66.428  1.00  0.00    -0.209 C  
BRANCH   6   7
HETATM    7  C   UNL     1      -9.744  14.524  66.000  1.00  0.00    -0.331 A  
HETATM    8  C   UNL     1     -10.761  15.004  65.166  1.00  0.00    -0.415 A  
HETATM    9  C   UNL     1     -11.938  14.293  65.005  1.00  0.00    -0.412 A  
HETATM   10  O   UNL     1     -10.683  16.231  64.569  1.00  0.00    -0.830 OA 
HETATM   11  C   UNL     1     -12.115  13.085  65.689  1.00  0.00    -0.507 A  
HETATM   12  H   UNL     1     -11.373  16.556  64.003  1.00  0.00     0.000 HD 
HETATM   13  C   UNL     1     -11.090  12.535  66.471  1.00  0.00    -0.287 A  
HETATM   14  C   UNL     1      -9.888  13.247  66.571  1.00  0.00    -0.281 A  
BRANCH  13  15
HETATM   15  N   UNL     1     -11.172  11.283  67.133  1.00  0.00    -0.361 NA 
HETATM   16  H   UNL     1     -11.248  10.461  66.535  1.00  0.00     0.000 HD 
BRANCH  15  17
HETATM   17  C   UNL     1     -11.158  11.045  68.539  1.00  0.00    -0.243 A  
HETATM   18  C   UNL     1     -10.167  10.254  69.167  1.00  0.00    -0.234 A  
HETATM   19  C   UNL     1      -8.957   9.885  68.534  1.00  0.00    -0.122 A  
HETATM   20  C   UNL     1      -8.089   8.978  69.127  1.00  0.00    -0.109 A  
HETATM   21  C   UNL     1      -8.415   8.448  70.366  1.00  0.00    -0.130 A  
HETATM   22 CL   UNL     1      -7.415   7.234  71.060  1.00  0.00    -0.075 Cl 
HETATM   23  C   UNL     1      -9.554   8.883  71.041  1.00  0.00    -0.321 A  
HETATM   24  C   UNL     1     -10.417   9.811  70.480  1.00  0.00    -0.301 A  
HETATM   25  N   UNL     1     -11.481  10.224  71.189  1.00  0.00    -0.309 NA 
HETATM   26  C   UNL     1     -12.343  11.083  70.605  1.00  0.00    -0.386 A  
HETATM   27  C   UNL     1     -12.246  11.493  69.293  1.00  0.00    -0.245 A  
ENDBRANCH  15  17
ENDBRANCH  13  15
ENDBRANCH   6   7
ENDBRANCH   3   6
ENDBRANCH   2   3
TORSDOF 6
ENDMDL
MODEL       77
REMARK 921   NORMALIZED FREE ENERGY PREDICTED BY IDOCK:   -5.64 KCAL/MOL
REMARK 922        TOTAL FREE ENERGY PREDICTED BY IDOCK:   -8.64 KCAL/MOL
REMARK 923 INTER-LIGAND FREE ENERGY PREDICTED BY IDOCK:   -7.84 KCAL/MOL
REMARK 924 INTRA-LIGAND FREE ENERGY PREDICTED BY IDOCK:   -0.79 KCAL/MOL
REMARK 927      BINDING AFFINITY PREDICTED BY RF-SCORE:    0.00 PKD
ROOT
HETATM    1  C   UNL     1      -7.657  18.284  66.178  1.00  0.00    -0.276 C  
HETATM    2  C   UNL     1      -8.467  18.205  67.468  1.00  0.00    -0.248 C  
ENDROOT
BRANCH   2   3
HETATM    3  N   UNL     1      -9.931  18.157  67.250  1.00  0.00    -0.317 NA 
BRANCH   3   4
HETATM    4  C   UNL     1     -10.599  19.441  67.529  1.00  0.00    -0.474 C  
HETATM    5  C   UNL     1      -9.737  20.700  67.435  1.00  0.00    -0.552 C  
ENDBRANCH   3   4
BRANCH   3   6
HETATM    6  C   UNL     1     -10.271  17.654  65.895  1.00  0.00    -0.232 C  
BRANCH   6   7
HETATM    7  C   UNL     1     -10.796  16.233  65.918  1.00  0.00    -0.141 A  
HETATM    8  C   UNL     1     -11.411  15.640  64.808  1.00  0.00    -0.343 A  
HETATM    9  C   UNL     1     -12.105  14.448  64.937  1.00  0.00    -0.442 A  
HETATM   10  O   UNL     1     -11.448  16.258  63.590  1.00  0.00    -1.361 OA 
HETATM   11  C   UNL     1     -12.198  13.835  66.191  1.00  0.00    -0.499 A  
HETATM   12  H   UNL     1     -11.865  15.856  62.837  1.00  0.00     0.000 HD 
HETATM   13  C   UNL     1     -11.531  14.357  67.308  1.00  0.00    -0.359 A  
HETATM   14  C   UNL     1     -10.788  15.532  67.137  1.00  0.00    -0.316 A  
BRANCH  13  15
HETATM   15  N   UNL     1     -11.520  13.751  68.590  1.00  0.00    -0.278 NA 
HETATM   16  H   UNL     1     -11.851  14.326  69.365  1.00  0.00     0.000 HD 
BRANCH  15  17
HETATM   17  C   UNL     1     -11.099  12.428  68.918  1.00  0.00    -0.258 A  
HETATM   18  C   UNL     1      -9.837  11.915  68.538  1.00  0.00    -0.187 A  
HETATM   19  C   UNL     1      -8.778  12.731  68.077  1.00  0.00    -0.194 A  
HETATM   20  C   UNL     1      -7.615  12.171  67.563  1.00  0.00    -0.151 A  
HETATM   21  C   UNL     1      -7.496  10.790  67.526  1.00  0.00    -0.093 A  
HETATM   22 CL   UNL     1      -6.118  10.077  66.784  1.00  0.00    -0.059 Cl 
HETATM   23  C   UNL     1      -8.491   9.981  68.071  1.00  0.00    -0.117 A  
HETATM   24  C   UNL     1      -9.645  10.522  68.616  1.00  0.00    -0.171 A  
HETATM   25  N   UNL     1     -10.556   9.699  69.163  1.00  0.00    -0.215 NA 
HETATM   26  C   UNL     1     -11.700  10.237  69.636  1.00  0.00    -0.160 A  
HETATM   27  C   UNL     1     -12.028  11.570  69.511  1.00  0.00    -0.402 A  
ENDBRANCH  15  17
ENDBRANCH  13  15
ENDBRANCH   6   7
ENDBRANCH   3   6
ENDBRANCH   2   3
TORSDOF 6
ENDMDL
MODEL       78
REMARK 921   NORMALIZED FREE ENERGY PREDICTED BY IDOCK:   -5.64 KCAL/MOL
REMARK 922        TOTAL FREE ENERGY PREDICTED BY IDOCK:   -8.63 KCAL/MOL
REMARK 923 INTER-LIGAND FREE ENERGY PREDICTED BY IDOCK:   -7.33 KCAL/MOL
REMARK 924 INTRA-LIGAND FREE ENERGY PREDICTED BY IDOCK:   -1.30 KCAL/MOL
REMARK 927      BINDING AFFINITY PREDICTED BY RF-SCORE:    0.00 PKD
ROOT
HETATM    1  C   UNL     1     -10.913   7.163  70.595  1.00  0.00    -0.283 C  
HETATM    2  C   UNL     1     -11.087   6.234  69.397  1.00  0.00    -0.410 C  
ENDROOT
BRANCH   2   3
HETATM    3  N   UNL     1     -10.360   6.680  68.187  1.00  0.00    -0.174 NA 
BRANCH   3   4
HETATM    4  C   UNL     1     -10.884   6.082  66.946  1.00  0.00    -0.318 C  
HETATM    5  C   UNL     1      -9.982   5.078  66.230  1.00  0.00    -0.247 C  
ENDBRANCH   3   4
BRANCH   3   6
HETATM    6  C   UNL     1     -10.302   8.161  68.091  1.00  0.00    -0.201 C  
BRANCH   6   7
HETATM    7  C   UNL     1      -9.231   8.638  67.130  1.00  0.00    -0.175 A  
HETATM    8  C   UNL     1      -7.883   8.287  67.272  1.00  0.00    -0.105 A  
HETATM    9  C   UNL     1      -6.902   8.939  66.544  1.00  0.00    -0.079 A  
HETATM   10  O   UNL     1      -7.470   7.376  68.203  1.00  0.00    -0.100 OA 
HETATM   11  C   UNL     1      -7.262   9.963  65.662  1.00  0.00    -0.113 A  
HETATM   12  H   UNL     1      -6.556   7.138  68.299  1.00  0.00     0.000 HD 
HETATM   13  C   UNL     1      -8.607  10.290  65.436  1.00  0.00    -0.159 A  
HETATM   14  C   UNL     1      -9.582   9.575  66.143  1.00  0.00    -0.302 A  
BRANCH  13  15
HETATM   15  N   UNL     1      -9.049  11.264  64.505  1.00  0.00    -0.388 NA 
HETATM   16  H   UNL     1      -8.427  11.453  63.719  1.00  0.00     0.000 HD 
BRANCH  15  17
HETATM   17  C   UNL     1     -10.264  12.010  64.544  1.00  0.00    -0.286 A  
HETATM   18  C   UNL     1     -10.608  12.848  65.630  1.00  0.00    -0.295 A  
HETATM   19  C   UNL     1      -9.679  13.258  66.614  1.00  0.00    -0.270 A  
HETATM   20  C   UNL     1     -10.095  13.946  67.747  1.00  0.00    -0.241 A  
HETATM   21  C   UNL     1     -11.440  14.246  67.894  1.00  0.00    -0.315 A  
HETATM   22 CL   UNL     1     -11.992  14.988  69.344  1.00  0.00    -0.342 Cl 
HETATM   23  C   UNL     1     -12.347  13.934  66.882  1.00  0.00    -0.331 A  
HETATM   24  C   UNL     1     -11.946  13.275  65.730  1.00  0.00    -0.417 A  
HETATM   25  N   UNL     1     -12.854  13.033  64.769  1.00  0.00    -0.745 NA 
HETATM   26  C   UNL     1     -12.460  12.338  63.680  1.00  0.00    -0.541 A  
HETATM   27  C   UNL     1     -11.206  11.787  63.536  1.00  0.00    -0.494 A  
ENDBRANCH  15  17
ENDBRANCH  13  15
ENDBRANCH   6   7
ENDBRANCH   3   6
ENDBRANCH   2   3
TORSDOF 6
ENDMDL
MODEL       79
REMARK 921   NORMALIZED FREE ENERGY PREDICTED BY IDOCK:   -5.64 KCAL/MOL
REMARK 922        TOTAL FREE ENERGY PREDICTED BY IDOCK:   -8.63 KCAL/MOL
REMARK 923 INTER-LIGAND FREE ENERGY PREDICTED BY IDOCK:   -7.70 KCAL/MOL
REMARK 924 INTRA-LIGAND FREE ENERGY PREDICTED BY IDOCK:   -0.93 KCAL/MOL
REMARK 927      BINDING AFFINITY PREDICTED BY RF-SCORE:    0.00 PKD
ROOT
HETATM    1  C   UNL     1      -6.824   6.550  68.941  1.00  0.00    -0.069 C  
HETATM    2  C   UNL     1      -6.887   6.645  70.462  1.00  0.00    -0.062 C  
ENDROOT
BRANCH   2   3
HETATM    3  N   UNL     1      -8.261   6.582  71.007  1.00  0.00    -0.120 NA 
BRANCH   3   4
HETATM    4  C   UNL     1      -8.618   5.245  71.518  1.00  0.00    -0.130 C  
HETATM    5  C   UNL     1      -9.925   4.639  71.005  1.00  0.00    -0.270 C  
ENDBRANCH   3   4
BRANCH   3   6
HETATM    6  C   UNL     1      -8.500   7.632  72.029  1.00  0.00    -0.110 C  
BRANCH   6   7
HETATM    7  C   UNL     1      -9.885   8.238  71.926  1.00  0.00    -0.300 A  
HETATM    8  C   UNL     1     -10.944   7.839  72.752  1.00  0.00    -0.388 A  
HETATM    9  C   UNL     1     -12.245   8.217  72.466  1.00  0.00    -0.335 A  
HETATM   10  O   UNL     1     -10.757   6.979  73.798  1.00  0.00    -0.488 OA 
HETATM   11  C   UNL     1     -12.505   9.000  71.337  1.00  0.00    -0.378 A  
HETATM   12  H   UNL     1     -11.474   6.709  74.358  1.00  0.00     0.000 HD 
HETATM   13  C   UNL     1     -11.463   9.483  70.531  1.00  0.00    -0.276 A  
HETATM   14  C   UNL     1     -10.152   9.133  70.876  1.00  0.00    -0.356 A  
BRANCH  13  15
HETATM   15  N   UNL     1     -11.645  10.340  69.416  1.00  0.00    -0.431 NA 
HETATM   16  H   UNL     1     -11.542   9.912  68.495  1.00  0.00     0.000 HD 
BRANCH  15  17
HETATM   17  C   UNL     1     -11.957  11.732  69.435  1.00  0.00    -0.298 A  
HETATM   18  C   UNL     1     -11.820  12.558  68.295  1.00  0.00    -0.361 A  
HETATM   19  C   UNL     1     -11.660  12.048  66.986  1.00  0.00    -0.387 A  
HETATM   20  C   UNL     1     -11.369  12.891  65.921  1.00  0.00    -0.348 A  
HETATM   21  C   UNL     1     -11.256  14.253  66.156  1.00  0.00    -0.331 A  
HETATM   22 CL   UNL     1     -10.777  15.298  64.877  1.00  0.00    -0.447 Cl 
HETATM   23  C   UNL     1     -11.511  14.775  67.423  1.00  0.00    -0.376 A  
HETATM   24  C   UNL     1     -11.834  13.952  68.492  1.00  0.00    -0.366 A  
HETATM   25  N   UNL     1     -12.108  14.510  69.683  1.00  0.00    -0.323 NA 
HETATM   26  C   UNL     1     -12.362  13.692  70.727  1.00  0.00    -0.371 A  
HETATM   27  C   UNL     1     -12.270  12.318  70.664  1.00  0.00    -0.378 A  
ENDBRANCH  15  17
ENDBRANCH  13  15
ENDBRANCH   6   7
ENDBRANCH   3   6
ENDBRANCH   2   3
TORSDOF 6
ENDMDL
MODEL       80
REMARK 921   NORMALIZED FREE ENERGY PREDICTED BY IDOCK:   -5.63 KCAL/MOL
REMARK 922        TOTAL FREE ENERGY PREDICTED BY IDOCK:   -8.62 KCAL/MOL
REMARK 923 INTER-LIGAND FREE ENERGY PREDICTED BY IDOCK:   -7.50 KCAL/MOL
REMARK 924 INTRA-LIGAND FREE ENERGY PREDICTED BY IDOCK:   -1.12 KCAL/MOL
REMARK 927      BINDING AFFINITY PREDICTED BY RF-SCORE:    0.00 PKD
ROOT
HETATM    1  C   UNL     1      -9.849   9.617  65.692  1.00  0.00    -0.369 C  
HETATM    2  C   UNL     1      -9.287  10.911  65.112  1.00  0.00    -0.218 C  
ENDROOT
BRANCH   2   3
HETATM    3  N   UNL     1     -10.205  12.066  65.233  1.00  0.00    -0.264 NA 
BRANCH   3   4
HETATM    4  C   UNL     1     -10.653  12.587  63.928  1.00  0.00    -0.440 C  
HETATM    5  C   UNL     1     -12.161  12.627  63.683  1.00  0.00    -0.632 C  
ENDBRANCH   3   4
BRANCH   3   6
HETATM    6  C   UNL     1     -11.359  11.764  66.118  1.00  0.00    -0.280 C  
BRANCH   6   7
HETATM    7  C   UNL     1     -11.295  12.521  67.430  1.00  0.00    -0.371 A  
HETATM    8  C   UNL     1     -11.839  12.014  68.617  1.00  0.00    -0.311 A  
HETATM    9  C   UNL     1     -11.996  12.827  69.727  1.00  0.00    -0.362 A  
HETATM   10  O   UNL     1     -12.334  10.742  68.697  1.00  0.00    -0.825 OA 
HETATM   11  C   UNL     1     -11.613  14.170  69.659  1.00  0.00    -0.349 A  
HETATM   12  H   UNL     1     -12.703  10.399  69.502  1.00  0.00     0.000 HD 
HETATM   13  C   UNL     1     -10.994  14.694  68.514  1.00  0.00    -0.252 A  
HETATM   14  C   UNL     1     -10.795  13.834  67.427  1.00  0.00    -0.285 A  
BRANCH  13  15
HETATM   15  N   UNL     1     -10.514  16.023  68.400  1.00  0.00    -0.252 NA 
HETATM   16  H   UNL     1     -11.208  16.736  68.174  1.00  0.00     0.000 HD 
BRANCH  15  17
HETATM   17  C   UNL     1      -9.172  16.476  68.567  1.00  0.00    -0.230 A  
HETATM   18  C   UNL     1      -8.599  17.476  67.746  1.00  0.00    -0.230 A  
HETATM   19  C   UNL     1      -9.364  18.317  66.905  1.00  0.00    -0.286 A  
HETATM   20  C   UNL     1      -8.749  19.171  65.999  1.00  0.00    -0.104 A  
HETATM   21  C   UNL     1      -7.364  19.205  65.942  1.00  0.00    -0.252 A  
HETATM   22 CL   UNL     1      -6.586  20.165  64.746  1.00  0.00    -0.304 Cl 
HETATM   23  C   UNL     1      -6.602  18.454  66.836  1.00  0.00    -0.206 A  
HETATM   24  C   UNL     1      -7.198  17.618  67.768  1.00  0.00    -0.190 A  
HETATM   25  N   UNL     1      -6.419  16.946  68.633  1.00  0.00    -0.161 NA 
HETATM   26  C   UNL     1      -7.011  16.092  69.494  1.00  0.00    -0.191 A  
HETATM   27  C   UNL     1      -8.359  15.802  69.481  1.00  0.00    -0.135 A  
ENDBRANCH  15  17
ENDBRANCH  13  15
ENDBRANCH   6   7
ENDBRANCH   3   6
ENDBRANCH   2   3
TORSDOF 6
ENDMDL
MODEL       81
REMARK 921   NORMALIZED FREE ENERGY PREDICTED BY IDOCK:   -5.63 KCAL/MOL
REMARK 922        TOTAL FREE ENERGY PREDICTED BY IDOCK:   -8.62 KCAL/MOL
REMARK 923 INTER-LIGAND FREE ENERGY PREDICTED BY IDOCK:   -7.22 KCAL/MOL
REMARK 924 INTRA-LIGAND FREE ENERGY PREDICTED BY IDOCK:   -1.39 KCAL/MOL
REMARK 927      BINDING AFFINITY PREDICTED BY RF-SCORE:    0.00 PKD
ROOT
HETATM    1  C   UNL     1     -12.009  13.402  64.109  1.00  0.00    -0.505 C  
HETATM    2  C   UNL     1     -10.530  13.128  64.360  1.00  0.00    -0.407 C  
ENDROOT
BRANCH   2   3
HETATM    3  N   UNL     1     -10.271  11.850  65.060  1.00  0.00    -0.269 NA 
BRANCH   3   4
HETATM    4  C   UNL     1      -9.860  10.766  64.149  1.00  0.00    -0.326 C  
HETATM    5  C   UNL     1      -9.351  11.182  62.769  1.00  0.00    -0.377 C  
ENDBRANCH   3   4
BRANCH   3   6
HETATM    6  C   UNL     1      -9.303  12.016  66.173  1.00  0.00    -0.211 C  
BRANCH   6   7
HETATM    7  C   UNL     1      -9.939  12.621  67.409  1.00  0.00    -0.204 A  
HETATM    8  C   UNL     1     -11.236  12.295  67.824  1.00  0.00    -0.276 A  
HETATM    9  C   UNL     1     -11.879  13.047  68.793  1.00  0.00    -0.355 A  
HETATM   10  O   UNL     1     -11.957  11.304  67.220  1.00  0.00    -0.529 OA 
HETATM   11  C   UNL     1     -11.226  14.148  69.359  1.00  0.00    -0.298 A  
HETATM   12  H   UNL     1     -12.837  11.083  67.501  1.00  0.00     0.000 HD 
HETATM   13  C   UNL     1      -9.900  14.458  69.025  1.00  0.00    -0.101 A  
HETATM   14  C   UNL     1      -9.254  13.646  68.085  1.00  0.00    -0.204 A  
BRANCH  13  15
HETATM   15  N   UNL     1      -9.153  15.511  69.611  1.00  0.00    -0.327 NA 
HETATM   16  H   UNL     1      -9.175  15.569  70.630  1.00  0.00     0.000 HD 
BRANCH  15  17
HETATM   17  C   UNL     1      -8.374  16.499  68.938  1.00  0.00    -0.241 A  
HETATM   18  C   UNL     1      -8.956  17.517  68.147  1.00  0.00    -0.266 A  
HETATM   19  C   UNL     1     -10.333  17.836  68.189  1.00  0.00    -0.393 A  
HETATM   20  C   UNL     1     -10.888  18.730  67.281  1.00  0.00    -0.408 A  
HETATM   21  C   UNL     1     -10.064  19.326  66.338  1.00  0.00    -0.429 A  
HETATM   22 CL   UNL     1     -10.750  20.340  65.131  1.00  0.00    -0.036 Cl 
HETATM   23  C   UNL     1      -8.689  19.095  66.355  1.00  0.00    -0.336 A  
HETATM   24  C   UNL     1      -8.113  18.230  67.272  1.00  0.00    -0.229 A  
HETATM   25  N   UNL     1      -6.778  18.072  67.270  1.00  0.00    -0.176 NA 
HETATM   26  C   UNL     1      -6.240  17.182  68.130  1.00  0.00    -0.135 A  
HETATM   27  C   UNL     1      -6.984  16.361  68.950  1.00  0.00    -0.186 A  
ENDBRANCH  15  17
ENDBRANCH  13  15
ENDBRANCH   6   7
ENDBRANCH   3   6
ENDBRANCH   2   3
TORSDOF 6
ENDMDL
MODEL       82
REMARK 921   NORMALIZED FREE ENERGY PREDICTED BY IDOCK:   -5.61 KCAL/MOL
REMARK 922        TOTAL FREE ENERGY PREDICTED BY IDOCK:   -8.59 KCAL/MOL
REMARK 923 INTER-LIGAND FREE ENERGY PREDICTED BY IDOCK:   -7.40 KCAL/MOL
REMARK 924 INTRA-LIGAND FREE ENERGY PREDICTED BY IDOCK:   -1.19 KCAL/MOL
REMARK 927      BINDING AFFINITY PREDICTED BY RF-SCORE:    0.00 PKD
ROOT
HETATM    1  C   UNL     1     -10.991  11.556  63.314  1.00  0.00    -0.308 C  
HETATM    2  C   UNL     1     -12.128  12.292  64.016  1.00  0.00    -0.471 C  
ENDROOT
BRANCH   2   3
HETATM    3  N   UNL     1     -11.669  13.303  64.996  1.00  0.00    -0.321 NA 
BRANCH   3   4
HETATM    4  C   UNL     1     -12.211  14.648  64.734  1.00  0.00    -0.394 C  
HETATM    5  C   UNL     1     -11.213  15.806  64.738  1.00  0.00    -0.375 C  
ENDBRANCH   3   4
BRANCH   3   6
HETATM    6  C   UNL     1     -11.932  12.877  66.394  1.00  0.00    -0.395 C  
BRANCH   6   7
HETATM    7  C   UNL     1     -10.848  11.967  66.936  1.00  0.00    -0.305 A  
HETATM    8  C   UNL     1      -9.489  12.175  66.672  1.00  0.00    -0.223 A  
HETATM    9  C   UNL     1      -8.554  11.194  66.959  1.00  0.00    -0.147 A  
HETATM   10  O   UNL     1      -9.044  13.295  66.027  1.00  0.00    -0.460 OA 
HETATM   11  C   UNL     1      -8.974   9.981  67.513  1.00  0.00    -0.141 A  
HETATM   12  H   UNL     1      -8.122  13.436  65.848  1.00  0.00     0.000 HD 
HETATM   13  C   UNL     1     -10.315   9.765  67.862  1.00  0.00    -0.213 A  
HETATM   14  C   UNL     1     -11.230  10.796  67.614  1.00  0.00    -0.370 A  
BRANCH  13  15
HETATM   15  N   UNL     1     -10.799   8.591  68.492  1.00  0.00    -0.437 NA 
HETATM   16  H   UNL     1     -11.186   7.874  67.878  1.00  0.00     0.000 HD 
BRANCH  15  17
HETATM   17  C   UNL     1     -10.806   8.297  69.889  1.00  0.00    -0.213 A  
HETATM   18  C   UNL     1     -10.466   7.023  70.400  1.00  0.00    -0.225 A  
HETATM   19  C   UNL     1      -9.812   6.032  69.633  1.00  0.00    -0.205 A  
HETATM   20  C   UNL     1      -9.643   4.744  70.123  1.00  0.00    -0.265 A  
HETATM   21  C   UNL     1     -10.110   4.444  71.394  1.00  0.00    -0.140 A  
HETATM   22 CL   UNL     1     -10.020   2.826  71.971  1.00  0.00    -0.238 Cl 
HETATM   23  C   UNL     1     -10.665   5.440  72.195  1.00  0.00    -0.286 A  
HETATM   24  C   UNL     1     -10.814   6.739  71.734  1.00  0.00    -0.229 A  
HETATM   25  N   UNL     1     -11.320   7.670  72.561  1.00  0.00    -0.331 NA 
HETATM   26  C   UNL     1     -11.514   8.915  72.078  1.00  0.00    -0.361 A  
HETATM   27  C   UNL     1     -11.305   9.267  70.762  1.00  0.00    -0.349 A  
ENDBRANCH  15  17
ENDBRANCH  13  15
ENDBRANCH   6   7
ENDBRANCH   3   6
ENDBRANCH   2   3
TORSDOF 6
ENDMDL
MODEL       83
REMARK 921   NORMALIZED FREE ENERGY PREDICTED BY IDOCK:   -5.60 KCAL/MOL
REMARK 922        TOTAL FREE ENERGY PREDICTED BY IDOCK:   -8.57 KCAL/MOL
REMARK 923 INTER-LIGAND FREE ENERGY PREDICTED BY IDOCK:   -7.35 KCAL/MOL
REMARK 924 INTRA-LIGAND FREE ENERGY PREDICTED BY IDOCK:   -1.22 KCAL/MOL
REMARK 927      BINDING AFFINITY PREDICTED BY RF-SCORE:    0.00 PKD
ROOT
HETATM    1  C   UNL     1     -11.624   4.934  73.055  1.00  0.00    -0.284 C  
HETATM    2  C   UNL     1     -10.641   5.878  73.740  1.00  0.00    -0.254 C  
ENDROOT
BRANCH   2   3
HETATM    3  N   UNL     1     -10.209   7.009  72.889  1.00  0.00    -0.197 NA 
BRANCH   3   4
HETATM    4  C   UNL     1      -8.759   7.011  72.622  1.00  0.00    -0.119 C  
HETATM    5  C   UNL     1      -7.929   8.078  73.335  1.00  0.00    -0.236 C  
ENDBRANCH   3   4
BRANCH   3   6
HETATM    6  C   UNL     1     -10.990   7.082  71.628  1.00  0.00    -0.230 C  
BRANCH   6   7
HETATM    7  C   UNL     1     -11.368   8.503  71.260  1.00  0.00    -0.325 A  
HETATM    8  C   UNL     1     -12.317   9.239  71.980  1.00  0.00    -0.363 A  
HETATM    9  C   UNL     1     -12.826  10.424  71.473  1.00  0.00    -0.569 A  
HETATM   10  O   UNL     1     -12.857   8.772  73.145  1.00  0.00    -0.609 OA 
HETATM   11  C   UNL     1     -12.391  10.885  70.227  1.00  0.00    -0.412 A  
HETATM   12  H   UNL     1     -13.501   9.272  73.633  1.00  0.00     0.000 HD 
HETATM   13  C   UNL     1     -11.386  10.216  69.513  1.00  0.00    -0.206 A  
HETATM   14  C   UNL     1     -10.848   9.052  70.075  1.00  0.00    -0.247 A  
BRANCH  13  15
HETATM   15  N   UNL     1     -10.846  10.664  68.281  1.00  0.00    -0.221 NA 
HETATM   16  H   UNL     1     -11.087  10.115  67.455  1.00  0.00     0.000 HD 
BRANCH  15  17
HETATM   17  C   UNL     1     -10.004  11.795  68.065  1.00  0.00    -0.188 A  
HETATM   18  C   UNL     1     -10.423  12.926  67.325  1.00  0.00    -0.236 A  
HETATM   19  C   UNL     1     -11.775  13.175  66.996  1.00  0.00    -0.431 A  
HETATM   20  C   UNL     1     -12.121  14.208  66.133  1.00  0.00    -0.454 A  
HETATM   21  C   UNL     1     -11.118  15.010  65.611  1.00  0.00    -0.349 A  
HETATM   22 CL   UNL     1     -11.513  16.215  64.449  1.00  0.00    -0.364 Cl 
HETATM   23  C   UNL     1      -9.794  14.835  66.010  1.00  0.00    -0.350 A  
HETATM   24  C   UNL     1      -9.433  13.829  66.893  1.00  0.00    -0.262 A  
HETATM   25  N   UNL     1      -8.148  13.728  67.275  1.00  0.00    -0.167 NA 
HETATM   26  C   UNL     1      -7.803  12.708  68.089  1.00  0.00    -0.145 A  
HETATM   27  C   UNL     1      -8.672  11.713  68.481  1.00  0.00    -0.130 A  
ENDBRANCH  15  17
ENDBRANCH  13  15
ENDBRANCH   6   7
ENDBRANCH   3   6
ENDBRANCH   2   3
TORSDOF 6
ENDMDL
MODEL       84
REMARK 921   NORMALIZED FREE ENERGY PREDICTED BY IDOCK:   -5.58 KCAL/MOL
REMARK 922        TOTAL FREE ENERGY PREDICTED BY IDOCK:   -8.55 KCAL/MOL
REMARK 923 INTER-LIGAND FREE ENERGY PREDICTED BY IDOCK:   -7.87 KCAL/MOL
REMARK 924 INTRA-LIGAND FREE ENERGY PREDICTED BY IDOCK:   -0.68 KCAL/MOL
REMARK 927      BINDING AFFINITY PREDICTED BY RF-SCORE:    0.00 PKD
ROOT
HETATM    1  C   UNL     1     -11.086   6.043  69.618  1.00  0.00    -0.474 C  
HETATM    2  C   UNL     1     -10.400   7.213  70.315  1.00  0.00    -0.201 C  
ENDROOT
BRANCH   2   3
HETATM    3  N   UNL     1     -11.262   7.912  71.295  1.00  0.00    -0.251 NA 
BRANCH   3   4
HETATM    4  C   UNL     1     -10.507   8.793  72.203  1.00  0.00    -0.314 C  
HETATM    5  C   UNL     1      -9.139   8.294  72.668  1.00  0.00    -0.327 C  
ENDBRANCH   3   4
BRANCH   3   6
HETATM    6  C   UNL     1     -12.372   8.642  70.632  1.00  0.00     0.162 C  
BRANCH   6   7
HETATM    7  C   UNL     1     -12.097  10.128  70.509  1.00  0.00    -0.380 A  
HETATM    8  C   UNL     1     -12.730  11.079  71.318  1.00  0.00    -0.432 A  
HETATM    9  C   UNL     1     -12.657  12.428  71.013  1.00  0.00    -0.349 A  
HETATM   10  O   UNL     1     -13.529  10.716  72.366  1.00  0.00    -0.603 OA 
HETATM   11  C   UNL     1     -11.948  12.843  69.880  1.00  0.00    -0.377 A  
HETATM   12  H   UNL     1     -13.958  11.361  72.915  1.00  0.00     0.000 HD 
HETATM   13  C   UNL     1     -11.238  11.927  69.091  1.00  0.00    -0.255 A  
HETATM   14  C   UNL     1     -11.282  10.576  69.455  1.00  0.00    -0.329 A  
BRANCH  13  15
HETATM   15  N   UNL     1     -10.440  12.284  67.974  1.00  0.00    -0.211 NA 
HETATM   16  H   UNL     1      -9.452  12.034  68.026  1.00  0.00     0.000 HD 
BRANCH  15  17
HETATM   17  C   UNL     1     -10.863  12.951  66.786  1.00  0.00    -0.267 A  
HETATM   18  C   UNL     1     -10.559  14.309  66.528  1.00  0.00    -0.286 A  
HETATM   19  C   UNL     1      -9.582  15.032  67.248  1.00  0.00    -0.208 A  
HETATM   20  C   UNL     1      -9.431  16.402  67.070  1.00  0.00    -0.240 A  
HETATM   21  C   UNL     1     -10.245  17.053  66.155  1.00  0.00    -0.337 A  
HETATM   22 CL   UNL     1     -10.157  18.764  66.008  1.00  0.00    -0.398 Cl 
HETATM   23  C   UNL     1     -11.141  16.331  65.369  1.00  0.00    -0.090 A  
HETATM   24  C   UNL     1     -11.284  14.959  65.510  1.00  0.00    -0.348 A  
HETATM   25  N   UNL     1     -12.134  14.306  64.700  1.00  0.00    -0.443 NA 
HETATM   26  C   UNL     1     -12.305  12.980  64.890  1.00  0.00    -0.459 A  
HETATM   27  C   UNL     1     -11.726  12.273  65.922  1.00  0.00    -0.451 A  
ENDBRANCH  15  17
ENDBRANCH  13  15
ENDBRANCH   6   7
ENDBRANCH   3   6
ENDBRANCH   2   3
TORSDOF 6
ENDMDL
MODEL       85
REMARK 921   NORMALIZED FREE ENERGY PREDICTED BY IDOCK:   -5.57 KCAL/MOL
REMARK 922        TOTAL FREE ENERGY PREDICTED BY IDOCK:   -8.54 KCAL/MOL
REMARK 923 INTER-LIGAND FREE ENERGY PREDICTED BY IDOCK:   -7.88 KCAL/MOL
REMARK 924 INTRA-LIGAND FREE ENERGY PREDICTED BY IDOCK:   -0.66 KCAL/MOL
REMARK 927      BINDING AFFINITY PREDICTED BY RF-SCORE:    0.00 PKD
ROOT
HETATM    1  C   UNL     1     -10.180  18.479  66.144  1.00  0.00    -0.424 C  
HETATM    2  C   UNL     1      -9.717  17.347  67.056  1.00  0.00    -0.276 C  
ENDROOT
BRANCH   2   3
HETATM    3  N   UNL     1     -10.542  16.123  66.952  1.00  0.00    -0.306 NA 
BRANCH   3   4
HETATM    4  C   UNL     1     -10.808  15.723  65.558  1.00  0.00    -0.332 C  
HETATM    5  C   UNL     1     -10.352  14.325  65.143  1.00  0.00    -0.440 C  
ENDBRANCH   3   4
BRANCH   3   6
HETATM    6  C   UNL     1      -9.965  15.000  67.734  1.00  0.00    -0.229 C  
BRANCH   6   7
HETATM    7  C   UNL     1     -10.945  14.433  68.742  1.00  0.00    -0.264 A  
HETATM    8  C   UNL     1     -11.419  15.176  69.830  1.00  0.00    -0.288 A  
HETATM    9  C   UNL     1     -12.100  14.557  70.866  1.00  0.00    -0.404 A  
HETATM   10  O   UNL     1     -11.138  16.506  69.971  1.00  0.00    -0.385 OA 
HETATM   11  C   UNL     1     -12.310  13.175  70.826  1.00  0.00    -0.404 A  
HETATM   12  H   UNL     1     -11.459  17.009  70.710  1.00  0.00     0.000 HD 
HETATM   13  C   UNL     1     -11.919  12.411  69.717  1.00  0.00    -0.289 A  
HETATM   14  C   UNL     1     -11.284  13.071  68.659  1.00  0.00    -0.316 A  
BRANCH  13  15
HETATM   15  N   UNL     1     -12.164  11.021  69.576  1.00  0.00    -0.381 NA 
HETATM   16  H   UNL     1     -12.304  10.681  68.624  1.00  0.00     0.000 HD 
BRANCH  15  17
HETATM   17  C   UNL     1     -12.238  10.045  70.614  1.00  0.00    -0.269 A  
HETATM   18  C   UNL     1     -11.562   8.805  70.540  1.00  0.00    -0.170 A  
HETATM   19  C   UNL     1     -10.535   8.538  69.606  1.00  0.00    -0.221 A  
HETATM   20  C   UNL     1     -10.013   7.259  69.463  1.00  0.00    -0.170 A  
HETATM   21  C   UNL     1     -10.502   6.242  70.268  1.00  0.00    -0.221 A  
HETATM   22 CL   UNL     1      -9.956   4.629  70.024  1.00  0.00    -0.302 Cl 
HETATM   23  C   UNL     1     -11.441   6.516  71.261  1.00  0.00    -0.371 A  
HETATM   24  C   UNL     1     -11.952   7.793  71.439  1.00  0.00    -0.306 A  
HETATM   25  N   UNL     1     -12.827   8.011  72.435  1.00  0.00    -0.170 NA 
HETATM   26  C   UNL     1     -13.359   9.246  72.558  1.00  0.00    -0.391 A  
HETATM   27  C   UNL     1     -13.125  10.272  71.669  1.00  0.00    -0.553 A  
ENDBRANCH  15  17
ENDBRANCH  13  15
ENDBRANCH   6   7
ENDBRANCH   3   6
ENDBRANCH   2   3
TORSDOF 6
ENDMDL
MODEL       86
REMARK 921   NORMALIZED FREE ENERGY PREDICTED BY IDOCK:   -5.57 KCAL/MOL
REMARK 922        TOTAL FREE ENERGY PREDICTED BY IDOCK:   -8.54 KCAL/MOL
REMARK 923 INTER-LIGAND FREE ENERGY PREDICTED BY IDOCK:   -8.06 KCAL/MOL
REMARK 924 INTRA-LIGAND FREE ENERGY PREDICTED BY IDOCK:   -0.48 KCAL/MOL
REMARK 927      BINDING AFFINITY PREDICTED BY RF-SCORE:    0.00 PKD
ROOT
HETATM    1  C   UNL     1      -9.291  20.783  66.992  1.00  0.00    -0.354 C  
HETATM    2  C   UNL     1      -9.357  19.661  65.960  1.00  0.00    -0.271 C  
ENDROOT
BRANCH   2   3
HETATM    3  N   UNL     1     -10.362  18.621  66.274  1.00  0.00    -0.428 NA 
BRANCH   3   4
HETATM    4  C   UNL     1      -9.974  17.281  65.799  1.00  0.00    -0.084 C  
HETATM    5  C   UNL     1     -10.998  16.527  64.951  1.00  0.00    -0.223 C  
ENDBRANCH   3   4
BRANCH   3   6
HETATM    6  C   UNL     1     -10.707  18.604  67.718  1.00  0.00    -0.342 C  
BRANCH   6   7
HETATM    7  C   UNL     1     -10.205  17.358  68.420  1.00  0.00    -0.362 A  
HETATM    8  C   UNL     1      -8.857  17.172  68.748  1.00  0.00    -0.235 A  
HETATM    9  C   UNL     1      -8.391  15.930  69.148  1.00  0.00    -0.253 A  
HETATM   10  O   UNL     1      -7.932  18.164  68.585  1.00  0.00    -0.300 OA 
HETATM   11  C   UNL     1      -9.277  14.850  69.217  1.00  0.00    -0.100 A  
HETATM   12  H   UNL     1      -7.018  18.038  68.807  1.00  0.00     0.000 HD 
HETATM   13  C   UNL     1     -10.648  15.015  68.971  1.00  0.00    -0.245 A  
HETATM   14  C   UNL     1     -11.101  16.294  68.625  1.00  0.00    -0.356 A  
BRANCH  13  15
HETATM   15  N   UNL     1     -11.614  13.984  69.094  1.00  0.00    -0.290 NA 
HETATM   16  H   UNL     1     -11.936  13.561  68.223  1.00  0.00     0.000 HD 
BRANCH  15  17
HETATM   17  C   UNL     1     -12.184  13.471  70.296  1.00  0.00    -0.347 A  
HETATM   18  C   UNL     1     -12.165  12.094  70.620  1.00  0.00    -0.392 A  
HETATM   19  C   UNL     1     -11.340  11.156  69.959  1.00  0.00    -0.326 A  
HETATM   20  C   UNL     1     -11.471   9.794  70.198  1.00  0.00    -0.272 A  
HETATM   21  C   UNL     1     -12.417   9.363  71.116  1.00  0.00    -0.293 A  
HETATM   22 CL   UNL     1     -12.678   7.678  71.337  1.00  0.00    -0.362 Cl 
HETATM   23  C   UNL     1     -13.164  10.286  71.846  1.00  0.00    -0.550 A  
HETATM   24  C   UNL     1     -13.025  11.650  71.643  1.00  0.00    -0.378 A  
HETATM   25  N   UNL     1     -13.742  12.498  72.401  1.00  0.00    -0.362 NA 
HETATM   26  C   UNL     1     -13.639  13.820  72.150  1.00  0.00    -0.519 A  
HETATM   27  C   UNL     1     -12.910  14.348  71.106  1.00  0.00    -0.417 A  
ENDBRANCH  15  17
ENDBRANCH  13  15
ENDBRANCH   6   7
ENDBRANCH   3   6
ENDBRANCH   2   3
TORSDOF 6
ENDMDL
MODEL       87
REMARK 921   NORMALIZED FREE ENERGY PREDICTED BY IDOCK:   -5.56 KCAL/MOL
REMARK 922        TOTAL FREE ENERGY PREDICTED BY IDOCK:   -8.52 KCAL/MOL
REMARK 923 INTER-LIGAND FREE ENERGY PREDICTED BY IDOCK:   -7.39 KCAL/MOL
REMARK 924 INTRA-LIGAND FREE ENERGY PREDICTED BY IDOCK:   -1.13 KCAL/MOL
REMARK 927      BINDING AFFINITY PREDICTED BY RF-SCORE:    0.00 PKD
ROOT
HETATM    1  C   UNL     1     -11.805  14.774  69.026  1.00  0.00    -0.337 C  
HETATM    2  C   UNL     1     -11.586  14.426  67.557  1.00  0.00    -0.373 C  
ENDROOT
BRANCH   2   3
HETATM    3  N   UNL     1     -10.880  15.480  66.794  1.00  0.00    -0.310 NA 
BRANCH   3   4
HETATM    4  C   UNL     1     -10.227  16.480  67.658  1.00  0.00    -0.279 C  
HETATM    5  C   UNL     1     -10.515  17.949  67.350  1.00  0.00    -0.390 C  
ENDBRANCH   3   4
BRANCH   3   6
HETATM    6  C   UNL     1      -9.924  14.906  65.814  1.00  0.00    -0.347 C  
BRANCH   6   7
HETATM    7  C   UNL     1     -10.584  13.924  64.865  1.00  0.00    -0.436 A  
HETATM    8  C   UNL     1     -11.621  14.296  64.002  1.00  0.00    -0.075 A  
HETATM    9  C   UNL     1     -12.371  13.335  63.343  1.00  0.00    -0.402 A  
HETATM   10  O   UNL     1     -12.007  15.599  63.858  1.00  0.00    -0.990 OA 
HETATM   11  C   UNL     1     -12.092  11.980  63.549  1.00  0.00    -0.628 A  
HETATM   12  H   UNL     1     -12.711  15.851  63.272  1.00  0.00     0.000 HD 
HETATM   13  C   UNL     1     -11.013  11.572  64.345  1.00  0.00    -0.324 A  
HETATM   14  C   UNL     1     -10.235  12.565  64.953  1.00  0.00    -0.301 A  
BRANCH  13  15
HETATM   15  N   UNL     1     -10.627  10.222  64.539  1.00  0.00    -0.165 NA 
HETATM   16  H   UNL     1     -11.290   9.512  64.226  1.00  0.00     0.000 HD 
BRANCH  15  17
HETATM   17  C   UNL     1      -9.416   9.742  65.122  1.00  0.00    -0.273 A  
HETATM   18  C   UNL     1      -9.311   9.412  66.493  1.00  0.00    -0.222 A  
HETATM   19  C   UNL     1     -10.434   9.236  67.334  1.00  0.00    -0.340 A  
HETATM   20  C   UNL     1     -10.283   9.071  68.705  1.00  0.00    -0.226 A  
HETATM   21  C   UNL     1      -9.004   9.062  69.241  1.00  0.00    -0.144 A  
HETATM   22 CL   UNL     1      -8.800   8.982  70.947  1.00  0.00    -0.270 Cl 
HETATM   23  C   UNL     1      -7.888   9.134  68.409  1.00  0.00    -0.102 A  
HETATM   24  C   UNL     1      -8.020   9.267  67.035  1.00  0.00    -0.102 A  
HETATM   25  N   UNL     1      -6.912   9.293  66.275  1.00  0.00    -0.085 NA 
HETATM   26  C   UNL     1      -7.054   9.483  64.946  1.00  0.00    -0.107 A  
HETATM   27  C   UNL     1      -8.262   9.739  64.334  1.00  0.00    -0.162 A  
ENDBRANCH  15  17
ENDBRANCH  13  15
ENDBRANCH   6   7
ENDBRANCH   3   6
ENDBRANCH   2   3
TORSDOF 6
ENDMDL
MODEL       88
REMARK 921   NORMALIZED FREE ENERGY PREDICTED BY IDOCK:   -5.55 KCAL/MOL
REMARK 922        TOTAL FREE ENERGY PREDICTED BY IDOCK:   -8.51 KCAL/MOL
REMARK 923 INTER-LIGAND FREE ENERGY PREDICTED BY IDOCK:   -8.19 KCAL/MOL
REMARK 924 INTRA-LIGAND FREE ENERGY PREDICTED BY IDOCK:   -0.33 KCAL/MOL
REMARK 927      BINDING AFFINITY PREDICTED BY RF-SCORE:    0.00 PKD
ROOT
HETATM    1  C   UNL     1     -13.949  15.417  72.719  1.00  0.00    -0.519 C  
HETATM    2  C   UNL     1     -13.926  15.224  71.206  1.00  0.00    -0.457 C  
ENDROOT
BRANCH   2   3
HETATM    3  N   UNL     1     -13.046  14.120  70.759  1.00  0.00    -0.284 NA 
BRANCH   3   4
HETATM    4  C   UNL     1     -11.626  14.508  70.685  1.00  0.00    -0.222 C  
HETATM    5  C   UNL     1     -11.316  15.871  70.066  1.00  0.00    -0.358 C  
ENDBRANCH   3   4
BRANCH   3   6
HETATM    6  C   UNL     1     -13.230  12.899  71.583  1.00  0.00    -0.324 C  
BRANCH   6   7
HETATM    7  C   UNL     1     -12.501  11.699  71.013  1.00  0.00    -0.436 A  
HETATM    8  C   UNL     1     -12.678  10.403  71.514  1.00  0.00    -0.459 A  
HETATM    9  C   UNL     1     -11.816   9.381  71.153  1.00  0.00    -0.413 A  
HETATM   10  O   UNL     1     -13.627  10.119  72.455  1.00  0.00    -0.627 OA 
HETATM   11  C   UNL     1     -10.754   9.648  70.282  1.00  0.00    -0.335 A  
HETATM   12  H   UNL     1     -13.747   9.240  72.796  1.00  0.00     0.000 HD 
HETATM   13  C   UNL     1     -10.591  10.914  69.699  1.00  0.00    -0.129 A  
HETATM   14  C   UNL     1     -11.511  11.914  70.038  1.00  0.00    -0.213 A  
BRANCH  13  15
HETATM   15  N   UNL     1      -9.584  11.236  68.755  1.00  0.00    -0.296 NA 
HETATM   16  H   UNL     1      -8.686  11.535  69.135  1.00  0.00     0.000 HD 
BRANCH  15  17
HETATM   17  C   UNL     1      -9.685  11.189  67.332  1.00  0.00    -0.173 A  
HETATM   18  C   UNL     1     -10.182  12.271  66.569  1.00  0.00    -0.235 A  
HETATM   19  C   UNL     1     -10.337  13.577  67.089  1.00  0.00    -0.250 A  
HETATM   20  C   UNL     1     -10.977  14.567  66.355  1.00  0.00    -0.324 A  
HETATM   21  C   UNL     1     -11.449  14.263  65.087  1.00  0.00    -0.351 A  
HETATM   22 CL   UNL     1     -12.350  15.437  64.212  1.00  0.00    -0.256 Cl 
HETATM   23  C   UNL     1     -11.211  13.009  64.527  1.00  0.00    -0.372 A  
HETATM   24  C   UNL     1     -10.546  12.017  65.233  1.00  0.00    -0.287 A  
HETATM   25  N   UNL     1     -10.309  10.838  64.633  1.00  0.00    -0.344 NA 
HETATM   26  C   UNL     1      -9.714   9.864  65.353  1.00  0.00    -0.306 A  
HETATM   27  C   UNL     1      -9.415   9.976  66.694  1.00  0.00    -0.215 A  
ENDBRANCH  15  17
ENDBRANCH  13  15
ENDBRANCH   6   7
ENDBRANCH   3   6
ENDBRANCH   2   3
TORSDOF 6
ENDMDL
MODEL       89
REMARK 921   NORMALIZED FREE ENERGY PREDICTED BY IDOCK:   -5.53 KCAL/MOL
REMARK 922        TOTAL FREE ENERGY PREDICTED BY IDOCK:   -8.48 KCAL/MOL
REMARK 923 INTER-LIGAND FREE ENERGY PREDICTED BY IDOCK:   -7.58 KCAL/MOL
REMARK 924 INTRA-LIGAND FREE ENERGY PREDICTED BY IDOCK:   -0.90 KCAL/MOL
REMARK 927      BINDING AFFINITY PREDICTED BY RF-SCORE:    0.00 PKD
ROOT
HETATM    1  C   UNL     1     -10.721   6.308  71.007  1.00  0.00    -0.313 C  
HETATM    2  C   UNL     1     -12.131   6.891  71.006  1.00  0.00    -0.380 C  
ENDROOT
BRANCH   2   3
HETATM    3  N   UNL     1     -12.164   8.369  70.933  1.00  0.00    -0.170 NA 
BRANCH   3   4
HETATM    4  C   UNL     1     -12.658   8.997  72.172  1.00  0.00    -0.391 C  
HETATM    5  C   UNL     1     -13.247  10.402  72.044  1.00  0.00    -0.497 C  
ENDBRANCH   3   4
BRANCH   3   6
HETATM    6  C   UNL     1     -10.851   8.932  70.528  1.00  0.00    -0.236 C  
BRANCH   6   7
HETATM    7  C   UNL     1     -10.895   9.582  69.160  1.00  0.00    -0.194 A  
HETATM    8  C   UNL     1     -10.118   9.129  68.087  1.00  0.00    -0.189 A  
HETATM    9  C   UNL     1      -9.985   9.892  66.938  1.00  0.00    -0.268 A  
HETATM   10  O   UNL     1      -9.376   7.984  68.168  1.00  0.00    -0.140 OA 
HETATM   11  C   UNL     1     -10.630  11.129  66.852  1.00  0.00    -0.304 A  
HETATM   12  H   UNL     1      -8.848   7.677  67.440  1.00  0.00     0.000 HD 
HETATM   13  C   UNL     1     -11.479  11.580  67.874  1.00  0.00    -0.301 A  
HETATM   14  C   UNL     1     -11.641  10.763  68.999  1.00  0.00    -0.370 A  
BRANCH  13  15
HETATM   15  N   UNL     1     -12.221  12.787  67.823  1.00  0.00    -0.251 NA 
HETATM   16  H   UNL     1     -12.995  12.815  67.158  1.00  0.00     0.000 HD 
BRANCH  15  17
HETATM   17  C   UNL     1     -12.010  13.967  68.597  1.00  0.00    -0.366 A  
HETATM   18  C   UNL     1     -11.401  15.127  68.064  1.00  0.00    -0.346 A  
HETATM   19  C   UNL     1     -11.224  15.340  66.678  1.00  0.00    -0.232 A  
HETATM   20  C   UNL     1     -10.480  16.414  66.209  1.00  0.00    -0.298 A  
HETATM   21  C   UNL     1      -9.923  17.295  67.124  1.00  0.00    -0.282 A  
HETATM   22 CL   UNL     1      -8.899  18.560  66.569  1.00  0.00    -0.300 Cl 
HETATM   23  C   UNL     1     -10.177  17.150  68.487  1.00  0.00    -0.346 A  
HETATM   24  C   UNL     1     -10.943  16.102  68.972  1.00  0.00    -0.312 A  
HETATM   25  N   UNL     1     -11.188  16.030  70.291  1.00  0.00    -0.366 NA 
HETATM   26  C   UNL     1     -11.886  14.971  70.754  1.00  0.00    -0.320 A  
HETATM   27  C   UNL     1     -12.286  13.914  69.966  1.00  0.00    -0.408 A  
ENDBRANCH  15  17
ENDBRANCH  13  15
ENDBRANCH   6   7
ENDBRANCH   3   6
ENDBRANCH   2   3
TORSDOF 6
ENDMDL
MODEL       90
REMARK 921   NORMALIZED FREE ENERGY PREDICTED BY IDOCK:   -5.51 KCAL/MOL
REMARK 922        TOTAL FREE ENERGY PREDICTED BY IDOCK:   -8.46 KCAL/MOL
REMARK 923 INTER-LIGAND FREE ENERGY PREDICTED BY IDOCK:   -7.28 KCAL/MOL
REMARK 924 INTRA-LIGAND FREE ENERGY PREDICTED BY IDOCK:   -1.17 KCAL/MOL
REMARK 927      BINDING AFFINITY PREDICTED BY RF-SCORE:    0.00 PKD
ROOT
HETATM    1  C   UNL     1     -13.701   8.146  71.627  1.00  0.00    -0.403 C  
HETATM    2  C   UNL     1     -12.467   8.852  72.181  1.00  0.00    -0.389 C  
ENDROOT
BRANCH   2   3
HETATM    3  N   UNL     1     -11.193   8.365  71.606  1.00  0.00    -0.261 NA 
BRANCH   3   4
HETATM    4  C   UNL     1     -10.697   7.140  72.258  1.00  0.00    -0.221 C  
HETATM    5  C   UNL     1     -10.434   7.218  73.762  1.00  0.00    -0.335 C  
ENDBRANCH   3   4
BRANCH   3   6
HETATM    6  C   UNL     1     -11.280   8.195  70.133  1.00  0.00    -0.134 C  
BRANCH   6   7
HETATM    7  C   UNL     1     -10.624   9.334  69.378  1.00  0.00    -0.234 A  
HETATM    8  C   UNL     1      -9.256   9.615  69.482  1.00  0.00    -0.203 A  
HETATM    9  C   UNL     1      -8.740  10.804  68.993  1.00  0.00    -0.136 A  
HETATM   10  O   UNL     1      -8.401   8.792  70.159  1.00  0.00    -0.115 OA 
HETATM   11  C   UNL     1      -9.595  11.734  68.394  1.00  0.00    -0.191 A  
HETATM   12  H   UNL     1      -7.474   8.983  70.230  1.00  0.00     0.000 HD 
HETATM   13  C   UNL     1     -10.956  11.455  68.203  1.00  0.00    -0.232 A  
HETATM   14  C   UNL     1     -11.441  10.221  68.656  1.00  0.00    -0.178 A  
BRANCH  13  15
HETATM   15  N   UNL     1     -11.866  12.318  67.541  1.00  0.00    -0.519 NA 
HETATM   16  H   UNL     1     -12.761  12.473  68.005  1.00  0.00     0.000 HD 
BRANCH  15  17
HETATM   17  C   UNL     1     -11.670  12.994  66.300  1.00  0.00    -0.387 A  
HETATM   18  C   UNL     1     -11.191  14.323  66.225  1.00  0.00    -0.337 A  
HETATM   19  C   UNL     1     -10.586  14.989  67.316  1.00  0.00    -0.279 A  
HETATM   20  C   UNL     1     -10.278  16.341  67.246  1.00  0.00    -0.279 A  
HETATM   21  C   UNL     1     -10.554  17.032  66.076  1.00  0.00    -0.206 A  
HETATM   22 CL   UNL     1     -10.293  18.731  66.011  1.00  0.00    -0.485 Cl 
HETATM   23  C   UNL     1     -11.056  16.362  64.962  1.00  0.00    -0.216 A  
HETATM   24  C   UNL     1     -11.342  15.005  65.003  1.00  0.00    -0.394 A  
HETATM   25  N   UNL     1     -11.788  14.399  63.889  1.00  0.00    -0.238 NA 
HETATM   26  C   UNL     1     -12.117  13.092  63.962  1.00  0.00    -0.446 A  
HETATM   27  C   UNL     1     -12.106  12.364  65.132  1.00  0.00    -0.464 A  
ENDBRANCH  15  17
ENDBRANCH  13  15
ENDBRANCH   6   7
ENDBRANCH   3   6
ENDBRANCH   2   3
TORSDOF 6
ENDMDL
MODEL       91
REMARK 921   NORMALIZED FREE ENERGY PREDICTED BY IDOCK:   -5.50 KCAL/MOL
REMARK 922        TOTAL FREE ENERGY PREDICTED BY IDOCK:   -8.45 KCAL/MOL
REMARK 923 INTER-LIGAND FREE ENERGY PREDICTED BY IDOCK:   -7.41 KCAL/MOL
REMARK 924 INTRA-LIGAND FREE ENERGY PREDICTED BY IDOCK:   -1.04 KCAL/MOL
REMARK 927      BINDING AFFINITY PREDICTED BY RF-SCORE:    0.00 PKD
ROOT
HETATM    1  C   UNL     1     -12.259  14.385  64.441  1.00  0.00    -0.481 C  
HETATM    2  C   UNL     1     -12.619  13.100  65.181  1.00  0.00    -0.465 C  
ENDROOT
BRANCH   2   3
HETATM    3  N   UNL     1     -11.444  12.298  65.589  1.00  0.00    -0.355 NA 
BRANCH   3   4
HETATM    4  C   UNL     1     -10.337  12.362  64.618  1.00  0.00    -0.307 C  
HETATM    5  C   UNL     1     -10.018  11.078  63.852  1.00  0.00    -0.396 C  
ENDBRANCH   3   4
BRANCH   3   6
HETATM    6  C   UNL     1     -10.985  12.647  66.957  1.00  0.00    -0.265 C  
BRANCH   6   7
HETATM    7  C   UNL     1     -10.430  11.451  67.705  1.00  0.00    -0.215 A  
HETATM    8  C   UNL     1      -9.223  11.502  68.413  1.00  0.00    -0.190 A  
HETATM    9  C   UNL     1      -8.617  10.340  68.863  1.00  0.00    -0.150 A  
HETATM   10  O   UNL     1      -8.542  12.673  68.593  1.00  0.00    -0.345 OA 
HETATM   11  C   UNL     1      -9.216   9.103  68.601  1.00  0.00    -0.136 A  
HETATM   12  H   UNL     1      -7.723  12.707  69.073  1.00  0.00     0.000 HD 
HETATM   13  C   UNL     1     -10.462   9.018  67.964  1.00  0.00    -0.216 A  
HETATM   14  C   UNL     1     -11.079  10.212  67.570  1.00  0.00    -0.251 A  
BRANCH  13  15
HETATM   15  N   UNL     1     -11.161   7.806  67.731  1.00  0.00    -0.471 NA 
HETATM   16  H   UNL     1     -12.011   7.875  67.171  1.00  0.00     0.000 HD 
BRANCH  15  17
HETATM   17  C   UNL     1     -10.810   6.502  68.191  1.00  0.00    -0.295 A  
HETATM   18  C   UNL     1     -10.951   6.109  69.542  1.00  0.00    -0.463 A  
HETATM   19  C   UNL     1     -11.714   6.838  70.484  1.00  0.00    -0.430 A  
HETATM   20  C   UNL     1     -11.693   6.505  71.832  1.00  0.00    -0.371 A  
HETATM   21  C   UNL     1     -10.924   5.428  72.245  1.00  0.00    -0.216 A  
HETATM   22 CL   UNL     1     -10.789   5.074  73.922  1.00  0.00    -0.353 Cl 
HETATM   23  C   UNL     1     -10.251   4.642  71.311  1.00  0.00    -0.205 A  
HETATM   24  C   UNL     1     -10.284   4.940  69.958  1.00  0.00    -0.243 A  
HETATM   25  N   UNL     1      -9.649   4.129  69.095  1.00  0.00    -0.181 NA 
HETATM   26  C   UNL     1      -9.642   4.466  67.788  1.00  0.00    -0.160 A  
HETATM   27  C   UNL     1     -10.172   5.639  67.297  1.00  0.00    -0.250 A  
ENDBRANCH  15  17
ENDBRANCH  13  15
ENDBRANCH   6   7
ENDBRANCH   3   6
ENDBRANCH   2   3
TORSDOF 6
ENDMDL
MODEL       92
REMARK 921   NORMALIZED FREE ENERGY PREDICTED BY IDOCK:   -5.50 KCAL/MOL
REMARK 922        TOTAL FREE ENERGY PREDICTED BY IDOCK:   -8.44 KCAL/MOL
REMARK 923 INTER-LIGAND FREE ENERGY PREDICTED BY IDOCK:   -8.31 KCAL/MOL
REMARK 924 INTRA-LIGAND FREE ENERGY PREDICTED BY IDOCK:   -0.14 KCAL/MOL
REMARK 927      BINDING AFFINITY PREDICTED BY RF-SCORE:    0.00 PKD
ROOT
HETATM    1  C   UNL     1     -11.059   6.351  68.810  1.00  0.00    -0.404 C  
HETATM    2  C   UNL     1     -10.056   5.928  69.879  1.00  0.00    -0.198 C  
ENDROOT
BRANCH   2   3
HETATM    3  N   UNL     1     -10.304   6.540  71.204  1.00  0.00    -0.203 NA 
BRANCH   3   4
HETATM    4  C   UNL     1      -9.738   5.756  72.316  1.00  0.00    -0.154 C  
HETATM    5  C   UNL     1     -10.678   4.773  73.014  1.00  0.00    -0.302 C  
ENDBRANCH   3   4
BRANCH   3   6
HETATM    6  C   UNL     1      -9.850   7.953  71.253  1.00  0.00    -0.168 C  
BRANCH   6   7
HETATM    7  C   UNL     1     -11.004   8.935  71.208  1.00  0.00    -0.363 A  
HETATM    8  C   UNL     1     -12.109   8.835  72.063  1.00  0.00    -0.377 A  
HETATM    9  C   UNL     1     -13.254   9.579  71.829  1.00  0.00    -0.505 A  
HETATM   10  O   UNL     1     -12.149   7.931  73.087  1.00  0.00    -0.655 OA 
HETATM   11  C   UNL     1     -13.308  10.434  70.723  1.00  0.00    -0.130 A  
HETATM   12  H   UNL     1     -12.898   7.863  73.666  1.00  0.00     0.000 HD 
HETATM   13  C   UNL     1     -12.194  10.618  69.890  1.00  0.00    -0.275 A  
HETATM   14  C   UNL     1     -11.031   9.896  70.183  1.00  0.00    -0.356 A  
BRANCH  13  15
HETATM   15  N   UNL     1     -12.153  11.520  68.797  1.00  0.00    -0.471 NA 
HETATM   16  H   UNL     1     -12.371  11.130  67.880  1.00  0.00     0.000 HD 
BRANCH  15  17
HETATM   17  C   UNL     1     -11.841  12.912  68.834  1.00  0.00    -0.309 A  
HETATM   18  C   UNL     1     -12.064  13.710  69.980  1.00  0.00    -0.417 A  
HETATM   19  C   UNL     1     -12.322  13.170  71.261  1.00  0.00    -0.221 A  
HETATM   20  C   UNL     1     -12.693  13.987  72.321  1.00  0.00    -0.338 A  
HETATM   21  C   UNL     1     -12.789  15.354  72.111  1.00  0.00    -0.381 A  
HETATM   22 CL   UNL     1     -13.364  16.369  73.375  1.00  0.00    -0.347 Cl 
HETATM   23  C   UNL     1     -12.439  15.906  70.880  1.00  0.00    -0.352 A  
HETATM   24  C   UNL     1     -12.036  15.109  69.819  1.00  0.00    -0.319 A  
HETATM   25  N   UNL     1     -11.673  15.695  68.665  1.00  0.00    -0.375 NA 
HETATM   26  C   UNL     1     -11.340  14.902  67.624  1.00  0.00    -0.337 A  
HETATM   27  C   UNL     1     -11.436  13.527  67.647  1.00  0.00    -0.351 A  
ENDBRANCH  15  17
ENDBRANCH  13  15
ENDBRANCH   6   7
ENDBRANCH   3   6
ENDBRANCH   2   3
TORSDOF 6
ENDMDL
MODEL       93
REMARK 921   NORMALIZED FREE ENERGY PREDICTED BY IDOCK:   -5.49 KCAL/MOL
REMARK 922        TOTAL FREE ENERGY PREDICTED BY IDOCK:   -8.42 KCAL/MOL
REMARK 923 INTER-LIGAND FREE ENERGY PREDICTED BY IDOCK:   -7.62 KCAL/MOL
REMARK 924 INTRA-LIGAND FREE ENERGY PREDICTED BY IDOCK:   -0.81 KCAL/MOL
REMARK 927      BINDING AFFINITY PREDICTED BY RF-SCORE:    0.00 PKD
ROOT
HETATM    1  C   UNL     1      -9.831  20.186  67.365  1.00  0.00    -0.573 C  
HETATM    2  C   UNL     1      -9.071  19.441  68.458  1.00  0.00    -0.375 C  
ENDROOT
BRANCH   2   3
HETATM    3  N   UNL     1      -8.110  18.441  67.940  1.00  0.00    -0.254 NA 
BRANCH   3   4
HETATM    4  C   UNL     1      -6.704  18.862  68.088  1.00  0.00    -0.231 C  
HETATM    5  C   UNL     1      -5.975  18.398  69.348  1.00  0.00    -0.252 C  
ENDBRANCH   3   4
BRANCH   3   6
HETATM    6  C   UNL     1      -8.336  17.099  68.532  1.00  0.00    -0.262 C  
BRANCH   6   7
HETATM    7  C   UNL     1      -9.286  16.254  67.706  1.00  0.00    -0.216 A  
HETATM    8  C   UNL     1      -9.374  16.365  66.313  1.00  0.00    -0.315 A  
HETATM    9  C   UNL     1     -10.420  15.776  65.621  1.00  0.00    -0.402 A  
HETATM   10  O   UNL     1      -8.507  17.142  65.597  1.00  0.00    -0.460 OA 
HETATM   11  C   UNL     1     -11.401  15.069  66.323  1.00  0.00    -0.273 A  
HETATM   12  H   UNL     1      -8.567  17.217  64.652  1.00  0.00     0.000 HD 
HETATM   13  C   UNL     1     -11.305  14.870  67.708  1.00  0.00    -0.329 A  
HETATM   14  C   UNL     1     -10.207  15.428  68.375  1.00  0.00    -0.221 A  
BRANCH  13  15
HETATM   15  N   UNL     1     -12.220  14.104  68.473  1.00  0.00    -0.561 NA 
HETATM   16  H   UNL     1     -13.175  14.461  68.525  1.00  0.00     0.000 HD 
BRANCH  15  17
HETATM   17  C   UNL     1     -11.959  12.890  69.175  1.00  0.00    -0.259 A  
HETATM   18  C   UNL     1     -11.274  11.802  68.586  1.00  0.00    -0.312 A  
HETATM   19  C   UNL     1     -10.535  11.913  67.386  1.00  0.00    -0.242 A  
HETATM   20  C   UNL     1     -10.015  10.788  66.759  1.00  0.00    -0.249 A  
HETATM   21  C   UNL     1     -10.214   9.545  67.341  1.00  0.00    -0.227 A  
HETATM   22 CL   UNL     1      -9.684   8.129  66.521  1.00  0.00    -0.308 Cl 
HETATM   23  C   UNL     1     -10.853   9.437  68.575  1.00  0.00    -0.149 A  
HETATM   24  C   UNL     1     -11.352  10.552  69.230  1.00  0.00    -0.262 A  
HETATM   25  N   UNL     1     -11.926  10.397  70.435  1.00  0.00    -0.297 NA 
HETATM   26  C   UNL     1     -12.459  11.484  71.032  1.00  0.00    -0.356 A  
HETATM   27  C   UNL     1     -12.528  12.727  70.441  1.00  0.00    -0.231 A  
ENDBRANCH  15  17
ENDBRANCH  13  15
ENDBRANCH   6   7
ENDBRANCH   3   6
ENDBRANCH   2   3
TORSDOF 6
ENDMDL
MODEL       94
REMARK 921   NORMALIZED FREE ENERGY PREDICTED BY IDOCK:   -5.48 KCAL/MOL
REMARK 922        TOTAL FREE ENERGY PREDICTED BY IDOCK:   -8.42 KCAL/MOL
REMARK 923 INTER-LIGAND FREE ENERGY PREDICTED BY IDOCK:   -7.05 KCAL/MOL
REMARK 924 INTRA-LIGAND FREE ENERGY PREDICTED BY IDOCK:   -1.36 KCAL/MOL
REMARK 927      BINDING AFFINITY PREDICTED BY RF-SCORE:    0.00 PKD
ROOT
HETATM    1  C   UNL     1     -10.061  15.630  68.273  1.00  0.00    -0.218 C  
HETATM    2  C   UNL     1     -11.045  14.793  69.084  1.00  0.00    -0.265 C  
ENDROOT
BRANCH   2   3
HETATM    3  N   UNL     1     -11.228  13.419  68.565  1.00  0.00    -0.266 NA 
BRANCH   3   4
HETATM    4  C   UNL     1     -11.628  12.457  69.607  1.00  0.00    -0.260 C  
HETATM    5  C   UNL     1     -11.988  11.046  69.140  1.00  0.00    -0.394 C  
ENDBRANCH   3   4
BRANCH   3   6
HETATM    6  C   UNL     1     -12.161  13.384  67.410  1.00  0.00    -0.293 C  
BRANCH   6   7
HETATM    7  C   UNL     1     -11.461  13.052  66.108  1.00  0.00    -0.381 A  
HETATM    8  C   UNL     1     -12.006  13.371  64.858  1.00  0.00    -0.378 A  
HETATM    9  C   UNL     1     -11.477  12.831  63.697  1.00  0.00    -0.544 A  
HETATM   10  O   UNL     1     -13.137  14.129  64.738  1.00  0.00    -0.625 OA 
HETATM   11  C   UNL     1     -10.391  11.953  63.776  1.00  0.00    -0.451 A  
HETATM   12  H   UNL     1     -13.507  14.345  63.891  1.00  0.00     0.000 HD 
HETATM   13  C   UNL     1      -9.770  11.672  65.001  1.00  0.00    -0.211 A  
HETATM   14  C   UNL     1     -10.289  12.276  66.152  1.00  0.00    -0.269 A  
BRANCH  13  15
HETATM   15  N   UNL     1      -8.622  10.852  65.147  1.00  0.00    -0.331 NA 
HETATM   16  H   UNL     1      -8.081  10.678  64.300  1.00  0.00     0.000 HD 
BRANCH  15  17
HETATM   17  C   UNL     1      -8.139  10.243  66.343  1.00  0.00    -0.123 A  
HETATM   18  C   UNL     1      -8.826   9.190  66.991  1.00  0.00    -0.135 A  
HETATM   19  C   UNL     1      -9.862   8.450  66.377  1.00  0.00    -0.310 A  
HETATM   20  C   UNL     1     -10.615   7.535  67.104  1.00  0.00    -0.415 A  
HETATM   21  C   UNL     1     -10.321   7.341  68.444  1.00  0.00    -0.185 A  
HETATM   22 CL   UNL     1     -11.317   6.305  69.389  1.00  0.00    -0.489 Cl 
HETATM   23  C   UNL     1      -9.237   7.990  69.032  1.00  0.00    -0.148 A  
HETATM   24  C   UNL     1      -8.456   8.884  68.315  1.00  0.00    -0.130 A  
HETATM   25  N   UNL     1      -7.399   9.454  68.918  1.00  0.00    -0.072 NA 
HETATM   26  C   UNL     1      -6.684  10.366  68.225  1.00  0.00    -0.061 A  
HETATM   27  C   UNL     1      -7.025  10.811  66.967  1.00  0.00    -0.100 A  
ENDBRANCH  15  17
ENDBRANCH  13  15
ENDBRANCH   6   7
ENDBRANCH   3   6
ENDBRANCH   2   3
TORSDOF 6
ENDMDL
MODEL       95
REMARK 921   NORMALIZED FREE ENERGY PREDICTED BY IDOCK:   -5.47 KCAL/MOL
REMARK 922        TOTAL FREE ENERGY PREDICTED BY IDOCK:   -8.41 KCAL/MOL
REMARK 923 INTER-LIGAND FREE ENERGY PREDICTED BY IDOCK:   -6.98 KCAL/MOL
REMARK 924 INTRA-LIGAND FREE ENERGY PREDICTED BY IDOCK:   -1.43 KCAL/MOL
REMARK 927      BINDING AFFINITY PREDICTED BY RF-SCORE:    0.00 PKD
ROOT
HETATM    1  C   UNL     1     -12.524   6.834  71.910  1.00  0.00    -0.355 C  
HETATM    2  C   UNL     1     -13.102   8.198  71.550  1.00  0.00    -0.287 C  
ENDROOT
BRANCH   2   3
HETATM    3  N   UNL     1     -12.199   9.029  70.721  1.00  0.00    -0.153 NA 
BRANCH   3   4
HETATM    4  C   UNL     1     -12.007  10.387  71.260  1.00  0.00    -0.330 C  
HETATM    5  C   UNL     1     -12.120  11.544  70.268  1.00  0.00    -0.444 C  
ENDBRANCH   3   4
BRANCH   3   6
HETATM    6  C   UNL     1     -10.898   8.356  70.477  1.00  0.00    -0.232 C  
BRANCH   6   7
HETATM    7  C   UNL     1     -10.612   8.164  69.001  1.00  0.00    -0.167 A  
HETATM    8  C   UNL     1     -10.604   6.902  68.395  1.00  0.00    -0.210 A  
HETATM    9  C   UNL     1     -10.090   6.734  67.119  1.00  0.00    -0.249 A  
HETATM   10  O   UNL     1     -10.994   5.778  69.066  1.00  0.00    -0.304 OA 
HETATM   11  C   UNL     1      -9.569   7.836  66.434  1.00  0.00    -0.235 A  
HETATM   12  H   UNL     1     -10.988   4.922  68.655  1.00  0.00     0.000 HD 
HETATM   13  C   UNL     1      -9.631   9.127  66.977  1.00  0.00    -0.170 A  
HETATM   14  C   UNL     1     -10.207   9.277  68.244  1.00  0.00    -0.236 A  
BRANCH  13  15
HETATM   15  N   UNL     1      -9.190  10.298  66.310  1.00  0.00    -0.156 NA 
HETATM   16  H   UNL     1      -8.180  10.429  66.246  1.00  0.00     0.000 HD 
BRANCH  15  17
HETATM   17  C   UNL     1      -9.998  11.314  65.718  1.00  0.00    -0.237 A  
HETATM   18  C   UNL     1     -10.323  12.515  66.390  1.00  0.00    -0.261 A  
HETATM   19  C   UNL     1      -9.653  12.955  67.555  1.00  0.00    -0.200 A  
HETATM   20  C   UNL     1     -10.110  14.054  68.271  1.00  0.00    -0.246 A  
HETATM   21  C   UNL     1     -11.229  14.733  67.815  1.00  0.00    -0.313 A  
HETATM   22 CL   UNL     1     -11.881  16.020  68.751  1.00  0.00    -0.319 Cl 
HETATM   23  C   UNL     1     -11.835  14.369  66.614  1.00  0.00    -0.417 A  
HETATM   24  C   UNL     1     -11.375  13.294  65.869  1.00  0.00    -0.311 A  
HETATM   25  N   UNL     1     -11.971  13.008  64.699  1.00  0.00    -0.370 NA 
HETATM   26  C   UNL     1     -11.549  11.923  64.016  1.00  0.00    -0.389 A  
HETATM   27  C   UNL     1     -10.603  11.040  64.489  1.00  0.00    -0.383 A  
ENDBRANCH  15  17
ENDBRANCH  13  15
ENDBRANCH   6   7
ENDBRANCH   3   6
ENDBRANCH   2   3
TORSDOF 6
ENDMDL
MODEL       96
REMARK 921   NORMALIZED FREE ENERGY PREDICTED BY IDOCK:   -5.46 KCAL/MOL
REMARK 922        TOTAL FREE ENERGY PREDICTED BY IDOCK:   -8.38 KCAL/MOL
REMARK 923 INTER-LIGAND FREE ENERGY PREDICTED BY IDOCK:   -7.41 KCAL/MOL
REMARK 924 INTRA-LIGAND FREE ENERGY PREDICTED BY IDOCK:   -0.97 KCAL/MOL
REMARK 927      BINDING AFFINITY PREDICTED BY RF-SCORE:    0.00 PKD
ROOT
HETATM    1  C   UNL     1      -8.010  11.509  68.132  1.00  0.00    -0.136 C  
HETATM    2  C   UNL     1      -8.477  10.058  68.191  1.00  0.00    -0.114 C  
ENDROOT
BRANCH   2   3
HETATM    3  N   UNL     1      -9.918   9.883  67.898  1.00  0.00    -0.154 NA 
BRANCH   3   4
HETATM    4  C   UNL     1     -10.167   9.098  66.675  1.00  0.00    -0.258 C  
HETATM    5  C   UNL     1     -10.457   7.609  66.860  1.00  0.00    -0.388 C  
ENDBRANCH   3   4
BRANCH   3   6
HETATM    6  C   UNL     1     -10.654   9.323  69.059  1.00  0.00    -0.205 C  
BRANCH   6   7
HETATM    7  C   UNL     1     -11.256  10.400  69.939  1.00  0.00    -0.371 A  
HETATM    8  C   UNL     1     -12.129  10.108  70.994  1.00  0.00    -0.377 A  
HETATM    9  C   UNL     1     -12.858  11.114  71.607  1.00  0.00    -0.524 A  
HETATM   10  O   UNL     1     -12.382   8.823  71.385  1.00  0.00    -0.299 OA 
HETATM   11  C   UNL     1     -12.724  12.433  71.164  1.00  0.00    -0.336 A  
HETATM   12  H   UNL     1     -12.975   8.625  72.100  1.00  0.00     0.000 HD 
HETATM   13  C   UNL     1     -11.802  12.775  70.163  1.00  0.00    -0.251 A  
HETATM   14  C   UNL     1     -11.037  11.747  69.600  1.00  0.00    -0.139 A  
BRANCH  13  15
HETATM   15  N   UNL     1     -11.561  14.098  69.715  1.00  0.00    -0.284 NA 
HETATM   16  H   UNL     1     -12.010  14.844  70.247  1.00  0.00     0.000 HD 
BRANCH  15  17
HETATM   17  C   UNL     1     -10.760  14.505  68.607  1.00  0.00    -0.253 A  
HETATM   18  C   UNL     1     -11.113  14.217  67.268  1.00  0.00    -0.315 A  
HETATM   19  C   UNL     1     -12.403  13.783  66.885  1.00  0.00    -0.328 A  
HETATM   20  C   UNL     1     -12.659  13.359  65.587  1.00  0.00    -0.496 A  
HETATM   21  C   UNL     1     -11.630  13.386  64.658  1.00  0.00    -0.355 A  
HETATM   22 CL   UNL     1     -11.893  12.753  63.081  1.00  0.00    -0.477 Cl 
HETATM   23  C   UNL     1     -10.383  13.908  65.000  1.00  0.00    -0.418 A  
HETATM   24  C   UNL     1     -10.118  14.364  66.282  1.00  0.00    -0.297 A  
HETATM   25  N   UNL     1      -8.912  14.892  66.549  1.00  0.00    -0.271 NA 
HETATM   26  C   UNL     1      -8.650  15.277  67.816  1.00  0.00    -0.158 A  
HETATM   27  C   UNL     1      -9.514  15.079  68.871  1.00  0.00    -0.211 A  
ENDBRANCH  15  17
ENDBRANCH  13  15
ENDBRANCH   6   7
ENDBRANCH   3   6
ENDBRANCH   2   3
TORSDOF 6
ENDMDL
MODEL       97
REMARK 921   NORMALIZED FREE ENERGY PREDICTED BY IDOCK:   -5.44 KCAL/MOL
REMARK 922        TOTAL FREE ENERGY PREDICTED BY IDOCK:   -8.36 KCAL/MOL
REMARK 923 INTER-LIGAND FREE ENERGY PREDICTED BY IDOCK:   -7.28 KCAL/MOL
REMARK 924 INTRA-LIGAND FREE ENERGY PREDICTED BY IDOCK:   -1.08 KCAL/MOL
REMARK 927      BINDING AFFINITY PREDICTED BY RF-SCORE:    0.00 PKD
ROOT
HETATM    1  C   UNL     1      -9.839  15.595  69.102  1.00  0.00    -0.247 C  
HETATM    2  C   UNL     1     -11.009  15.201  69.998  1.00  0.00    -0.271 C  
ENDROOT
BRANCH   2   3
HETATM    3  N   UNL     1     -11.587  13.877  69.674  1.00  0.00    -0.281 NA 
BRANCH   3   4
HETATM    4  C   UNL     1     -12.476  13.361  70.731  1.00  0.00    -0.341 C  
HETATM    5  C   UNL     1     -12.845  14.331  71.853  1.00  0.00    -0.429 C  
ENDBRANCH   3   4
BRANCH   3   6
HETATM    6  C   UNL     1     -12.263  13.877  68.352  1.00  0.00    -0.159 C  
BRANCH   6   7
HETATM    7  C   UNL     1     -11.516  13.058  67.318  1.00  0.00    -0.380 A  
HETATM    8  C   UNL     1     -11.638  13.291  65.943  1.00  0.00    -0.347 A  
HETATM    9  C   UNL     1     -11.155  12.373  65.024  1.00  0.00    -0.344 A  
HETATM   10  O   UNL     1     -12.329  14.363  65.452  1.00  0.00    -0.396 OA 
HETATM   11  C   UNL     1     -10.544  11.199  65.477  1.00  0.00    -0.289 A  
HETATM   12  H   UNL     1     -12.413  14.521  64.520  1.00  0.00     0.000 HD 
HETATM   13  C   UNL     1     -10.334  10.968  66.844  1.00  0.00    -0.235 A  
HETATM   14  C   UNL     1     -10.781  11.940  67.748  1.00  0.00    -0.243 A  
BRANCH  13  15
HETATM   15  N   UNL     1      -9.658   9.839  67.371  1.00  0.00    -0.151 NA 
HETATM   16  H   UNL     1      -8.641   9.905  67.426  1.00  0.00     0.000 HD 
BRANCH  15  17
HETATM   17  C   UNL     1     -10.238   8.620  67.832  1.00  0.00    -0.219 A  
HETATM   18  C   UNL     1     -10.362   8.308  69.206  1.00  0.00    -0.223 A  
HETATM   19  C   UNL     1     -10.212   9.269  70.232  1.00  0.00    -0.270 A  
HETATM   20  C   UNL     1     -10.182   8.889  71.568  1.00  0.00    -0.398 A  
HETATM   21  C   UNL     1     -10.323   7.547  71.887  1.00  0.00    -0.193 A  
HETATM   22 CL   UNL     1     -10.168   7.042  73.523  1.00  0.00    -0.327 Cl 
HETATM   23  C   UNL     1     -10.574   6.607  70.888  1.00  0.00    -0.263 A  
HETATM   24  C   UNL     1     -10.637   6.971  69.552  1.00  0.00    -0.234 A  
HETATM   25  N   UNL     1     -10.919   6.032  68.633  1.00  0.00    -0.309 NA 
HETATM   26  C   UNL     1     -10.919   6.392  67.332  1.00  0.00    -0.376 A  
HETATM   27  C   UNL     1     -10.560   7.645  66.884  1.00  0.00    -0.359 A  
ENDBRANCH  15  17
ENDBRANCH  13  15
ENDBRANCH   6   7
ENDBRANCH   3   6
ENDBRANCH   2   3
TORSDOF 6
ENDMDL
MODEL       98
REMARK 921   NORMALIZED FREE ENERGY PREDICTED BY IDOCK:   -5.44 KCAL/MOL
REMARK 922        TOTAL FREE ENERGY PREDICTED BY IDOCK:   -8.36 KCAL/MOL
REMARK 923 INTER-LIGAND FREE ENERGY PREDICTED BY IDOCK:   -7.13 KCAL/MOL
REMARK 924 INTRA-LIGAND FREE ENERGY PREDICTED BY IDOCK:   -1.23 KCAL/MOL
REMARK 927      BINDING AFFINITY PREDICTED BY RF-SCORE:    0.00 PKD
ROOT
HETATM    1  C   UNL     1      -8.943   3.675  67.900  1.00  0.00    -0.165 C  
HETATM    2  C   UNL     1      -8.183   4.140  69.137  1.00  0.00    -0.069 C  
ENDROOT
BRANCH   2   3
HETATM    3  N   UNL     1      -8.556   5.499  69.591  1.00  0.00    -0.107 NA 
BRANCH   3   4
HETATM    4  C   UNL     1      -7.904   6.567  68.812  1.00  0.00    -0.110 C  
HETATM    5  C   UNL     1      -6.718   7.273  69.469  1.00  0.00    -0.045 C  
ENDBRANCH   3   4
BRANCH   3   6
HETATM    6  C   UNL     1     -10.029   5.683  69.631  1.00  0.00    -0.203 C  
BRANCH   6   7
HETATM    7  C   UNL     1     -10.448   6.811  70.552  1.00  0.00    -0.238 A  
HETATM    8  C   UNL     1     -10.287   6.747  71.941  1.00  0.00    -0.197 A  
HETATM    9  C   UNL     1     -10.908   7.668  72.769  1.00  0.00    -0.416 A  
HETATM   10  O   UNL     1      -9.612   5.721  72.542  1.00  0.00    -0.155 OA 
HETATM   11  C   UNL     1     -11.709   8.669  72.210  1.00  0.00    -0.428 A  
HETATM   12  H   UNL     1      -9.503   5.677  73.484  1.00  0.00     0.000 HD 
HETATM   13  C   UNL     1     -11.831   8.812  70.820  1.00  0.00    -0.178 A  
HETATM   14  C   UNL     1     -11.146   7.902  70.005  1.00  0.00    -0.165 A  
BRANCH  13  15
HETATM   15  N   UNL     1     -12.564   9.845  70.183  1.00  0.00    -0.497 NA 
HETATM   16  H   UNL     1     -13.528   9.626  69.931  1.00  0.00     0.000 HD 
BRANCH  15  17
HETATM   17  C   UNL     1     -12.107  11.156  69.854  1.00  0.00    -0.344 A  
HETATM   18  C   UNL     1     -12.421  12.290  70.639  1.00  0.00    -0.323 A  
HETATM   19  C   UNL     1     -12.945  12.203  71.949  1.00  0.00    -0.419 A  
HETATM   20  C   UNL     1     -13.389  13.336  72.619  1.00  0.00    -0.447 A  
HETATM   21  C   UNL     1     -13.293  14.567  71.989  1.00  0.00    -0.373 A  
HETATM   22 CL   UNL     1     -13.947  15.963  72.751  1.00  0.00    -0.592 Cl 
HETATM   23  C   UNL     1     -12.686  14.676  70.739  1.00  0.00    -0.422 A  
HETATM   24  C   UNL     1     -12.209  13.560  70.068  1.00  0.00    -0.312 A  
HETATM   25  N   UNL     1     -11.598  13.725  68.882  1.00  0.00    -0.295 NA 
HETATM   26  C   UNL     1     -11.193  12.623  68.215  1.00  0.00    -0.272 A  
HETATM   27  C   UNL     1     -11.447  11.336  68.636  1.00  0.00    -0.362 A  
ENDBRANCH  15  17
ENDBRANCH  13  15
ENDBRANCH   6   7
ENDBRANCH   3   6
ENDBRANCH   2   3
TORSDOF 6
ENDMDL
MODEL       99
REMARK 921   NORMALIZED FREE ENERGY PREDICTED BY IDOCK:   -5.41 KCAL/MOL
REMARK 922        TOTAL FREE ENERGY PREDICTED BY IDOCK:   -8.32 KCAL/MOL
REMARK 923 INTER-LIGAND FREE ENERGY PREDICTED BY IDOCK:   -7.27 KCAL/MOL
REMARK 924 INTRA-LIGAND FREE ENERGY PREDICTED BY IDOCK:   -1.06 KCAL/MOL
REMARK 927      BINDING AFFINITY PREDICTED BY RF-SCORE:    0.00 PKD
ROOT
HETATM    1  C   UNL     1      -7.525  15.407  69.261  1.00  0.00    -0.207 C  
HETATM    2  C   UNL     1      -8.195  15.836  67.959  1.00  0.00    -0.140 C  
ENDROOT
BRANCH   2   3
HETATM    3  N   UNL     1      -9.487  15.161  67.703  1.00  0.00    -0.201 NA 
BRANCH   3   4
HETATM    4  C   UNL     1     -10.646  16.061  67.843  1.00  0.00    -0.301 C  
HETATM    5  C   UNL     1     -11.147  16.323  69.264  1.00  0.00    -0.325 C  
ENDBRANCH   3   4
BRANCH   3   6
HETATM    6  C   UNL     1      -9.498  14.467  66.390  1.00  0.00    -0.291 C  
BRANCH   6   7
HETATM    7  C   UNL     1      -9.609  12.962  66.530  1.00  0.00    -0.259 A  
HETATM    8  C   UNL     1      -9.976  12.133  65.464  1.00  0.00    -0.246 A  
HETATM    9  C   UNL     1     -10.319  10.808  65.683  1.00  0.00    -0.297 A  
HETATM   10  O   UNL     1     -10.120  12.614  64.193  1.00  0.00    -0.522 OA 
HETATM   11  C   UNL     1     -10.302  10.297  66.985  1.00  0.00    -0.299 A  
HETATM   12  H   UNL     1     -10.370  12.052  63.470  1.00  0.00     0.000 HD 
HETATM   13  C   UNL     1      -9.865  11.075  68.067  1.00  0.00    -0.171 A  
HETATM   14  C   UNL     1      -9.470  12.393  67.808  1.00  0.00    -0.199 A  
BRANCH  13  15
HETATM   15  N   UNL     1      -9.753  10.602  69.399  1.00  0.00    -0.387 NA 
HETATM   16  H   UNL     1      -8.805  10.457  69.749  1.00  0.00     0.000 HD 
BRANCH  15  17
HETATM   17  C   UNL     1     -10.814  10.306  70.305  1.00  0.00    -0.286 A  
HETATM   18  C   UNL     1     -10.856   9.113  71.064  1.00  0.00    -0.362 A  
HETATM   19  C   UNL     1      -9.739   8.261  71.227  1.00  0.00    -0.225 A  
HETATM   20  C   UNL     1      -9.869   7.023  71.843  1.00  0.00    -0.173 A  
HETATM   21  C   UNL     1     -11.113   6.637  72.318  1.00  0.00    -0.258 A  
HETATM   22 CL   UNL     1     -11.320   5.061  72.974  1.00  0.00    -0.380 Cl 
HETATM   23  C   UNL     1     -12.196   7.511  72.251  1.00  0.00    -0.233 A  
HETATM   24  C   UNL     1     -12.080   8.763  71.667  1.00  0.00    -0.337 A  
HETATM   25  N   UNL     1     -13.145   9.582  71.663  1.00  0.00    -0.375 NA 
HETATM   26  C   UNL     1     -13.032  10.774  71.039  1.00  0.00    -0.332 A  
HETATM   27  C   UNL     1     -11.916  11.164  70.330  1.00  0.00    -0.460 A  
ENDBRANCH  15  17
ENDBRANCH  13  15
ENDBRANCH   6   7
ENDBRANCH   3   6
ENDBRANCH   2   3
TORSDOF 6
ENDMDL
MODEL      100
REMARK 921   NORMALIZED FREE ENERGY PREDICTED BY IDOCK:   -5.41 KCAL/MOL
REMARK 922        TOTAL FREE ENERGY PREDICTED BY IDOCK:   -8.31 KCAL/MOL
REMARK 923 INTER-LIGAND FREE ENERGY PREDICTED BY IDOCK:   -7.47 KCAL/MOL
REMARK 924 INTRA-LIGAND FREE ENERGY PREDICTED BY IDOCK:   -0.84 KCAL/MOL
REMARK 927      BINDING AFFINITY PREDICTED BY RF-SCORE:    0.00 PKD
ROOT
HETATM    1  C   UNL     1     -11.712  15.108  68.892  1.00  0.00    -0.357 C  
HETATM    2  C   UNL     1     -11.489  13.859  68.046  1.00  0.00    -0.307 C  
ENDROOT
BRANCH   2   3
HETATM    3  N   UNL     1     -11.681  14.080  66.595  1.00  0.00    -0.379 NA 
BRANCH   3   4
HETATM    4  C   UNL     1     -10.461  14.558  65.918  1.00  0.00    -0.312 C  
HETATM    5  C   UNL     1     -10.589  15.838  65.093  1.00  0.00    -0.436 C  
ENDBRANCH   3   4
BRANCH   3   6
HETATM    6  C   UNL     1     -12.237  12.879  65.922  1.00  0.00    -0.407 C  
BRANCH   6   7
HETATM    7  C   UNL     1     -11.167  12.047  65.243  1.00  0.00    -0.374 A  
HETATM    8  C   UNL     1     -10.953  12.081  63.859  1.00  0.00    -0.401 A  
HETATM    9  C   UNL     1     -10.156  11.130  63.243  1.00  0.00    -0.426 A  
HETATM   10  O   UNL     1     -11.602  12.973  63.052  1.00  0.00    -0.783 OA 
HETATM   11  C   UNL     1      -9.564  10.122  64.012  1.00  0.00    -0.320 A  
HETATM   12  H   UNL     1     -11.457  12.995  62.114  1.00  0.00     0.000 HD 
HETATM   13  C   UNL     1      -9.692  10.102  65.408  1.00  0.00    -0.291 A  
HETATM   14  C   UNL     1     -10.456  11.109  66.011  1.00  0.00    -0.312 A  
BRANCH  13  15
HETATM   15  N   UNL     1      -9.061   9.156  66.256  1.00  0.00    -0.166 NA 
HETATM   16  H   UNL     1      -8.980   8.206  65.892  1.00  0.00     0.000 HD 
BRANCH  15  17
HETATM   17  C   UNL     1      -8.526   9.383  67.559  1.00  0.00    -0.122 A  
HETATM   18  C   UNL     1      -9.160   8.914  68.733  1.00  0.00    -0.134 A  
HETATM   19  C   UNL     1     -10.189   7.944  68.722  1.00  0.00    -0.218 A  
HETATM   20  C   UNL     1     -10.891   7.634  69.879  1.00  0.00    -0.241 A  
HETATM   21  C   UNL     1     -10.555   8.277  71.060  1.00  0.00    -0.204 A  
HETATM   22 CL   UNL     1     -11.491   7.996  72.476  1.00  0.00    -0.445 Cl 
HETATM   23  C   UNL     1      -9.476   9.159  71.102  1.00  0.00    -0.331 A  
HETATM   24  C   UNL     1      -8.744   9.459  69.964  1.00  0.00    -0.210 A  
HETATM   25  N   UNL     1      -7.690  10.286  70.066  1.00  0.00    -0.139 NA 
HETATM   26  C   UNL     1      -7.024  10.614  68.939  1.00  0.00    -0.073 A  
HETATM   27  C   UNL     1      -7.414  10.220  67.677  1.00  0.00    -0.089 A  
ENDBRANCH  15  17
ENDBRANCH  13  15
ENDBRANCH   6   7
ENDBRANCH   3   6
ENDBRANCH   2   3
TORSDOF 6
ENDMDL
MODEL      101
REMARK 921   NORMALIZED FREE ENERGY PREDICTED BY IDOCK:   -5.39 KCAL/MOL
REMARK 922        TOTAL FREE ENERGY PREDICTED BY IDOCK:   -8.29 KCAL/MOL
REMARK 923 INTER-LIGAND FREE ENERGY PREDICTED BY IDOCK:   -7.44 KCAL/MOL
REMARK 924 INTRA-LIGAND FREE ENERGY PREDICTED BY IDOCK:   -0.85 KCAL/MOL
REMARK 927      BINDING AFFINITY PREDICTED BY RF-SCORE:    0.00 PKD
ROOT
HETATM    1  C   UNL     1      -6.891   8.649  66.654  1.00  0.00    -0.069 C  
HETATM    2  C   UNL     1      -6.996   9.526  65.410  1.00  0.00    -0.094 C  
ENDROOT
BRANCH   2   3
HETATM    3  N   UNL     1      -8.173  10.425  65.413  1.00  0.00    -0.157 NA 
BRANCH   3   4
HETATM    4  C   UNL     1      -9.261   9.954  64.537  1.00  0.00    -0.261 C  
HETATM    5  C   UNL     1      -9.905  10.993  63.620  1.00  0.00    -0.397 C  
ENDBRANCH   3   4
BRANCH   3   6
HETATM    6  C   UNL     1      -8.663  10.689  66.789  1.00  0.00    -0.130 C  
BRANCH   6   7
HETATM    7  C   UNL     1      -8.757  12.170  67.097  1.00  0.00    -0.190 A  
HETATM    8  C   UNL     1      -7.631  13.001  67.147  1.00  0.00    -0.012 A  
HETATM    9  C   UNL     1      -7.716  14.277  67.680  1.00  0.00    -0.190 A  
HETATM   10  O   UNL     1      -6.391  12.556  66.782  1.00  0.00    -0.482 OA 
HETATM   11  C   UNL     1      -8.939  14.737  68.178  1.00  0.00    -0.179 A  
HETATM   12  H   UNL     1      -5.627  13.119  66.816  1.00  0.00     0.000 HD 
HETATM   13  C   UNL     1     -10.105  13.964  68.074  1.00  0.00    -0.244 A  
HETATM   14  C   UNL     1     -10.002  12.701  67.479  1.00  0.00    -0.205 A  
BRANCH  13  15
HETATM   15  N   UNL     1     -11.390  14.394  68.489  1.00  0.00    -0.267 NA 
HETATM   16  H   UNL     1     -11.992  14.786  67.764  1.00  0.00     0.000 HD 
BRANCH  15  17
HETATM   17  C   UNL     1     -11.938  14.341  69.806  1.00  0.00    -0.339 A  
HETATM   18  C   UNL     1     -12.223  13.121  70.462  1.00  0.00    -0.405 A  
HETATM   19  C   UNL     1     -11.728  11.872  70.021  1.00  0.00    -0.366 A  
HETATM   20  C   UNL     1     -12.163  10.687  70.599  1.00  0.00    -0.459 A  
HETATM   21  C   UNL     1     -13.082  10.744  71.636  1.00  0.00    -0.446 A  
HETATM   22 CL   UNL     1     -13.724   9.285  72.283  1.00  0.00    -0.519 Cl 
HETATM   23  C   UNL     1     -13.498  11.973  72.144  1.00  0.00    -0.338 A  
HETATM   24  C   UNL     1     -13.051  13.168  71.600  1.00  0.00    -0.353 A  
HETATM   25  N   UNL     1     -13.453  14.326  72.152  1.00  0.00    -0.391 NA 
HETATM   26  C   UNL     1     -13.056  15.479  71.575  1.00  0.00    -0.496 A  
HETATM   27  C   UNL     1     -12.336  15.541  70.401  1.00  0.00    -0.451 A  
ENDBRANCH  15  17
ENDBRANCH  13  15
ENDBRANCH   6   7
ENDBRANCH   3   6
ENDBRANCH   2   3
TORSDOF 6
ENDMDL
MODEL      102
REMARK 921   NORMALIZED FREE ENERGY PREDICTED BY IDOCK:   -5.38 KCAL/MOL
REMARK 922        TOTAL FREE ENERGY PREDICTED BY IDOCK:   -8.28 KCAL/MOL
REMARK 923 INTER-LIGAND FREE ENERGY PREDICTED BY IDOCK:   -6.88 KCAL/MOL
REMARK 924 INTRA-LIGAND FREE ENERGY PREDICTED BY IDOCK:   -1.40 KCAL/MOL
REMARK 927      BINDING AFFINITY PREDICTED BY RF-SCORE:    0.00 PKD
ROOT
HETATM    1  C   UNL     1     -10.134   9.545  70.718  1.00  0.00    -0.352 C  
HETATM    2  C   UNL     1      -8.833   9.369  69.941  1.00  0.00    -0.199 C  
ENDROOT
BRANCH   2   3
HETATM    3  N   UNL     1      -8.983   8.584  68.696  1.00  0.00    -0.139 NA 
BRANCH   3   4
HETATM    4  C   UNL     1      -8.521   7.191  68.832  1.00  0.00    -0.126 C  
HETATM    5  C   UNL     1      -9.573   6.150  69.213  1.00  0.00    -0.153 C  
ENDBRANCH   3   4
BRANCH   3   6
HETATM    6  C   UNL     1     -10.370   8.643  68.169  1.00  0.00    -0.216 C  
BRANCH   6   7
HETATM    7  C   UNL     1     -10.531   9.677  67.073  1.00  0.00    -0.302 A  
HETATM    8  C   UNL     1      -9.881   9.570  65.837  1.00  0.00    -0.290 A  
HETATM    9  C   UNL     1      -9.839  10.644  64.964  1.00  0.00    -0.353 A  
HETATM   10  O   UNL     1      -9.173   8.453  65.490  1.00  0.00    -0.388 OA 
HETATM   11  C   UNL     1     -10.449  11.851  65.324  1.00  0.00    -0.317 A  
HETATM   12  H   UNL     1      -8.732   8.381  64.653  1.00  0.00     0.000 HD 
HETATM   13  C   UNL     1     -11.175  11.971  66.518  1.00  0.00    -0.334 A  
HETATM   14  C   UNL     1     -11.249  10.852  67.355  1.00  0.00    -0.345 A  
BRANCH  13  15
HETATM   15  N   UNL     1     -11.878  13.138  66.912  1.00  0.00    -0.383 NA 
HETATM   16  H   UNL     1     -12.752  13.327  66.420  1.00  0.00     0.000 HD 
BRANCH  15  17
HETATM   17  C   UNL     1     -11.503  14.076  67.920  1.00  0.00    -0.316 A  
HETATM   18  C   UNL     1     -10.451  15.004  67.741  1.00  0.00    -0.249 A  
HETATM   19  C   UNL     1      -9.883  15.295  66.479  1.00  0.00    -0.283 A  
HETATM   20  C   UNL     1      -8.748  16.089  66.372  1.00  0.00    -0.362 A  
HETATM   21  C   UNL     1      -8.185  16.613  67.525  1.00  0.00    -0.164 A  
HETATM   22 CL   UNL     1      -6.713  17.496  67.425  1.00  0.00    -0.173 Cl 
HETATM   23  C   UNL     1      -8.796  16.414  68.762  1.00  0.00    -0.246 A  
HETATM   24  C   UNL     1      -9.946  15.651  68.886  1.00  0.00    -0.215 A  
HETATM   25  N   UNL     1     -10.516  15.522  70.096  1.00  0.00    -0.313 NA 
HETATM   26  C   UNL     1     -11.602  14.728  70.209  1.00  0.00    -0.282 A  
HETATM   27  C   UNL     1     -12.108  13.970  69.175  1.00  0.00    -0.375 A  
ENDBRANCH  15  17
ENDBRANCH  13  15
ENDBRANCH   6   7
ENDBRANCH   3   6
ENDBRANCH   2   3
TORSDOF 6
ENDMDL
MODEL      103
REMARK 921   NORMALIZED FREE ENERGY PREDICTED BY IDOCK:   -5.37 KCAL/MOL
REMARK 922        TOTAL FREE ENERGY PREDICTED BY IDOCK:   -8.27 KCAL/MOL
REMARK 923 INTER-LIGAND FREE ENERGY PREDICTED BY IDOCK:   -7.22 KCAL/MOL
REMARK 924 INTRA-LIGAND FREE ENERGY PREDICTED BY IDOCK:   -1.05 KCAL/MOL
REMARK 927      BINDING AFFINITY PREDICTED BY RF-SCORE:    0.00 PKD
ROOT
HETATM    1  C   UNL     1     -11.235  14.746  66.729  1.00  0.00    -0.344 C  
HETATM    2  C   UNL     1     -12.342  13.701  66.644  1.00  0.00    -0.331 C  
ENDROOT
BRANCH   2   3
HETATM    3  N   UNL     1     -11.924  12.440  65.991  1.00  0.00    -0.602 NA 
BRANCH   3   4
HETATM    4  C   UNL     1     -12.528  12.251  64.660  1.00  0.00    -0.341 C  
HETATM    5  C   UNL     1     -11.636  12.534  63.452  1.00  0.00    -0.547 C  
ENDBRANCH   3   4
BRANCH   3   6
HETATM    6  C   UNL     1     -10.445  12.311  65.937  1.00  0.00    -0.256 C  
BRANCH   6   7
HETATM    7  C   UNL     1      -9.975  10.898  66.223  1.00  0.00    -0.274 A  
HETATM    8  C   UNL     1      -8.978  10.270  65.468  1.00  0.00    -0.173 A  
HETATM    9  C   UNL     1      -8.755   8.908  65.584  1.00  0.00    -0.213 A  
HETATM   10  O   UNL     1      -8.265  10.942  64.515  1.00  0.00    -0.369 OA 
HETATM   11  C   UNL     1      -9.540   8.152  66.461  1.00  0.00    -0.303 A  
HETATM   12  H   UNL     1      -7.588  10.516  64.003  1.00  0.00     0.000 HD 
HETATM   13  C   UNL     1     -10.495   8.758  67.290  1.00  0.00    -0.283 A  
HETATM   14  C   UNL     1     -10.660  10.145  67.193  1.00  0.00    -0.308 A  
BRANCH  13  15
HETATM   15  N   UNL     1     -11.273   8.067  68.252  1.00  0.00    -0.153 NA 
HETATM   16  H   UNL     1     -12.106   7.592  67.904  1.00  0.00     0.000 HD 
BRANCH  15  17
HETATM   17  C   UNL     1     -11.024   7.960  69.653  1.00  0.00    -0.110 A  
HETATM   18  C   UNL     1     -10.561   6.766  70.254  1.00  0.00    -0.251 A  
HETATM   19  C   UNL     1     -10.023   5.687  69.516  1.00  0.00    -0.263 A  
HETATM   20  C   UNL     1      -9.732   4.476  70.130  1.00  0.00    -0.287 A  
HETATM   21  C   UNL     1      -9.957   4.343  71.491  1.00  0.00    -0.180 A  
HETATM   22 CL   UNL     1      -9.718   2.816  72.247  1.00  0.00    -0.208 Cl 
HETATM   23  C   UNL     1     -10.391   5.432  72.245  1.00  0.00    -0.260 A  
HETATM   24  C   UNL     1     -10.658   6.658  71.655  1.00  0.00    -0.217 A  
HETATM   25  N   UNL     1     -11.038   7.687  72.433  1.00  0.00    -0.284 NA 
HETATM   26  C   UNL     1     -11.351   8.856  71.836  1.00  0.00    -0.376 A  
HETATM   27  C   UNL     1     -11.390   9.033  70.470  1.00  0.00    -0.282 A  
ENDBRANCH  15  17
ENDBRANCH  13  15
ENDBRANCH   6   7
ENDBRANCH   3   6
ENDBRANCH   2   3
TORSDOF 6
ENDMDL
MODEL      104
REMARK 921   NORMALIZED FREE ENERGY PREDICTED BY IDOCK:   -5.34 KCAL/MOL
REMARK 922        TOTAL FREE ENERGY PREDICTED BY IDOCK:   -8.23 KCAL/MOL
REMARK 923 INTER-LIGAND FREE ENERGY PREDICTED BY IDOCK:   -7.11 KCAL/MOL
REMARK 924 INTRA-LIGAND FREE ENERGY PREDICTED BY IDOCK:   -1.12 KCAL/MOL
REMARK 927      BINDING AFFINITY PREDICTED BY RF-SCORE:    0.00 PKD
ROOT
HETATM    1  C   UNL     1     -12.766  13.919  65.584  1.00  0.00    -0.534 C  
HETATM    2  C   UNL     1     -12.367  12.779  64.653  1.00  0.00    -0.459 C  
ENDROOT
BRANCH   2   3
HETATM    3  N   UNL     1     -11.059  12.170  64.984  1.00  0.00    -0.312 NA 
BRANCH   3   4
HETATM    4  C   UNL     1     -10.250  11.855  63.792  1.00  0.00    -0.413 C  
HETATM    5  C   UNL     1      -9.582  10.481  63.757  1.00  0.00    -0.363 C  
ENDBRANCH   3   4
BRANCH   3   6
HETATM    6  C   UNL     1     -10.294  12.995  65.953  1.00  0.00    -0.288 C  
BRANCH   6   7
HETATM    7  C   UNL     1      -9.807  12.192  67.142  1.00  0.00    -0.205 A  
HETATM    8  C   UNL     1      -8.499  12.292  67.632  1.00  0.00    -0.166 A  
HETATM    9  C   UNL     1      -8.011  11.368  68.542  1.00  0.00    -0.143 A  
HETATM   10  O   UNL     1      -7.621  13.226  67.157  1.00  0.00    -0.342 OA 
HETATM   11  C   UNL     1      -8.833  10.321  68.970  1.00  0.00    -0.170 A  
HETATM   12  H   UNL     1      -6.734  13.294  67.489  1.00  0.00     0.000 HD 
HETATM   13  C   UNL     1     -10.172  10.232  68.562  1.00  0.00    -0.172 A  
HETATM   14  C   UNL     1     -10.656  11.213  67.687  1.00  0.00    -0.250 A  
BRANCH  13  15
HETATM   15  N   UNL     1     -11.082   9.243  69.012  1.00  0.00    -0.445 NA 
HETATM   16  H   UNL     1     -11.592   8.735  68.288  1.00  0.00     0.000 HD 
BRANCH  15  17
HETATM   17  C   UNL     1     -11.366   8.877  70.361  1.00  0.00    -0.202 A  
HETATM   18  C   UNL     1     -10.949   7.645  70.919  1.00  0.00    -0.261 A  
HETATM   19  C   UNL     1      -9.980   6.812  70.314  1.00  0.00    -0.192 A  
HETATM   20  C   UNL     1      -9.721   5.541  70.811  1.00  0.00    -0.232 A  
HETATM   21  C   UNL     1     -10.415   5.103  71.928  1.00  0.00    -0.207 A  
HETATM   22 CL   UNL     1     -10.197   3.491  72.485  1.00  0.00    -0.240 Cl 
HETATM   23  C   UNL     1     -11.298   5.955  72.590  1.00  0.00    -0.337 A  
HETATM   24  C   UNL     1     -11.547   7.238  72.127  1.00  0.00    -0.286 A  
HETATM   25  N   UNL     1     -12.379   8.032  72.823  1.00  0.00    -0.127 NA 
HETATM   26  C   UNL     1     -12.656   9.256  72.328  1.00  0.00    -0.332 A  
HETATM   27  C   UNL     1     -12.208   9.707  71.105  1.00  0.00    -0.437 A  
ENDBRANCH  15  17
ENDBRANCH  13  15
ENDBRANCH   6   7
ENDBRANCH   3   6
ENDBRANCH   2   3
TORSDOF 6
ENDMDL
MODEL      105
REMARK 921   NORMALIZED FREE ENERGY PREDICTED BY IDOCK:   -5.34 KCAL/MOL
REMARK 922        TOTAL FREE ENERGY PREDICTED BY IDOCK:   -8.23 KCAL/MOL
REMARK 923 INTER-LIGAND FREE ENERGY PREDICTED BY IDOCK:   -7.71 KCAL/MOL
REMARK 924 INTRA-LIGAND FREE ENERGY PREDICTED BY IDOCK:   -0.52 KCAL/MOL
REMARK 927      BINDING AFFINITY PREDICTED BY RF-SCORE:    0.00 PKD
ROOT
HETATM    1  C   UNL     1     -11.004  16.713  65.042  1.00  0.00    -0.172 C  
HETATM    2  C   UNL     1     -10.346  17.463  66.195  1.00  0.00    -0.327 C  
ENDROOT
BRANCH   2   3
HETATM    3  N   UNL     1     -10.050  16.610  67.369  1.00  0.00    -0.268 NA 
BRANCH   3   4
HETATM    4  C   UNL     1      -8.634  16.663  67.777  1.00  0.00    -0.192 C  
HETATM    5  C   UNL     1      -7.963  18.036  67.759  1.00  0.00    -0.235 C  
ENDBRANCH   3   4
BRANCH   3   6
HETATM    6  C   UNL     1     -10.953  16.907  68.509  1.00  0.00    -0.290 C  
BRANCH   6   7
HETATM    7  C   UNL     1     -11.542  15.652  69.124  1.00  0.00    -0.393 A  
HETATM    8  C   UNL     1     -11.743  15.514  70.502  1.00  0.00    -0.349 A  
HETATM    9  C   UNL     1     -12.035  14.277  71.054  1.00  0.00    -0.374 A  
HETATM   10  O   UNL     1     -11.554  16.556  71.366  1.00  0.00    -0.610 OA 
HETATM   11  C   UNL     1     -12.123  13.154  70.224  1.00  0.00    -0.399 A  
HETATM   12  H   UNL     1     -11.691  16.462  72.301  1.00  0.00     0.000 HD 
HETATM   13  C   UNL     1     -12.005  13.267  68.831  1.00  0.00    -0.297 A  
HETATM   14  C   UNL     1     -11.767  14.539  68.296  1.00  0.00    -0.368 A  
BRANCH  13  15
HETATM   15  N   UNL     1     -12.155  12.187  67.925  1.00  0.00    -0.466 NA 
HETATM   16  H   UNL     1     -12.783  11.437  68.216  1.00  0.00     0.000 HD 
BRANCH  15  17
HETATM   17  C   UNL     1     -11.528  12.031  66.653  1.00  0.00    -0.346 A  
HETATM   18  C   UNL     1     -10.758  10.892  66.319  1.00  0.00    -0.241 A  
HETATM   19  C   UNL     1     -10.782   9.696  67.072  1.00  0.00    -0.225 A  
HETATM   20  C   UNL     1      -9.892   8.664  66.802  1.00  0.00    -0.322 A  
HETATM   21  C   UNL     1      -8.985   8.815  65.765  1.00  0.00    -0.206 A  
HETATM   22 CL   UNL     1      -7.796   7.602  65.493  1.00  0.00    -0.105 Cl 
HETATM   23  C   UNL     1      -9.021   9.948  64.954  1.00  0.00    -0.246 A  
HETATM   24  C   UNL     1      -9.923  10.975  65.188  1.00  0.00    -0.278 A  
HETATM   25  N   UNL     1      -9.942  12.028  64.354  1.00  0.00    -0.255 NA 
HETATM   26  C   UNL     1     -10.785  13.046  64.630  1.00  0.00    -0.367 A  
HETATM   27  C   UNL     1     -11.564  13.109  65.765  1.00  0.00    -0.383 A  
ENDBRANCH  15  17
ENDBRANCH  13  15
ENDBRANCH   6   7
ENDBRANCH   3   6
ENDBRANCH   2   3
TORSDOF 6
ENDMDL
MODEL      106
REMARK 921   NORMALIZED FREE ENERGY PREDICTED BY IDOCK:   -5.34 KCAL/MOL
REMARK 922        TOTAL FREE ENERGY PREDICTED BY IDOCK:   -8.23 KCAL/MOL
REMARK 923 INTER-LIGAND FREE ENERGY PREDICTED BY IDOCK:   -7.29 KCAL/MOL
REMARK 924 INTRA-LIGAND FREE ENERGY PREDICTED BY IDOCK:   -0.94 KCAL/MOL
REMARK 927      BINDING AFFINITY PREDICTED BY RF-SCORE:    0.00 PKD
ROOT
HETATM    1  C   UNL     1     -10.928   5.849  71.868  1.00  0.00    -0.321 C  
HETATM    2  C   UNL     1     -12.239   6.540  71.509  1.00  0.00    -0.272 C  
ENDROOT
BRANCH   2   3
HETATM    3  N   UNL     1     -12.109   8.003  71.320  1.00  0.00    -0.297 NA 
BRANCH   3   4
HETATM    4  C   UNL     1     -12.859   8.783  72.321  1.00  0.00    -0.405 C  
HETATM    5  C   UNL     1     -13.237  10.214  71.936  1.00  0.00    -0.557 C  
ENDBRANCH   3   4
BRANCH   3   6
HETATM    6  C   UNL     1     -10.688   8.428  71.256  1.00  0.00    -0.230 C  
BRANCH   6   7
HETATM    7  C   UNL     1     -10.213   8.653  69.835  1.00  0.00    -0.206 A  
HETATM    8  C   UNL     1      -8.976   8.187  69.373  1.00  0.00    -0.147 A  
HETATM    9  C   UNL     1      -8.461   8.626  68.164  1.00  0.00    -0.131 A  
HETATM   10  O   UNL     1      -8.182   7.376  70.134  1.00  0.00    -0.128 OA 
HETATM   11  C   UNL     1      -9.182   9.550  67.401  1.00  0.00    -0.152 A  
HETATM   12  H   UNL     1      -7.343   7.060  69.821  1.00  0.00     0.000 HD 
HETATM   13  C   UNL     1     -10.458   9.979  67.793  1.00  0.00    -0.234 A  
HETATM   14  C   UNL     1     -10.980   9.475  68.991  1.00  0.00    -0.127 A  
BRANCH  13  15
HETATM   15  N   UNL     1     -11.276  10.855  67.035  1.00  0.00    -0.337 NA 
HETATM   16  H   UNL     1     -12.015  10.419  66.483  1.00  0.00     0.000 HD 
BRANCH  15  17
HETATM   17  C   UNL     1     -11.183  12.277  66.957  1.00  0.00    -0.310 A  
HETATM   18  C   UNL     1     -11.464  13.119  68.058  1.00  0.00    -0.346 A  
HETATM   19  C   UNL     1     -11.564  12.646  69.387  1.00  0.00    -0.369 A  
HETATM   20  C   UNL     1     -11.999  13.478  70.410  1.00  0.00    -0.367 A  
HETATM   21  C   UNL     1     -12.318  14.795  70.115  1.00  0.00    -0.330 A  
HETATM   22 CL   UNL     1     -12.973  15.806  71.342  1.00  0.00    -0.532 Cl 
HETATM   23  C   UNL     1     -12.125  15.296  68.828  1.00  0.00    -0.195 A  
HETATM   24  C   UNL     1     -11.663  14.489  67.800  1.00  0.00    -0.374 A  
HETATM   25  N   UNL     1     -11.458  15.032  66.588  1.00  0.00    -0.302 NA 
HETATM   26  C   UNL     1     -11.065  14.220  65.584  1.00  0.00    -0.316 A  
HETATM   27  C   UNL     1     -10.945  12.852  65.706  1.00  0.00    -0.303 A  
ENDBRANCH  15  17
ENDBRANCH  13  15
ENDBRANCH   6   7
ENDBRANCH   3   6
ENDBRANCH   2   3
TORSDOF 6
ENDMDL
MODEL      107
REMARK 921   NORMALIZED FREE ENERGY PREDICTED BY IDOCK:   -5.34 KCAL/MOL
REMARK 922        TOTAL FREE ENERGY PREDICTED BY IDOCK:   -8.23 KCAL/MOL
REMARK 923 INTER-LIGAND FREE ENERGY PREDICTED BY IDOCK:   -8.17 KCAL/MOL
REMARK 924 INTRA-LIGAND FREE ENERGY PREDICTED BY IDOCK:   -0.05 KCAL/MOL
REMARK 927      BINDING AFFINITY PREDICTED BY RF-SCORE:    0.00 PKD
ROOT
HETATM    1  C   UNL     1      -5.872  19.371  68.836  1.00  0.00    -0.248 C  
HETATM    2  C   UNL     1      -7.342  19.767  68.734  1.00  0.00    -0.304 C  
ENDROOT
BRANCH   2   3
HETATM    3  N   UNL     1      -8.091  19.017  67.701  1.00  0.00    -0.266 NA 
BRANCH   3   4
HETATM    4  C   UNL     1      -7.222  18.189  66.844  1.00  0.00    -0.205 C  
HETATM    5  C   UNL     1      -6.767  18.808  65.523  1.00  0.00    -0.285 C  
ENDBRANCH   3   4
BRANCH   3   6
HETATM    6  C   UNL     1      -9.191  18.213  68.291  1.00  0.00    -0.298 C  
BRANCH   6   7
HETATM    7  C   UNL     1      -9.595  17.047  67.410  1.00  0.00    -0.246 A  
HETATM    8  C   UNL     1     -10.197  17.224  66.159  1.00  0.00    -0.331 A  
HETATM    9  C   UNL     1     -10.785  16.157  65.499  1.00  0.00    -0.355 A  
HETATM   10  O   UNL     1     -10.330  18.461  65.591  1.00  0.00    -0.605 OA 
HETATM   11  C   UNL     1     -10.781  14.891  66.093  1.00  0.00    -0.317 A  
HETATM   12  H   UNL     1     -10.739  18.581  64.743  1.00  0.00     0.000 HD 
HETATM   13  C   UNL     1     -10.120  14.659  67.308  1.00  0.00    -0.236 A  
HETATM   14  C   UNL     1      -9.485  15.744  67.925  1.00  0.00    -0.212 A  
BRANCH  13  15
HETATM   15  N   UNL     1     -10.012  13.390  67.932  1.00  0.00    -0.229 NA 
HETATM   16  H   UNL     1      -9.151  12.872  67.757  1.00  0.00     0.000 HD 
BRANCH  15  17
HETATM   17  C   UNL     1     -10.972  12.756  68.776  1.00  0.00    -0.250 A  
HETATM   18  C   UNL     1     -11.752  13.473  69.713  1.00  0.00    -0.363 A  
HETATM   19  C   UNL     1     -11.878  14.881  69.697  1.00  0.00    -0.356 A  
HETATM   20  C   UNL     1     -12.521  15.553  70.730  1.00  0.00    -0.491 A  
HETATM   21  C   UNL     1     -13.059  14.818  71.775  1.00  0.00    -0.336 A  
HETATM   22 CL   UNL     1     -13.750  15.636  73.120  1.00  0.00    -0.555 Cl 
HETATM   23  C   UNL     1     -13.027  13.424  71.748  1.00  0.00    -0.435 A  
HETATM   24  C   UNL     1     -12.417  12.735  70.711  1.00  0.00    -0.271 A  
HETATM   25  N   UNL     1     -12.449  11.392  70.714  1.00  0.00    -0.372 NA 
HETATM   26  C   UNL     1     -11.800  10.736  69.729  1.00  0.00    -0.335 A  
HETATM   27  C   UNL     1     -11.033  11.360  68.769  1.00  0.00    -0.272 A  
ENDBRANCH  15  17
ENDBRANCH  13  15
ENDBRANCH   6   7
ENDBRANCH   3   6
ENDBRANCH   2   3
TORSDOF 6
ENDMDL
MODEL      108
REMARK 921   NORMALIZED FREE ENERGY PREDICTED BY IDOCK:   -5.33 KCAL/MOL
REMARK 922        TOTAL FREE ENERGY PREDICTED BY IDOCK:   -8.21 KCAL/MOL
REMARK 923 INTER-LIGAND FREE ENERGY PREDICTED BY IDOCK:   -7.32 KCAL/MOL
REMARK 924 INTRA-LIGAND FREE ENERGY PREDICTED BY IDOCK:   -0.89 KCAL/MOL
REMARK 927      BINDING AFFINITY PREDICTED BY RF-SCORE:    0.00 PKD
ROOT
HETATM    1  C   UNL     1     -11.843  15.700  68.863  1.00  0.00    -0.368 C  
HETATM    2  C   UNL     1     -11.183  15.200  67.582  1.00  0.00    -0.327 C  
ENDROOT
BRANCH   2   3
HETATM    3  N   UNL     1     -10.757  16.284  66.669  1.00  0.00    -0.252 NA 
BRANCH   3   4
HETATM    4  C   UNL     1     -10.152  17.429  67.374  1.00  0.00    -0.321 C  
HETATM    5  C   UNL     1     -10.708  18.814  67.042  1.00  0.00    -0.435 C  
ENDBRANCH   3   4
BRANCH   3   6
HETATM    6  C   UNL     1      -9.867  15.782  65.592  1.00  0.00    -0.322 C  
BRANCH   6   7
HETATM    7  C   UNL     1     -10.447  14.580  64.873  1.00  0.00    -0.435 A  
HETATM    8  C   UNL     1     -11.679  14.624  64.209  1.00  0.00    -0.275 A  
HETATM    9  C   UNL     1     -12.299  13.458  63.790  1.00  0.00    -0.418 A  
HETATM   10  O   UNL     1     -12.369  15.793  64.047  1.00  0.00    -0.883 OA 
HETATM   11  C   UNL     1     -11.689  12.224  64.038  1.00  0.00    -0.506 A  
HETATM   12  H   UNL     1     -13.204  15.823  63.597  1.00  0.00     0.000 HD 
HETATM   13  C   UNL     1     -10.421  12.145  64.630  1.00  0.00    -0.299 A  
HETATM   14  C   UNL     1      -9.791  13.342  64.992  1.00  0.00    -0.070 A  
BRANCH  13  15
HETATM   15  N   UNL     1      -9.712  10.936  64.845  1.00  0.00    -0.244 NA 
HETATM   16  H   UNL     1      -9.075  10.648  64.102  1.00  0.00     0.000 HD 
BRANCH  15  17
HETATM   17  C   UNL     1      -9.788  10.078  65.982  1.00  0.00    -0.257 A  
HETATM   18  C   UNL     1      -9.302   8.750  65.967  1.00  0.00    -0.296 A  
HETATM   19  C   UNL     1      -8.445   8.252  64.959  1.00  0.00    -0.141 A  
HETATM   20  C   UNL     1      -8.124   6.902  64.896  1.00  0.00    -0.109 A  
HETATM   21  C   UNL     1      -8.643   6.044  65.853  1.00  0.00    -0.150 A  
HETATM   22 CL   UNL     1      -8.357   4.354  65.723  1.00  0.00    -0.113 Cl 
HETATM   23  C   UNL     1      -9.406   6.542  66.908  1.00  0.00    -0.166 A  
HETATM   24  C   UNL     1      -9.711   7.891  67.005  1.00  0.00    -0.206 A  
HETATM   25  N   UNL     1     -10.418   8.325  68.063  1.00  0.00    -0.206 NA 
HETATM   26  C   UNL     1     -10.758   9.630  68.112  1.00  0.00    -0.217 A  
HETATM   27  C   UNL     1     -10.498  10.528  67.099  1.00  0.00    -0.302 A  
ENDBRANCH  15  17
ENDBRANCH  13  15
ENDBRANCH   6   7
ENDBRANCH   3   6
ENDBRANCH   2   3
TORSDOF 6
ENDMDL
MODEL      109
REMARK 921   NORMALIZED FREE ENERGY PREDICTED BY IDOCK:   -5.33 KCAL/MOL
REMARK 922        TOTAL FREE ENERGY PREDICTED BY IDOCK:   -8.21 KCAL/MOL
REMARK 923 INTER-LIGAND FREE ENERGY PREDICTED BY IDOCK:   -7.46 KCAL/MOL
REMARK 924 INTRA-LIGAND FREE ENERGY PREDICTED BY IDOCK:   -0.74 KCAL/MOL
REMARK 927      BINDING AFFINITY PREDICTED BY RF-SCORE:    0.00 PKD
ROOT
HETATM    1  C   UNL     1      -7.455   6.979  68.871  1.00  0.00    -0.095 C  
HETATM    2  C   UNL     1      -8.406   6.514  69.969  1.00  0.00    -0.134 C  
ENDROOT
BRANCH   2   3
HETATM    3  N   UNL     1      -9.785   7.030  69.821  1.00  0.00    -0.168 NA 
BRANCH   3   4
HETATM    4  C   UNL     1     -10.604   6.230  68.892  1.00  0.00    -0.268 C  
HETATM    5  C   UNL     1     -11.007   6.900  67.578  1.00  0.00    -0.340 C  
ENDBRANCH   3   4
BRANCH   3   6
HETATM    6  C   UNL     1     -10.459   7.190  71.134  1.00  0.00    -0.210 C  
BRANCH   6   7
HETATM    7  C   UNL     1     -11.243   8.484  71.230  1.00  0.00    -0.321 A  
HETATM    8  C   UNL     1     -12.502   8.557  71.840  1.00  0.00    -0.352 A  
HETATM    9  C   UNL     1     -13.299   9.680  71.684  1.00  0.00    -0.485 A  
HETATM   10  O   UNL     1     -13.039   7.496  72.513  1.00  0.00    -0.461 OA 
HETATM   11  C   UNL     1     -12.843  10.748  70.905  1.00  0.00    -0.443 A  
HETATM   12  H   UNL     1     -13.892   7.546  72.926  1.00  0.00     0.000 HD 
HETATM   13  C   UNL     1     -11.558  10.743  70.343  1.00  0.00    -0.339 A  
HETATM   14  C   UNL     1     -10.751   9.620  70.564  1.00  0.00    -0.374 A  
BRANCH  13  15
HETATM   15  N   UNL     1     -11.003  11.819  69.605  1.00  0.00    -0.470 NA 
HETATM   16  H   UNL     1     -10.919  12.709  70.097  1.00  0.00     0.000 HD 
BRANCH  15  17
HETATM   17  C   UNL     1     -10.548  11.798  68.253  1.00  0.00    -0.211 A  
HETATM   18  C   UNL     1     -10.616  12.932  67.410  1.00  0.00    -0.242 A  
HETATM   19  C   UNL     1     -10.849  14.240  67.892  1.00  0.00    -0.260 A  
HETATM   20  C   UNL     1     -11.068  15.296  67.016  1.00  0.00    -0.305 A  
HETATM   21  C   UNL     1     -11.036  15.053  65.652  1.00  0.00    -0.354 A  
HETATM   22 CL   UNL     1     -11.424  16.319  64.555  1.00  0.00    -0.338 Cl 
HETATM   23  C   UNL     1     -10.708  13.788  65.167  1.00  0.00    -0.365 A  
HETATM   24  C   UNL     1     -10.456  12.729  66.026  1.00  0.00    -0.274 A  
HETATM   25  N   UNL     1     -10.107  11.539  65.507  1.00  0.00    -0.232 NA 
HETATM   26  C   UNL     1      -9.922  10.504  66.353  1.00  0.00    -0.218 A  
HETATM   27  C   UNL     1     -10.157  10.572  67.710  1.00  0.00    -0.205 A  
ENDBRANCH  15  17
ENDBRANCH  13  15
ENDBRANCH   6   7
ENDBRANCH   3   6
ENDBRANCH   2   3
TORSDOF 6
ENDMDL
MODEL      110
REMARK 921   NORMALIZED FREE ENERGY PREDICTED BY IDOCK:   -5.32 KCAL/MOL
REMARK 922        TOTAL FREE ENERGY PREDICTED BY IDOCK:   -8.20 KCAL/MOL
REMARK 923 INTER-LIGAND FREE ENERGY PREDICTED BY IDOCK:   -7.09 KCAL/MOL
REMARK 924 INTRA-LIGAND FREE ENERGY PREDICTED BY IDOCK:   -1.11 KCAL/MOL
REMARK 927      BINDING AFFINITY PREDICTED BY RF-SCORE:    0.00 PKD
ROOT
HETATM    1  C   UNL     1      -5.975  10.032  70.152  1.00  0.00    -0.063 C  
HETATM    2  C   UNL     1      -6.614  10.392  68.814  1.00  0.00    -0.052 C  
ENDROOT
BRANCH   2   3
HETATM    3  N   UNL     1      -7.740   9.509  68.435  1.00  0.00    -0.085 NA 
BRANCH   3   4
HETATM    4  C   UNL     1      -7.342   8.429  67.514  1.00  0.00    -0.093 C  
HETATM    5  C   UNL     1      -7.318   8.768  66.024  1.00  0.00    -0.089 C  
ENDBRANCH   3   4
BRANCH   3   6
HETATM    6  C   UNL     1      -8.446   8.971  69.625  1.00  0.00    -0.128 C  
BRANCH   6   7
HETATM    7  C   UNL     1      -9.752   9.689  69.899  1.00  0.00    -0.262 A  
HETATM    8  C   UNL     1     -10.493   9.482  71.069  1.00  0.00    -0.306 A  
HETATM    9  C   UNL     1     -11.794   9.947  71.174  1.00  0.00    -0.472 A  
HETATM   10  O   UNL     1     -10.014   8.725  72.101  1.00  0.00    -0.320 OA 
HETATM   11  C   UNL     1     -12.374  10.625  70.097  1.00  0.00    -0.370 A  
HETATM   12  H   UNL     1     -10.516   8.584  72.894  1.00  0.00     0.000 HD 
HETATM   13  C   UNL     1     -11.637  10.920  68.940  1.00  0.00    -0.309 A  
HETATM   14  C   UNL     1     -10.307  10.488  68.884  1.00  0.00    -0.226 A  
BRANCH  13  15
HETATM   15  N   UNL     1     -12.136  11.666  67.842  1.00  0.00    -0.585 NA 
HETATM   16  H   UNL     1     -13.146  11.641  67.700  1.00  0.00     0.000 HD 
BRANCH  15  17
HETATM   17  C   UNL     1     -11.385  12.447  66.914  1.00  0.00    -0.333 A  
HETATM   18  C   UNL     1     -11.073  13.807  67.142  1.00  0.00    -0.315 A  
HETATM   19  C   UNL     1     -11.203  14.428  68.406  1.00  0.00    -0.294 A  
HETATM   20  C   UNL     1     -11.040  15.801  68.548  1.00  0.00    -0.335 A  
HETATM   21  C   UNL     1     -10.727  16.558  67.430  1.00  0.00    -0.260 A  
HETATM   22 CL   UNL     1     -10.641  18.270  67.561  1.00  0.00    -0.437 Cl 
HETATM   23  C   UNL     1     -10.498  15.941  66.201  1.00  0.00    -0.336 A  
HETATM   24  C   UNL     1     -10.625  14.569  66.046  1.00  0.00    -0.307 A  
HETATM   25  N   UNL     1     -10.356  14.021  64.849  1.00  0.00    -0.421 NA 
HETATM   26  C   UNL     1     -10.542  12.692  64.699  1.00  0.00    -0.333 A  
HETATM   27  C   UNL     1     -11.076  11.879  65.675  1.00  0.00    -0.362 A  
ENDBRANCH  15  17
ENDBRANCH  13  15
ENDBRANCH   6   7
ENDBRANCH   3   6
ENDBRANCH   2   3
TORSDOF 6
ENDMDL
MODEL      111
REMARK 921   NORMALIZED FREE ENERGY PREDICTED BY IDOCK:   -5.32 KCAL/MOL
REMARK 922        TOTAL FREE ENERGY PREDICTED BY IDOCK:   -8.19 KCAL/MOL
REMARK 923 INTER-LIGAND FREE ENERGY PREDICTED BY IDOCK:   -7.34 KCAL/MOL
REMARK 924 INTRA-LIGAND FREE ENERGY PREDICTED BY IDOCK:   -0.86 KCAL/MOL
REMARK 927      BINDING AFFINITY PREDICTED BY RF-SCORE:    0.00 PKD
ROOT
HETATM    1  C   UNL     1      -6.670  18.975  65.849  1.00  0.00    -0.281 C  
HETATM    2  C   UNL     1      -7.451  17.695  66.126  1.00  0.00    -0.299 C  
ENDROOT
BRANCH   2   3
HETATM    3  N   UNL     1      -8.686  17.909  66.914  1.00  0.00    -0.239 NA 
BRANCH   3   4
HETATM    4  C   UNL     1      -8.695  19.194  67.636  1.00  0.00    -0.296 C  
HETATM    5  C   UNL     1      -9.832  19.417  68.633  1.00  0.00    -0.522 C  
ENDBRANCH   3   4
BRANCH   3   6
HETATM    6  C   UNL     1      -9.906  17.749  66.083  1.00  0.00    -0.244 C  
BRANCH   6   7
HETATM    7  C   UNL     1     -10.305  16.296  65.911  1.00  0.00    -0.381 A  
HETATM    8  C   UNL     1     -11.136  15.863  64.871  1.00  0.00    -0.389 A  
HETATM    9  C   UNL     1     -11.687  14.592  64.889  1.00  0.00    -0.402 A  
HETATM   10  O   UNL     1     -11.524  16.699  63.863  1.00  0.00    -1.604 OA 
HETATM   11  C   UNL     1     -11.415  13.736  65.962  1.00  0.00    -0.336 A  
HETATM   12  H   UNL     1     -12.088  16.405  63.158  1.00  0.00     0.000 HD 
HETATM   13  C   UNL     1     -10.526  14.107  66.981  1.00  0.00    -0.271 A  
HETATM   14  C   UNL     1      -9.938  15.376  66.908  1.00  0.00    -0.247 A  
BRANCH  13  15
HETATM   15  N   UNL     1     -10.147  13.266  68.058  1.00  0.00    -0.229 NA 
HETATM   16  H   UNL     1     -10.710  13.335  68.906  1.00  0.00     0.000 HD 
BRANCH  15  17
HETATM   17  C   UNL     1      -9.068  12.333  68.090  1.00  0.00    -0.196 A  
HETATM   18  C   UNL     1      -9.200  11.002  67.629  1.00  0.00    -0.151 A  
HETATM   19  C   UNL     1     -10.284  10.563  66.835  1.00  0.00    -0.280 A  
HETATM   20  C   UNL     1     -10.456   9.216  66.542  1.00  0.00    -0.197 A  
HETATM   21  C   UNL     1      -9.532   8.301  67.025  1.00  0.00    -0.176 A  
HETATM   22 CL   UNL     1      -9.792   6.620  66.776  1.00  0.00    -0.220 Cl 
HETATM   23  C   UNL     1      -8.406   8.736  67.722  1.00  0.00    -0.118 A  
HETATM   24  C   UNL     1      -8.202  10.080  67.998  1.00  0.00    -0.116 A  
HETATM   25  N   UNL     1      -7.080  10.450  68.640  1.00  0.00    -0.073 NA 
HETATM   26  C   UNL     1      -6.925  11.754  68.953  1.00  0.00    -0.109 A  
HETATM   27  C   UNL     1      -7.887  12.715  68.732  1.00  0.00     0.039 A  
ENDBRANCH  15  17
ENDBRANCH  13  15
ENDBRANCH   6   7
ENDBRANCH   3   6
ENDBRANCH   2   3
TORSDOF 6
ENDMDL
MODEL      112
REMARK 921   NORMALIZED FREE ENERGY PREDICTED BY IDOCK:   -5.30 KCAL/MOL
REMARK 922        TOTAL FREE ENERGY PREDICTED BY IDOCK:   -8.17 KCAL/MOL
REMARK 923 INTER-LIGAND FREE ENERGY PREDICTED BY IDOCK:   -7.18 KCAL/MOL
REMARK 924 INTRA-LIGAND FREE ENERGY PREDICTED BY IDOCK:   -0.99 KCAL/MOL
REMARK 927      BINDING AFFINITY PREDICTED BY RF-SCORE:    0.00 PKD
ROOT
HETATM    1  C   UNL     1      -9.923   6.492  66.884  1.00  0.00    -0.227 C  
HETATM    2  C   UNL     1      -9.346   7.562  67.805  1.00  0.00    -0.141 C  
ENDROOT
BRANCH   2   3
HETATM    3  N   UNL     1     -10.213   7.885  68.960  1.00  0.00    -0.206 NA 
BRANCH   3   4
HETATM    4  C   UNL     1     -10.486   6.720  69.820  1.00  0.00    -0.210 C  
HETATM    5  C   UNL     1     -11.830   6.701  70.549  1.00  0.00    -0.430 C  
ENDBRANCH   3   4
BRANCH   3   6
HETATM    6  C   UNL     1      -9.682   9.026  69.748  1.00  0.00    -0.175 C  
BRANCH   6   7
HETATM    7  C   UNL     1     -10.291  10.351  69.335  1.00  0.00    -0.259 A  
HETATM    8  C   UNL     1     -11.633  10.670  69.578  1.00  0.00    -0.288 A  
HETATM    9  C   UNL     1     -12.222  11.765  68.967  1.00  0.00    -0.132 A  
HETATM   10  O   UNL     1     -12.440   9.864  70.331  1.00  0.00    -0.478 OA 
HETATM   11  C   UNL     1     -11.469  12.555  68.092  1.00  0.00    -0.368 A  
HETATM   12  H   UNL     1     -13.349  10.080  70.496  1.00  0.00     0.000 HD 
HETATM   13  C   UNL     1     -10.104  12.312  67.884  1.00  0.00    -0.200 A  
HETATM   14  C   UNL     1      -9.520  11.234  68.559  1.00  0.00    -0.191 A  
BRANCH  13  15
HETATM   15  N   UNL     1      -9.263  13.114  67.070  1.00  0.00    -0.226 NA 
HETATM   16  H   UNL     1      -8.297  12.801  66.972  1.00  0.00     0.000 HD 
BRANCH  15  17
HETATM   17  C   UNL     1      -9.616  14.308  66.374  1.00  0.00    -0.298 A  
HETATM   18  C   UNL     1      -9.394  15.597  66.913  1.00  0.00    -0.252 A  
HETATM   19  C   UNL     1      -8.552  15.836  68.022  1.00  0.00    -0.163 A  
HETATM   20  C   UNL     1      -8.490  17.090  68.616  1.00  0.00    -0.262 A  
HETATM   21  C   UNL     1      -9.257  18.119  68.091  1.00  0.00    -0.291 A  
HETATM   22 CL   UNL     1      -9.288  19.645  68.884  1.00  0.00    -0.389 Cl 
HETATM   23  C   UNL     1     -10.012  17.918  66.937  1.00  0.00    -0.335 A  
HETATM   24  C   UNL     1     -10.062  16.682  66.312  1.00  0.00    -0.328 A  
HETATM   25  N   UNL     1     -10.775  16.552  65.180  1.00  0.00    -0.643 NA 
HETATM   26  C   UNL     1     -10.861  15.328  64.617  1.00  0.00    -0.257 A  
HETATM   27  C   UNL     1     -10.335  14.186  65.182  1.00  0.00    -0.429 A  
ENDBRANCH  15  17
ENDBRANCH  13  15
ENDBRANCH   6   7
ENDBRANCH   3   6
ENDBRANCH   2   3
TORSDOF 6
ENDMDL
MODEL      113
REMARK 921   NORMALIZED FREE ENERGY PREDICTED BY IDOCK:   -5.28 KCAL/MOL
REMARK 922        TOTAL FREE ENERGY PREDICTED BY IDOCK:   -8.15 KCAL/MOL
REMARK 923 INTER-LIGAND FREE ENERGY PREDICTED BY IDOCK:   -6.81 KCAL/MOL
REMARK 924 INTRA-LIGAND FREE ENERGY PREDICTED BY IDOCK:   -1.33 KCAL/MOL
REMARK 927      BINDING AFFINITY PREDICTED BY RF-SCORE:    0.00 PKD
ROOT
HETATM    1  C   UNL     1      -8.333   6.440  68.054  1.00  0.00    -0.115 C  
HETATM    2  C   UNL     1      -8.308   6.287  69.571  1.00  0.00    -0.118 C  
ENDROOT
BRANCH   2   3
HETATM    3  N   UNL     1      -9.629   6.485  70.211  1.00  0.00    -0.161 NA 
BRANCH   3   4
HETATM    4  C   UNL     1     -10.302   5.218  70.549  1.00  0.00    -0.266 C  
HETATM    5  C   UNL     1     -10.096   4.685  71.966  1.00  0.00    -0.262 C  
ENDBRANCH   3   4
BRANCH   3   6
HETATM    6  C   UNL     1      -9.541   7.381  71.392  1.00  0.00    -0.159 C  
BRANCH   6   7
HETATM    7  C   UNL     1     -10.725   8.322  71.494  1.00  0.00    -0.295 A  
HETATM    8  C   UNL     1     -11.622   8.288  72.569  1.00  0.00    -0.385 A  
HETATM    9  C   UNL     1     -12.825   8.972  72.509  1.00  0.00    -0.408 A  
HETATM   10  O   UNL     1     -11.404   7.499  73.664  1.00  0.00    -0.561 OA 
HETATM   11  C   UNL     1     -13.149   9.700  71.359  1.00  0.00    -0.471 A  
HETATM   12  H   UNL     1     -12.013   7.475  74.392  1.00  0.00     0.000 HD 
HETATM   13  C   UNL     1     -12.243   9.821  70.295  1.00  0.00     0.017 A  
HETATM   14  C   UNL     1     -11.011   9.166  70.407  1.00  0.00    -0.290 A  
BRANCH  13  15
HETATM   15  N   UNL     1     -12.473  10.601  69.133  1.00  0.00    -0.737 NA 
HETATM   16  H   UNL     1     -13.362  10.449  68.656  1.00  0.00     0.000 HD 
BRANCH  15  17
HETATM   17  C   UNL     1     -11.603  11.573  68.557  1.00  0.00    -0.313 A  
HETATM   18  C   UNL     1     -10.631  11.242  67.584  1.00  0.00    -0.252 A  
HETATM   19  C   UNL     1     -10.626  10.014  66.883  1.00  0.00    -0.261 A  
HETATM   20  C   UNL     1      -9.564   9.666  66.057  1.00  0.00    -0.305 A  
HETATM   21  C   UNL     1      -8.509  10.554  65.913  1.00  0.00    -0.162 A  
HETATM   22 CL   UNL     1      -7.131  10.092  64.993  1.00  0.00    -0.136 Cl 
HETATM   23  C   UNL     1      -8.553  11.808  66.520  1.00  0.00    -0.148 A  
HETATM   24  C   UNL     1      -9.618  12.185  67.323  1.00  0.00    -0.185 A  
HETATM   25  N   UNL     1      -9.629  13.420  67.854  1.00  0.00    -0.209 NA 
HETATM   26  C   UNL     1     -10.644  13.750  68.680  1.00  0.00    -0.253 A  
HETATM   27  C   UNL     1     -11.623  12.867  69.082  1.00  0.00    -0.375 A  
ENDBRANCH  15  17
ENDBRANCH  13  15
ENDBRANCH   6   7
ENDBRANCH   3   6
ENDBRANCH   2   3
TORSDOF 6
ENDMDL
MODEL      114
REMARK 921   NORMALIZED FREE ENERGY PREDICTED BY IDOCK:   -5.25 KCAL/MOL
REMARK 922        TOTAL FREE ENERGY PREDICTED BY IDOCK:   -8.10 KCAL/MOL
REMARK 923 INTER-LIGAND FREE ENERGY PREDICTED BY IDOCK:   -6.71 KCAL/MOL
REMARK 924 INTRA-LIGAND FREE ENERGY PREDICTED BY IDOCK:   -1.39 KCAL/MOL
REMARK 927      BINDING AFFINITY PREDICTED BY RF-SCORE:    0.00 PKD
ROOT
HETATM    1  C   UNL     1     -10.999  11.174  66.005  1.00  0.00    -0.189 C  
HETATM    2  C   UNL     1      -9.644  10.976  65.332  1.00  0.00    -0.225 C  
ENDROOT
BRANCH   2   3
HETATM    3  N   UNL     1      -9.371   9.574  64.944  1.00  0.00    -0.237 NA 
BRANCH   3   4
HETATM    4  C   UNL     1      -8.921   9.439  63.547  1.00  0.00    -0.115 C  
HETATM    5  C   UNL     1      -8.881  10.718  62.710  1.00  0.00    -0.291 C  
ENDBRANCH   3   4
BRANCH   3   6
HETATM    6  C   UNL     1      -8.427   8.914  65.881  1.00  0.00    -0.136 C  
BRANCH   6   7
HETATM    7  C   UNL     1      -9.139   8.098  66.942  1.00  0.00    -0.185 A  
HETATM    8  C   UNL     1      -9.727   6.857  66.667  1.00  0.00    -0.163 A  
HETATM    9  C   UNL     1     -10.584   6.263  67.579  1.00  0.00    -0.348 A  
HETATM   10  O   UNL     1      -9.573   6.239  65.458  1.00  0.00    -0.348 OA 
HETATM   11  C   UNL     1     -10.868   6.913  68.785  1.00  0.00    -0.238 A  
HETATM   12  H   UNL     1      -9.972   5.398  65.272  1.00  0.00     0.000 HD 
HETATM   13  C   UNL     1     -10.238   8.118  69.128  1.00  0.00    -0.214 A  
HETATM   14  C   UNL     1      -9.333   8.668  68.212  1.00  0.00    -0.143 A  
BRANCH  13  15
HETATM   15  N   UNL     1     -10.422   8.795  70.361  1.00  0.00    -0.202 NA 
HETATM   16  H   UNL     1      -9.603   8.864  70.965  1.00  0.00     0.000 HD 
BRANCH  15  17
HETATM   17  C   UNL     1     -11.622   9.389  70.852  1.00  0.00    -0.312 A  
HETATM   18  C   UNL     1     -11.915  10.762  70.686  1.00  0.00    -0.466 A  
HETATM   19  C   UNL     1     -11.218  11.596  69.781  1.00  0.00    -0.203 A  
HETATM   20  C   UNL     1     -11.429  12.970  69.768  1.00  0.00    -0.213 A  
HETATM   21  C   UNL     1     -12.354  13.514  70.645  1.00  0.00    -0.358 A  
HETATM   22 CL   UNL     1     -12.541  15.222  70.728  1.00  0.00    -0.432 Cl 
HETATM   23  C   UNL     1     -13.117  12.689  71.469  1.00  0.00    -0.373 A  
HETATM   24  C   UNL     1     -12.943  11.314  71.475  1.00  0.00    -0.415 A  
HETATM   25  N   UNL     1     -13.731  10.560  72.260  1.00  0.00    -0.044 NA 
HETATM   26  C   UNL     1     -13.509   9.229  72.299  1.00  0.00    -0.482 A  
HETATM   27  C   UNL     1     -12.464   8.608  71.648  1.00  0.00    -0.382 A  
ENDBRANCH  15  17
ENDBRANCH  13  15
ENDBRANCH   6   7
ENDBRANCH   3   6
ENDBRANCH   2   3
TORSDOF 6
ENDMDL
MODEL      115
REMARK 921   NORMALIZED FREE ENERGY PREDICTED BY IDOCK:   -5.24 KCAL/MOL
REMARK 922        TOTAL FREE ENERGY PREDICTED BY IDOCK:   -8.09 KCAL/MOL
REMARK 923 INTER-LIGAND FREE ENERGY PREDICTED BY IDOCK:   -7.00 KCAL/MOL
REMARK 924 INTRA-LIGAND FREE ENERGY PREDICTED BY IDOCK:   -1.09 KCAL/MOL
REMARK 927      BINDING AFFINITY PREDICTED BY RF-SCORE:    0.00 PKD
ROOT
HETATM    1  C   UNL     1      -8.549   8.901  69.462  1.00  0.00    -0.134 C  
HETATM    2  C   UNL     1      -9.409   9.953  70.157  1.00  0.00    -0.149 C  
ENDROOT
BRANCH   2   3
HETATM    3  N   UNL     1     -10.859   9.798  69.905  1.00  0.00    -0.255 NA 
BRANCH   3   4
HETATM    4  C   UNL     1     -11.612   9.384  71.103  1.00  0.00    -0.345 C  
HETATM    5  C   UNL     1     -10.816   8.702  72.215  1.00  0.00    -0.392 C  
ENDBRANCH   3   4
BRANCH   3   6
HETATM    6  C   UNL     1     -11.447  11.016  69.292  1.00  0.00    -0.300 C  
BRANCH   6   7
HETATM    7  C   UNL     1     -10.947  11.253  67.880  1.00  0.00    -0.302 A  
HETATM    8  C   UNL     1     -10.754  10.210  66.966  1.00  0.00    -0.196 A  
HETATM    9  C   UNL     1     -10.059  10.423  65.787  1.00  0.00    -0.329 A  
HETATM   10  O   UNL     1     -11.140   8.929  67.243  1.00  0.00    -0.373 OA 
HETATM   11  C   UNL     1      -9.540  11.692  65.510  1.00  0.00    -0.241 A  
HETATM   12  H   UNL     1     -11.009   8.222  66.623  1.00  0.00     0.000 HD 
HETATM   13  C   UNL     1      -9.779  12.779  66.365  1.00  0.00    -0.261 A  
HETATM   14  C   UNL     1     -10.534  12.548  67.521  1.00  0.00    -0.231 A  
BRANCH  13  15
HETATM   15  N   UNL     1      -9.348  14.105  66.112  1.00  0.00    -0.494 NA 
HETATM   16  H   UNL     1      -9.551  14.478  65.185  1.00  0.00     0.000 HD 
BRANCH  15  17
HETATM   17  C   UNL     1      -8.662  14.978  67.009  1.00  0.00    -0.237 A  
HETATM   18  C   UNL     1      -9.030  16.332  67.183  1.00  0.00    -0.213 A  
HETATM   19  C   UNL     1     -10.262  16.862  66.734  1.00  0.00    -0.306 A  
HETATM   20  C   UNL     1     -10.513  18.228  66.781  1.00  0.00    -0.387 A  
HETATM   21  C   UNL     1      -9.540  19.070  67.297  1.00  0.00    -0.313 A  
HETATM   22 CL   UNL     1      -9.782  20.772  67.254  1.00  0.00    -0.590 Cl 
HETATM   23  C   UNL     1      -8.365  18.547  67.835  1.00  0.00    -0.281 A  
HETATM   24  C   UNL     1      -8.110  17.184  67.824  1.00  0.00    -0.193 A  
HETATM   25  N   UNL     1      -6.979  16.728  68.389  1.00  0.00    -0.164 NA 
HETATM   26  C   UNL     1      -6.718  15.406  68.318  1.00  0.00    -0.119 A  
HETATM   27  C   UNL     1      -7.499  14.507  67.624  1.00  0.00    -0.195 A  
ENDBRANCH  15  17
ENDBRANCH  13  15
ENDBRANCH   6   7
ENDBRANCH   3   6
ENDBRANCH   2   3
TORSDOF 6
ENDMDL
MODEL      116
REMARK 921   NORMALIZED FREE ENERGY PREDICTED BY IDOCK:   -5.22 KCAL/MOL
REMARK 922        TOTAL FREE ENERGY PREDICTED BY IDOCK:   -8.07 KCAL/MOL
REMARK 923 INTER-LIGAND FREE ENERGY PREDICTED BY IDOCK:   -6.81 KCAL/MOL
REMARK 924 INTRA-LIGAND FREE ENERGY PREDICTED BY IDOCK:   -1.26 KCAL/MOL
REMARK 927      BINDING AFFINITY PREDICTED BY RF-SCORE:    0.00 PKD
ROOT
HETATM    1  C   UNL     1      -9.404   9.916  66.382  1.00  0.00    -0.213 C  
HETATM    2  C   UNL     1      -9.232   8.405  66.266  1.00  0.00    -0.208 C  
ENDROOT
BRANCH   2   3
HETATM    3  N   UNL     1      -9.525   7.674  67.520  1.00  0.00    -0.138 NA 
BRANCH   3   4
HETATM    4  C   UNL     1      -9.585   6.213  67.335  1.00  0.00    -0.115 C  
HETATM    5  C   UNL     1     -10.525   5.440  68.260  1.00  0.00    -0.191 C  
ENDBRANCH   3   4
BRANCH   3   6
HETATM    6  C   UNL     1      -8.583   8.043  68.607  1.00  0.00    -0.128 C  
BRANCH   6   7
HETATM    7  C   UNL     1      -9.297   8.454  69.879  1.00  0.00    -0.155 A  
HETATM    8  C   UNL     1      -8.908   7.993  71.142  1.00  0.00    -0.140 A  
HETATM    9  C   UNL     1      -9.727   8.174  72.245  1.00  0.00    -0.322 A  
HETATM   10  O   UNL     1      -7.771   7.256  71.321  1.00  0.00    -0.086 OA 
HETATM   11  C   UNL     1     -10.959   8.819  72.091  1.00  0.00    -0.404 A  
HETATM   12  H   UNL     1      -7.507   6.943  72.178  1.00  0.00     0.000 HD 
HETATM   13  C   UNL     1     -11.348   9.362  70.858  1.00  0.00    -0.319 A  
HETATM   14  C   UNL     1     -10.475   9.215  69.774  1.00  0.00    -0.234 A  
BRANCH  13  15
HETATM   15  N   UNL     1     -12.545  10.091  70.647  1.00  0.00    -0.481 NA 
HETATM   16  H   UNL     1     -13.346   9.557  70.309  1.00  0.00     0.000 HD 
BRANCH  15  17
HETATM   17  C   UNL     1     -12.757  11.487  70.852  1.00  0.00    -0.278 A  
HETATM   18  C   UNL     1     -12.263  12.470  69.964  1.00  0.00    -0.262 A  
HETATM   19  C   UNL     1     -11.790  12.171  68.666  1.00  0.00    -0.358 A  
HETATM   20  C   UNL     1     -11.166  13.141  67.891  1.00  0.00    -0.300 A  
HETATM   21  C   UNL     1     -11.030  14.422  68.403  1.00  0.00    -0.248 A  
HETATM   22 CL   UNL     1     -10.155  15.604  67.511  1.00  0.00    -0.249 Cl 
HETATM   23  C   UNL     1     -11.583  14.752  69.639  1.00  0.00    -0.342 A  
HETATM   24  C   UNL     1     -12.236  13.805  70.414  1.00  0.00    -0.363 A  
HETATM   25  N   UNL     1     -12.784  14.183  71.581  1.00  0.00    -0.337 NA 
HETATM   26  C   UNL     1     -13.365  13.238  72.350  1.00  0.00    -0.516 A  
HETATM   27  C   UNL     1     -13.351  11.892  72.051  1.00  0.00    -0.425 A  
ENDBRANCH  15  17
ENDBRANCH  13  15
ENDBRANCH   6   7
ENDBRANCH   3   6
ENDBRANCH   2   3
TORSDOF 6
ENDMDL
MODEL      117
REMARK 921   NORMALIZED FREE ENERGY PREDICTED BY IDOCK:   -5.21 KCAL/MOL
REMARK 922        TOTAL FREE ENERGY PREDICTED BY IDOCK:   -8.06 KCAL/MOL
REMARK 923 INTER-LIGAND FREE ENERGY PREDICTED BY IDOCK:   -7.32 KCAL/MOL
REMARK 924 INTRA-LIGAND FREE ENERGY PREDICTED BY IDOCK:   -0.74 KCAL/MOL
REMARK 927      BINDING AFFINITY PREDICTED BY RF-SCORE:    0.00 PKD
ROOT
HETATM    1  C   UNL     1      -8.269   7.909  70.756  1.00  0.00    -0.110 C  
HETATM    2  C   UNL     1      -9.575   7.248  70.327  1.00  0.00    -0.165 C  
ENDROOT
BRANCH   2   3
HETATM    3  N   UNL     1     -10.500   6.972  71.450  1.00  0.00    -0.209 NA 
BRANCH   3   4
HETATM    4  C   UNL     1     -10.066   7.582  72.719  1.00  0.00    -0.240 C  
HETATM    5  C   UNL     1     -10.235   6.739  73.983  1.00  0.00    -0.399 C  
ENDBRANCH   3   4
BRANCH   3   6
HETATM    6  C   UNL     1     -11.898   7.349  71.119  1.00  0.00    -0.301 C  
BRANCH   6   7
HETATM    7  C   UNL     1     -12.113   8.849  71.136  1.00  0.00    -0.326 A  
HETATM    8  C   UNL     1     -12.847   9.493  72.140  1.00  0.00    -0.389 A  
HETATM    9  C   UNL     1     -13.243  10.812  71.991  1.00  0.00    -0.466 A  
HETATM   10  O   UNL     1     -13.295   8.825  73.245  1.00  0.00    -0.915 OA 
HETATM   11  C   UNL     1     -12.911  11.505  70.823  1.00  0.00    -0.222 A  
HETATM   12  H   UNL     1     -13.793   9.261  73.925  1.00  0.00     0.000 HD 
HETATM   13  C   UNL     1     -12.112  10.919  69.831  1.00  0.00    -0.354 A  
HETATM   14  C   UNL     1     -11.677   9.604  70.033  1.00  0.00    -0.074 A  
BRANCH  13  15
HETATM   15  N   UNL     1     -11.675  11.586  68.657  1.00  0.00    -0.327 NA 
HETATM   16  H   UNL     1     -12.294  11.528  67.848  1.00  0.00     0.000 HD 
BRANCH  15  17
HETATM   17  C   UNL     1     -10.470  12.327  68.480  1.00  0.00    -0.232 A  
HETATM   18  C   UNL     1     -10.450  13.739  68.394  1.00  0.00    -0.256 A  
HETATM   19  C   UNL     1     -11.545  14.550  68.768  1.00  0.00    -0.343 A  
HETATM   20  C   UNL     1     -11.542  15.917  68.516  1.00  0.00    -0.351 A  
HETATM   21  C   UNL     1     -10.433  16.482  67.906  1.00  0.00    -0.313 A  
HETATM   22 CL   UNL     1     -10.458  18.147  67.476  1.00  0.00    -0.409 Cl 
HETATM   23  C   UNL     1      -9.309  15.708  67.625  1.00  0.00    -0.206 A  
HETATM   24  C   UNL     1      -9.282  14.348  67.898  1.00  0.00    -0.195 A  
HETATM   25  N   UNL     1      -8.159  13.655  67.643  1.00  0.00    -0.163 NA 
HETATM   26  C   UNL     1      -8.170  12.322  67.859  1.00  0.00    -0.161 A  
HETATM   27  C   UNL     1      -9.290  11.617  68.241  1.00  0.00    -0.191 A  
ENDBRANCH  15  17
ENDBRANCH  13  15
ENDBRANCH   6   7
ENDBRANCH   3   6
ENDBRANCH   2   3
TORSDOF 6
ENDMDL
MODEL      118
REMARK 921   NORMALIZED FREE ENERGY PREDICTED BY IDOCK:   -5.19 KCAL/MOL
REMARK 922        TOTAL FREE ENERGY PREDICTED BY IDOCK:   -8.03 KCAL/MOL
REMARK 923 INTER-LIGAND FREE ENERGY PREDICTED BY IDOCK:   -7.03 KCAL/MOL
REMARK 924 INTRA-LIGAND FREE ENERGY PREDICTED BY IDOCK:   -0.99 KCAL/MOL
REMARK 927      BINDING AFFINITY PREDICTED BY RF-SCORE:    0.00 PKD
ROOT
HETATM    1  C   UNL     1     -12.326  10.744  70.725  1.00  0.00    -0.480 C  
HETATM    2  C   UNL     1     -11.215  10.087  69.911  1.00  0.00    -0.275 C  
ENDROOT
BRANCH   2   3
HETATM    3  N   UNL     1     -10.698  10.937  68.814  1.00  0.00    -0.193 NA 
BRANCH   3   4
HETATM    4  C   UNL     1      -9.475  10.397  68.194  1.00  0.00    -0.145 C  
HETATM    5  C   UNL     1      -8.943   9.078  68.754  1.00  0.00    -0.137 C  
ENDBRANCH   3   4
BRANCH   3   6
HETATM    6  C   UNL     1     -11.741  11.219  67.796  1.00  0.00    -0.176 C  
BRANCH   6   7
HETATM    7  C   UNL     1     -11.704  12.654  67.310  1.00  0.00    -0.435 A  
HETATM    8  C   UNL     1     -12.022  13.010  65.993  1.00  0.00    -0.440 A  
HETATM    9  C   UNL     1     -11.731  14.277  65.513  1.00  0.00    -0.353 A  
HETATM   10  O   UNL     1     -12.523  12.103  65.103  1.00  0.00    -0.508 OA 
HETATM   11  C   UNL     1     -11.108  15.207  66.352  1.00  0.00    -0.312 A  
HETATM   12  H   UNL     1     -12.739  12.345  64.210  1.00  0.00     0.000 HD 
HETATM   13  C   UNL     1     -10.845  14.912  67.698  1.00  0.00    -0.286 A  
HETATM   14  C   UNL     1     -11.201  13.644  68.172  1.00  0.00    -0.303 A  
BRANCH  13  15
HETATM   15  N   UNL     1     -10.284  15.829  68.623  1.00  0.00    -0.215 NA 
HETATM   16  H   UNL     1     -10.944  16.353  69.198  1.00  0.00     0.000 HD 
BRANCH  15  17
HETATM   17  C   UNL     1      -8.900  16.101  68.841  1.00  0.00    -0.248 A  
HETATM   18  C   UNL     1      -8.336  17.382  68.637  1.00  0.00    -0.264 A  
HETATM   19  C   UNL     1      -9.112  18.555  68.496  1.00  0.00    -0.353 A  
HETATM   20  C   UNL     1      -8.525  19.762  68.137  1.00  0.00    -0.327 A  
HETATM   21  C   UNL     1      -7.154  19.807  67.936  1.00  0.00    -0.274 A  
HETATM   22 CL   UNL     1      -6.426  21.260  67.374  1.00  0.00    -0.428 Cl 
HETATM   23  C   UNL     1      -6.369  18.680  68.171  1.00  0.00    -0.212 A  
HETATM   24  C   UNL     1      -6.933  17.474  68.559  1.00  0.00    -0.214 A  
HETATM   25  N   UNL     1      -6.127  16.428  68.810  1.00  0.00    -0.126 NA 
HETATM   26  C   UNL     1      -6.695  15.247  69.130  1.00  0.00    -0.135 A  
HETATM   27  C   UNL     1      -8.056  15.026  69.128  1.00  0.00    -0.192 A  
ENDBRANCH  15  17
ENDBRANCH  13  15
ENDBRANCH   6   7
ENDBRANCH   3   6
ENDBRANCH   2   3
TORSDOF 6
ENDMDL
MODEL      119
REMARK 921   NORMALIZED FREE ENERGY PREDICTED BY IDOCK:   -5.15 KCAL/MOL
REMARK 922        TOTAL FREE ENERGY PREDICTED BY IDOCK:   -7.97 KCAL/MOL
REMARK 923 INTER-LIGAND FREE ENERGY PREDICTED BY IDOCK:   -6.83 KCAL/MOL
REMARK 924 INTRA-LIGAND FREE ENERGY PREDICTED BY IDOCK:   -1.14 KCAL/MOL
REMARK 927      BINDING AFFINITY PREDICTED BY RF-SCORE:    0.00 PKD
ROOT
HETATM    1  C   UNL     1      -8.908   4.366  65.994  1.00  0.00    -0.119 C  
HETATM    2  C   UNL     1      -7.858   5.155  66.770  1.00  0.00    -0.100 C  
ENDROOT
BRANCH   2   3
HETATM    3  N   UNL     1      -8.252   6.554  67.051  1.00  0.00    -0.112 NA 
BRANCH   3   4
HETATM    4  C   UNL     1      -8.000   7.464  65.918  1.00  0.00    -0.118 C  
HETATM    5  C   UNL     1      -6.558   7.928  65.716  1.00  0.00    -0.045 C  
ENDBRANCH   3   4
BRANCH   3   6
HETATM    6  C   UNL     1      -9.659   6.649  67.517  1.00  0.00    -0.126 C  
BRANCH   6   7
HETATM    7  C   UNL     1      -9.859   7.753  68.536  1.00  0.00    -0.181 A  
HETATM    8  C   UNL     1      -9.396   7.653  69.854  1.00  0.00    -0.150 A  
HETATM    9  C   UNL     1      -9.815   8.552  70.821  1.00  0.00    -0.220 A  
HETATM   10  O   UNL     1      -8.609   6.614  70.263  1.00  0.00    -0.137 OA 
HETATM   11  C   UNL     1     -10.715   9.566  70.478  1.00  0.00    -0.359 A  
HETATM   12  H   UNL     1      -8.294   6.546  71.157  1.00  0.00     0.000 HD 
HETATM   13  C   UNL     1     -11.140   9.744  69.154  1.00  0.00    -0.123 A  
HETATM   14  C   UNL     1     -10.656   8.857  68.185  1.00  0.00    -0.211 A  
BRANCH  13  15
HETATM   15  N   UNL     1     -11.992  10.792  68.721  1.00  0.00    -0.718 NA 
HETATM   16  H   UNL     1     -12.904  10.513  68.359  1.00  0.00     0.000 HD 
BRANCH  15  17
HETATM   17  C   UNL     1     -11.719  12.192  68.736  1.00  0.00    -0.321 A  
HETATM   18  C   UNL     1     -12.156  13.041  69.779  1.00  0.00    -0.325 A  
HETATM   19  C   UNL     1     -12.626  12.559  71.022  1.00  0.00    -0.350 A  
HETATM   20  C   UNL     1     -13.195  13.419  71.954  1.00  0.00    -0.522 A  
HETATM   21  C   UNL     1     -13.278  14.770  71.655  1.00  0.00    -0.349 A  
HETATM   22 CL   UNL     1     -14.087  15.831  72.741  1.00  0.00    -0.586 Cl 
HETATM   23  C   UNL     1     -12.726  15.269  70.476  1.00  0.00    -0.440 A  
HETATM   24  C   UNL     1     -12.128  14.430  69.548  1.00  0.00    -0.322 A  
HETATM   25  N   UNL     1     -11.577  14.966  68.446  1.00  0.00    -0.315 NA 
HETATM   26  C   UNL     1     -11.050  14.132  67.525  1.00  0.00    -0.291 A  
HETATM   27  C   UNL     1     -11.123  12.758  67.606  1.00  0.00    -0.294 A  
ENDBRANCH  15  17
ENDBRANCH  13  15
ENDBRANCH   6   7
ENDBRANCH   3   6
ENDBRANCH   2   3
TORSDOF 6
ENDMDL
MODEL      120
REMARK 921   NORMALIZED FREE ENERGY PREDICTED BY IDOCK:   -5.15 KCAL/MOL
REMARK 922        TOTAL FREE ENERGY PREDICTED BY IDOCK:   -7.97 KCAL/MOL
REMARK 923 INTER-LIGAND FREE ENERGY PREDICTED BY IDOCK:   -6.57 KCAL/MOL
REMARK 924 INTRA-LIGAND FREE ENERGY PREDICTED BY IDOCK:   -1.39 KCAL/MOL
REMARK 927      BINDING AFFINITY PREDICTED BY RF-SCORE:    0.00 PKD
ROOT
HETATM    1  C   UNL     1      -7.109   7.112  64.109  1.00  0.00    -0.063 C  
HETATM    2  C   UNL     1      -7.958   6.100  64.872  1.00  0.00    -0.123 C  
ENDROOT
BRANCH   2   3
HETATM    3  N   UNL     1      -8.949   6.719  65.781  1.00  0.00    -0.077 NA 
BRANCH   3   4
HETATM    4  C   UNL     1      -9.639   5.736  66.637  1.00  0.00    -0.152 C  
HETATM    5  C   UNL     1     -10.540   4.722  65.933  1.00  0.00    -0.290 C  
ENDBRANCH   3   4
BRANCH   3   6
HETATM    6  C   UNL     1      -8.352   7.813  66.588  1.00  0.00    -0.126 C  
BRANCH   6   7
HETATM    7  C   UNL     1      -9.326   8.946  66.841  1.00  0.00    -0.213 A  
HETATM    8  C   UNL     1      -9.852   9.730  65.808  1.00  0.00    -0.290 A  
HETATM    9  C   UNL     1     -10.527  10.907  66.086  1.00  0.00    -0.290 A  
HETATM   10  O   UNL     1      -9.630   9.432  64.493  1.00  0.00    -0.418 OA 
HETATM   11  C   UNL     1     -10.678  11.319  67.415  1.00  0.00    -0.285 A  
HETATM   12  H   UNL     1      -9.987   9.964  63.792  1.00  0.00     0.000 HD 
HETATM   13  C   UNL     1     -10.234  10.521  68.479  1.00  0.00    -0.174 A  
HETATM   14  C   UNL     1      -9.606   9.308  68.170  1.00  0.00    -0.159 A  
BRANCH  13  15
HETATM   15  N   UNL     1     -10.418  10.839  69.849  1.00  0.00    -0.451 NA 
HETATM   16  H   UNL     1      -9.898  11.643  70.200  1.00  0.00     0.000 HD 
BRANCH  15  17
HETATM   17  C   UNL     1     -11.247  10.161  70.791  1.00  0.00    -0.336 A  
HETATM   18  C   UNL     1     -10.763   9.126  71.624  1.00  0.00    -0.441 A  
HETATM   19  C   UNL     1      -9.386   8.874  71.822  1.00  0.00    -0.304 A  
HETATM   20  C   UNL     1      -8.958   7.750  72.519  1.00  0.00    -0.213 A  
HETATM   21  C   UNL     1      -9.906   6.883  73.039  1.00  0.00    -0.179 A  
HETATM   22 CL   UNL     1      -9.398   5.426  73.798  1.00  0.00    -0.136 Cl 
HETATM   23  C   UNL     1     -11.265   7.177  72.936  1.00  0.00    -0.302 A  
HETATM   24  C   UNL     1     -11.711   8.309  72.271  1.00  0.00    -0.388 A  
HETATM   25  N   UNL     1     -13.029   8.566  72.233  1.00  0.00    -0.352 NA 
HETATM   26  C   UNL     1     -13.451   9.640  71.533  1.00  0.00    -0.352 A  
HETATM   27  C   UNL     1     -12.617  10.438  70.780  1.00  0.00    -0.462 A  
ENDBRANCH  15  17
ENDBRANCH  13  15
ENDBRANCH   6   7
ENDBRANCH   3   6
ENDBRANCH   2   3
TORSDOF 6
ENDMDL
MODEL      121
REMARK 921   NORMALIZED FREE ENERGY PREDICTED BY IDOCK:   -5.13 KCAL/MOL
REMARK 922        TOTAL FREE ENERGY PREDICTED BY IDOCK:   -7.94 KCAL/MOL
REMARK 923 INTER-LIGAND FREE ENERGY PREDICTED BY IDOCK:   -6.74 KCAL/MOL
REMARK 924 INTRA-LIGAND FREE ENERGY PREDICTED BY IDOCK:   -1.20 KCAL/MOL
REMARK 927      BINDING AFFINITY PREDICTED BY RF-SCORE:    0.00 PKD
ROOT
HETATM    1  C   UNL     1      -5.877   9.868  70.217  1.00  0.00    -0.059 C  
HETATM    2  C   UNL     1      -6.631   9.376  68.986  1.00  0.00    -0.046 C  
ENDROOT
BRANCH   2   3
HETATM    3  N   UNL     1      -7.883   8.652  69.304  1.00  0.00    -0.099 NA 
BRANCH   3   4
HETATM    4  C   UNL     1      -8.282   7.699  68.253  1.00  0.00    -0.125 C  
HETATM    5  C   UNL     1      -8.999   8.278  67.034  1.00  0.00    -0.159 C  
ENDBRANCH   3   4
BRANCH   3   6
HETATM    6  C   UNL     1      -7.819   7.994  70.634  1.00  0.00    -0.091 C  
BRANCH   6   7
HETATM    7  C   UNL     1      -9.067   8.233  71.460  1.00  0.00    -0.229 A  
HETATM    8  C   UNL     1      -9.270   7.629  72.707  1.00  0.00    -0.173 A  
HETATM    9  C   UNL     1     -10.515   7.658  73.313  1.00  0.00    -0.414 A  
HETATM   10  O   UNL     1      -8.292   6.897  73.320  1.00  0.00    -0.115 OA 
HETATM   11  C   UNL     1     -11.582   8.294  72.669  1.00  0.00    -0.419 A  
HETATM   12  H   UNL     1      -8.431   6.486  74.166  1.00  0.00     0.000 HD 
HETATM   13  C   UNL     1     -11.398   8.977  71.458  1.00  0.00    -0.346 A  
HETATM   14  C   UNL     1     -10.115   8.980  70.896  1.00  0.00    -0.329 A  
BRANCH  13  15
HETATM   15  N   UNL     1     -12.414   9.704  70.786  1.00  0.00    -0.472 NA 
HETATM   16  H   UNL     1     -13.024   9.165  70.172  1.00  0.00     0.000 HD 
BRANCH  15  17
HETATM   17  C   UNL     1     -12.678  11.103  70.873  1.00  0.00    -0.344 A  
HETATM   18  C   UNL     1     -12.168  12.034  69.938  1.00  0.00    -0.249 A  
HETATM   19  C   UNL     1     -11.619  11.654  68.692  1.00  0.00    -0.373 A  
HETATM   20  C   UNL     1     -10.985  12.583  67.877  1.00  0.00    -0.262 A  
HETATM   21  C   UNL     1     -10.915  13.904  68.294  1.00  0.00    -0.255 A  
HETATM   22 CL   UNL     1     -10.030  15.044  67.359  1.00  0.00    -0.226 Cl 
HETATM   23  C   UNL     1     -11.542  14.306  69.473  1.00  0.00    -0.353 A  
HETATM   24  C   UNL     1     -12.205  13.398  70.284  1.00  0.00    -0.335 A  
HETATM   25  N   UNL     1     -12.825  13.844  71.390  1.00  0.00    -0.346 NA 
HETATM   26  C   UNL     1     -13.416  12.940  72.199  1.00  0.00    -0.522 A  
HETATM   27  C   UNL     1     -13.346  11.577  72.006  1.00  0.00    -0.397 A  
ENDBRANCH  15  17
ENDBRANCH  13  15
ENDBRANCH   6   7
ENDBRANCH   3   6
ENDBRANCH   2   3
TORSDOF 6
ENDMDL
MODEL      122
REMARK 921   NORMALIZED FREE ENERGY PREDICTED BY IDOCK:   -5.13 KCAL/MOL
REMARK 922        TOTAL FREE ENERGY PREDICTED BY IDOCK:   -7.94 KCAL/MOL
REMARK 923 INTER-LIGAND FREE ENERGY PREDICTED BY IDOCK:   -6.74 KCAL/MOL
REMARK 924 INTRA-LIGAND FREE ENERGY PREDICTED BY IDOCK:   -1.20 KCAL/MOL
REMARK 927      BINDING AFFINITY PREDICTED BY RF-SCORE:    0.00 PKD
ROOT
HETATM    1  C   UNL     1      -8.836   8.156  72.244  1.00  0.00    -0.248 C  
HETATM    2  C   UNL     1      -9.272   8.846  70.956  1.00  0.00    -0.245 C  
ENDROOT
BRANCH   2   3
HETATM    3  N   UNL     1      -9.306   7.947  69.780  1.00  0.00    -0.153 NA 
BRANCH   3   4
HETATM    4  C   UNL     1      -9.039   6.539  70.122  1.00  0.00    -0.155 C  
HETATM    5  C   UNL     1     -10.147   5.532  69.813  1.00  0.00    -0.302 C  
ENDBRANCH   3   4
BRANCH   3   6
HETATM    6  C   UNL     1     -10.572   8.086  69.016  1.00  0.00    -0.154 C  
BRANCH   6   7
HETATM    7  C   UNL     1     -10.418   8.972  67.795  1.00  0.00    -0.305 A  
HETATM    8  C   UNL     1      -9.555   8.654  66.739  1.00  0.00    -0.207 A  
HETATM    9  C   UNL     1      -9.243   9.595  65.772  1.00  0.00    -0.264 A  
HETATM   10  O   UNL     1      -8.904   7.454  66.678  1.00  0.00    -0.130 OA 
HETATM   11  C   UNL     1      -9.791  10.879  65.856  1.00  0.00    -0.285 A  
HETATM   12  H   UNL     1      -8.319   7.238  65.962  1.00  0.00     0.000 HD 
HETATM   13  C   UNL     1     -10.719  11.211  66.855  1.00  0.00    -0.274 A  
HETATM   14  C   UNL     1     -11.060  10.222  67.785  1.00  0.00    -0.335 A  
BRANCH  13  15
HETATM   15  N   UNL     1     -11.369  12.467  66.958  1.00  0.00    -0.306 NA 
HETATM   16  H   UNL     1     -12.078  12.550  67.686  1.00  0.00     0.000 HD 
BRANCH  15  17
HETATM   17  C   UNL     1     -11.143  13.627  66.158  1.00  0.00    -0.295 A  
HETATM   18  C   UNL     1     -10.354  14.714  66.602  1.00  0.00    -0.273 A  
HETATM   19  C   UNL     1      -9.487  14.636  67.716  1.00  0.00    -0.205 A  
HETATM   20  C   UNL     1      -8.856  15.770  68.211  1.00  0.00    -0.180 A  
HETATM   21  C   UNL     1      -9.073  16.987  67.582  1.00  0.00    -0.229 A  
HETATM   22 CL   UNL     1      -8.399  18.420  68.252  1.00  0.00    -0.310 Cl 
HETATM   23  C   UNL     1      -9.845  17.055  66.424  1.00  0.00    -0.312 A  
HETATM   24  C   UNL     1     -10.458  15.929  65.897  1.00  0.00    -0.359 A  
HETATM   25  N   UNL     1     -11.160  16.043  64.756  1.00  0.00    -0.541 NA 
HETATM   26  C   UNL     1     -11.799  14.949  64.289  1.00  0.00    -0.297 A  
HETATM   27  C   UNL     1     -11.847  13.745  64.958  1.00  0.00    -0.381 A  
ENDBRANCH  15  17
ENDBRANCH  13  15
ENDBRANCH   6   7
ENDBRANCH   3   6
ENDBRANCH   2   3
TORSDOF 6
ENDMDL
MODEL      123
REMARK 921   NORMALIZED FREE ENERGY PREDICTED BY IDOCK:   -5.10 KCAL/MOL
REMARK 922        TOTAL FREE ENERGY PREDICTED BY IDOCK:   -7.91 KCAL/MOL
REMARK 923 INTER-LIGAND FREE ENERGY PREDICTED BY IDOCK:   -7.26 KCAL/MOL
REMARK 924 INTRA-LIGAND FREE ENERGY PREDICTED BY IDOCK:   -0.65 KCAL/MOL
REMARK 927      BINDING AFFINITY PREDICTED BY RF-SCORE:    0.00 PKD
ROOT
HETATM    1  C   UNL     1     -10.746  19.334  67.426  1.00  0.00    -0.594 C  
HETATM    2  C   UNL     1     -10.511  17.889  67.858  1.00  0.00    -0.396 C  
ENDROOT
BRANCH   2   3
HETATM    3  N   UNL     1      -9.354  17.249  67.192  1.00  0.00    -0.238 NA 
BRANCH   3   4
HETATM    4  C   UNL     1      -8.231  18.177  66.970  1.00  0.00    -0.235 C  
HETATM    5  C   UNL     1      -7.135  17.713  66.009  1.00  0.00    -0.318 C  
ENDBRANCH   3   4
BRANCH   3   6
HETATM    6  C   UNL     1      -8.912  16.026  67.909  1.00  0.00    -0.186 C  
BRANCH   6   7
HETATM    7  C   UNL     1      -9.899  14.884  67.773  1.00  0.00    -0.217 A  
HETATM    8  C   UNL     1     -10.459  14.518  66.543  1.00  0.00    -0.285 A  
HETATM    9  C   UNL     1     -11.541  13.654  66.487  1.00  0.00    -0.392 A  
HETATM   10  O   UNL     1     -10.042  15.075  65.367  1.00  0.00    -0.345 OA 
HETATM   11  C   UNL     1     -12.082  13.148  67.674  1.00  0.00    -0.281 A  
HETATM   12  H   UNL     1     -10.422  14.826  64.533  1.00  0.00     0.000 HD 
HETATM   13  C   UNL     1     -11.500  13.431  68.918  1.00  0.00    -0.304 A  
HETATM   14  C   UNL     1     -10.373  14.261  68.940  1.00  0.00    -0.218 A  
BRANCH  13  15
HETATM   15  N   UNL     1     -11.949  12.895  70.152  1.00  0.00    -0.460 NA 
HETATM   16  H   UNL     1     -12.312  13.566  70.830  1.00  0.00     0.000 HD 
BRANCH  15  17
HETATM   17  C   UNL     1     -11.952  11.526  70.552  1.00  0.00    -0.344 A  
HETATM   18  C   UNL     1     -11.057  10.574  70.010  1.00  0.00    -0.376 A  
HETATM   19  C   UNL     1      -9.906  10.928  69.270  1.00  0.00    -0.113 A  
HETATM   20  C   UNL     1      -9.147   9.962  68.622  1.00  0.00    -0.132 A  
HETATM   21  C   UNL     1      -9.524   8.632  68.727  1.00  0.00    -0.143 A  
HETATM   22 CL   UNL     1      -8.670   7.435  67.835  1.00  0.00    -0.124 Cl 
HETATM   23  C   UNL     1     -10.597   8.264  69.537  1.00  0.00    -0.216 A  
HETATM   24  C   UNL     1     -11.348   9.211  70.216  1.00  0.00    -0.188 A  
HETATM   25  N   UNL     1     -12.348   8.800  71.014  1.00  0.00    -0.213 NA 
HETATM   26  C   UNL     1     -13.106   9.737  71.621  1.00  0.00    -0.419 A  
HETATM   27  C   UNL     1     -12.971  11.091  71.402  1.00  0.00    -0.517 A  
ENDBRANCH  15  17
ENDBRANCH  13  15
ENDBRANCH   6   7
ENDBRANCH   3   6
ENDBRANCH   2   3
TORSDOF 6
ENDMDL
MODEL      124
REMARK 921   NORMALIZED FREE ENERGY PREDICTED BY IDOCK:   -5.10 KCAL/MOL
REMARK 922        TOTAL FREE ENERGY PREDICTED BY IDOCK:   -7.90 KCAL/MOL
REMARK 923 INTER-LIGAND FREE ENERGY PREDICTED BY IDOCK:   -6.87 KCAL/MOL
REMARK 924 INTRA-LIGAND FREE ENERGY PREDICTED BY IDOCK:   -1.03 KCAL/MOL
REMARK 927      BINDING AFFINITY PREDICTED BY RF-SCORE:    0.00 PKD
ROOT
HETATM    1  C   UNL     1      -6.090   9.735  70.536  1.00  0.00    -0.078 C  
HETATM    2  C   UNL     1      -6.210   8.847  69.302  1.00  0.00    -0.042 C  
ENDROOT
BRANCH   2   3
HETATM    3  N   UNL     1      -7.584   8.769  68.755  1.00  0.00    -0.094 NA 
BRANCH   3   4
HETATM    4  C   UNL     1      -7.923   7.432  68.235  1.00  0.00    -0.124 C  
HETATM    5  C   UNL     1      -8.416   6.403  69.251  1.00  0.00    -0.126 C  
ENDBRANCH   3   4
BRANCH   3   6
HETATM    6  C   UNL     1      -8.596   9.241  69.734  1.00  0.00    -0.159 C  
BRANCH   6   7
HETATM    7  C   UNL     1      -9.582  10.217  69.124  1.00  0.00    -0.229 A  
HETATM    8  C   UNL     1     -10.849  10.447  69.673  1.00  0.00    -0.277 A  
HETATM    9  C   UNL     1     -11.814  11.138  68.960  1.00  0.00    -0.418 A  
HETATM   10  O   UNL     1     -11.222   9.911  70.874  1.00  0.00    -0.315 OA 
HETATM   11  C   UNL     1     -11.520  11.606  67.675  1.00  0.00    -0.373 A  
HETATM   12  H   UNL     1     -12.082  10.067  71.246  1.00  0.00     0.000 HD 
HETATM   13  C   UNL     1     -10.239  11.463  67.123  1.00  0.00    -0.202 A  
HETATM   14  C   UNL     1      -9.265  10.811  67.890  1.00  0.00    -0.151 A  
BRANCH  13  15
HETATM   15  N   UNL     1      -9.849  11.975  65.860  1.00  0.00    -0.236 NA 
HETATM   16  H   UNL     1      -8.945  11.663  65.505  1.00  0.00     0.000 HD 
BRANCH  15  17
HETATM   17  C   UNL     1     -10.578  12.878  65.029  1.00  0.00    -0.315 A  
HETATM   18  C   UNL     1     -10.475  14.283  65.158  1.00  0.00    -0.432 A  
HETATM   19  C   UNL     1      -9.445  14.918  65.890  1.00  0.00    -0.290 A  
HETATM   20  C   UNL     1      -9.475  16.287  66.125  1.00  0.00    -0.373 A  
HETATM   21  C   UNL     1     -10.525  17.032  65.611  1.00  0.00    -0.216 A  
HETATM   22 CL   UNL     1     -10.644  18.705  65.991  1.00  0.00    -0.473 Cl 
HETATM   23  C   UNL     1     -11.489  16.431  64.804  1.00  0.00    -0.061 A  
HETATM   24  C   UNL     1     -11.460  15.072  64.533  1.00  0.00    -0.318 A  
HETATM   25  N   UNL     1     -12.392  14.549  63.718  1.00  0.00    -0.719 NA 
HETATM   26  C   UNL     1     -12.384  13.215  63.512  1.00  0.00    -0.398 A  
HETATM   27  C   UNL     1     -11.532  12.345  64.158  1.00  0.00    -0.448 A  
ENDBRANCH  15  17
ENDBRANCH  13  15
ENDBRANCH   6   7
ENDBRANCH   3   6
ENDBRANCH   2   3
TORSDOF 6
ENDMDL
MODEL      125
REMARK 921   NORMALIZED FREE ENERGY PREDICTED BY IDOCK:   -5.08 KCAL/MOL
REMARK 922        TOTAL FREE ENERGY PREDICTED BY IDOCK:   -7.88 KCAL/MOL
REMARK 923 INTER-LIGAND FREE ENERGY PREDICTED BY IDOCK:   -6.70 KCAL/MOL
REMARK 924 INTRA-LIGAND FREE ENERGY PREDICTED BY IDOCK:   -1.17 KCAL/MOL
REMARK 927      BINDING AFFINITY PREDICTED BY RF-SCORE:    0.00 PKD
ROOT
HETATM    1  C   UNL     1     -10.964   6.049  71.596  1.00  0.00    -0.328 C  
HETATM    2  C   UNL     1     -11.879   7.142  71.053  1.00  0.00    -0.333 C  
ENDROOT
BRANCH   2   3
HETATM    3  N   UNL     1     -11.157   8.349  70.592  1.00  0.00    -0.255 NA 
BRANCH   3   4
HETATM    4  C   UNL     1     -11.680   9.595  71.182  1.00  0.00    -0.372 C  
HETATM    5  C   UNL     1     -12.155  10.672  70.207  1.00  0.00    -0.423 C  
ENDBRANCH   3   4
BRANCH   3   6
HETATM    6  C   UNL     1      -9.691   8.228  70.797  1.00  0.00    -0.172 C  
BRANCH   6   7
HETATM    7  C   UNL     1      -8.944   7.964  69.505  1.00  0.00    -0.142 A  
HETATM    8  C   UNL     1      -7.577   7.663  69.474  1.00  0.00    -0.098 A  
HETATM    9  C   UNL     1      -6.875   7.683  68.281  1.00  0.00    -0.067 A  
HETATM   10  O   UNL     1      -6.861   7.449  70.619  1.00  0.00    -0.047 OA 
HETATM   11  C   UNL     1      -7.538   8.014  67.094  1.00  0.00    -0.097 A  
HETATM   12  H   UNL     1      -5.934   7.245  70.598  1.00  0.00     0.000 HD 
HETATM   13  C   UNL     1      -8.921   8.245  67.074  1.00  0.00    -0.140 A  
HETATM   14  C   UNL     1      -9.617   8.162  68.286  1.00  0.00    -0.154 A  
BRANCH  13  15
HETATM   15  N   UNL     1      -9.671   8.512  65.900  1.00  0.00    -0.466 NA 
HETATM   16  H   UNL     1     -10.402   7.840  65.668  1.00  0.00     0.000 HD 
BRANCH  15  17
HETATM   17  C   UNL     1      -9.518   9.614  65.008  1.00  0.00    -0.245 A  
HETATM   18  C   UNL     1     -10.215  10.833  65.178  1.00  0.00    -0.365 A  
HETATM   19  C   UNL     1     -10.877  11.184  66.378  1.00  0.00    -0.284 A  
HETATM   20  C   UNL     1     -11.681  12.314  66.446  1.00  0.00    -0.431 A  
HETATM   21  C   UNL     1     -11.813  13.112  65.321  1.00  0.00    -0.365 A  
HETATM   22 CL   UNL     1     -12.899  14.446  65.348  1.00  0.00    -0.346 Cl 
HETATM   23  C   UNL     1     -11.086  12.830  64.166  1.00  0.00    -0.432 A  
HETATM   24  C   UNL     1     -10.254  11.724  64.088  1.00  0.00    -0.322 A  
HETATM   25  N   UNL     1      -9.545  11.519  62.965  1.00  0.00    -0.387 NA 
HETATM   26  C   UNL     1      -8.786  10.406  62.883  1.00  0.00    -0.209 A  
HETATM   27  C   UNL     1      -8.762   9.423  63.849  1.00  0.00    -0.225 A  
ENDBRANCH  15  17
ENDBRANCH  13  15
ENDBRANCH   6   7
ENDBRANCH   3   6
ENDBRANCH   2   3
TORSDOF 6
ENDMDL
MODEL      126
REMARK 921   NORMALIZED FREE ENERGY PREDICTED BY IDOCK:   -5.08 KCAL/MOL
REMARK 922        TOTAL FREE ENERGY PREDICTED BY IDOCK:   -7.88 KCAL/MOL
REMARK 923 INTER-LIGAND FREE ENERGY PREDICTED BY IDOCK:   -6.75 KCAL/MOL
REMARK 924 INTRA-LIGAND FREE ENERGY PREDICTED BY IDOCK:   -1.13 KCAL/MOL
REMARK 927      BINDING AFFINITY PREDICTED BY RF-SCORE:    0.00 PKD
ROOT
HETATM    1  C   UNL     1     -13.728  15.587  72.823  1.00  0.00    -0.642 C  
HETATM    2  C   UNL     1     -14.091  15.268  71.376  1.00  0.00    -0.495 C  
ENDROOT
BRANCH   2   3
HETATM    3  N   UNL     1     -12.945  14.799  70.564  1.00  0.00    -0.327 NA 
BRANCH   3   4
HETATM    4  C   UNL     1     -12.130  15.903  70.026  1.00  0.00    -0.244 C  
HETATM    5  C   UNL     1     -11.450  15.664  68.678  1.00  0.00    -0.381 C  
ENDBRANCH   3   4
BRANCH   3   6
HETATM    6  C   UNL     1     -12.109  13.819  71.301  1.00  0.00    -0.104 C  
BRANCH   6   7
HETATM    7  C   UNL     1     -12.289  12.403  70.791  1.00  0.00    -0.377 A  
HETATM    8  C   UNL     1     -12.950  11.415  71.531  1.00  0.00    -0.399 A  
HETATM    9  C   UNL     1     -12.873  10.083  71.160  1.00  0.00    -0.480 A  
HETATM   10  O   UNL     1     -13.600  11.704  72.698  1.00  0.00    -0.450 OA 
HETATM   11  C   UNL     1     -12.120   9.721  70.038  1.00  0.00     0.062 A  
HETATM   12  H   UNL     1     -14.048  11.034  73.200  1.00  0.00     0.000 HD 
HETATM   13  C   UNL     1     -11.509  10.689  69.228  1.00  0.00    -0.281 A  
HETATM   14  C   UNL     1     -11.651  12.033  69.594  1.00  0.00    -0.371 A  
BRANCH  13  15
HETATM   15  N   UNL     1     -10.794  10.402  68.038  1.00  0.00    -0.249 NA 
HETATM   16  H   UNL     1     -11.188  10.774  67.173  1.00  0.00     0.000 HD 
BRANCH  15  17
HETATM   17  C   UNL     1      -9.587   9.651  67.912  1.00  0.00    -0.139 A  
HETATM   18  C   UNL     1      -9.579   8.269  67.612  1.00  0.00    -0.187 A  
HETATM   19  C   UNL     1     -10.710   7.579  67.119  1.00  0.00    -0.379 A  
HETATM   20  C   UNL     1     -10.703   6.195  66.992  1.00  0.00    -0.423 A  
HETATM   21  C   UNL     1      -9.557   5.496  67.337  1.00  0.00    -0.122 A  
HETATM   22 CL   UNL     1      -9.568   3.776  67.302  1.00  0.00    -0.238 Cl 
HETATM   23  C   UNL     1      -8.404   6.177  67.727  1.00  0.00    -0.116 A  
HETATM   24  C   UNL     1      -8.383   7.559  67.831  1.00  0.00    -0.123 A  
HETATM   25  N   UNL     1      -7.235   8.169  68.174  1.00  0.00    -0.092 NA 
HETATM   26  C   UNL     1      -7.246   9.509  68.328  1.00  0.00    -0.076 A  
HETATM   27  C   UNL     1      -8.384  10.281  68.241  1.00  0.00    -0.116 A  
ENDBRANCH  15  17
ENDBRANCH  13  15
ENDBRANCH   6   7
ENDBRANCH   3   6
ENDBRANCH   2   3
TORSDOF 6
ENDMDL
MODEL      127
REMARK 921   NORMALIZED FREE ENERGY PREDICTED BY IDOCK:   -5.07 KCAL/MOL
REMARK 922        TOTAL FREE ENERGY PREDICTED BY IDOCK:   -7.86 KCAL/MOL
REMARK 923 INTER-LIGAND FREE ENERGY PREDICTED BY IDOCK:   -7.66 KCAL/MOL
REMARK 924 INTRA-LIGAND FREE ENERGY PREDICTED BY IDOCK:   -0.20 KCAL/MOL
REMARK 927      BINDING AFFINITY PREDICTED BY RF-SCORE:    0.00 PKD
ROOT
HETATM    1  C   UNL     1      -6.137  19.703  68.454  1.00  0.00    -0.266 C  
HETATM    2  C   UNL     1      -7.545  19.119  68.406  1.00  0.00    -0.312 C  
ENDROOT
BRANCH   2   3
HETATM    3  N   UNL     1      -7.779  18.221  67.252  1.00  0.00    -0.217 NA 
BRANCH   3   4
HETATM    4  C   UNL     1      -6.575  18.017  66.426  1.00  0.00    -0.221 C  
HETATM    5  C   UNL     1      -6.470  18.845  65.145  1.00  0.00    -0.268 C  
ENDBRANCH   3   4
BRANCH   3   6
HETATM    6  C   UNL     1      -8.372  16.925  67.671  1.00  0.00    -0.184 C  
BRANCH   6   7
HETATM    7  C   UNL     1      -9.114  16.235  66.544  1.00  0.00    -0.302 A  
HETATM    8  C   UNL     1     -10.007  16.914  65.706  1.00  0.00    -0.184 A  
HETATM    9  C   UNL     1     -10.856  16.215  64.864  1.00  0.00    -0.353 A  
HETATM   10  O   UNL     1     -10.158  18.271  65.762  1.00  0.00    -0.560 OA 
HETATM   11  C   UNL     1     -10.824  14.817  64.855  1.00  0.00    -0.433 A  
HETATM   12  H   UNL     1     -10.764  18.731  65.194  1.00  0.00     0.000 HD 
HETATM   13  C   UNL     1      -9.890  14.105  65.623  1.00  0.00    -0.249 A  
HETATM   14  C   UNL     1      -9.005  14.839  66.422  1.00  0.00    -0.223 A  
BRANCH  13  15
HETATM   15  N   UNL     1      -9.751  12.694  65.608  1.00  0.00    -0.419 NA 
HETATM   16  H   UNL     1      -9.162  12.306  64.871  1.00  0.00     0.000 HD 
BRANCH  15  17
HETATM   17  C   UNL     1     -10.340  11.757  66.508  1.00  0.00    -0.223 A  
HETATM   18  C   UNL     1     -11.044  12.156  67.668  1.00  0.00    -0.320 A  
HETATM   19  C   UNL     1     -11.487  13.481  67.886  1.00  0.00    -0.353 A  
HETATM   20  C   UNL     1     -12.031  13.862  69.106  1.00  0.00    -0.404 A  
HETATM   21  C   UNL     1     -12.154  12.914  70.110  1.00  0.00    -0.302 A  
HETATM   22 CL   UNL     1     -12.711  13.391  71.665  1.00  0.00    -0.396 Cl 
HETATM   23  C   UNL     1     -11.814  11.583  69.870  1.00  0.00    -0.430 A  
HETATM   24  C   UNL     1     -11.299  11.178  68.649  1.00  0.00    -0.277 A  
HETATM   25  N   UNL     1     -11.023   9.877  68.457  1.00  0.00    -0.210 NA 
HETATM   26  C   UNL     1     -10.467   9.508  67.284  1.00  0.00    -0.262 A  
HETATM   27  C   UNL     1     -10.083  10.399  66.305  1.00  0.00    -0.292 A  
ENDBRANCH  15  17
ENDBRANCH  13  15
ENDBRANCH   6   7
ENDBRANCH   3   6
ENDBRANCH   2   3
TORSDOF 6
ENDMDL
MODEL      128
REMARK 921   NORMALIZED FREE ENERGY PREDICTED BY IDOCK:   -5.06 KCAL/MOL
REMARK 922        TOTAL FREE ENERGY PREDICTED BY IDOCK:   -7.85 KCAL/MOL
REMARK 923 INTER-LIGAND FREE ENERGY PREDICTED BY IDOCK:   -6.86 KCAL/MOL
REMARK 924 INTRA-LIGAND FREE ENERGY PREDICTED BY IDOCK:   -0.98 KCAL/MOL
REMARK 927      BINDING AFFINITY PREDICTED BY RF-SCORE:    0.00 PKD
ROOT
HETATM    1  C   UNL     1     -13.142  13.897  65.498  1.00  0.00    -0.232 C  
HETATM    2  C   UNL     1     -12.777  12.678  64.657  1.00  0.00    -0.377 C  
ENDROOT
BRANCH   2   3
HETATM    3  N   UNL     1     -11.336  12.341  64.692  1.00  0.00    -0.313 NA 
BRANCH   3   4
HETATM    4  C   UNL     1     -10.943  11.378  63.646  1.00  0.00    -0.363 C  
HETATM    5  C   UNL     1      -9.765  10.458  63.965  1.00  0.00    -0.373 C  
ENDBRANCH   3   4
BRANCH   3   6
HETATM    6  C   UNL     1     -10.483  13.555  64.656  1.00  0.00    -0.421 C  
BRANCH   6   7
HETATM    7  C   UNL     1      -9.894  13.891  66.012  1.00  0.00    -0.306 A  
HETATM    8  C   UNL     1      -9.414  15.168  66.328  1.00  0.00    -0.309 A  
HETATM    9  C   UNL     1      -8.654  15.376  67.467  1.00  0.00    -0.187 A  
HETATM   10  O   UNL     1      -9.578  16.229  65.482  1.00  0.00    -0.474 OA 
HETATM   11  C   UNL     1      -8.358  14.297  68.306  1.00  0.00    -0.165 A  
HETATM   12  H   UNL     1      -9.253  17.095  65.696  1.00  0.00     0.000 HD 
HETATM   13  C   UNL     1      -8.885  13.020  68.064  1.00  0.00    -0.191 A  
HETATM   14  C   UNL     1      -9.698  12.850  66.936  1.00  0.00    -0.240 A  
BRANCH  13  15
HETATM   15  N   UNL     1      -8.688  11.899  68.909  1.00  0.00    -0.369 NA 
HETATM   16  H   UNL     1      -8.289  12.090  69.829  1.00  0.00     0.000 HD 
BRANCH  15  17
HETATM   17  C   UNL     1      -8.984  10.534  68.620  1.00  0.00    -0.162 A  
HETATM   18  C   UNL     1      -9.962   9.800  69.331  1.00  0.00    -0.217 A  
HETATM   19  C   UNL     1     -10.928  10.408  70.165  1.00  0.00    -0.365 A  
HETATM   20  C   UNL     1     -11.764   9.642  70.968  1.00  0.00    -0.433 A  
HETATM   21  C   UNL     1     -11.652   8.261  70.925  1.00  0.00    -0.262 A  
HETATM   22 CL   UNL     1     -12.592   7.300  71.998  1.00  0.00    -0.291 Cl 
HETATM   23  C   UNL     1     -10.773   7.650  70.032  1.00  0.00    -0.245 A  
HETATM   24  C   UNL     1      -9.953   8.398  69.202  1.00  0.00    -0.196 A  
HETATM   25  N   UNL     1      -9.151   7.760  68.332  1.00  0.00    -0.132 NA 
HETATM   26  C   UNL     1      -8.316   8.501  67.572  1.00  0.00    -0.128 A  
HETATM   27  C   UNL     1      -8.174   9.866  67.698  1.00  0.00    -0.114 A  
ENDBRANCH  15  17
ENDBRANCH  13  15
ENDBRANCH   6   7
ENDBRANCH   3   6
ENDBRANCH   2   3
TORSDOF 6
ENDMDL
MODEL      129
REMARK 921   NORMALIZED FREE ENERGY PREDICTED BY IDOCK:   -5.02 KCAL/MOL
REMARK 922        TOTAL FREE ENERGY PREDICTED BY IDOCK:   -7.80 KCAL/MOL
REMARK 923 INTER-LIGAND FREE ENERGY PREDICTED BY IDOCK:   -6.62 KCAL/MOL
REMARK 924 INTRA-LIGAND FREE ENERGY PREDICTED BY IDOCK:   -1.17 KCAL/MOL
REMARK 927      BINDING AFFINITY PREDICTED BY RF-SCORE:    0.00 PKD
ROOT
HETATM    1  C   UNL     1      -8.692   9.814  65.586  1.00  0.00    -0.168 C  
HETATM    2  C   UNL     1      -9.165   8.388  65.852  1.00  0.00    -0.155 C  
ENDROOT
BRANCH   2   3
HETATM    3  N   UNL     1      -9.981   8.251  67.080  1.00  0.00    -0.227 NA 
BRANCH   3   4
HETATM    4  C   UNL     1     -10.585   6.914  67.225  1.00  0.00    -0.322 C  
HETATM    5  C   UNL     1      -9.863   5.754  66.540  1.00  0.00    -0.193 C  
ENDBRANCH   3   4
BRANCH   3   6
HETATM    6  C   UNL     1      -9.219   8.635  68.296  1.00  0.00    -0.137 C  
BRANCH   6   7
HETATM    7  C   UNL     1     -10.041   9.472  69.255  1.00  0.00    -0.203 A  
HETATM    8  C   UNL     1     -10.409   9.015  70.526  1.00  0.00    -0.218 A  
HETATM    9  C   UNL     1     -11.366   9.687  71.269  1.00  0.00    -0.458 A  
HETATM   10  O   UNL     1      -9.930   7.841  71.036  1.00  0.00    -0.178 OA 
HETATM   11  C   UNL     1     -11.975  10.830  70.741  1.00  0.00    -0.464 A  
HETATM   12  H   UNL     1     -10.181   7.531  71.898  1.00  0.00     0.000 HD 
HETATM   13  C   UNL     1     -11.576  11.361  69.505  1.00  0.00    -0.331 A  
HETATM   14  C   UNL     1     -10.566  10.695  68.801  1.00  0.00    -0.234 A  
BRANCH  13  15
HETATM   15  N   UNL     1     -12.096  12.555  68.942  1.00  0.00    -0.210 NA 
HETATM   16  H   UNL     1     -12.815  12.442  68.228  1.00  0.00     0.000 HD 
BRANCH  15  17
HETATM   17  C   UNL     1     -11.726  13.895  69.262  1.00  0.00    -0.334 A  
HETATM   18  C   UNL     1     -10.774  14.622  68.511  1.00  0.00    -0.248 A  
HETATM   19  C   UNL     1     -10.331  14.220  67.230  1.00  0.00    -0.260 A  
HETATM   20  C   UNL     1      -9.279  14.873  66.599  1.00  0.00    -0.302 A  
HETATM   21  C   UNL     1      -8.677  15.946  67.239  1.00  0.00    -0.187 A  
HETATM   22 CL   UNL     1      -7.297  16.690  66.531  1.00  0.00    -0.293 Cl 
HETATM   23  C   UNL     1      -9.173  16.412  68.455  1.00  0.00    -0.226 A  
HETATM   24  C   UNL     1     -10.241  15.792  69.085  1.00  0.00    -0.231 A  
HETATM   25  N   UNL     1     -10.704  16.304  70.238  1.00  0.00    -0.252 NA 
HETATM   26  C   UNL     1     -11.706  15.655  70.868  1.00  0.00    -0.387 A  
HETATM   27  C   UNL     1     -12.222  14.449  70.445  1.00  0.00    -0.404 A  
ENDBRANCH  15  17
ENDBRANCH  13  15
ENDBRANCH   6   7
ENDBRANCH   3   6
ENDBRANCH   2   3
TORSDOF 6
ENDMDL
MODEL      130
REMARK 921   NORMALIZED FREE ENERGY PREDICTED BY IDOCK:   -4.99 KCAL/MOL
REMARK 922        TOTAL FREE ENERGY PREDICTED BY IDOCK:   -7.75 KCAL/MOL
REMARK 923 INTER-LIGAND FREE ENERGY PREDICTED BY IDOCK:   -6.86 KCAL/MOL
REMARK 924 INTRA-LIGAND FREE ENERGY PREDICTED BY IDOCK:   -0.89 KCAL/MOL
REMARK 927      BINDING AFFINITY PREDICTED BY RF-SCORE:    0.00 PKD
ROOT
HETATM    1  C   UNL     1     -10.485  16.418  66.804  1.00  0.00    -0.273 C  
HETATM    2  C   UNL     1      -9.643  15.513  67.698  1.00  0.00    -0.210 C  
ENDROOT
BRANCH   2   3
HETATM    3  N   UNL     1      -8.440  14.967  67.029  1.00  0.00    -0.225 NA 
BRANCH   3   4
HETATM    4  C   UNL     1      -7.271  15.859  67.125  1.00  0.00    -0.219 C  
HETATM    5  C   UNL     1      -6.129  15.403  68.033  1.00  0.00    -0.154 C  
ENDBRANCH   3   4
BRANCH   3   6
HETATM    6  C   UNL     1      -8.116  13.598  67.507  1.00  0.00    -0.184 C  
BRANCH   6   7
HETATM    7  C   UNL     1      -9.346  12.720  67.628  1.00  0.00    -0.191 A  
HETATM    8  C   UNL     1     -10.134  12.374  66.523  1.00  0.00    -0.232 A  
HETATM    9  C   UNL     1     -11.380  11.794  66.697  1.00  0.00    -0.381 A  
HETATM   10  O   UNL     1      -9.763  12.689  65.246  1.00  0.00    -0.442 OA 
HETATM   11  C   UNL     1     -11.858  11.559  67.991  1.00  0.00    -0.287 A  
HETATM   12  H   UNL     1     -10.297  12.454  64.497  1.00  0.00     0.000 HD 
HETATM   13  C   UNL     1     -11.066  11.821  69.118  1.00  0.00    -0.238 A  
HETATM   14  C   UNL     1      -9.787  12.353  68.911  1.00  0.00     0.105 A  
BRANCH  13  15
HETATM   15  N   UNL     1     -11.455  11.540  70.453  1.00  0.00    -0.482 NA 
HETATM   16  H   UNL     1     -11.385  12.313  71.116  1.00  0.00     0.000 HD 
BRANCH  15  17
HETATM   17  C   UNL     1     -11.932  10.301  70.973  1.00  0.00    -0.385 A  
HETATM   18  C   UNL     1     -11.273   9.072  70.736  1.00  0.00    -0.329 A  
HETATM   19  C   UNL     1      -9.953   8.987  70.235  1.00  0.00    -0.229 A  
HETATM   20  C   UNL     1      -9.406   7.765  69.866  1.00  0.00    -0.157 A  
HETATM   21  C   UNL     1     -10.169   6.616  70.015  1.00  0.00    -0.187 A  
HETATM   22 CL   UNL     1      -9.555   5.111  69.452  1.00  0.00    -0.204 Cl 
HETATM   23  C   UNL     1     -11.432   6.679  70.601  1.00  0.00    -0.420 A  
HETATM   24  C   UNL     1     -11.983   7.885  71.003  1.00  0.00    -0.252 A  
HETATM   25  N   UNL     1     -13.188   7.885  71.598  1.00  0.00    -0.337 NA 
HETATM   26  C   UNL     1     -13.736   9.074  71.930  1.00  0.00    -0.441 A  
HETATM   27  C   UNL     1     -13.172  10.291  71.616  1.00  0.00    -0.509 A  
ENDBRANCH  15  17
ENDBRANCH  13  15
ENDBRANCH   6   7
ENDBRANCH   3   6
ENDBRANCH   2   3
TORSDOF 6
ENDMDL
MODEL      131
REMARK 921   NORMALIZED FREE ENERGY PREDICTED BY IDOCK:   -4.98 KCAL/MOL
REMARK 922        TOTAL FREE ENERGY PREDICTED BY IDOCK:   -7.73 KCAL/MOL
REMARK 923 INTER-LIGAND FREE ENERGY PREDICTED BY IDOCK:   -6.91 KCAL/MOL
REMARK 924 INTRA-LIGAND FREE ENERGY PREDICTED BY IDOCK:   -0.82 KCAL/MOL
REMARK 927      BINDING AFFINITY PREDICTED BY RF-SCORE:    0.00 PKD
ROOT
HETATM    1  C   UNL     1     -12.130  15.418  74.162  1.00  0.00    -0.655 C  
HETATM    2  C   UNL     1     -11.902  16.176  72.858  1.00  0.00    -0.445 C  
ENDROOT
BRANCH   2   3
HETATM    3  N   UNL     1     -12.062  15.340  71.647  1.00  0.00    -0.328 NA 
BRANCH   3   4
HETATM    4  C   UNL     1     -13.422  15.399  71.081  1.00  0.00    -0.493 C  
HETATM    5  C   UNL     1     -14.267  14.129  71.185  1.00  0.00     0.072 C  
ENDBRANCH   3   4
BRANCH   3   6
HETATM    6  C   UNL     1     -11.036  15.652  70.621  1.00  0.00    -0.340 C  
BRANCH   6   7
HETATM    7  C   UNL     1     -11.127  14.741  69.413  1.00  0.00    -0.302 A  
HETATM    8  C   UNL     1     -11.246  15.233  68.108  1.00  0.00    -0.324 A  
HETATM    9  C   UNL     1     -11.586  14.390  67.062  1.00  0.00    -0.402 A  
HETATM   10  O   UNL     1     -11.143  16.566  67.828  1.00  0.00    -0.289 OA 
HETATM   11  C   UNL     1     -11.818  13.034  67.316  1.00  0.00    -0.419 A  
HETATM   12  H   UNL     1     -11.224  16.900  66.943  1.00  0.00     0.000 HD 
HETATM   13  C   UNL     1     -11.633  12.491  68.595  1.00  0.00    -0.314 A  
HETATM   14  C   UNL     1     -11.234  13.355  69.622  1.00  0.00    -0.115 A  
BRANCH  13  15
HETATM   15  N   UNL     1     -11.779  11.116  68.910  1.00  0.00    -0.316 NA 
HETATM   16  H   UNL     1     -12.721  10.731  68.832  1.00  0.00     0.000 HD 
BRANCH  15  17
HETATM   17  C   UNL     1     -10.758  10.209  69.323  1.00  0.00    -0.231 A  
HETATM   18  C   UNL     1     -10.088   9.354  68.416  1.00  0.00    -0.208 A  
HETATM   19  C   UNL     1     -10.142   9.520  67.013  1.00  0.00    -0.297 A  
HETATM   20  C   UNL     1      -9.604   8.566  66.159  1.00  0.00    -0.276 A  
HETATM   21  C   UNL     1      -8.991   7.448  66.704  1.00  0.00    -0.146 A  
HETATM   22 CL   UNL     1      -8.427   6.199  65.665  1.00  0.00    -0.149 Cl 
HETATM   23  C   UNL     1      -8.844   7.326  68.085  1.00  0.00    -0.126 A  
HETATM   24  C   UNL     1      -9.347   8.283  68.952  1.00  0.00    -0.147 A  
HETATM   25  N   UNL     1      -9.145   8.136  70.273  1.00  0.00    -0.149 NA 
HETATM   26  C   UNL     1      -9.692   9.045  71.107  1.00  0.00    -0.299 A  
HETATM   27  C   UNL     1     -10.520  10.066  70.692  1.00  0.00    -0.211 A  
ENDBRANCH  15  17
ENDBRANCH  13  15
ENDBRANCH   6   7
ENDBRANCH   3   6
ENDBRANCH   2   3
TORSDOF 6
ENDMDL
MODEL      132
REMARK 921   NORMALIZED FREE ENERGY PREDICTED BY IDOCK:   -4.98 KCAL/MOL
REMARK 922        TOTAL FREE ENERGY PREDICTED BY IDOCK:   -7.73 KCAL/MOL
REMARK 923 INTER-LIGAND FREE ENERGY PREDICTED BY IDOCK:   -6.59 KCAL/MOL
REMARK 924 INTRA-LIGAND FREE ENERGY PREDICTED BY IDOCK:   -1.14 KCAL/MOL
REMARK 927      BINDING AFFINITY PREDICTED BY RF-SCORE:    0.00 PKD
ROOT
HETATM    1  C   UNL     1      -6.756  11.116  66.605  1.00  0.00    -0.137 C  
HETATM    2  C   UNL     1      -7.213  10.103  65.560  1.00  0.00    -0.142 C  
ENDROOT
BRANCH   2   3
HETATM    3  N   UNL     1      -8.560  10.378  65.013  1.00  0.00    -0.177 NA 
BRANCH   3   4
HETATM    4  C   UNL     1      -8.611  10.306  63.541  1.00  0.00    -0.195 C  
HETATM    5  C   UNL     1      -7.722   9.258  62.872  1.00  0.00    -0.120 C  
ENDBRANCH   3   4
BRANCH   3   6
HETATM    6  C   UNL     1      -9.596   9.512  65.632  1.00  0.00    -0.277 C  
BRANCH   6   7
HETATM    7  C   UNL     1     -10.119  10.077  66.938  1.00  0.00    -0.287 A  
HETATM    8  C   UNL     1     -10.136   9.334  68.125  1.00  0.00    -0.187 A  
HETATM    9  C   UNL     1     -10.850   9.777  69.226  1.00  0.00    -0.240 A  
HETATM   10  O   UNL     1      -9.552   8.102  68.212  1.00  0.00    -0.141 OA 
HETATM   11  C   UNL     1     -11.564  10.977  69.149  1.00  0.00    -0.389 A  
HETATM   12  H   UNL     1      -9.564   7.598  69.017  1.00  0.00     0.000 HD 
HETATM   13  C   UNL     1     -11.507  11.786  68.005  1.00  0.00    -0.319 A  
HETATM   14  C   UNL     1     -10.732  11.342  66.927  1.00  0.00    -0.319 A  
BRANCH  13  15
HETATM   15  N   UNL     1     -12.145  13.047  67.883  1.00  0.00    -0.272 NA 
HETATM   16  H   UNL     1     -12.959  13.084  67.269  1.00  0.00     0.000 HD 
BRANCH  15  17
HETATM   17  C   UNL     1     -11.777  14.268  68.521  1.00  0.00    -0.341 A  
HETATM   18  C   UNL     1     -10.909  15.209  67.920  1.00  0.00    -0.291 A  
HETATM   19  C   UNL     1     -10.572  15.182  66.547  1.00  0.00    -0.304 A  
HETATM   20  C   UNL     1      -9.593  16.025  66.035  1.00  0.00    -0.385 A  
HETATM   21  C   UNL     1      -8.959  16.914  66.889  1.00  0.00    -0.224 A  
HETATM   22 CL   UNL     1      -7.662  17.878  66.301  1.00  0.00    -0.303 Cl 
HETATM   23  C   UNL     1      -9.356  17.017  68.221  1.00  0.00    -0.255 A  
HETATM   24  C   UNL     1     -10.352  16.207  68.744  1.00  0.00    -0.248 A  
HETATM   25  N   UNL     1     -10.723  16.373  70.025  1.00  0.00    -0.299 NA 
HETATM   26  C   UNL     1     -11.652  15.537  70.534  1.00  0.00    -0.346 A  
HETATM   27  C   UNL     1     -12.179  14.466  69.845  1.00  0.00    -0.394 A  
ENDBRANCH  15  17
ENDBRANCH  13  15
ENDBRANCH   6   7
ENDBRANCH   3   6
ENDBRANCH   2   3
TORSDOF 6
ENDMDL
MODEL      133
REMARK 921   NORMALIZED FREE ENERGY PREDICTED BY IDOCK:   -4.96 KCAL/MOL
REMARK 922        TOTAL FREE ENERGY PREDICTED BY IDOCK:   -7.72 KCAL/MOL
REMARK 923 INTER-LIGAND FREE ENERGY PREDICTED BY IDOCK:   -6.67 KCAL/MOL
REMARK 924 INTRA-LIGAND FREE ENERGY PREDICTED BY IDOCK:   -1.04 KCAL/MOL
REMARK 927      BINDING AFFINITY PREDICTED BY RF-SCORE:    0.00 PKD
ROOT
HETATM    1  C   UNL     1      -9.679  18.490  68.240  1.00  0.00    -0.385 C  
HETATM    2  C   UNL     1     -10.780  17.477  67.942  1.00  0.00    -0.339 C  
ENDROOT
BRANCH   2   3
HETATM    3  N   UNL     1     -10.300  16.263  67.244  1.00  0.00    -0.282 NA 
BRANCH   3   4
HETATM    4  C   UNL     1      -8.945  15.857  67.658  1.00  0.00    -0.190 C  
HETATM    5  C   UNL     1      -8.825  15.111  68.987  1.00  0.00    -0.219 C  
ENDBRANCH   3   4
BRANCH   3   6
HETATM    6  C   UNL     1     -11.262  15.138  67.366  1.00  0.00    -0.323 C  
BRANCH   6   7
HETATM    7  C   UNL     1     -10.992  14.033  66.365  1.00  0.00    -0.308 A  
HETATM    8  C   UNL     1     -11.059  14.239  64.981  1.00  0.00    -0.373 A  
HETATM    9  C   UNL     1     -11.065  13.165  64.106  1.00  0.00    -0.426 A  
HETATM   10  O   UNL     1     -11.233  15.484  64.446  1.00  0.00    -0.689 OA 
HETATM   11  C   UNL     1     -11.009  11.862  64.611  1.00  0.00    -0.370 A  
HETATM   12  H   UNL     1     -11.279  15.624  63.508  1.00  0.00     0.000 HD 
HETATM   13  C   UNL     1     -10.862  11.619  65.984  1.00  0.00    -0.289 A  
HETATM   14  C   UNL     1     -10.802  12.724  66.842  1.00  0.00    -0.278 A  
BRANCH  13  15
HETATM   15  N   UNL     1     -10.725  10.330  66.559  1.00  0.00    -0.133 NA 
HETATM   16  H   UNL     1     -11.553   9.950  67.019  1.00  0.00     0.000 HD 
BRANCH  15  17
HETATM   17  C   UNL     1      -9.562   9.505  66.567  1.00  0.00    -0.201 A  
HETATM   18  C   UNL     1      -9.601   8.138  66.931  1.00  0.00    -0.269 A  
HETATM   19  C   UNL     1     -10.802   7.398  67.024  1.00  0.00    -0.307 A  
HETATM   20  C   UNL     1     -10.808   6.108  67.539  1.00  0.00    -0.422 A  
HETATM   21  C   UNL     1      -9.609   5.543  67.946  1.00  0.00    -0.124 A  
HETATM   22 CL   UNL     1      -9.611   3.996  68.697  1.00  0.00    -0.214 Cl 
HETATM   23  C   UNL     1      -8.408   6.227  67.763  1.00  0.00    -0.117 A  
HETATM   24  C   UNL     1      -8.379   7.503  67.223  1.00  0.00    -0.118 A  
HETATM   25  N   UNL     1      -7.191   8.103  67.033  1.00  0.00    -0.082 NA 
HETATM   26  C   UNL     1      -7.183   9.368  66.561  1.00  0.00    -0.089 A  
HETATM   27  C   UNL     1      -8.323  10.112  66.345  1.00  0.00    -0.125 A  
ENDBRANCH  15  17
ENDBRANCH  13  15
ENDBRANCH   6   7
ENDBRANCH   3   6
ENDBRANCH   2   3
TORSDOF 6
ENDMDL
MODEL      134
REMARK 921   NORMALIZED FREE ENERGY PREDICTED BY IDOCK:   -4.96 KCAL/MOL
REMARK 922        TOTAL FREE ENERGY PREDICTED BY IDOCK:   -7.71 KCAL/MOL
REMARK 923 INTER-LIGAND FREE ENERGY PREDICTED BY IDOCK:   -6.52 KCAL/MOL
REMARK 924 INTRA-LIGAND FREE ENERGY PREDICTED BY IDOCK:   -1.19 KCAL/MOL
REMARK 927      BINDING AFFINITY PREDICTED BY RF-SCORE:    0.00 PKD
ROOT
HETATM    1  C   UNL     1      -6.048  21.098  67.889  1.00  0.00    -0.400 C  
HETATM    2  C   UNL     1      -6.961  20.466  66.843  1.00  0.00    -0.268 C  
ENDROOT
BRANCH   2   3
HETATM    3  N   UNL     1      -7.632  19.230  67.306  1.00  0.00    -0.231 NA 
BRANCH   3   4
HETATM    4  C   UNL     1      -9.010  19.462  67.774  1.00  0.00    -0.313 C  
HETATM    5  C   UNL     1      -9.728  20.692  67.220  1.00  0.00    -0.562 C  
ENDBRANCH   3   4
BRANCH   3   6
HETATM    6  C   UNL     1      -7.583  18.158  66.280  1.00  0.00    -0.264 C  
BRANCH   6   7
HETATM    7  C   UNL     1      -7.541  16.771  66.891  1.00  0.00    -0.252 A  
HETATM    8  C   UNL     1      -6.448  16.310  67.634  1.00  0.00    -0.158 A  
HETATM    9  C   UNL     1      -6.326  14.968  67.955  1.00  0.00    -0.179 A  
HETATM   10  O   UNL     1      -5.410  17.131  67.974  1.00  0.00    -0.113 OA 
HETATM   11  C   UNL     1      -7.304  14.064  67.526  1.00  0.00    -0.187 A  
HETATM   12  H   UNL     1      -4.668  16.818  68.478  1.00  0.00     0.000 HD 
HETATM   13  C   UNL     1      -8.451  14.500  66.848  1.00  0.00    -0.150 A  
HETATM   14  C   UNL     1      -8.577  15.870  66.587  1.00  0.00    -0.320 A  
BRANCH  13  15
HETATM   15  N   UNL     1      -9.516  13.653  66.449  1.00  0.00    -0.387 NA 
HETATM   16  H   UNL     1      -9.854  13.771  65.494  1.00  0.00     0.000 HD 
BRANCH  15  17
HETATM   17  C   UNL     1     -10.168  12.654  67.232  1.00  0.00    -0.224 A  
HETATM   18  C   UNL     1      -9.894  11.274  67.085  1.00  0.00    -0.213 A  
HETATM   19  C   UNL     1      -8.766  10.780  66.389  1.00  0.00    -0.163 A  
HETATM   20  C   UNL     1      -8.623   9.422  66.132  1.00  0.00    -0.147 A  
HETATM   21  C   UNL     1      -9.598   8.548  66.587  1.00  0.00    -0.227 A  
HETATM   22 CL   UNL     1      -9.502   6.881  66.174  1.00  0.00    -0.114 Cl 
HETATM   23  C   UNL     1     -10.660   9.014  67.360  1.00  0.00    -0.309 A  
HETATM   24  C   UNL     1     -10.803  10.362  67.653  1.00  0.00    -0.306 A  
HETATM   25  N   UNL     1     -11.824  10.754  68.434  1.00  0.00    -0.483 NA 
HETATM   26  C   UNL     1     -11.983  12.075  68.662  1.00  0.00    -0.235 A  
HETATM   27  C   UNL     1     -11.213  13.052  68.068  1.00  0.00    -0.310 A  
ENDBRANCH  15  17
ENDBRANCH  13  15
ENDBRANCH   6   7
ENDBRANCH   3   6
ENDBRANCH   2   3
TORSDOF 6
ENDMDL
MODEL      135
REMARK 921   NORMALIZED FREE ENERGY PREDICTED BY IDOCK:   -4.95 KCAL/MOL
REMARK 922        TOTAL FREE ENERGY PREDICTED BY IDOCK:   -7.70 KCAL/MOL
REMARK 923 INTER-LIGAND FREE ENERGY PREDICTED BY IDOCK:   -6.58 KCAL/MOL
REMARK 924 INTRA-LIGAND FREE ENERGY PREDICTED BY IDOCK:   -1.12 KCAL/MOL
REMARK 927      BINDING AFFINITY PREDICTED BY RF-SCORE:    0.00 PKD
ROOT
HETATM    1  C   UNL     1     -11.060  14.218  66.385  1.00  0.00    -0.325 C  
HETATM    2  C   UNL     1     -11.731  14.854  67.598  1.00  0.00    -0.307 C  
ENDROOT
BRANCH   2   3
HETATM    3  N   UNL     1     -11.040  14.574  68.877  1.00  0.00    -0.245 NA 
BRANCH   3   4
HETATM    4  C   UNL     1      -9.911  15.486  69.135  1.00  0.00    -0.246 C  
HETATM    5  C   UNL     1     -10.178  16.980  68.954  1.00  0.00    -0.322 C  
ENDBRANCH   3   4
BRANCH   3   6
HETATM    6  C   UNL     1     -11.985  14.547  70.022  1.00  0.00    -0.330 C  
BRANCH   6   7
HETATM    7  C   UNL     1     -12.407  13.139  70.392  1.00  0.00    -0.351 A  
HETATM    8  C   UNL     1     -13.068  12.844  71.591  1.00  0.00    -0.335 A  
HETATM    9  C   UNL     1     -13.208  11.533  72.017  1.00  0.00    -0.443 A  
HETATM   10  O   UNL     1     -13.501  13.826  72.436  1.00  0.00    -0.479 OA 
HETATM   11  C   UNL     1     -12.677  10.495  71.245  1.00  0.00    -0.532 A  
HETATM   12  H   UNL     1     -13.949  13.626  73.249  1.00  0.00     0.000 HD 
HETATM   13  C   UNL     1     -12.077  10.746  70.002  1.00  0.00    -0.345 A  
HETATM   14  C   UNL     1     -12.001  12.075  69.568  1.00  0.00    -0.346 A  
BRANCH  13  15
HETATM   15  N   UNL     1     -11.583   9.740  69.133  1.00  0.00    -0.457 NA 
HETATM   16  H   UNL     1     -12.221   9.419  68.405  1.00  0.00     0.000 HD 
BRANCH  15  17
HETATM   17  C   UNL     1     -10.296   9.126  69.163  1.00  0.00    -0.212 A  
HETATM   18  C   UNL     1      -9.286   9.432  68.221  1.00  0.00    -0.133 A  
HETATM   19  C   UNL     1      -9.338  10.561  67.372  1.00  0.00    -0.158 A  
HETATM   20  C   UNL     1      -8.407  10.734  66.354  1.00  0.00    -0.153 A  
HETATM   21  C   UNL     1      -7.406   9.788  66.194  1.00  0.00    -0.101 A  
HETATM   22 CL   UNL     1      -6.319   9.920  64.868  1.00  0.00    -0.102 Cl 
HETATM   23  C   UNL     1      -7.287   8.727  67.090  1.00  0.00    -0.080 A  
HETATM   24  C   UNL     1      -8.188   8.555  68.129  1.00  0.00    -0.120 A  
HETATM   25  N   UNL     1      -8.006   7.536  68.988  1.00  0.00    -0.120 NA 
HETATM   26  C   UNL     1      -8.924   7.348  69.958  1.00  0.00    -0.144 A  
HETATM   27  C   UNL     1     -10.085   8.083  70.068  1.00  0.00    -0.196 A  
ENDBRANCH  15  17
ENDBRANCH  13  15
ENDBRANCH   6   7
ENDBRANCH   3   6
ENDBRANCH   2   3
TORSDOF 6
ENDMDL
MODEL      136
REMARK 921   NORMALIZED FREE ENERGY PREDICTED BY IDOCK:   -4.93 KCAL/MOL
REMARK 922        TOTAL FREE ENERGY PREDICTED BY IDOCK:   -7.67 KCAL/MOL
REMARK 923 INTER-LIGAND FREE ENERGY PREDICTED BY IDOCK:   -7.08 KCAL/MOL
REMARK 924 INTRA-LIGAND FREE ENERGY PREDICTED BY IDOCK:   -0.59 KCAL/MOL
REMARK 927      BINDING AFFINITY PREDICTED BY RF-SCORE:    0.00 PKD
ROOT
HETATM    1  C   UNL     1     -10.869   4.733  72.524  1.00  0.00    -0.208 C  
HETATM    2  C   UNL     1     -10.057   5.709  73.371  1.00  0.00    -0.189 C  
ENDROOT
BRANCH   2   3
HETATM    3  N   UNL     1     -10.518   7.112  73.270  1.00  0.00    -0.312 NA 
BRANCH   3   4
HETATM    4  C   UNL     1      -9.410   8.076  73.143  1.00  0.00    -0.277 C  
HETATM    5  C   UNL     1      -8.283   7.968  74.170  1.00  0.00    -0.318 C  
ENDBRANCH   3   4
BRANCH   3   6
HETATM    6  C   UNL     1     -11.515   7.289  72.184  1.00  0.00    -0.273 C  
BRANCH   6   7
HETATM    7  C   UNL     1     -11.794   8.749  71.886  1.00  0.00    -0.437 A  
HETATM    8  C   UNL     1     -12.899   9.426  72.416  1.00  0.00    -0.319 A  
HETATM    9  C   UNL     1     -13.269  10.668  71.926  1.00  0.00    -0.528 A  
HETATM   10  O   UNL     1     -13.715   8.853  73.350  1.00  0.00    -1.094 OA 
HETATM   11  C   UNL     1     -12.535  11.247  70.886  1.00  0.00    -0.493 A  
HETATM   12  H   UNL     1     -14.465   9.312  73.709  1.00  0.00     0.000 HD 
HETATM   13  C   UNL     1     -11.378  10.635  70.383  1.00  0.00    -0.304 A  
HETATM   14  C   UNL     1     -10.994   9.407  70.936  1.00  0.00    -0.391 A  
BRANCH  13  15
HETATM   15  N   UNL     1     -10.545  11.197  69.383  1.00  0.00    -0.385 NA 
HETATM   16  H   UNL     1      -9.952  11.976  69.673  1.00  0.00     0.000 HD 
BRANCH  15  17
HETATM   17  C   UNL     1     -10.441  10.798  68.017  1.00  0.00    -0.194 A  
HETATM   18  C   UNL     1      -9.357  10.031  67.529  1.00  0.00    -0.162 A  
HETATM   19  C   UNL     1      -8.455   9.344  68.374  1.00  0.00    -0.120 A  
HETATM   20  C   UNL     1      -7.315   8.739  67.860  1.00  0.00    -0.088 A  
HETATM   21  C   UNL     1      -7.081   8.799  66.495  1.00  0.00    -0.080 A  
HETATM   22 CL   UNL     1      -5.618   8.162  65.855  1.00  0.00    -0.036 Cl 
HETATM   23  C   UNL     1      -8.017   9.386  65.643  1.00  0.00    -0.103 A  
HETATM   24  C   UNL     1      -9.175   9.968  66.134  1.00  0.00    -0.165 A  
HETATM   25  N   UNL     1     -10.062  10.486  65.268  1.00  0.00    -0.297 NA 
HETATM   26  C   UNL     1     -11.155  11.102  65.765  1.00  0.00    -0.014 A  
HETATM   27  C   UNL     1     -11.373  11.309  67.110  1.00  0.00    -0.295 A  
ENDBRANCH  15  17
ENDBRANCH  13  15
ENDBRANCH   6   7
ENDBRANCH   3   6
ENDBRANCH   2   3
TORSDOF 6
ENDMDL
MODEL      137
REMARK 921   NORMALIZED FREE ENERGY PREDICTED BY IDOCK:   -4.91 KCAL/MOL
REMARK 922        TOTAL FREE ENERGY PREDICTED BY IDOCK:   -7.64 KCAL/MOL
REMARK 923 INTER-LIGAND FREE ENERGY PREDICTED BY IDOCK:   -6.44 KCAL/MOL
REMARK 924 INTRA-LIGAND FREE ENERGY PREDICTED BY IDOCK:   -1.20 KCAL/MOL
REMARK 927      BINDING AFFINITY PREDICTED BY RF-SCORE:    0.00 PKD
ROOT
HETATM    1  C   UNL     1      -6.863   8.054  71.609  1.00  0.00    -0.057 C  
HETATM    2  C   UNL     1      -7.267   8.305  70.160  1.00  0.00    -0.055 C  
ENDROOT
BRANCH   2   3
HETATM    3  N   UNL     1      -8.717   8.143  69.909  1.00  0.00    -0.137 NA 
BRANCH   3   4
HETATM    4  C   UNL     1      -9.020   7.055  68.962  1.00  0.00    -0.133 C  
HETATM    5  C   UNL     1      -9.029   7.416  67.477  1.00  0.00    -0.126 C  
ENDBRANCH   3   4
BRANCH   3   6
HETATM    6  C   UNL     1      -9.483   7.991  71.172  1.00  0.00    -0.153 C  
BRANCH   6   7
HETATM    7  C   UNL     1     -10.656   8.946  71.258  1.00  0.00    -0.351 A  
HETATM    8  C   UNL     1     -11.712   8.761  72.158  1.00  0.00    -0.363 A  
HETATM    9  C   UNL     1     -12.881   9.494  72.038  1.00  0.00    -0.499 A  
HETATM   10  O   UNL     1     -11.680   7.785  73.115  1.00  0.00    -0.631 OA 
HETATM   11  C   UNL     1     -13.010  10.424  71.001  1.00  0.00    -0.490 A  
HETATM   12  H   UNL     1     -12.396   7.660  73.725  1.00  0.00     0.000 HD 
HETATM   13  C   UNL     1     -11.946  10.692  70.127  1.00  0.00    -0.334 A  
HETATM   14  C   UNL     1     -10.755   9.978  70.308  1.00  0.00    -0.367 A  
BRANCH  13  15
HETATM   15  N   UNL     1     -11.979  11.671  69.102  1.00  0.00    -0.327 NA 
HETATM   16  H   UNL     1     -12.303  11.356  68.187  1.00  0.00     0.000 HD 
BRANCH  15  17
HETATM   17  C   UNL     1     -11.612  13.045  69.205  1.00  0.00    -0.310 A  
HETATM   18  C   UNL     1     -10.354  13.531  68.777  1.00  0.00    -0.169 A  
HETATM   19  C   UNL     1      -9.480  12.788  67.951  1.00  0.00    -0.208 A  
HETATM   20  C   UNL     1      -8.191  13.236  67.689  1.00  0.00    -0.179 A  
HETATM   21  C   UNL     1      -7.776  14.440  68.236  1.00  0.00    -0.129 A  
HETATM   22 CL   UNL     1      -6.148  14.953  68.024  1.00  0.00    -0.148 Cl 
HETATM   23  C   UNL     1      -8.664  15.227  68.967  1.00  0.00    -0.226 A  
HETATM   24  C   UNL     1      -9.964  14.811  69.214  1.00  0.00    -0.138 A  
HETATM   25  N   UNL     1     -10.791  15.625  69.891  1.00  0.00    -0.290 NA 
HETATM   26  C   UNL     1     -12.034  15.181  70.174  1.00  0.00    -0.334 A  
HETATM   27  C   UNL     1     -12.476  13.908  69.885  1.00  0.00    -0.285 A  
ENDBRANCH  15  17
ENDBRANCH  13  15
ENDBRANCH   6   7
ENDBRANCH   3   6
ENDBRANCH   2   3
TORSDOF 6
ENDMDL
MODEL      138
REMARK 921   NORMALIZED FREE ENERGY PREDICTED BY IDOCK:   -4.91 KCAL/MOL
REMARK 922        TOTAL FREE ENERGY PREDICTED BY IDOCK:   -7.64 KCAL/MOL
REMARK 923 INTER-LIGAND FREE ENERGY PREDICTED BY IDOCK:   -6.70 KCAL/MOL
REMARK 924 INTRA-LIGAND FREE ENERGY PREDICTED BY IDOCK:   -0.94 KCAL/MOL
REMARK 927      BINDING AFFINITY PREDICTED BY RF-SCORE:    0.00 PKD
ROOT
HETATM    1  C   UNL     1      -5.958   7.014  73.421  1.00  0.00    -0.057 C  
HETATM    2  C   UNL     1      -6.199   7.555  72.015  1.00  0.00    -0.039 C  
ENDROOT
BRANCH   2   3
HETATM    3  N   UNL     1      -7.581   7.348  71.525  1.00  0.00    -0.084 NA 
BRANCH   3   4
HETATM    4  C   UNL     1      -7.787   6.019  70.922  1.00  0.00    -0.107 C  
HETATM    5  C   UNL     1      -8.197   5.987  69.450  1.00  0.00    -0.115 C  
ENDBRANCH   3   4
BRANCH   3   6
HETATM    6  C   UNL     1      -8.588   7.625  72.581  1.00  0.00    -0.127 C  
BRANCH   6   7
HETATM    7  C   UNL     1      -9.720   8.504  72.087  1.00  0.00    -0.387 A  
HETATM    8  C   UNL     1     -11.043   8.336  72.514  1.00  0.00    -0.368 A  
HETATM    9  C   UNL     1     -12.083   8.974  71.858  1.00  0.00    -0.448 A  
HETATM   10  O   UNL     1     -11.373   7.461  73.510  1.00  0.00    -0.601 OA 
HETATM   11  C   UNL     1     -11.808   9.790  70.756  1.00  0.00    -0.400 A  
HETATM   12  H   UNL     1     -12.271   7.347  73.798  1.00  0.00     0.000 HD 
HETATM   13  C   UNL     1     -10.491  10.043  70.348  1.00  0.00    -0.240 A  
HETATM   14  C   UNL     1      -9.455   9.431  71.064  1.00  0.00    -0.243 A  
BRANCH  13  15
HETATM   15  N   UNL     1     -10.134  10.915  69.288  1.00  0.00    -0.370 NA 
HETATM   16  H   UNL     1     -10.104  11.910  69.512  1.00  0.00     0.000 HD 
BRANCH  15  17
HETATM   17  C   UNL     1      -9.813  10.558  67.945  1.00  0.00    -0.160 A  
HETATM   18  C   UNL     1     -10.259  11.307  66.831  1.00  0.00    -0.254 A  
HETATM   19  C   UNL     1     -10.792  12.612  66.941  1.00  0.00    -0.282 A  
HETATM   20  C   UNL     1     -11.365  13.245  65.845  1.00  0.00    -0.333 A  
HETATM   21  C   UNL     1     -11.390  12.584  64.627  1.00  0.00    -0.318 A  
HETATM   22 CL   UNL     1     -12.201  13.299  63.290  1.00  0.00    -0.536 Cl 
HETATM   23  C   UNL     1     -10.776  11.340  64.485  1.00  0.00    -0.390 A  
HETATM   24  C   UNL     1     -10.173  10.706  65.561  1.00  0.00    -0.262 A  
HETATM   25  N   UNL     1      -9.562   9.525  65.362  1.00  0.00    -0.287 NA 
HETATM   26  C   UNL     1      -9.031   8.893  66.430  1.00  0.00    -0.158 A  
HETATM   27  C   UNL     1      -9.154   9.345  67.726  1.00  0.00    -0.134 A  
ENDBRANCH  15  17
ENDBRANCH  13  15
ENDBRANCH   6   7
ENDBRANCH   3   6
ENDBRANCH   2   3
TORSDOF 6
ENDMDL
MODEL      139
REMARK 921   NORMALIZED FREE ENERGY PREDICTED BY IDOCK:   -4.90 KCAL/MOL
REMARK 922        TOTAL FREE ENERGY PREDICTED BY IDOCK:   -7.63 KCAL/MOL
REMARK 923 INTER-LIGAND FREE ENERGY PREDICTED BY IDOCK:   -7.12 KCAL/MOL
REMARK 924 INTRA-LIGAND FREE ENERGY PREDICTED BY IDOCK:   -0.52 KCAL/MOL
REMARK 927      BINDING AFFINITY PREDICTED BY RF-SCORE:    0.00 PKD
ROOT
HETATM    1  C   UNL     1     -12.584  16.096  73.843  1.00  0.00    -0.703 C  
HETATM    2  C   UNL     1     -11.664  15.492  72.787  1.00  0.00    -0.439 C  
ENDROOT
BRANCH   2   3
HETATM    3  N   UNL     1     -11.947  15.961  71.411  1.00  0.00    -0.426 NA 
BRANCH   3   4
HETATM    4  C   UNL     1     -10.790  15.829  70.507  1.00  0.00    -0.301 C  
HETATM    5  C   UNL     1     -10.811  16.675  69.234  1.00  0.00    -0.310 C  
ENDBRANCH   3   4
BRANCH   3   6
HETATM    6  C   UNL     1     -13.154  15.310  70.843  1.00  0.00    -0.464 C  
BRANCH   6   7
HETATM    7  C   UNL     1     -13.002  13.806  70.727  1.00  0.00    -0.238 A  
HETATM    8  C   UNL     1     -13.427  12.928  71.731  1.00  0.00    -0.280 A  
HETATM    9  C   UNL     1     -13.044  11.597  71.715  1.00  0.00    -0.487 A  
HETATM   10  O   UNL     1     -14.134  13.363  72.817  1.00  0.00    -0.715 OA 
HETATM   11  C   UNL     1     -12.221  11.128  70.686  1.00  0.00    -0.492 A  
HETATM   12  H   UNL     1     -14.422  12.767  73.498  1.00  0.00     0.000 HD 
HETATM   13  C   UNL     1     -11.840  11.958  69.622  1.00  0.00    -0.337 A  
HETATM   14  C   UNL     1     -12.288  13.285  69.634  1.00  0.00    -0.154 A  
BRANCH  13  15
HETATM   15  N   UNL     1     -11.069  11.533  68.511  1.00  0.00    -0.216 NA 
HETATM   16  H   UNL     1     -11.564  11.003  67.793  1.00  0.00     0.000 HD 
BRANCH  15  17
HETATM   17  C   UNL     1      -9.679  11.762  68.283  1.00  0.00    -0.199 A  
HETATM   18  C   UNL     1      -8.668  11.041  68.960  1.00  0.00    -0.072 A  
HETATM   19  C   UNL     1      -8.918   9.850  69.680  1.00  0.00    -0.232 A  
HETATM   20  C   UNL     1      -7.929   9.266  70.461  1.00  0.00    -0.188 A  
HETATM   21  C   UNL     1      -6.677   9.858  70.511  1.00  0.00    -0.123 A  
HETATM   22 CL   UNL     1      -5.477   9.220  71.565  1.00  0.00    -0.057 Cl 
HETATM   23  C   UNL     1      -6.392  10.974  69.725  1.00  0.00    -0.124 A  
HETATM   24  C   UNL     1      -7.357  11.553  68.916  1.00  0.00    -0.116 A  
HETATM   25  N   UNL     1      -7.019  12.604  68.149  1.00  0.00    -0.085 NA 
HETATM   26  C   UNL     1      -7.985  13.193  67.412  1.00  0.00    -0.171 A  
HETATM   27  C   UNL     1      -9.315  12.835  67.466  1.00  0.00    -0.189 A  
ENDBRANCH  15  17
ENDBRANCH  13  15
ENDBRANCH   6   7
ENDBRANCH   3   6
ENDBRANCH   2   3
TORSDOF 6
ENDMDL
MODEL      140
REMARK 921   NORMALIZED FREE ENERGY PREDICTED BY IDOCK:   -4.87 KCAL/MOL
REMARK 922        TOTAL FREE ENERGY PREDICTED BY IDOCK:   -7.59 KCAL/MOL
REMARK 923 INTER-LIGAND FREE ENERGY PREDICTED BY IDOCK:   -6.85 KCAL/MOL
REMARK 924 INTRA-LIGAND FREE ENERGY PREDICTED BY IDOCK:   -0.75 KCAL/MOL
REMARK 927      BINDING AFFINITY PREDICTED BY RF-SCORE:    0.00 PKD
ROOT
HETATM    1  C   UNL     1     -12.146   8.247  72.540  1.00  0.00    -0.400 C  
HETATM    2  C   UNL     1     -10.892   7.638  73.159  1.00  0.00    -0.382 C  
ENDROOT
BRANCH   2   3
HETATM    3  N   UNL     1     -10.542   6.308  72.611  1.00  0.00    -0.208 NA 
BRANCH   3   4
HETATM    4  C   UNL     1     -10.936   5.197  73.496  1.00  0.00    -0.310 C  
HETATM    5  C   UNL     1     -10.319   3.830  73.202  1.00  0.00    -0.241 C  
ENDBRANCH   3   4
BRANCH   3   6
HETATM    6  C   UNL     1     -11.075   6.119  71.237  1.00  0.00    -0.291 C  
BRANCH   6   7
HETATM    7  C   UNL     1     -10.194   6.755  70.181  1.00  0.00    -0.215 A  
HETATM    8  C   UNL     1      -8.796   6.724  70.249  1.00  0.00    -0.152 A  
HETATM    9  C   UNL     1      -8.029   7.527  69.420  1.00  0.00    -0.123 A  
HETATM   10  O   UNL     1      -8.137   5.995  71.199  1.00  0.00    -0.117 OA 
HETATM   11  C   UNL     1      -8.660   8.382  68.510  1.00  0.00    -0.136 A  
HETATM   12  H   UNL     1      -7.189   5.974  71.245  1.00  0.00     0.000 HD 
HETATM   13  C   UNL     1     -10.054   8.383  68.359  1.00  0.00    -0.198 A  
HETATM   14  C   UNL     1     -10.801   7.520  69.170  1.00  0.00    -0.105 A  
BRANCH  13  15
HETATM   15  N   UNL     1     -10.755   9.168  67.408  1.00  0.00    -0.397 NA 
HETATM   16  H   UNL     1     -11.759   9.271  67.560  1.00  0.00     0.000 HD 
BRANCH  15  17
HETATM   17  C   UNL     1     -10.216   9.828  66.265  1.00  0.00    -0.212 A  
HETATM   18  C   UNL     1     -10.658  11.105  65.845  1.00  0.00    -0.294 A  
HETATM   19  C   UNL     1     -11.433  11.961  66.661  1.00  0.00    -0.382 A  
HETATM   20  C   UNL     1     -11.979  13.132  66.152  1.00  0.00    -0.478 A  
HETATM   21  C   UNL     1     -11.736  13.465  64.828  1.00  0.00    -0.361 A  
HETATM   22 CL   UNL     1     -12.502  14.846  64.146  1.00  0.00    -0.318 Cl 
HETATM   23  C   UNL     1     -10.891  12.680  64.046  1.00  0.00    -0.452 A  
HETATM   24  C   UNL     1     -10.312  11.523  64.546  1.00  0.00    -0.302 A  
HETATM   25  N   UNL     1      -9.475  10.822  63.762  1.00  0.00    -0.257 NA 
HETATM   26  C   UNL     1      -8.966   9.668  64.243  1.00  0.00    -0.229 A  
HETATM   27  C   UNL     1      -9.324   9.120  65.456  1.00  0.00    -0.287 A  
ENDBRANCH  15  17
ENDBRANCH  13  15
ENDBRANCH   6   7
ENDBRANCH   3   6
ENDBRANCH   2   3
TORSDOF 6
ENDMDL
MODEL      141
REMARK 921   NORMALIZED FREE ENERGY PREDICTED BY IDOCK:   -4.85 KCAL/MOL
REMARK 922        TOTAL FREE ENERGY PREDICTED BY IDOCK:   -7.57 KCAL/MOL
REMARK 923 INTER-LIGAND FREE ENERGY PREDICTED BY IDOCK:   -6.59 KCAL/MOL
REMARK 924 INTRA-LIGAND FREE ENERGY PREDICTED BY IDOCK:   -0.98 KCAL/MOL
REMARK 927      BINDING AFFINITY PREDICTED BY RF-SCORE:    0.00 PKD
ROOT
HETATM    1  C   UNL     1     -12.216   6.393  71.789  1.00  0.00    -0.312 C  
HETATM    2  C   UNL     1     -12.997   7.654  71.435  1.00  0.00    -0.311 C  
ENDROOT
BRANCH   2   3
HETATM    3  N   UNL     1     -12.167   8.879  71.400  1.00  0.00    -0.308 NA 
BRANCH   3   4
HETATM    4  C   UNL     1     -12.923  10.098  71.740  1.00  0.00    -0.462 C  
HETATM    5  C   UNL     1     -12.627  11.347  70.909  1.00  0.00    -0.453 C  
ENDBRANCH   3   4
BRANCH   3   6
HETATM    6  C   UNL     1     -10.950   8.746  72.240  1.00  0.00    -0.266 C  
BRANCH   6   7
HETATM    7  C   UNL     1      -9.673   8.848  71.431  1.00  0.00    -0.370 A  
HETATM    8  C   UNL     1      -8.420   8.509  71.957  1.00  0.00    -0.165 A  
HETATM    9  C   UNL     1      -7.256   8.854  71.291  1.00  0.00    -0.111 A  
HETATM   10  O   UNL     1      -8.289   7.930  73.188  1.00  0.00    -0.144 OA 
HETATM   11  C   UNL     1      -7.333   9.553  70.082  1.00  0.00    -0.124 A  
HETATM   12  H   UNL     1      -7.440   7.700  73.546  1.00  0.00     0.000 HD 
HETATM   13  C   UNL     1      -8.569   9.841  69.486  1.00  0.00    -0.179 A  
HETATM   14  C   UNL     1      -9.730   9.430  70.153  1.00  0.00    -0.274 A  
BRANCH  13  15
HETATM   15  N   UNL     1      -8.722  10.481  68.229  1.00  0.00    -0.130 NA 
HETATM   16  H   UNL     1      -8.888   9.870  67.429  1.00  0.00     0.000 HD 
BRANCH  15  17
HETATM   17  C   UNL     1      -8.671  11.880  67.958  1.00  0.00    -0.173 A  
HETATM   18  C   UNL     1      -9.675  12.549  67.220  1.00  0.00    -0.202 A  
HETATM   19  C   UNL     1     -10.941  11.981  66.946  1.00  0.00    -0.328 A  
HETATM   20  C   UNL     1     -11.833  12.606  66.084  1.00  0.00    -0.477 A  
HETATM   21  C   UNL     1     -11.472  13.813  65.504  1.00  0.00    -0.311 A  
HETATM   22 CL   UNL     1     -12.510  14.540  64.342  1.00  0.00    -0.424 Cl 
HETATM   23  C   UNL     1     -10.269  14.429  65.847  1.00  0.00    -0.341 A  
HETATM   24  C   UNL     1      -9.380  13.836  66.729  1.00  0.00    -0.266 A  
HETATM   25  N   UNL     1      -8.252  14.490  67.055  1.00  0.00    -0.181 NA 
HETATM   26  C   UNL     1      -7.369  13.873  67.869  1.00  0.00    -0.154 A  
HETATM   27  C   UNL     1      -7.514  12.578  68.316  1.00  0.00    -0.122 A  
ENDBRANCH  15  17
ENDBRANCH  13  15
ENDBRANCH   6   7
ENDBRANCH   3   6
ENDBRANCH   2   3
TORSDOF 6
ENDMDL
MODEL      142
REMARK 921   NORMALIZED FREE ENERGY PREDICTED BY IDOCK:   -4.84 KCAL/MOL
REMARK 922        TOTAL FREE ENERGY PREDICTED BY IDOCK:   -7.55 KCAL/MOL
REMARK 923 INTER-LIGAND FREE ENERGY PREDICTED BY IDOCK:   -6.33 KCAL/MOL
REMARK 924 INTRA-LIGAND FREE ENERGY PREDICTED BY IDOCK:   -1.23 KCAL/MOL
REMARK 927      BINDING AFFINITY PREDICTED BY RF-SCORE:    0.00 PKD
ROOT
HETATM    1  C   UNL     1     -10.293   5.051  72.225  1.00  0.00    -0.267 C  
HETATM    2  C   UNL     1      -9.146   5.463  71.309  1.00  0.00    -0.142 C  
ENDROOT
BRANCH   2   3
HETATM    3  N   UNL     1      -9.536   6.443  70.270  1.00  0.00    -0.164 NA 
BRANCH   3   4
HETATM    4  C   UNL     1     -10.550   5.922  69.336  1.00  0.00    -0.309 C  
HETATM    5  C   UNL     1     -10.075   4.894  68.308  1.00  0.00    -0.143 C  
ENDBRANCH   3   4
BRANCH   3   6
HETATM    6  C   UNL     1      -9.962   7.737  70.863  1.00  0.00    -0.183 C  
BRANCH   6   7
HETATM    7  C   UNL     1      -9.914   8.876  69.865  1.00  0.00    -0.197 A  
HETATM    8  C   UNL     1      -8.777   9.155  69.097  1.00  0.00    -0.138 A  
HETATM    9  C   UNL     1      -8.672  10.344  68.393  1.00  0.00    -0.129 A  
HETATM   10  O   UNL     1      -7.688   8.329  69.096  1.00  0.00    -0.093 OA 
HETATM   11  C   UNL     1      -9.711  11.278  68.457  1.00  0.00    -0.199 A  
HETATM   12  H   UNL     1      -6.916   8.518  68.575  1.00  0.00     0.000 HD 
HETATM   13  C   UNL     1     -10.897  11.000  69.152  1.00  0.00    -0.237 A  
HETATM   14  C   UNL     1     -11.000   9.767  69.806  1.00  0.00    -0.287 A  
BRANCH  13  15
HETATM   15  N   UNL     1     -12.019  11.867  69.199  1.00  0.00    -0.300 NA 
HETATM   16  H   UNL     1     -12.862  11.540  68.726  1.00  0.00     0.000 HD 
BRANCH  15  17
HETATM   17  C   UNL     1     -12.102  13.143  69.831  1.00  0.00    -0.287 A  
HETATM   18  C   UNL     1     -11.689  14.336  69.193  1.00  0.00    -0.360 A  
HETATM   19  C   UNL     1     -11.449  14.426  67.803  1.00  0.00    -0.360 A  
HETATM   20  C   UNL     1     -10.892  15.570  67.246  1.00  0.00    -0.313 A  
HETATM   21  C   UNL     1     -10.591  16.640  68.074  1.00  0.00    -0.338 A  
HETATM   22 CL   UNL     1      -9.790  18.017  67.425  1.00  0.00    -0.299 Cl 
HETATM   23  C   UNL     1     -10.918  16.599  69.429  1.00  0.00    -0.235 A  
HETATM   24  C   UNL     1     -11.502  15.477  69.997  1.00  0.00    -0.331 A  
HETATM   25  N   UNL     1     -11.832  15.504  71.299  1.00  0.00    -0.356 NA 
HETATM   26  C   UNL     1     -12.346  14.383  71.850  1.00  0.00    -0.281 A  
HETATM   27  C   UNL     1     -12.470  13.187  71.178  1.00  0.00    -0.378 A  
ENDBRANCH  15  17
ENDBRANCH  13  15
ENDBRANCH   6   7
ENDBRANCH   3   6
ENDBRANCH   2   3
TORSDOF 6
ENDMDL
MODEL      143
REMARK 921   NORMALIZED FREE ENERGY PREDICTED BY IDOCK:   -4.83 KCAL/MOL
REMARK 922        TOTAL FREE ENERGY PREDICTED BY IDOCK:   -7.53 KCAL/MOL
REMARK 923 INTER-LIGAND FREE ENERGY PREDICTED BY IDOCK:   -6.73 KCAL/MOL
REMARK 924 INTRA-LIGAND FREE ENERGY PREDICTED BY IDOCK:   -0.81 KCAL/MOL
REMARK 927      BINDING AFFINITY PREDICTED BY RF-SCORE:    0.00 PKD
ROOT
HETATM    1  C   UNL     1     -10.755   5.752  70.007  1.00  0.00    -0.400 C  
HETATM    2  C   UNL     1     -11.258   7.171  69.765  1.00  0.00    -0.173 C  
ENDROOT
BRANCH   2   3
HETATM    3  N   UNL     1     -10.187   8.134  69.424  1.00  0.00    -0.206 NA 
BRANCH   3   4
HETATM    4  C   UNL     1      -9.853   9.043  70.536  1.00  0.00    -0.216 C  
HETATM    5  C   UNL     1     -11.025   9.716  71.250  1.00  0.00    -0.399 C  
ENDBRANCH   3   4
BRANCH   3   6
HETATM    6  C   UNL     1      -8.976   7.451  68.903  1.00  0.00    -0.130 C  
BRANCH   6   7
HETATM    7  C   UNL     1      -8.522   8.011  67.570  1.00  0.00    -0.127 A  
HETATM    8  C   UNL     1      -7.170   8.168  67.241  1.00  0.00    -0.084 A  
HETATM    9  C   UNL     1      -6.793   8.914  66.136  1.00  0.00    -0.074 A  
HETATM   10  O   UNL     1      -6.173   7.693  68.046  1.00  0.00    -0.042 OA 
HETATM   11  C   UNL     1      -7.774   9.522  65.346  1.00  0.00    -0.109 A  
HETATM   12  H   UNL     1      -5.256   7.800  67.823  1.00  0.00     0.000 HD 
HETATM   13  C   UNL     1      -9.139   9.323  65.598  1.00  0.00    -0.216 A  
HETATM   14  C   UNL     1      -9.492   8.517  66.687  1.00  0.00    -0.268 A  
BRANCH  13  15
HETATM   15  N   UNL     1     -10.185   9.846  64.797  1.00  0.00    -0.270 NA 
HETATM   16  H   UNL     1     -10.651   9.185  64.175  1.00  0.00     0.000 HD 
BRANCH  15  17
HETATM   17  C   UNL     1     -10.661  11.190  64.763  1.00  0.00    -0.303 A  
HETATM   18  C   UNL     1     -10.942  11.927  65.937  1.00  0.00    -0.354 A  
HETATM   19  C   UNL     1     -10.506  11.530  67.222  1.00  0.00    -0.246 A  
HETATM   20  C   UNL     1     -10.940  12.195  68.362  1.00  0.00    -0.271 A  
HETATM   21  C   UNL     1     -11.798  13.275  68.222  1.00  0.00    -0.354 A  
HETATM   22 CL   UNL     1     -12.443  14.035  69.624  1.00  0.00    -0.296 Cl 
HETATM   23  C   UNL     1     -12.152  13.736  66.955  1.00  0.00    -0.454 A  
HETATM   24  C   UNL     1     -11.704  13.104  65.805  1.00  0.00    -0.374 A  
HETATM   25  N   UNL     1     -12.044  13.612  64.608  1.00  0.00    -0.395 NA 
HETATM   26  C   UNL     1     -11.649  12.951  63.499  1.00  0.00    -0.468 A  
HETATM   27  C   UNL     1     -10.993  11.739  63.522  1.00  0.00    -0.499 A  
ENDBRANCH  15  17
ENDBRANCH  13  15
ENDBRANCH   6   7
ENDBRANCH   3   6
ENDBRANCH   2   3
TORSDOF 6
ENDMDL
MODEL      144
REMARK 921   NORMALIZED FREE ENERGY PREDICTED BY IDOCK:   -4.82 KCAL/MOL
REMARK 922        TOTAL FREE ENERGY PREDICTED BY IDOCK:   -7.52 KCAL/MOL
REMARK 923 INTER-LIGAND FREE ENERGY PREDICTED BY IDOCK:   -6.39 KCAL/MOL
REMARK 924 INTRA-LIGAND FREE ENERGY PREDICTED BY IDOCK:   -1.13 KCAL/MOL
REMARK 927      BINDING AFFINITY PREDICTED BY RF-SCORE:    0.00 PKD
ROOT
HETATM    1  C   UNL     1      -6.489  20.543  68.939  1.00  0.00    -0.247 C  
HETATM    2  C   UNL     1      -7.268  20.585  67.628  1.00  0.00    -0.315 C  
ENDROOT
BRANCH   2   3
HETATM    3  N   UNL     1      -8.335  19.563  67.537  1.00  0.00    -0.290 NA 
BRANCH   3   4
HETATM    4  C   UNL     1      -9.532  20.040  66.821  1.00  0.00    -0.406 C  
HETATM    5  C   UNL     1     -10.875  19.457  67.260  1.00  0.00    -0.561 C  
ENDBRANCH   3   4
BRANCH   3   6
HETATM    6  C   UNL     1      -7.833  18.290  66.960  1.00  0.00    -0.223 C  
BRANCH   6   7
HETATM    7  C   UNL     1      -7.799  17.166  67.976  1.00  0.00    -0.195 A  
HETATM    8  C   UNL     1      -6.601  16.647  68.484  1.00  0.00    -0.142 A  
HETATM    9  C   UNL     1      -6.592  15.463  69.203  1.00  0.00    -0.133 A  
HETATM   10  O   UNL     1      -5.392  17.219  68.202  1.00  0.00    -0.118 OA 
HETATM   11  C   UNL     1      -7.791  14.777  69.419  1.00  0.00    -0.083 A  
HETATM   12  H   UNL     1      -4.580  16.867  68.546  1.00  0.00     0.000 HD 
HETATM   13  C   UNL     1      -9.019  15.304  68.993  1.00  0.00    -0.225 A  
HETATM   14  C   UNL     1      -9.006  16.531  68.319  1.00  0.00    -0.214 A  
BRANCH  13  15
HETATM   15  N   UNL     1     -10.278  14.701  69.240  1.00  0.00    -0.364 NA 
HETATM   16  H   UNL     1     -10.686  14.867  70.160  1.00  0.00     0.000 HD 
BRANCH  15  17
HETATM   17  C   UNL     1     -11.038  13.887  68.348  1.00  0.00    -0.255 A  
HETATM   18  C   UNL     1     -10.955  12.475  68.349  1.00  0.00    -0.277 A  
HETATM   19  C   UNL     1     -10.365  11.736  69.400  1.00  0.00     0.196 A  
HETATM   20  C   UNL     1     -10.162  10.367  69.285  1.00  0.00    -0.248 A  
HETATM   21  C   UNL     1     -10.566   9.724  68.124  1.00  0.00    -0.231 A  
HETATM   22 CL   UNL     1     -10.214   8.054  67.912  1.00  0.00    -0.250 Cl 
HETATM   23  C   UNL     1     -11.239  10.427  67.126  1.00  0.00    -0.086 A  
HETATM   24  C   UNL     1     -11.479  11.788  67.237  1.00  0.00    -0.303 A  
HETATM   25  N   UNL     1     -12.166  12.410  66.263  1.00  0.00    -0.583 NA 
HETATM   26  C   UNL     1     -12.339  13.745  66.357  1.00  0.00    -0.412 A  
HETATM   27  C   UNL     1     -11.778  14.522  67.347  1.00  0.00    -0.425 A  
ENDBRANCH  15  17
ENDBRANCH  13  15
ENDBRANCH   6   7
ENDBRANCH   3   6
ENDBRANCH   2   3
TORSDOF 6
ENDMDL
MODEL      145
REMARK 921   NORMALIZED FREE ENERGY PREDICTED BY IDOCK:   -4.80 KCAL/MOL
REMARK 922        TOTAL FREE ENERGY PREDICTED BY IDOCK:   -7.50 KCAL/MOL
REMARK 923 INTER-LIGAND FREE ENERGY PREDICTED BY IDOCK:   -6.83 KCAL/MOL
REMARK 924 INTRA-LIGAND FREE ENERGY PREDICTED BY IDOCK:   -0.67 KCAL/MOL
REMARK 927      BINDING AFFINITY PREDICTED BY RF-SCORE:    0.00 PKD
ROOT
HETATM    1  C   UNL     1     -11.778  15.480  68.945  1.00  0.00    -0.385 C  
HETATM    2  C   UNL     1     -11.797  14.169  68.166  1.00  0.00    -0.352 C  
ENDROOT
BRANCH   2   3
HETATM    3  N   UNL     1     -11.860  14.348  66.698  1.00  0.00    -0.402 NA 
BRANCH   3   4
HETATM    4  C   UNL     1     -10.594  14.837  66.121  1.00  0.00    -0.311 C  
HETATM    5  C   UNL     1     -10.690  16.006  65.141  1.00  0.00    -0.429 C  
ENDBRANCH   3   4
BRANCH   3   6
HETATM    6  C   UNL     1     -12.327  13.118  66.010  1.00  0.00    -0.359 C  
BRANCH   6   7
HETATM    7  C   UNL     1     -11.224  12.440  65.221  1.00  0.00    -0.359 A  
HETATM    8  C   UNL     1     -11.140  12.519  63.826  1.00  0.00    -0.448 A  
HETATM    9  C   UNL     1     -10.286  11.687  63.120  1.00  0.00    -0.396 A  
HETATM   10  O   UNL     1     -11.966  13.331  63.100  1.00  0.00    -0.778 OA 
HETATM   11  C   UNL     1      -9.504  10.755  63.810  1.00  0.00    -0.320 A  
HETATM   12  H   UNL     1     -11.909  13.384  62.153  1.00  0.00     0.000 HD 
HETATM   13  C   UNL     1      -9.504  10.699  65.211  1.00  0.00    -0.221 A  
HETATM   14  C   UNL     1     -10.334  11.591  65.902  1.00  0.00    -0.293 A  
BRANCH  13  15
HETATM   15  N   UNL     1      -8.685   9.832  65.978  1.00  0.00    -0.138 NA 
HETATM   16  H   UNL     1      -7.878  10.258  66.433  1.00  0.00     0.000 HD 
BRANCH  15  17
HETATM   17  C   UNL     1      -8.863   8.432  66.185  1.00  0.00    -0.165 A  
HETATM   18  C   UNL     1      -9.302   7.895  67.418  1.00  0.00    -0.169 A  
HETATM   19  C   UNL     1      -9.884   8.680  68.439  1.00  0.00    -0.189 A  
HETATM   20  C   UNL     1     -10.151   8.141  69.691  1.00  0.00    -0.199 A  
HETATM   21  C   UNL     1      -9.857   6.806  69.923  1.00  0.00    -0.164 A  
HETATM   22 CL   UNL     1     -10.067   6.152  71.499  1.00  0.00    -0.217 Cl 
HETATM   23  C   UNL     1      -9.378   5.999  68.892  1.00  0.00    -0.131 A  
HETATM   24  C   UNL     1      -9.134   6.512  67.627  1.00  0.00    -0.112 A  
HETATM   25  N   UNL     1      -8.708   5.683  66.659  1.00  0.00    -0.116 NA 
HETATM   26  C   UNL     1      -8.419   6.209  65.450  1.00  0.00    -0.138 A  
HETATM   27  C   UNL     1      -8.449   7.560  65.175  1.00  0.00    -0.043 A  
ENDBRANCH  15  17
ENDBRANCH  13  15
ENDBRANCH   6   7
ENDBRANCH   3   6
ENDBRANCH   2   3
TORSDOF 6
ENDMDL
MODEL      146
REMARK 921   NORMALIZED FREE ENERGY PREDICTED BY IDOCK:   -4.80 KCAL/MOL
REMARK 922        TOTAL FREE ENERGY PREDICTED BY IDOCK:   -7.50 KCAL/MOL
REMARK 923 INTER-LIGAND FREE ENERGY PREDICTED BY IDOCK:   -6.06 KCAL/MOL
REMARK 924 INTRA-LIGAND FREE ENERGY PREDICTED BY IDOCK:   -1.44 KCAL/MOL
REMARK 927      BINDING AFFINITY PREDICTED BY RF-SCORE:    0.00 PKD
ROOT
HETATM    1  C   UNL     1      -5.436  12.708  70.331  1.00  0.00    -0.154 C  
HETATM    2  C   UNL     1      -6.279  13.898  69.885  1.00  0.00    -0.136 C  
ENDROOT
BRANCH   2   3
HETATM    3  N   UNL     1      -6.640  13.868  68.449  1.00  0.00    -0.092 NA 
BRANCH   3   4
HETATM    4  C   UNL     1      -6.063  14.988  67.685  1.00  0.00    -0.086 C  
HETATM    5  C   UNL     1      -7.047  15.995  67.090  1.00  0.00    -0.248 C  
ENDBRANCH   3   4
BRANCH   3   6
HETATM    6  C   UNL     1      -6.312  12.562  67.824  1.00  0.00    -0.121 C  
BRANCH   6   7
HETATM    7  C   UNL     1      -7.505  11.934  67.130  1.00  0.00    -0.146 A  
HETATM    8  C   UNL     1      -7.397  10.779  66.347  1.00  0.00    -0.142 A  
HETATM    9  C   UNL     1      -8.438  10.382  65.524  1.00  0.00    -0.171 A  
HETATM   10  O   UNL     1      -6.235  10.063  66.276  1.00  0.00    -0.064 OA 
HETATM   11  C   UNL     1      -9.607  11.148  65.471  1.00  0.00    -0.263 A  
HETATM   12  H   UNL     1      -6.162   9.279  65.745  1.00  0.00     0.000 HD 
HETATM   13  C   UNL     1      -9.782  12.268  66.298  1.00  0.00    -0.244 A  
HETATM   14  C   UNL     1      -8.736  12.613  67.162  1.00  0.00    -0.201 A  
BRANCH  13  15
HETATM   15  N   UNL     1     -10.965  13.047  66.351  1.00  0.00    -0.278 NA 
HETATM   16  H   UNL     1     -11.634  12.905  65.594  1.00  0.00     0.000 HD 
BRANCH  15  17
HETATM   17  C   UNL     1     -11.327  14.006  67.343  1.00  0.00    -0.329 A  
HETATM   18  C   UNL     1     -11.064  15.388  67.196  1.00  0.00    -0.291 A  
HETATM   19  C   UNL     1     -10.706  15.980  65.963  1.00  0.00    -0.271 A  
HETATM   20  C   UNL     1     -10.301  17.307  65.897  1.00  0.00    -0.287 A  
HETATM   21  C   UNL     1     -10.270  18.057  67.063  1.00  0.00    -0.362 A  
HETATM   22 CL   UNL     1      -9.657  19.663  67.023  1.00  0.00    -0.428 Cl 
HETATM   23  C   UNL     1     -10.717  17.511  68.265  1.00  0.00    -0.309 A  
HETATM   24  C   UNL     1     -11.154  16.198  68.345  1.00  0.00    -0.359 A  
HETATM   25  N   UNL     1     -11.610  15.733  69.520  1.00  0.00    -0.347 NA 
HETATM   26  C   UNL     1     -11.977  14.436  69.595  1.00  0.00    -0.336 A  
HETATM   27  C   UNL     1     -11.827  13.537  68.560  1.00  0.00    -0.398 A  
ENDBRANCH  15  17
ENDBRANCH  13  15
ENDBRANCH   6   7
ENDBRANCH   3   6
ENDBRANCH   2   3
TORSDOF 6
ENDMDL
MODEL      147
REMARK 921   NORMALIZED FREE ENERGY PREDICTED BY IDOCK:   -4.77 KCAL/MOL
REMARK 922        TOTAL FREE ENERGY PREDICTED BY IDOCK:   -7.46 KCAL/MOL
REMARK 923 INTER-LIGAND FREE ENERGY PREDICTED BY IDOCK:   -6.29 KCAL/MOL
REMARK 924 INTRA-LIGAND FREE ENERGY PREDICTED BY IDOCK:   -1.17 KCAL/MOL
REMARK 927      BINDING AFFINITY PREDICTED BY RF-SCORE:    0.00 PKD
ROOT
HETATM    1  C   UNL     1     -11.622   6.875  71.018  1.00  0.00    -0.374 C  
HETATM    2  C   UNL     1     -11.423   8.223  71.702  1.00  0.00    -0.278 C  
ENDROOT
BRANCH   2   3
HETATM    3  N   UNL     1     -10.031   8.724  71.639  1.00  0.00    -0.283 NA 
BRANCH   3   4
HETATM    4  C   UNL     1      -9.235   8.366  72.827  1.00  0.00    -0.241 C  
HETATM    5  C   UNL     1      -8.117   7.344  72.624  1.00  0.00    -0.122 C  
ENDBRANCH   3   4
BRANCH   3   6
HETATM    6  C   UNL     1      -9.350   8.308  70.387  1.00  0.00    -0.159 C  
BRANCH   6   7
HETATM    7  C   UNL     1      -8.877   9.489  69.564  1.00  0.00    -0.185 A  
HETATM    8  C   UNL     1      -7.537   9.895  69.531  1.00  0.00    -0.125 A  
HETATM    9  C   UNL     1      -7.181  11.117  68.986  1.00  0.00    -0.118 A  
HETATM   10  O   UNL     1      -6.549   9.163  70.127  1.00  0.00    -0.041 OA 
HETATM   11  C   UNL     1      -8.172  11.957  68.468  1.00  0.00    -0.126 A  
HETATM   12  H   UNL     1      -5.640   9.438  70.106  1.00  0.00     0.000 HD 
HETATM   13  C   UNL     1      -9.513  11.553  68.412  1.00  0.00    -0.195 A  
HETATM   14  C   UNL     1      -9.837  10.288  68.918  1.00  0.00    -0.200 A  
BRANCH  13  15
HETATM   15  N   UNL     1     -10.558  12.320  67.836  1.00  0.00    -0.206 NA 
HETATM   16  H   UNL     1     -10.937  11.976  66.953  1.00  0.00     0.000 HD 
BRANCH  15  17
HETATM   17  C   UNL     1     -11.139  13.517  68.351  1.00  0.00    -0.271 A  
HETATM   18  C   UNL     1     -10.935  14.781  67.750  1.00  0.00    -0.294 A  
HETATM   19  C   UNL     1     -10.406  14.941  66.449  1.00  0.00    -0.291 A  
HETATM   20  C   UNL     1     -10.074  16.200  65.963  1.00  0.00    -0.372 A  
HETATM   21  C   UNL     1     -10.286  17.307  66.769  1.00  0.00    -0.308 A  
HETATM   22 CL   UNL     1      -9.770  18.858  66.234  1.00  0.00    -0.378 Cl 
HETATM   23  C   UNL     1     -10.900  17.169  68.013  1.00  0.00    -0.317 A  
HETATM   24  C   UNL     1     -11.267  15.924  68.502  1.00  0.00    -0.362 A  
HETATM   25  N   UNL     1     -11.890  15.850  69.691  1.00  0.00    -0.321 NA 
HETATM   26  C   UNL     1     -12.188  14.627  70.179  1.00  0.00    -0.335 A  
HETATM   27  C   UNL     1     -11.812  13.448  69.574  1.00  0.00    -0.391 A  
ENDBRANCH  15  17
ENDBRANCH  13  15
ENDBRANCH   6   7
ENDBRANCH   3   6
ENDBRANCH   2   3
TORSDOF 6
ENDMDL
MODEL      148
REMARK 921   NORMALIZED FREE ENERGY PREDICTED BY IDOCK:   -4.76 KCAL/MOL
REMARK 922        TOTAL FREE ENERGY PREDICTED BY IDOCK:   -7.44 KCAL/MOL
REMARK 923 INTER-LIGAND FREE ENERGY PREDICTED BY IDOCK:   -6.60 KCAL/MOL
REMARK 924 INTRA-LIGAND FREE ENERGY PREDICTED BY IDOCK:   -0.84 KCAL/MOL
REMARK 927      BINDING AFFINITY PREDICTED BY RF-SCORE:    0.00 PKD
ROOT
HETATM    1  C   UNL     1      -9.247   7.265  65.765  1.00  0.00     0.076 C  
HETATM    2  C   UNL     1      -8.080   7.787  64.932  1.00  0.00    -0.136 C  
ENDROOT
BRANCH   2   3
HETATM    3  N   UNL     1      -8.011   9.265  64.864  1.00  0.00    -0.115 NA 
BRANCH   3   4
HETATM    4  C   UNL     1      -7.041   9.752  63.866  1.00  0.00    -0.122 C  
HETATM    5  C   UNL     1      -7.581  10.046  62.467  1.00  0.00    -0.133 C  
ENDBRANCH   3   4
BRANCH   3   6
HETATM    6  C   UNL     1      -9.350   9.872  64.656  1.00  0.00    -0.277 C  
BRANCH   6   7
HETATM    7  C   UNL     1      -9.726  10.840  65.760  1.00  0.00    -0.278 A  
HETATM    8  C   UNL     1      -9.969  12.197  65.519  1.00  0.00    -0.246 A  
HETATM    9  C   UNL     1     -10.053  13.098  66.568  1.00  0.00    -0.280 A  
HETATM   10  O   UNL     1     -10.021  12.706  64.252  1.00  0.00    -0.551 OA 
HETATM   11  C   UNL     1      -9.888  12.646  67.881  1.00  0.00    -0.218 A  
HETATM   12  H   UNL     1     -10.185  13.627  64.088  1.00  0.00     0.000 HD 
HETATM   13  C   UNL     1      -9.721  11.283  68.167  1.00  0.00    -0.185 A  
HETATM   14  C   UNL     1      -9.697  10.387  67.091  1.00  0.00    -0.206 A  
BRANCH  13  15
HETATM   15  N   UNL     1      -9.621  10.745  69.475  1.00  0.00    -0.429 NA 
HETATM   16  H   UNL     1      -8.679  10.656  69.856  1.00  0.00     0.000 HD 
BRANCH  15  17
HETATM   17  C   UNL     1     -10.688  10.315  70.318  1.00  0.00    -0.250 A  
HETATM   18  C   UNL     1     -10.530   9.293  71.283  1.00  0.00    -0.408 A  
HETATM   19  C   UNL     1      -9.267   8.821  71.710  1.00  0.00    -0.332 A  
HETATM   20  C   UNL     1      -9.161   7.710  72.536  1.00  0.00    -0.208 A  
HETATM   21  C   UNL     1     -10.319   7.075  72.957  1.00  0.00    -0.260 A  
HETATM   22 CL   UNL     1     -10.206   5.628  73.880  1.00  0.00    -0.230 Cl 
HETATM   23  C   UNL     1     -11.570   7.592  72.624  1.00  0.00    -0.371 A  
HETATM   24  C   UNL     1     -11.696   8.719  71.826  1.00  0.00    -0.346 A  
HETATM   25  N   UNL     1     -12.924   9.199  71.566  1.00  0.00    -0.337 NA 
HETATM   26  C   UNL     1     -13.032  10.260  70.739  1.00  0.00    -0.330 A  
HETATM   27  C   UNL     1     -11.965  10.826  70.075  1.00  0.00    -0.427 A  
ENDBRANCH  15  17
ENDBRANCH  13  15
ENDBRANCH   6   7
ENDBRANCH   3   6
ENDBRANCH   2   3
TORSDOF 6
ENDMDL
MODEL      149
REMARK 921   NORMALIZED FREE ENERGY PREDICTED BY IDOCK:   -4.75 KCAL/MOL
REMARK 922        TOTAL FREE ENERGY PREDICTED BY IDOCK:   -7.43 KCAL/MOL
REMARK 923 INTER-LIGAND FREE ENERGY PREDICTED BY IDOCK:   -6.46 KCAL/MOL
REMARK 924 INTRA-LIGAND FREE ENERGY PREDICTED BY IDOCK:   -0.97 KCAL/MOL
REMARK 927      BINDING AFFINITY PREDICTED BY RF-SCORE:    0.00 PKD
ROOT
HETATM    1  C   UNL     1      -5.908   9.337  71.548  1.00  0.00    -0.074 C  
HETATM    2  C   UNL     1      -6.740  10.288  70.693  1.00  0.00     0.003 C  
ENDROOT
BRANCH   2   3
HETATM    3  N   UNL     1      -7.787   9.610  69.895  1.00  0.00    -0.133 NA 
BRANCH   3   4
HETATM    4  C   UNL     1      -7.452   9.518  68.462  1.00  0.00    -0.080 C  
HETATM    5  C   UNL     1      -6.893  10.779  67.804  1.00  0.00    -0.073 C  
ENDBRANCH   3   4
BRANCH   3   6
HETATM    6  C   UNL     1      -8.133   8.279  70.455  1.00  0.00    -0.105 C  
BRANCH   6   7
HETATM    7  C   UNL     1      -9.602   8.164  70.812  1.00  0.00    -0.185 A  
HETATM    8  C   UNL     1     -10.150   7.006  71.378  1.00  0.00    -0.189 A  
HETATM    9  C   UNL     1     -11.522   6.836  71.451  1.00  0.00    -0.336 A  
HETATM   10  O   UNL     1      -9.367   5.959  71.775  1.00  0.00    -0.149 OA 
HETATM   11  C   UNL     1     -12.369   7.830  70.949  1.00  0.00    -0.124 A  
HETATM   12  H   UNL     1      -9.738   5.174  72.159  1.00  0.00     0.000 HD 
HETATM   13  C   UNL     1     -11.859   9.035  70.446  1.00  0.00     0.011 A  
HETATM   14  C   UNL     1     -10.469   9.205  70.437  1.00  0.00    -0.268 A  
BRANCH  13  15
HETATM   15  N   UNL     1     -12.658  10.114  69.989  1.00  0.00    -0.533 NA 
HETATM   16  H   UNL     1     -13.647   9.912  69.839  1.00  0.00     0.000 HD 
BRANCH  15  17
HETATM   17  C   UNL     1     -12.236  11.449  69.715  1.00  0.00    -0.265 A  
HETATM   18  C   UNL     1     -12.501  12.526  70.593  1.00  0.00    -0.323 A  
HETATM   19  C   UNL     1     -12.927  12.346  71.929  1.00  0.00    -0.407 A  
HETATM   20  C   UNL     1     -13.330  13.428  72.702  1.00  0.00    -0.501 A  
HETATM   21  C   UNL     1     -13.290  14.699  72.150  1.00  0.00    -0.375 A  
HETATM   22 CL   UNL     1     -13.898  16.034  73.047  1.00  0.00    -0.573 Cl 
HETATM   23  C   UNL     1     -12.777  14.896  70.869  1.00  0.00    -0.420 A  
HETATM   24  C   UNL     1     -12.341  13.833  70.094  1.00  0.00    -0.323 A  
HETATM   25  N   UNL     1     -11.819  14.081  68.880  1.00  0.00    -0.336 NA 
HETATM   26  C   UNL     1     -11.455  13.031  68.115  1.00  0.00    -0.319 A  
HETATM   27  C   UNL     1     -11.668  11.716  68.467  1.00  0.00    -0.378 A  
ENDBRANCH  15  17
ENDBRANCH  13  15
ENDBRANCH   6   7
ENDBRANCH   3   6
ENDBRANCH   2   3
TORSDOF 6
ENDMDL
MODEL      150
REMARK 921   NORMALIZED FREE ENERGY PREDICTED BY IDOCK:   -4.75 KCAL/MOL
REMARK 922        TOTAL FREE ENERGY PREDICTED BY IDOCK:   -7.42 KCAL/MOL
REMARK 923 INTER-LIGAND FREE ENERGY PREDICTED BY IDOCK:   -6.14 KCAL/MOL
REMARK 924 INTRA-LIGAND FREE ENERGY PREDICTED BY IDOCK:   -1.28 KCAL/MOL
REMARK 927      BINDING AFFINITY PREDICTED BY RF-SCORE:    0.00 PKD
ROOT
HETATM    1  C   UNL     1     -13.131   6.792  71.655  1.00  0.00    -0.258 C  
HETATM    2  C   UNL     1     -13.552   8.218  71.314  1.00  0.00    -0.124 C  
ENDROOT
BRANCH   2   3
HETATM    3  N   UNL     1     -12.486   9.223  71.533  1.00  0.00    -0.336 NA 
BRANCH   3   4
HETATM    4  C   UNL     1     -13.011  10.585  71.736  1.00  0.00    -0.476 C  
HETATM    5  C   UNL     1     -12.414  11.690  70.864  1.00  0.00    -0.440 C  
ENDBRANCH   3   4
BRANCH   3   6
HETATM    6  C   UNL     1     -11.571   8.826  72.633  1.00  0.00     0.024 C  
BRANCH   6   7
HETATM    7  C   UNL     1     -10.142   8.647  72.163  1.00  0.00    -0.388 A  
HETATM    8  C   UNL     1      -9.165   8.020  72.946  1.00  0.00    -0.265 A  
HETATM    9  C   UNL     1      -7.825   8.102  72.605  1.00  0.00    -0.190 A  
HETATM   10  O   UNL     1      -9.474   7.403  74.125  1.00  0.00    -0.360 OA 
HETATM   11  C   UNL     1      -7.444   8.823  71.469  1.00  0.00    -0.116 A  
HETATM   12  H   UNL     1      -8.812   6.978  74.657  1.00  0.00     0.000 HD 
HETATM   13  C   UNL     1      -8.399   9.399  70.618  1.00  0.00    -0.175 A  
HETATM   14  C   UNL     1      -9.750   9.252  70.955  1.00  0.00    -0.341 A  
BRANCH  13  15
HETATM   15  N   UNL     1      -8.090  10.080  69.413  1.00  0.00    -0.134 NA 
HETATM   16  H   UNL     1      -7.276  10.694  69.437  1.00  0.00     0.000 HD 
BRANCH  15  17
HETATM   17  C   UNL     1      -8.790  10.005  68.172  1.00  0.00    -0.122 A  
HETATM   18  C   UNL     1      -9.548  11.083  67.659  1.00  0.00    -0.181 A  
HETATM   19  C   UNL     1      -9.445  12.404  68.153  1.00  0.00    -0.214 A  
HETATM   20  C   UNL     1     -10.322  13.395  67.731  1.00  0.00    -0.241 A  
HETATM   21  C   UNL     1     -11.295  13.076  66.796  1.00  0.00    -0.324 A  
HETATM   22 CL   UNL     1     -12.465  14.255  66.352  1.00  0.00    -0.402 Cl 
HETATM   23  C   UNL     1     -11.339  11.803  66.229  1.00  0.00    -0.350 A  
HETATM   24  C   UNL     1     -10.453  10.809  66.616  1.00  0.00    -0.246 A  
HETATM   25  N   UNL     1     -10.514   9.611  66.010  1.00  0.00    -0.085 NA 
HETATM   26  C   UNL     1      -9.684   8.636  66.438  1.00  0.00    -0.263 A  
HETATM   27  C   UNL     1      -8.838   8.770  67.519  1.00  0.00    -0.139 A  
ENDBRANCH  15  17
ENDBRANCH  13  15
ENDBRANCH   6   7
ENDBRANCH   3   6
ENDBRANCH   2   3
TORSDOF 6
ENDMDL
MODEL      151
REMARK 921   NORMALIZED FREE ENERGY PREDICTED BY IDOCK:   -4.72 KCAL/MOL
REMARK 922        TOTAL FREE ENERGY PREDICTED BY IDOCK:   -7.39 KCAL/MOL
REMARK 923 INTER-LIGAND FREE ENERGY PREDICTED BY IDOCK:   -6.25 KCAL/MOL
REMARK 924 INTRA-LIGAND FREE ENERGY PREDICTED BY IDOCK:   -1.14 KCAL/MOL
REMARK 927      BINDING AFFINITY PREDICTED BY RF-SCORE:    0.00 PKD
ROOT
HETATM    1  C   UNL     1     -10.950   8.230  71.961  1.00  0.00    -0.374 C  
HETATM    2  C   UNL     1     -11.532   7.582  70.709  1.00  0.00    -0.284 C  
ENDROOT
BRANCH   2   3
HETATM    3  N   UNL     1     -10.538   6.831  69.909  1.00  0.00    -0.211 NA 
BRANCH   3   4
HETATM    4  C   UNL     1      -9.774   5.855  70.707  1.00  0.00    -0.172 C  
HETATM    5  C   UNL     1      -8.254   5.878  70.550  1.00  0.00    -0.119 C  
ENDBRANCH   3   4
BRANCH   3   6
HETATM    6  C   UNL     1     -11.156   6.192  68.720  1.00  0.00    -0.319 C  
BRANCH   6   7
HETATM    7  C   UNL     1     -10.308   6.347  67.472  1.00  0.00    -0.245 A  
HETATM    8  C   UNL     1      -9.833   5.248  66.745  1.00  0.00    -0.176 A  
HETATM    9  C   UNL     1      -8.859   5.411  65.774  1.00  0.00    -0.151 A  
HETATM   10  O   UNL     1     -10.223   3.971  67.033  1.00  0.00    -0.233 OA 
HETATM   11  C   UNL     1      -8.340   6.685  65.523  1.00  0.00    -0.144 A  
HETATM   12  H   UNL     1      -9.901   3.226  66.540  1.00  0.00     0.000 HD 
HETATM   13  C   UNL     1      -8.845   7.819  66.176  1.00  0.00    -0.162 A  
HETATM   14  C   UNL     1      -9.871   7.633  67.111  1.00  0.00    -0.265 A  
BRANCH  13  15
HETATM   15  N   UNL     1      -8.420   9.147  65.919  1.00  0.00    -0.135 NA 
HETATM   16  H   UNL     1      -7.747   9.541  66.578  1.00  0.00     0.000 HD 
BRANCH  15  17
HETATM   17  C   UNL     1      -8.824   9.993  64.845  1.00  0.00    -0.192 A  
HETATM   18  C   UNL     1      -9.747  11.052  65.017  1.00  0.00    -0.303 A  
HETATM   19  C   UNL     1     -10.115  11.558  66.284  1.00  0.00    -0.261 A  
HETATM   20  C   UNL     1     -11.141  12.485  66.413  1.00  0.00    -0.332 A  
HETATM   21  C   UNL     1     -11.792  12.928  65.272  1.00  0.00    -0.392 A  
HETATM   22 CL   UNL     1     -13.143  13.982  65.420  1.00  0.00    -0.377 Cl 
HETATM   23  C   UNL     1     -11.368  12.512  64.011  1.00  0.00    -0.467 A  
HETATM   24  C   UNL     1     -10.326  11.610  63.860  1.00  0.00    -0.369 A  
HETATM   25  N   UNL     1      -9.931  11.271  62.621  1.00  0.00    -0.126 NA 
HETATM   26  C   UNL     1      -8.955  10.347  62.492  1.00  0.00    -0.270 A  
HETATM   27  C   UNL     1      -8.400   9.667  63.554  1.00  0.00    -0.172 A  
ENDBRANCH  15  17
ENDBRANCH  13  15
ENDBRANCH   6   7
ENDBRANCH   3   6
ENDBRANCH   2   3
TORSDOF 6
ENDMDL
MODEL      152
REMARK 921   NORMALIZED FREE ENERGY PREDICTED BY IDOCK:   -4.71 KCAL/MOL
REMARK 922        TOTAL FREE ENERGY PREDICTED BY IDOCK:   -7.38 KCAL/MOL
REMARK 923 INTER-LIGAND FREE ENERGY PREDICTED BY IDOCK:   -6.33 KCAL/MOL
REMARK 924 INTRA-LIGAND FREE ENERGY PREDICTED BY IDOCK:   -1.05 KCAL/MOL
REMARK 927      BINDING AFFINITY PREDICTED BY RF-SCORE:    0.00 PKD
ROOT
HETATM    1  C   UNL     1     -11.771  15.722  69.669  1.00  0.00    -0.363 C  
HETATM    2  C   UNL     1     -10.390  16.175  69.206  1.00  0.00    -0.265 C  
ENDROOT
BRANCH   2   3
HETATM    3  N   UNL     1     -10.209  16.128  67.737  1.00  0.00    -0.261 NA 
BRANCH   3   4
HETATM    4  C   UNL     1      -9.981  17.457  67.141  1.00  0.00    -0.291 C  
HETATM    5  C   UNL     1     -10.381  18.668  67.985  1.00  0.00    -0.421 C  
ENDBRANCH   3   4
BRANCH   3   6
HETATM    6  C   UNL     1      -9.146  15.170  67.342  1.00  0.00    -0.191 C  
BRANCH   6   7
HETATM    7  C   UNL     1      -9.709  13.874  66.792  1.00  0.00    -0.282 A  
HETATM    8  C   UNL     1     -10.976  13.796  66.201  1.00  0.00    -0.292 A  
HETATM    9  C   UNL     1     -11.563  12.567  65.947  1.00  0.00    -0.454 A  
HETATM   10  O   UNL     1     -11.726  14.911  65.955  1.00  0.00    -0.295 OA 
HETATM   11  C   UNL     1     -10.884  11.393  66.289  1.00  0.00    -0.318 A  
HETATM   12  H   UNL     1     -12.586  14.858  65.555  1.00  0.00     0.000 HD 
HETATM   13  C   UNL     1      -9.582  11.431  66.810  1.00  0.00    -0.188 A  
HETATM   14  C   UNL     1      -8.990  12.685  67.004  1.00  0.00    -0.216 A  
BRANCH  13  15
HETATM   15  N   UNL     1      -8.807  10.282  67.112  1.00  0.00    -0.136 NA 
HETATM   16  H   UNL     1      -8.616   9.649  66.334  1.00  0.00     0.000 HD 
BRANCH  15  17
HETATM   17  C   UNL     1      -8.265   9.911  68.378  1.00  0.00    -0.106 A  
HETATM   18  C   UNL     1      -9.049   9.329  69.400  1.00  0.00    -0.152 A  
HETATM   19  C   UNL     1     -10.337   8.790  69.175  1.00  0.00    -0.227 A  
HETATM   20  C   UNL     1     -11.134   8.376  70.234  1.00  0.00    -0.216 A  
HETATM   21  C   UNL     1     -10.640   8.480  71.525  1.00  0.00    -0.263 A  
HETATM   22 CL   UNL     1     -11.656   8.087  72.856  1.00  0.00    -0.397 Cl 
HETATM   23  C   UNL     1      -9.335   8.915  71.749  1.00  0.00    -0.304 A  
HETATM   24  C   UNL     1      -8.513   9.303  70.703  1.00  0.00    -0.217 A  
HETATM   25  N   UNL     1      -7.251   9.678  70.970  1.00  0.00    -0.331 NA 
HETATM   26  C   UNL     1      -6.483  10.110  69.947  1.00  0.00    -0.086 A  
HETATM   27  C   UNL     1      -6.944  10.272  68.658  1.00  0.00    -0.066 A  
ENDBRANCH  15  17
ENDBRANCH  13  15
ENDBRANCH   6   7
ENDBRANCH   3   6
ENDBRANCH   2   3
TORSDOF 6
ENDMDL
MODEL      153
REMARK 921   NORMALIZED FREE ENERGY PREDICTED BY IDOCK:   -4.71 KCAL/MOL
REMARK 922        TOTAL FREE ENERGY PREDICTED BY IDOCK:   -7.38 KCAL/MOL
REMARK 923 INTER-LIGAND FREE ENERGY PREDICTED BY IDOCK:   -6.19 KCAL/MOL
REMARK 924 INTRA-LIGAND FREE ENERGY PREDICTED BY IDOCK:   -1.19 KCAL/MOL
REMARK 927      BINDING AFFINITY PREDICTED BY RF-SCORE:    0.00 PKD
ROOT
HETATM    1  C   UNL     1     -10.107   6.603  69.721  1.00  0.00    -0.204 C  
HETATM    2  C   UNL     1     -10.262   7.988  69.102  1.00  0.00    -0.217 C  
ENDROOT
BRANCH   2   3
HETATM    3  N   UNL     1      -9.738   9.083  69.950  1.00  0.00    -0.176 NA 
BRANCH   3   4
HETATM    4  C   UNL     1     -10.562   9.330  71.147  1.00  0.00    -0.332 C  
HETATM    5  C   UNL     1     -11.972   9.871  70.913  1.00  0.00    -0.434 C  
ENDBRANCH   3   4
BRANCH   3   6
HETATM    6  C   UNL     1      -8.314   8.870  70.309  1.00  0.00    -0.147 C  
BRANCH   6   7
HETATM    7  C   UNL     1      -7.428  10.021  69.876  1.00  0.00    -0.171 A  
HETATM    8  C   UNL     1      -6.203  10.301  70.495  1.00  0.00    -0.116 A  
HETATM    9  C   UNL     1      -5.548  11.498  70.255  1.00  0.00    -0.135 A  
HETATM   10  O   UNL     1      -5.664   9.469  71.434  1.00  0.00    -0.068 OA 
HETATM   11  C   UNL     1      -6.119  12.437  69.390  1.00  0.00    -0.108 A  
HETATM   12  H   UNL     1      -4.833   9.659  71.854  1.00  0.00     0.000 HD 
HETATM   13  C   UNL     1      -7.303  12.159  68.693  1.00  0.00    -0.109 A  
HETATM   14  C   UNL     1      -7.915  10.919  68.910  1.00  0.00    -0.146 A  
BRANCH  13  15
HETATM   15  N   UNL     1      -7.900  13.032  67.748  1.00  0.00    -0.142 NA 
HETATM   16  H   UNL     1      -7.283  13.404  67.025  1.00  0.00     0.000 HD 
BRANCH  15  17
HETATM   17  C   UNL     1      -9.263  13.449  67.694  1.00  0.00    -0.212 A  
HETATM   18  C   UNL     1     -10.172  12.953  66.730  1.00  0.00    -0.243 A  
HETATM   19  C   UNL     1      -9.915  11.806  65.944  1.00  0.00    -0.266 A  
HETATM   20  C   UNL     1     -10.762  11.450  64.901  1.00  0.00    -0.350 A  
HETATM   21  C   UNL     1     -11.882  12.228  64.652  1.00  0.00    -0.367 A  
HETATM   22 CL   UNL     1     -12.874  11.876  63.292  1.00  0.00    -0.542 Cl 
HETATM   23  C   UNL     1     -12.196  13.301  65.485  1.00  0.00    -0.506 A  
HETATM   24  C   UNL     1     -11.380  13.653  66.549  1.00  0.00    -0.319 A  
HETATM   25  N   UNL     1     -11.750  14.672  67.344  1.00  0.00    -0.392 NA 
HETATM   26  C   UNL     1     -10.915  15.039  68.339  1.00  0.00    -0.264 A  
HETATM   27  C   UNL     1      -9.666  14.490  68.534  1.00  0.00    -0.224 A  
ENDBRANCH  15  17
ENDBRANCH  13  15
ENDBRANCH   6   7
ENDBRANCH   3   6
ENDBRANCH   2   3
TORSDOF 6
ENDMDL
MODEL      154
REMARK 921   NORMALIZED FREE ENERGY PREDICTED BY IDOCK:   -4.70 KCAL/MOL
REMARK 922        TOTAL FREE ENERGY PREDICTED BY IDOCK:   -7.36 KCAL/MOL
REMARK 923 INTER-LIGAND FREE ENERGY PREDICTED BY IDOCK:   -6.74 KCAL/MOL
REMARK 924 INTRA-LIGAND FREE ENERGY PREDICTED BY IDOCK:   -0.62 KCAL/MOL
REMARK 927      BINDING AFFINITY PREDICTED BY RF-SCORE:    0.00 PKD
ROOT
HETATM    1  C   UNL     1      -8.384  14.533  68.228  1.00  0.00    -0.152 C  
HETATM    2  C   UNL     1      -9.504  14.781  67.223  1.00  0.00    -0.214 C  
ENDROOT
BRANCH   2   3
HETATM    3  N   UNL     1      -9.947  13.560  66.511  1.00  0.00    -0.280 NA 
BRANCH   3   4
HETATM    4  C   UNL     1      -9.242  12.345  66.957  1.00  0.00    -0.208 C  
HETATM    5  C   UNL     1      -9.016  11.256  65.908  1.00  0.00    -0.206 C  
ENDBRANCH   3   4
BRANCH   3   6
HETATM    6  C   UNL     1     -11.420  13.386  66.577  1.00  0.00    -0.341 C  
BRANCH   6   7
HETATM    7  C   UNL     1     -11.899  13.024  67.969  1.00  0.00    -0.391 A  
HETATM    8  C   UNL     1     -12.120  13.986  68.962  1.00  0.00    -0.323 A  
HETATM    9  C   UNL     1     -12.304  13.610  70.283  1.00  0.00    -0.392 A  
HETATM   10  O   UNL     1     -12.054  15.325  68.695  1.00  0.00    -0.553 OA 
HETATM   11  C   UNL     1     -12.262  12.255  70.627  1.00  0.00    -0.378 A  
HETATM   12  H   UNL     1     -12.204  15.977  69.369  1.00  0.00     0.000 HD 
HETATM   13  C   UNL     1     -12.121  11.259  69.650  1.00  0.00    -0.322 A  
HETATM   14  C   UNL     1     -11.995  11.665  68.316  1.00  0.00    -0.236 A  
BRANCH  13  15
HETATM   15  N   UNL     1     -12.143   9.867  69.917  1.00  0.00    -0.470 NA 
HETATM   16  H   UNL     1     -13.055   9.411  69.865  1.00  0.00     0.000 HD 
BRANCH  15  17
HETATM   17  C   UNL     1     -11.036   9.031  70.249  1.00  0.00    -0.244 A  
HETATM   18  C   UNL     1     -10.402   8.196  69.300  1.00  0.00    -0.222 A  
HETATM   19  C   UNL     1     -10.594   8.326  67.905  1.00  0.00    -0.212 A  
HETATM   20  C   UNL     1     -10.080   7.385  67.022  1.00  0.00    -0.328 A  
HETATM   21  C   UNL     1      -9.353   6.318  67.527  1.00  0.00    -0.113 A  
HETATM   22 CL   UNL     1      -8.812   5.080  66.464  1.00  0.00    -0.112 Cl 
HETATM   23  C   UNL     1      -9.073   6.237  68.890  1.00  0.00    -0.124 A  
HETATM   24  C   UNL     1      -9.551   7.183  69.784  1.00  0.00    -0.155 A  
HETATM   25  N   UNL     1      -9.220   7.079  71.082  1.00  0.00    -0.157 NA 
HETATM   26  C   UNL     1      -9.742   7.974  71.948  1.00  0.00    -0.190 A  
HETATM   27  C   UNL     1     -10.665   8.934  71.592  1.00  0.00    -0.418 A  
ENDBRANCH  15  17
ENDBRANCH  13  15
ENDBRANCH   6   7
ENDBRANCH   3   6
ENDBRANCH   2   3
TORSDOF 6
ENDMDL
MODEL      155
REMARK 921   NORMALIZED FREE ENERGY PREDICTED BY IDOCK:   -4.69 KCAL/MOL
REMARK 922        TOTAL FREE ENERGY PREDICTED BY IDOCK:   -7.35 KCAL/MOL
REMARK 923 INTER-LIGAND FREE ENERGY PREDICTED BY IDOCK:   -6.35 KCAL/MOL
REMARK 924 INTRA-LIGAND FREE ENERGY PREDICTED BY IDOCK:   -1.00 KCAL/MOL
REMARK 927      BINDING AFFINITY PREDICTED BY RF-SCORE:    0.00 PKD
ROOT
HETATM    1  C   UNL     1      -8.601   5.681  67.903  1.00  0.00    -0.101 C  
HETATM    2  C   UNL     1      -8.423   5.735  69.417  1.00  0.00    -0.112 C  
ENDROOT
BRANCH   2   3
HETATM    3  N   UNL     1      -9.650   6.125  70.147  1.00  0.00    -0.161 NA 
BRANCH   3   4
HETATM    4  C   UNL     1     -10.367   4.974  70.726  1.00  0.00    -0.195 C  
HETATM    5  C   UNL     1      -9.819   4.410  72.037  1.00  0.00    -0.240 C  
ENDBRANCH   3   4
BRANCH   3   6
HETATM    6  C   UNL     1      -9.377   7.162  71.174  1.00  0.00    -0.157 C  
BRANCH   6   7
HETATM    7  C   UNL     1     -10.078   8.472  70.875  1.00  0.00    -0.246 A  
HETATM    8  C   UNL     1     -11.175   8.924  71.619  1.00  0.00    -0.345 A  
HETATM    9  C   UNL     1     -11.949   9.981  71.167  1.00  0.00    -0.484 A  
HETATM   10  O   UNL     1     -11.594   8.280  72.749  1.00  0.00    -0.395 OA 
HETATM   11  C   UNL     1     -11.632  10.599  69.953  1.00  0.00    -0.396 A  
HETATM   12  H   UNL     1     -12.338   8.586  73.253  1.00  0.00     0.000 HD 
HETATM   13  C   UNL     1     -10.496  10.226  69.221  1.00  0.00    -0.228 A  
HETATM   14  C   UNL     1      -9.699   9.193  69.729  1.00  0.00    -0.191 A  
BRANCH  13  15
HETATM   15  N   UNL     1     -10.074  10.856  68.023  1.00  0.00    -0.173 NA 
HETATM   16  H   UNL     1     -10.141  10.299  67.171  1.00  0.00     0.000 HD 
BRANCH  15  17
HETATM   17  C   UNL     1      -9.565  12.181  67.874  1.00  0.00    -0.198 A  
HETATM   18  C   UNL     1     -10.214  13.160  67.085  1.00  0.00    -0.244 A  
HETATM   19  C   UNL     1     -11.545  13.026  66.627  1.00  0.00    -0.410 A  
HETATM   20  C   UNL     1     -12.085  13.934  65.725  1.00  0.00    -0.449 A  
HETATM   21  C   UNL     1     -11.302  14.992  65.289  1.00  0.00    -0.349 A  
HETATM   22 CL   UNL     1     -11.909  16.055  64.081  1.00  0.00    -0.155 Cl 
HETATM   23  C   UNL     1     -10.025  15.188  65.812  1.00  0.00    -0.375 A  
HETATM   24  C   UNL     1      -9.481  14.311  66.737  1.00  0.00    -0.275 A  
HETATM   25  N   UNL     1      -8.260  14.567  67.238  1.00  0.00    -0.204 NA 
HETATM   26  C   UNL     1      -7.720  13.672  68.092  1.00  0.00    -0.138 A  
HETATM   27  C   UNL     1      -8.309  12.468  68.413  1.00  0.00    -0.132 A  
ENDBRANCH  15  17
ENDBRANCH  13  15
ENDBRANCH   6   7
ENDBRANCH   3   6
ENDBRANCH   2   3
TORSDOF 6
ENDMDL
MODEL      156
REMARK 921   NORMALIZED FREE ENERGY PREDICTED BY IDOCK:   -4.68 KCAL/MOL
REMARK 922        TOTAL FREE ENERGY PREDICTED BY IDOCK:   -7.33 KCAL/MOL
REMARK 923 INTER-LIGAND FREE ENERGY PREDICTED BY IDOCK:   -6.07 KCAL/MOL
REMARK 924 INTRA-LIGAND FREE ENERGY PREDICTED BY IDOCK:   -1.26 KCAL/MOL
REMARK 927      BINDING AFFINITY PREDICTED BY RF-SCORE:    0.00 PKD
ROOT
HETATM    1  C   UNL     1     -10.729  13.825  67.227  1.00  0.00    -0.286 C  
HETATM    2  C   UNL     1     -11.339  14.815  68.215  1.00  0.00    -0.301 C  
ENDROOT
BRANCH   2   3
HETATM    3  N   UNL     1     -11.308  14.350  69.620  1.00  0.00    -0.263 NA 
BRANCH   3   4
HETATM    4  C   UNL     1     -10.674  15.318  70.534  1.00  0.00    -0.216 C  
HETATM    5  C   UNL     1     -11.579  15.979  71.573  1.00  0.00    -0.529 C  
ENDBRANCH   3   4
BRANCH   3   6
HETATM    6  C   UNL     1     -12.656  13.956  70.102  1.00  0.00    -0.224 C  
BRANCH   6   7
HETATM    7  C   UNL     1     -12.724  12.495  70.502  1.00  0.00    -0.059 A  
HETATM    8  C   UNL     1     -13.274  12.075  71.719  1.00  0.00    -0.317 A  
HETATM    9  C   UNL     1     -13.090  10.777  72.167  1.00  0.00    -0.350 A  
HETATM   10  O   UNL     1     -13.912  12.943  72.560  1.00  0.00    -0.635 OA 
HETATM   11  C   UNL     1     -12.342   9.880  71.398  1.00  0.00    -0.498 A  
HETATM   12  H   UNL     1     -14.285  12.657  73.385  1.00  0.00     0.000 HD 
HETATM   13  C   UNL     1     -11.842  10.242  70.138  1.00  0.00    -0.263 A  
HETATM   14  C   UNL     1     -12.092  11.543  69.684  1.00  0.00    -0.363 A  
BRANCH  13  15
HETATM   15  N   UNL     1     -11.140   9.365  69.273  1.00  0.00    -0.427 NA 
HETATM   16  H   UNL     1     -11.677   8.591  68.881  1.00  0.00     0.000 HD 
BRANCH  15  17
HETATM   17  C   UNL     1      -9.768   9.443  68.889  1.00  0.00    -0.164 A  
HETATM   18  C   UNL     1      -8.710   9.154  69.782  1.00  0.00    -0.155 A  
HETATM   19  C   UNL     1      -8.900   8.486  71.014  1.00  0.00    -0.212 A  
HETATM   20  C   UNL     1      -7.862   8.367  71.930  1.00  0.00    -0.165 A  
HETATM   21  C   UNL     1      -6.622   8.899  71.611  1.00  0.00    -0.068 A  
HETATM   22 CL   UNL     1      -5.360   8.870  72.778  1.00  0.00    -0.065 Cl 
HETATM   23  C   UNL     1      -6.399   9.470  70.358  1.00  0.00    -0.073 A  
HETATM   24  C   UNL     1      -7.415   9.570  69.419  1.00  0.00    -0.088 A  
HETATM   25  N   UNL     1      -7.137  10.094  68.213  1.00  0.00    -0.075 NA 
HETATM   26  C   UNL     1      -8.150  10.238  67.332  1.00  0.00    -0.110 A  
HETATM   27  C   UNL     1      -9.467   9.962  67.627  1.00  0.00    -0.167 A  
ENDBRANCH  15  17
ENDBRANCH  13  15
ENDBRANCH   6   7
ENDBRANCH   3   6
ENDBRANCH   2   3
TORSDOF 6
ENDMDL
MODEL      157
REMARK 921   NORMALIZED FREE ENERGY PREDICTED BY IDOCK:   -4.66 KCAL/MOL
REMARK 922        TOTAL FREE ENERGY PREDICTED BY IDOCK:   -7.30 KCAL/MOL
REMARK 923 INTER-LIGAND FREE ENERGY PREDICTED BY IDOCK:   -6.59 KCAL/MOL
REMARK 924 INTRA-LIGAND FREE ENERGY PREDICTED BY IDOCK:   -0.72 KCAL/MOL
REMARK 927      BINDING AFFINITY PREDICTED BY RF-SCORE:    0.00 PKD
ROOT
HETATM    1  C   UNL     1     -12.319  14.089  64.965  1.00  0.00    -0.458 C  
HETATM    2  C   UNL     1     -11.014  13.647  64.311  1.00  0.00    -0.300 C  
ENDROOT
BRANCH   2   3
HETATM    3  N   UNL     1     -10.961  12.199  64.006  1.00  0.00    -0.343 NA 
BRANCH   3   4
HETATM    4  C   UNL     1      -9.695  11.789  63.372  1.00  0.00    -0.318 C  
HETATM    5  C   UNL     1      -9.668  10.407  62.718  1.00  0.00    -0.233 C  
ENDBRANCH   3   4
BRANCH   3   6
HETATM    6  C   UNL     1     -11.259  11.371  65.202  1.00  0.00    -0.076 C  
BRANCH   6   7
HETATM    7  C   UNL     1     -10.094  11.307  66.169  1.00  0.00    -0.279 A  
HETATM    8  C   UNL     1      -9.415  10.115  66.449  1.00  0.00    -0.176 A  
HETATM    9  C   UNL     1      -8.536  10.036  67.517  1.00  0.00    -0.118 A  
HETATM   10  O   UNL     1      -9.669   8.962  65.761  1.00  0.00    -0.414 OA 
HETATM   11  C   UNL     1      -8.330  11.158  68.326  1.00  0.00    -0.143 A  
HETATM   12  H   UNL     1      -9.209   8.153  65.952  1.00  0.00     0.000 HD 
HETATM   13  C   UNL     1      -8.932  12.389  68.030  1.00  0.00    -0.194 A  
HETATM   14  C   UNL     1      -9.771  12.456  66.911  1.00  0.00    -0.217 A  
BRANCH  13  15
HETATM   15  N   UNL     1      -8.711  13.584  68.761  1.00  0.00    -0.369 NA 
HETATM   16  H   UNL     1      -7.904  13.590  69.385  1.00  0.00     0.000 HD 
BRANCH  15  17
HETATM   17  C   UNL     1      -9.491  14.779  68.723  1.00  0.00    -0.206 A  
HETATM   18  C   UNL     1      -9.144  15.887  67.916  1.00  0.00    -0.190 A  
HETATM   19  C   UNL     1      -8.196  15.815  66.870  1.00  0.00    -0.288 A  
HETATM   20  C   UNL     1      -7.769  16.961  66.211  1.00  0.00    -0.332 A  
HETATM   21  C   UNL     1      -8.304  18.186  66.582  1.00  0.00    -0.263 A  
HETATM   22 CL   UNL     1      -7.702  19.627  65.864  1.00  0.00    -0.331 Cl 
HETATM   23  C   UNL     1      -9.312  18.254  67.542  1.00  0.00    -0.263 A  
HETATM   24  C   UNL     1      -9.773  17.118  68.188  1.00  0.00    -0.276 A  
HETATM   25  N   UNL     1     -10.773  17.234  69.078  1.00  0.00    -0.243 NA 
HETATM   26  C   UNL     1     -11.169  16.128  69.742  1.00  0.00    -0.343 A  
HETATM   27  C   UNL     1     -10.550  14.902  69.625  1.00  0.00    -0.213 A  
ENDBRANCH  15  17
ENDBRANCH  13  15
ENDBRANCH   6   7
ENDBRANCH   3   6
ENDBRANCH   2   3
TORSDOF 6
ENDMDL
MODEL      158
REMARK 921   NORMALIZED FREE ENERGY PREDICTED BY IDOCK:   -4.64 KCAL/MOL
REMARK 922        TOTAL FREE ENERGY PREDICTED BY IDOCK:   -7.29 KCAL/MOL
REMARK 923 INTER-LIGAND FREE ENERGY PREDICTED BY IDOCK:   -6.40 KCAL/MOL
REMARK 924 INTRA-LIGAND FREE ENERGY PREDICTED BY IDOCK:   -0.89 KCAL/MOL
REMARK 927      BINDING AFFINITY PREDICTED BY RF-SCORE:    0.00 PKD
ROOT
HETATM    1  C   UNL     1     -11.837  15.218  72.618  1.00  0.00    -0.533 C  
HETATM    2  C   UNL     1     -12.104  15.770  71.222  1.00  0.00    -0.437 C  
ENDROOT
BRANCH   2   3
HETATM    3  N   UNL     1     -11.839  14.799  70.136  1.00  0.00    -0.288 NA 
BRANCH   3   4
HETATM    4  C   UNL     1     -12.242  13.423  70.482  1.00  0.00    -0.352 C  
HETATM    5  C   UNL     1     -11.906  12.331  69.467  1.00  0.00    -0.380 C  
ENDBRANCH   3   4
BRANCH   3   6
HETATM    6  C   UNL     1     -12.441  15.231  68.849  1.00  0.00     0.181 C  
BRANCH   6   7
HETATM    7  C   UNL     1     -11.540  14.948  67.664  1.00  0.00    -0.357 A  
HETATM    8  C   UNL     1     -12.012  14.359  66.484  1.00  0.00    -0.386 A  
HETATM    9  C   UNL     1     -11.129  13.880  65.530  1.00  0.00    -0.304 A  
HETATM   10  O   UNL     1     -13.344  14.133  66.275  1.00  0.00    -0.207 OA 
HETATM   11  C   UNL     1      -9.752  13.981  65.751  1.00  0.00    -0.222 A  
HETATM   12  H   UNL     1     -13.664  13.733  65.475  1.00  0.00     0.000 HD 
HETATM   13  C   UNL     1      -9.242  14.634  66.883  1.00  0.00    -0.249 A  
HETATM   14  C   UNL     1     -10.158  15.160  67.803  1.00  0.00    -0.230 A  
BRANCH  13  15
HETATM   15  N   UNL     1      -7.862  14.838  67.136  1.00  0.00    -0.289 NA 
HETATM   16  H   UNL     1      -7.228  14.653  66.359  1.00  0.00     0.000 HD 
BRANCH  15  17
HETATM   17  C   UNL     1      -7.260  15.273  68.354  1.00  0.00    -0.114 A  
HETATM   18  C   UNL     1      -7.024  16.638  68.640  1.00  0.00    -0.172 A  
HETATM   19  C   UNL     1      -7.618  17.694  67.912  1.00  0.00    -0.210 A  
HETATM   20  C   UNL     1      -7.234  19.013  68.123  1.00  0.00    -0.289 A  
HETATM   21  C   UNL     1      -6.268  19.285  69.079  1.00  0.00    -0.261 A  
HETATM   22 CL   UNL     1      -5.692  20.894  69.270  1.00  0.00    -0.401 Cl 
HETATM   23  C   UNL     1      -5.751  18.261  69.872  1.00  0.00    -0.246 A  
HETATM   24  C   UNL     1      -6.144  16.943  69.697  1.00  0.00    -0.225 A  
HETATM   25  N   UNL     1      -5.644  16.000  70.513  1.00  0.00    -0.144 NA 
HETATM   26  C   UNL     1      -5.991  14.715  70.292  1.00  0.00    -0.159 A  
HETATM   27  C   UNL     1      -6.759  14.302  69.224  1.00  0.00    -0.123 A  
ENDBRANCH  15  17
ENDBRANCH  13  15
ENDBRANCH   6   7
ENDBRANCH   3   6
ENDBRANCH   2   3
TORSDOF 6
ENDMDL
MODEL      159
REMARK 921   NORMALIZED FREE ENERGY PREDICTED BY IDOCK:   -4.64 KCAL/MOL
REMARK 922        TOTAL FREE ENERGY PREDICTED BY IDOCK:   -7.29 KCAL/MOL
REMARK 923 INTER-LIGAND FREE ENERGY PREDICTED BY IDOCK:   -6.37 KCAL/MOL
REMARK 924 INTRA-LIGAND FREE ENERGY PREDICTED BY IDOCK:   -0.92 KCAL/MOL
REMARK 927      BINDING AFFINITY PREDICTED BY RF-SCORE:    0.00 PKD
ROOT
HETATM    1  C   UNL     1      -8.718  18.456  66.689  1.00  0.00    -0.295 C  
HETATM    2  C   UNL     1      -9.976  17.606  66.544  1.00  0.00    -0.332 C  
ENDROOT
BRANCH   2   3
HETATM    3  N   UNL     1     -10.097  16.542  67.566  1.00  0.00    -0.261 NA 
BRANCH   3   4
HETATM    4  C   UNL     1     -11.144  16.819  68.566  1.00  0.00    -0.260 C  
HETATM    5  C   UNL     1     -10.934  16.234  69.963  1.00  0.00    -0.356 C  
ENDBRANCH   3   4
BRANCH   3   6
HETATM    6  C   UNL     1     -10.278  15.202  66.951  1.00  0.00    -0.259 C  
BRANCH   6   7
HETATM    7  C   UNL     1      -9.443  14.135  67.629  1.00  0.00    -0.213 A  
HETATM    8  C   UNL     1      -8.056  14.042  67.456  1.00  0.00    -0.186 A  
HETATM    9  C   UNL     1      -7.365  12.917  67.872  1.00  0.00    -0.127 A  
HETATM   10  O   UNL     1      -7.350  14.996  66.778  1.00  0.00    -0.294 OA 
HETATM   11  C   UNL     1      -8.061  11.859  68.467  1.00  0.00    -0.130 A  
HETATM   12  H   UNL     1      -6.410  14.933  66.660  1.00  0.00     0.000 HD 
HETATM   13  C   UNL     1      -9.436  11.948  68.727  1.00  0.00     0.009 A  
HETATM   14  C   UNL     1     -10.100  13.121  68.347  1.00  0.00    -0.231 A  
BRANCH  13  15
HETATM   15  N   UNL     1     -10.192  10.948  69.390  1.00  0.00    -0.400 NA 
HETATM   16  H   UNL     1     -10.571  11.199  70.303  1.00  0.00     0.000 HD 
BRANCH  15  17
HETATM   17  C   UNL     1     -10.482   9.631  68.925  1.00  0.00    -0.215 A  
HETATM   18  C   UNL     1     -10.801   8.567  69.802  1.00  0.00    -0.177 A  
HETATM   19  C   UNL     1     -11.153   8.763  71.157  1.00  0.00    -0.340 A  
HETATM   20  C   UNL     1     -11.300   7.684  72.020  1.00  0.00    -0.322 A  
HETATM   21  C   UNL     1     -11.115   6.401  71.527  1.00  0.00    -0.273 A  
HETATM   22 CL   UNL     1     -11.173   5.062  72.604  1.00  0.00    -0.268 Cl 
HETATM   23  C   UNL     1     -10.867   6.195  70.171  1.00  0.00    -0.395 A  
HETATM   24  C   UNL     1     -10.747   7.257  69.289  1.00  0.00    -0.198 A  
HETATM   25  N   UNL     1     -10.546   7.001  67.985  1.00  0.00    -0.206 NA 
HETATM   26  C   UNL     1     -10.373   8.047  67.149  1.00  0.00    -0.325 A  
HETATM   27  C   UNL     1     -10.302   9.358  67.567  1.00  0.00    -0.314 A  
ENDBRANCH  15  17
ENDBRANCH  13  15
ENDBRANCH   6   7
ENDBRANCH   3   6
ENDBRANCH   2   3
TORSDOF 6
ENDMDL
MODEL      160
REMARK 921   NORMALIZED FREE ENERGY PREDICTED BY IDOCK:   -4.64 KCAL/MOL
REMARK 922        TOTAL FREE ENERGY PREDICTED BY IDOCK:   -7.28 KCAL/MOL
REMARK 923 INTER-LIGAND FREE ENERGY PREDICTED BY IDOCK:   -6.25 KCAL/MOL
REMARK 924 INTRA-LIGAND FREE ENERGY PREDICTED BY IDOCK:   -1.04 KCAL/MOL
REMARK 927      BINDING AFFINITY PREDICTED BY RF-SCORE:    0.00 PKD
ROOT
HETATM    1  C   UNL     1     -12.010  10.513  70.496  1.00  0.00    -0.436 C  
HETATM    2  C   UNL     1     -10.732   9.832  70.974  1.00  0.00    -0.272 C  
ENDROOT
BRANCH   2   3
HETATM    3  N   UNL     1     -10.145   8.902  69.983  1.00  0.00    -0.186 NA 
BRANCH   3   4
HETATM    4  C   UNL     1     -10.493   7.493  70.237  1.00  0.00    -0.222 C  
HETATM    5  C   UNL     1     -11.228   7.190  71.542  1.00  0.00    -0.273 C  
ENDBRANCH   3   4
BRANCH   3   6
HETATM    6  C   UNL     1     -10.476   9.298  68.590  1.00  0.00    -0.209 C  
BRANCH   6   7
HETATM    7  C   UNL     1      -9.403  10.165  67.963  1.00  0.00    -0.149 A  
HETATM    8  C   UNL     1      -8.036   9.926  68.154  1.00  0.00    -0.104 A  
HETATM    9  C   UNL     1      -7.094  10.874  67.789  1.00  0.00    -0.082 A  
HETATM   10  O   UNL     1      -7.584   8.811  68.802  1.00  0.00    -0.092 OA 
HETATM   11  C   UNL     1      -7.514  12.085  67.229  1.00  0.00    -0.158 A  
HETATM   12  H   UNL     1      -6.657   8.649  68.931  1.00  0.00     0.000 HD 
HETATM   13  C   UNL     1      -8.867  12.328  66.951  1.00  0.00    -0.207 A  
HETATM   14  C   UNL     1      -9.793  11.329  67.278  1.00  0.00    -0.203 A  
BRANCH  13  15
HETATM   15  N   UNL     1      -9.357  13.499  66.319  1.00  0.00    -0.457 NA 
HETATM   16  H   UNL     1      -9.203  13.568  65.313  1.00  0.00     0.000 HD 
BRANCH  15  17
HETATM   17  C   UNL     1     -10.041  14.592  66.931  1.00  0.00    -0.257 A  
HETATM   18  C   UNL     1      -9.467  15.879  67.047  1.00  0.00    -0.234 A  
HETATM   19  C   UNL     1      -8.322  16.283  66.322  1.00  0.00    -0.343 A  
HETATM   20  C   UNL     1      -7.700  17.497  66.586  1.00  0.00    -0.289 A  
HETATM   21  C   UNL     1      -8.232  18.324  67.564  1.00  0.00    -0.237 A  
HETATM   22 CL   UNL     1      -7.408  19.772  67.990  1.00  0.00    -0.317 Cl 
HETATM   23  C   UNL     1      -9.417  17.979  68.213  1.00  0.00    -0.305 A  
HETATM   24  C   UNL     1     -10.068  16.786  67.941  1.00  0.00    -0.284 A  
HETATM   25  N   UNL     1     -11.228  16.520  68.566  1.00  0.00    -0.345 NA 
HETATM   26  C   UNL     1     -11.819  15.329  68.334  1.00  0.00    -0.260 A  
HETATM   27  C   UNL     1     -11.260  14.334  67.562  1.00  0.00    -0.322 A  
ENDBRANCH  15  17
ENDBRANCH  13  15
ENDBRANCH   6   7
ENDBRANCH   3   6
ENDBRANCH   2   3
TORSDOF 6
ENDMDL
MODEL      161
REMARK 921   NORMALIZED FREE ENERGY PREDICTED BY IDOCK:   -4.62 KCAL/MOL
REMARK 922        TOTAL FREE ENERGY PREDICTED BY IDOCK:   -7.26 KCAL/MOL
REMARK 923 INTER-LIGAND FREE ENERGY PREDICTED BY IDOCK:   -6.12 KCAL/MOL
REMARK 924 INTRA-LIGAND FREE ENERGY PREDICTED BY IDOCK:   -1.14 KCAL/MOL
REMARK 927      BINDING AFFINITY PREDICTED BY RF-SCORE:    0.00 PKD
ROOT
HETATM    1  C   UNL     1      -6.123   7.773  64.538  1.00  0.00    -0.045 C  
HETATM    2  C   UNL     1      -6.307   8.922  63.553  1.00  0.00    -0.089 C  
ENDROOT
BRANCH   2   3
HETATM    3  N   UNL     1      -7.535   9.715  63.786  1.00  0.00    -0.117 NA 
BRANCH   3   4
HETATM    4  C   UNL     1      -8.345   9.897  62.567  1.00  0.00    -0.144 C  
HETATM    5  C   UNL     1      -8.989  11.268  62.366  1.00  0.00    -0.245 C  
ENDBRANCH   3   4
BRANCH   3   6
HETATM    6  C   UNL     1      -8.349   9.161  64.897  1.00  0.00    -0.162 C  
BRANCH   6   7
HETATM    7  C   UNL     1      -8.727  10.213  65.921  1.00  0.00    -0.159 A  
HETATM    8  C   UNL     1      -7.813  11.161  66.397  1.00  0.00    -0.136 A  
HETATM    9  C   UNL     1      -8.110  11.933  67.508  1.00  0.00    -0.156 A  
HETATM   10  O   UNL     1      -6.562  11.287  65.863  1.00  0.00    -0.363 OA 
HETATM   11  C   UNL     1      -9.333  11.759  68.164  1.00  0.00    -0.190 A  
HETATM   12  H   UNL     1      -5.942  11.929  66.186  1.00  0.00     0.000 HD 
HETATM   13  C   UNL     1     -10.304  10.875  67.671  1.00  0.00    -0.197 A  
HETATM   14  C   UNL     1     -10.000  10.149  66.513  1.00  0.00    -0.283 A  
BRANCH  13  15
HETATM   15  N   UNL     1     -11.591  10.701  68.240  1.00  0.00    -0.642 NA 
HETATM   16  H   UNL     1     -12.369  10.631  67.585  1.00  0.00     0.000 HD 
BRANCH  15  17
HETATM   17  C   UNL     1     -11.920  10.613  69.626  1.00  0.00    -0.268 A  
HETATM   18  C   UNL     1     -11.708   9.438  70.384  1.00  0.00    -0.195 A  
HETATM   19  C   UNL     1     -10.895   8.369  69.942  1.00  0.00    -0.207 A  
HETATM   20  C   UNL     1     -10.845   7.171  70.644  1.00  0.00    -0.268 A  
HETATM   21  C   UNL     1     -11.593   7.042  71.804  1.00  0.00    -0.280 A  
HETATM   22 CL   UNL     1     -11.640   5.529  72.621  1.00  0.00    -0.339 Cl 
HETATM   23  C   UNL     1     -12.317   8.125  72.301  1.00  0.00    -0.371 A  
HETATM   24  C   UNL     1     -12.355   9.338  71.631  1.00  0.00    -0.372 A  
HETATM   25  N   UNL     1     -13.038  10.361  72.173  1.00  0.00    -0.409 NA 
HETATM   26  C   UNL     1     -13.113  11.516  71.479  1.00  0.00    -0.326 A  
HETATM   27  C   UNL     1     -12.606  11.681  70.208  1.00  0.00    -0.159 A  
ENDBRANCH  15  17
ENDBRANCH  13  15
ENDBRANCH   6   7
ENDBRANCH   3   6
ENDBRANCH   2   3
TORSDOF 6
ENDMDL
MODEL      162
REMARK 921   NORMALIZED FREE ENERGY PREDICTED BY IDOCK:   -4.60 KCAL/MOL
REMARK 922        TOTAL FREE ENERGY PREDICTED BY IDOCK:   -7.23 KCAL/MOL
REMARK 923 INTER-LIGAND FREE ENERGY PREDICTED BY IDOCK:   -6.97 KCAL/MOL
REMARK 924 INTRA-LIGAND FREE ENERGY PREDICTED BY IDOCK:   -0.26 KCAL/MOL
REMARK 927      BINDING AFFINITY PREDICTED BY RF-SCORE:    0.00 PKD
ROOT
HETATM    1  C   UNL     1      -9.329  10.353  62.450  1.00  0.00    -0.294 C  
HETATM    2  C   UNL     1     -10.272  10.880  63.528  1.00  0.00    -0.317 C  
ENDROOT
BRANCH   2   3
HETATM    3  N   UNL     1      -9.615  11.774  64.508  1.00  0.00    -0.133 NA 
BRANCH   3   4
HETATM    4  C   UNL     1     -10.566  12.401  65.444  1.00  0.00    -0.284 C  
HETATM    5  C   UNL     1     -10.501  13.922  65.576  1.00  0.00    -0.333 C  
ENDBRANCH   3   4
BRANCH   3   6
HETATM    6  C   UNL     1      -8.516  11.088  65.233  1.00  0.00     0.004 C  
BRANCH   6   7
HETATM    7  C   UNL     1      -9.027  10.155  66.312  1.00  0.00    -0.168 A  
HETATM    8  C   UNL     1      -9.300   8.803  66.070  1.00  0.00    -0.232 A  
HETATM    9  C   UNL     1     -10.003   8.047  66.994  1.00  0.00    -0.324 A  
HETATM   10  O   UNL     1      -8.988   8.207  64.881  1.00  0.00    -0.392 OA 
HETATM   11  C   UNL     1     -10.449   8.643  68.178  1.00  0.00    -0.241 A  
HETATM   12  H   UNL     1      -9.174   7.290  64.716  1.00  0.00     0.000 HD 
HETATM   13  C   UNL     1     -10.128   9.972  68.490  1.00  0.00    -0.169 A  
HETATM   14  C   UNL     1      -9.367  10.696  67.564  1.00  0.00    -0.158 A  
BRANCH  13  15
HETATM   15  N   UNL     1     -10.482  10.618  69.702  1.00  0.00    -0.363 NA 
HETATM   16  H   UNL     1     -10.164  11.581  69.810  1.00  0.00     0.000 HD 
BRANCH  15  17
HETATM   17  C   UNL     1     -11.234  10.073  70.785  1.00  0.00    -0.352 A  
HETATM   18  C   UNL     1     -10.687   9.140  71.696  1.00  0.00    -0.441 A  
HETATM   19  C   UNL     1      -9.300   8.891  71.809  1.00  0.00    -0.304 A  
HETATM   20  C   UNL     1      -8.821   7.853  72.599  1.00  0.00    -0.235 A  
HETATM   21  C   UNL     1      -9.727   7.071  73.299  1.00  0.00    -0.198 A  
HETATM   22 CL   UNL     1      -9.165   5.709  74.186  1.00  0.00    -0.125 Cl 
HETATM   23  C   UNL     1     -11.088   7.373  73.274  1.00  0.00    -0.303 A  
HETATM   24  C   UNL     1     -11.581   8.423  72.515  1.00  0.00    -0.356 A  
HETATM   25  N   UNL     1     -12.897   8.695  72.556  1.00  0.00    -0.353 NA 
HETATM   26  C   UNL     1     -13.369   9.682  71.766  1.00  0.00    -0.419 A  
HETATM   27  C   UNL     1     -12.597  10.370  70.855  1.00  0.00    -0.478 A  
ENDBRANCH  15  17
ENDBRANCH  13  15
ENDBRANCH   6   7
ENDBRANCH   3   6
ENDBRANCH   2   3
TORSDOF 6
ENDMDL
MODEL      163
REMARK 921   NORMALIZED FREE ENERGY PREDICTED BY IDOCK:   -4.60 KCAL/MOL
REMARK 922        TOTAL FREE ENERGY PREDICTED BY IDOCK:   -7.23 KCAL/MOL
REMARK 923 INTER-LIGAND FREE ENERGY PREDICTED BY IDOCK:   -6.67 KCAL/MOL
REMARK 924 INTRA-LIGAND FREE ENERGY PREDICTED BY IDOCK:   -0.55 KCAL/MOL
REMARK 927      BINDING AFFINITY PREDICTED BY RF-SCORE:    0.00 PKD
ROOT
HETATM    1  C   UNL     1      -8.862   5.549  66.626  1.00  0.00    -0.117 C  
HETATM    2  C   UNL     1      -9.128   5.958  68.071  1.00  0.00    -0.117 C  
ENDROOT
BRANCH   2   3
HETATM    3  N   UNL     1     -10.270   6.887  68.228  1.00  0.00    -0.171 NA 
BRANCH   3   4
HETATM    4  C   UNL     1     -10.187   7.700  69.455  1.00  0.00    -0.206 C  
HETATM    5  C   UNL     1     -11.281   7.483  70.500  1.00  0.00    -0.287 C  
ENDBRANCH   3   4
BRANCH   3   6
HETATM    6  C   UNL     1     -10.458   7.738  67.026  1.00  0.00    -0.349 C  
BRANCH   6   7
HETATM    7  C   UNL     1     -10.112   9.191  67.285  1.00  0.00    -0.295 A  
HETATM    8  C   UNL     1      -8.791   9.639  67.404  1.00  0.00    -0.128 A  
HETATM    9  C   UNL     1      -8.515  10.906  67.893  1.00  0.00    -0.129 A  
HETATM   10  O   UNL     1      -7.727   8.819  67.154  1.00  0.00    -0.094 OA 
HETATM   11  C   UNL     1      -9.568  11.743  68.276  1.00  0.00    -0.199 A  
HETATM   12  H   UNL     1      -6.831   9.123  67.236  1.00  0.00     0.000 HD 
HETATM   13  C   UNL     1     -10.905  11.359  68.098  1.00  0.00    -0.213 A  
HETATM   14  C   UNL     1     -11.156  10.095  67.548  1.00  0.00    -0.251 A  
BRANCH  13  15
HETATM   15  N   UNL     1     -12.021  12.182  68.394  1.00  0.00    -0.379 NA 
HETATM   16  H   UNL     1     -12.937  11.809  68.143  1.00  0.00     0.000 HD 
BRANCH  15  17
HETATM   17  C   UNL     1     -12.008  13.472  69.004  1.00  0.00    -0.335 A  
HETATM   18  C   UNL     1     -11.595  14.635  68.313  1.00  0.00    -0.353 A  
HETATM   19  C   UNL     1     -11.451  14.689  66.908  1.00  0.00    -0.372 A  
HETATM   20  C   UNL     1     -10.890  15.799  66.289  1.00  0.00    -0.232 A  
HETATM   21  C   UNL     1     -10.488  16.871  67.071  1.00  0.00    -0.281 A  
HETATM   22 CL   UNL     1      -9.682  18.201  66.338  1.00  0.00    -0.332 Cl 
HETATM   23  C   UNL     1     -10.719  16.868  68.445  1.00  0.00    -0.368 A  
HETATM   24  C   UNL     1     -11.306  15.782  69.077  1.00  0.00    -0.354 A  
HETATM   25  N   UNL     1     -11.541  15.846  70.399  1.00  0.00    -0.354 NA 
HETATM   26  C   UNL     1     -12.058  14.758  71.008  1.00  0.00    -0.330 A  
HETATM   27  C   UNL     1     -12.277  13.555  70.372  1.00  0.00    -0.426 A  
ENDBRANCH  15  17
ENDBRANCH  13  15
ENDBRANCH   6   7
ENDBRANCH   3   6
ENDBRANCH   2   3
TORSDOF 6
ENDMDL
MODEL      164
REMARK 921   NORMALIZED FREE ENERGY PREDICTED BY IDOCK:   -4.60 KCAL/MOL
REMARK 922        TOTAL FREE ENERGY PREDICTED BY IDOCK:   -7.22 KCAL/MOL
REMARK 923 INTER-LIGAND FREE ENERGY PREDICTED BY IDOCK:   -6.96 KCAL/MOL
REMARK 924 INTRA-LIGAND FREE ENERGY PREDICTED BY IDOCK:   -0.27 KCAL/MOL
REMARK 927      BINDING AFFINITY PREDICTED BY RF-SCORE:    0.00 PKD
ROOT
HETATM    1  C   UNL     1     -10.631  17.712  65.733  1.00  0.00    -0.177 C  
HETATM    2  C   UNL     1      -9.673  18.238  66.796  1.00  0.00    -0.322 C  
ENDROOT
BRANCH   2   3
HETATM    3  N   UNL     1      -9.098  17.180  67.657  1.00  0.00    -0.225 NA 
BRANCH   3   4
HETATM    4  C   UNL     1      -7.626  17.224  67.721  1.00  0.00    -0.181 C  
HETATM    5  C   UNL     1      -6.926  18.215  66.793  1.00  0.00    -0.226 C  
ENDBRANCH   3   4
BRANCH   3   6
HETATM    6  C   UNL     1      -9.699  17.187  69.015  1.00  0.00    -0.212 C  
BRANCH   6   7
HETATM    7  C   UNL     1     -10.817  16.174  69.160  1.00  0.00    -0.298 A  
HETATM    8  C   UNL     1     -11.528  16.005  70.355  1.00  0.00    -0.377 A  
HETATM    9  C   UNL     1     -12.356  14.909  70.536  1.00  0.00    -0.400 A  
HETATM   10  O   UNL     1     -11.354  16.841  71.421  1.00  0.00    -0.416 OA 
HETATM   11  C   UNL     1     -12.477  13.959  69.517  1.00  0.00    -0.141 A  
HETATM   12  H   UNL     1     -11.836  16.727  72.231  1.00  0.00     0.000 HD 
HETATM   13  C   UNL     1     -11.842  14.134  68.279  1.00  0.00    -0.356 A  
HETATM   14  C   UNL     1     -11.057  15.280  68.102  1.00  0.00    -0.309 A  
BRANCH  13  15
HETATM   15  N   UNL     1     -11.978  13.252  67.177  1.00  0.00    -0.367 NA 
HETATM   16  H   UNL     1     -12.663  13.516  66.469  1.00  0.00     0.000 HD 
BRANCH  15  17
HETATM   17  C   UNL     1     -11.265  12.037  66.948  1.00  0.00    -0.320 A  
HETATM   18  C   UNL     1     -11.127  11.038  67.939  1.00  0.00    -0.347 A  
HETATM   19  C   UNL     1     -11.910  11.002  69.115  1.00  0.00    -0.407 A  
HETATM   20  C   UNL     1     -11.631  10.099  70.133  1.00  0.00    -0.350 A  
HETATM   21  C   UNL     1     -10.578   9.212  69.971  1.00  0.00    -0.227 A  
HETATM   22 CL   UNL     1     -10.140   8.169  71.267  1.00  0.00    -0.228 Cl 
HETATM   23  C   UNL     1      -9.864   9.172  68.774  1.00  0.00    -0.175 A  
HETATM   24  C   UNL     1     -10.148  10.045  67.735  1.00  0.00    -0.183 A  
HETATM   25  N   UNL     1      -9.456   9.940  66.588  1.00  0.00    -0.166 NA 
HETATM   26  C   UNL     1      -9.704  10.835  65.609  1.00  0.00    -0.237 A  
HETATM   27  C   UNL     1     -10.562  11.904  65.747  1.00  0.00    -0.309 A  
ENDBRANCH  15  17
ENDBRANCH  13  15
ENDBRANCH   6   7
ENDBRANCH   3   6
ENDBRANCH   2   3
TORSDOF 6
ENDMDL
MODEL      165
REMARK 921   NORMALIZED FREE ENERGY PREDICTED BY IDOCK:   -4.59 KCAL/MOL
REMARK 922        TOTAL FREE ENERGY PREDICTED BY IDOCK:   -7.21 KCAL/MOL
REMARK 923 INTER-LIGAND FREE ENERGY PREDICTED BY IDOCK:   -6.30 KCAL/MOL
REMARK 924 INTRA-LIGAND FREE ENERGY PREDICTED BY IDOCK:   -0.92 KCAL/MOL
REMARK 927      BINDING AFFINITY PREDICTED BY RF-SCORE:    0.00 PKD
ROOT
HETATM    1  C   UNL     1      -6.815   5.517  69.043  1.00  0.00    -0.055 C  
HETATM    2  C   UNL     1      -7.338   5.518  67.610  1.00  0.00    -0.076 C  
ENDROOT
BRANCH   2   3
HETATM    3  N   UNL     1      -8.351   6.565  67.346  1.00  0.00    -0.120 NA 
BRANCH   3   4
HETATM    4  C   UNL     1      -9.569   6.041  66.701  1.00  0.00    -0.154 C  
HETATM    5  C   UNL     1     -10.889   6.260  67.441  1.00  0.00    -0.448 C  
ENDBRANCH   3   4
BRANCH   3   6
HETATM    6  C   UNL     1      -8.679   7.338  68.571  1.00  0.00    -0.123 C  
BRANCH   6   7
HETATM    7  C   UNL     1      -8.596   8.836  68.351  1.00  0.00    -0.134 A  
HETATM    8  C   UNL     1      -7.375   9.513  68.239  1.00  0.00    -0.077 A  
HETATM    9  C   UNL     1      -7.325  10.896  68.300  1.00  0.00    -0.087 A  
HETATM   10  O   UNL     1      -6.184   8.845  68.179  1.00  0.00    -0.050 OA 
HETATM   11  C   UNL     1      -8.507  11.622  68.480  1.00  0.00    -0.135 A  
HETATM   12  H   UNL     1      -5.356   9.304  68.104  1.00  0.00     0.000 HD 
HETATM   13  C   UNL     1      -9.755  10.984  68.518  1.00  0.00    -0.189 A  
HETATM   14  C   UNL     1      -9.782   9.589  68.397  1.00  0.00    -0.168 A  
BRANCH  13  15
HETATM   15  N   UNL     1     -10.997  11.660  68.625  1.00  0.00    -0.205 NA 
HETATM   16  H   UNL     1     -11.258  12.252  67.836  1.00  0.00     0.000 HD 
BRANCH  15  17
HETATM   17  C   UNL     1     -11.922  11.607  69.710  1.00  0.00    -0.332 A  
HETATM   18  C   UNL     1     -12.261  12.745  70.477  1.00  0.00    -0.389 A  
HETATM   19  C   UNL     1     -11.966  14.067  70.071  1.00  0.00    -0.404 A  
HETATM   20  C   UNL     1     -12.172  15.141  70.928  1.00  0.00    -0.398 A  
HETATM   21  C   UNL     1     -12.694  14.901  72.190  1.00  0.00    -0.323 A  
HETATM   22 CL   UNL     1     -12.843  16.200  73.307  1.00  0.00    -0.595 Cl 
HETATM   23  C   UNL     1     -13.082  13.615  72.561  1.00  0.00    -0.487 A  
HETATM   24  C   UNL     1     -12.913  12.535  71.708  1.00  0.00    -0.313 A  
HETATM   25  N   UNL     1     -13.339  11.322  72.100  1.00  0.00    -0.353 NA 
HETATM   26  C   UNL     1     -13.113  10.272  71.283  1.00  0.00    -0.398 A  
HETATM   27  C   UNL     1     -12.393  10.354  70.111  1.00  0.00    -0.281 A  
ENDBRANCH  15  17
ENDBRANCH  13  15
ENDBRANCH   6   7
ENDBRANCH   3   6
ENDBRANCH   2   3
TORSDOF 6
ENDMDL
MODEL      166
REMARK 921   NORMALIZED FREE ENERGY PREDICTED BY IDOCK:   -4.57 KCAL/MOL
REMARK 922        TOTAL FREE ENERGY PREDICTED BY IDOCK:   -7.18 KCAL/MOL
REMARK 923 INTER-LIGAND FREE ENERGY PREDICTED BY IDOCK:   -6.06 KCAL/MOL
REMARK 924 INTRA-LIGAND FREE ENERGY PREDICTED BY IDOCK:   -1.12 KCAL/MOL
REMARK 927      BINDING AFFINITY PREDICTED BY RF-SCORE:    0.00 PKD
ROOT
HETATM    1  C   UNL     1      -7.321  16.196  69.435  1.00  0.00    -0.196 C  
HETATM    2  C   UNL     1      -7.623  17.341  68.474  1.00  0.00    -0.251 C  
ENDROOT
BRANCH   2   3
HETATM    3  N   UNL     1      -9.067  17.534  68.211  1.00  0.00    -0.266 NA 
BRANCH   3   4
HETATM    4  C   UNL     1      -9.429  18.945  67.985  1.00  0.00    -0.317 C  
HETATM    5  C   UNL     1      -9.698  19.365  66.540  1.00  0.00    -0.452 C  
ENDBRANCH   3   4
BRANCH   3   6
HETATM    6  C   UNL     1      -9.547  16.669  67.103  1.00  0.00    -0.241 C  
BRANCH   6   7
HETATM    7  C   UNL     1     -10.253  15.425  67.603  1.00  0.00    -0.246 A  
HETATM    8  C   UNL     1     -11.463  15.479  68.305  1.00  0.00    -0.353 A  
HETATM    9  C   UNL     1     -11.947  14.362  68.968  1.00  0.00    -0.342 A  
HETATM   10  O   UNL     1     -12.155  16.647  68.460  1.00  0.00     0.254 OA 
HETATM   11  C   UNL     1     -11.215  13.171  68.938  1.00  0.00    -0.324 A  
HETATM   12  H   UNL     1     -12.975  16.684  68.937  1.00  0.00     0.000 HD 
HETATM   13  C   UNL     1     -10.040  13.057  68.181  1.00  0.00    -0.237 A  
HETATM   14  C   UNL     1      -9.604  14.185  67.475  1.00  0.00    -0.223 A  
BRANCH  13  15
HETATM   15  N   UNL     1      -9.287  11.863  68.046  1.00  0.00    -0.187 NA 
HETATM   16  H   UNL     1      -8.297  11.923  68.287  1.00  0.00     0.000 HD 
BRANCH  15  17
HETATM   17  C   UNL     1      -9.757  10.588  67.612  1.00  0.00    -0.165 A  
HETATM   18  C   UNL     1     -10.191   9.589  68.515  1.00  0.00    -0.223 A  
HETATM   19  C   UNL     1     -10.484   9.850  69.873  1.00  0.00    -0.309 A  
HETATM   20  C   UNL     1     -10.751   8.814  70.759  1.00  0.00    -0.277 A  
HETATM   21  C   UNL     1     -10.745   7.511  70.287  1.00  0.00    -0.238 A  
HETATM   22 CL   UNL     1     -10.953   6.207  71.389  1.00  0.00    -0.320 Cl 
HETATM   23  C   UNL     1     -10.557   7.252  68.930  1.00  0.00    -0.207 A  
HETATM   24  C   UNL     1     -10.320   8.275  68.025  1.00  0.00    -0.213 A  
HETATM   25  N   UNL     1     -10.184   7.975  66.722  1.00  0.00    -0.300 NA 
HETATM   26  C   UNL     1      -9.895   8.975  65.864  1.00  0.00    -0.187 A  
HETATM   27  C   UNL     1      -9.644  10.273  66.255  1.00  0.00    -0.238 A  
ENDBRANCH  15  17
ENDBRANCH  13  15
ENDBRANCH   6   7
ENDBRANCH   3   6
ENDBRANCH   2   3
TORSDOF 6
ENDMDL
MODEL      167
REMARK 921   NORMALIZED FREE ENERGY PREDICTED BY IDOCK:   -4.56 KCAL/MOL
REMARK 922        TOTAL FREE ENERGY PREDICTED BY IDOCK:   -7.17 KCAL/MOL
REMARK 923 INTER-LIGAND FREE ENERGY PREDICTED BY IDOCK:   -6.78 KCAL/MOL
REMARK 924 INTRA-LIGAND FREE ENERGY PREDICTED BY IDOCK:   -0.39 KCAL/MOL
REMARK 927      BINDING AFFINITY PREDICTED BY RF-SCORE:    0.00 PKD
ROOT
HETATM    1  C   UNL     1      -8.410  19.467  67.840  1.00  0.00    -0.343 C  
HETATM    2  C   UNL     1      -8.303  18.233  66.950  1.00  0.00    -0.245 C  
ENDROOT
BRANCH   2   3
HETATM    3  N   UNL     1      -9.455  17.310  67.071  1.00  0.00    -0.254 NA 
BRANCH   3   4
HETATM    4  C   UNL     1      -9.449  16.244  66.053  1.00  0.00    -0.334 C  
HETATM    5  C   UNL     1     -10.756  16.005  65.298  1.00  0.00    -0.417 C  
ENDBRANCH   3   4
BRANCH   3   6
HETATM    6  C   UNL     1      -9.571  16.748  68.441  1.00  0.00    -0.241 C  
BRANCH   6   7
HETATM    7  C   UNL     1      -9.216  15.276  68.497  1.00  0.00    -0.200 A  
HETATM    8  C   UNL     1      -7.921  14.805  68.246  1.00  0.00    -0.130 A  
HETATM    9  C   UNL     1      -7.685  13.454  68.050  1.00  0.00    -0.147 A  
HETATM   10  O   UNL     1      -6.866  15.656  68.076  1.00  0.00    -0.114 OA 
HETATM   11  C   UNL     1      -8.754  12.553  68.097  1.00  0.00    -0.190 A  
HETATM   12  H   UNL     1      -5.988  15.337  67.905  1.00  0.00     0.000 HD 
HETATM   13  C   UNL     1     -10.051  12.977  68.422  1.00  0.00    -0.225 A  
HETATM   14  C   UNL     1     -10.250  14.340  68.672  1.00  0.00    -0.246 A  
BRANCH  13  15
HETATM   15  N   UNL     1     -11.165  12.111  68.559  1.00  0.00    -0.238 NA 
HETATM   16  H   UNL     1     -11.768  12.017  67.742  1.00  0.00     0.000 HD 
BRANCH  15  17
HETATM   17  C   UNL     1     -11.538  11.356  69.711  1.00  0.00    -0.332 A  
HETATM   18  C   UNL     1     -11.234   9.982  69.851  1.00  0.00    -0.327 A  
HETATM   19  C   UNL     1     -10.295   9.312  69.034  1.00  0.00    -0.228 A  
HETATM   20  C   UNL     1     -10.147   7.932  69.101  1.00  0.00    -0.197 A  
HETATM   21  C   UNL     1     -10.923   7.216  69.999  1.00  0.00    -0.262 A  
HETATM   22 CL   UNL     1     -10.842   5.499  70.011  1.00  0.00    -0.364 Cl 
HETATM   23  C   UNL     1     -11.778   7.880  70.879  1.00  0.00    -0.271 A  
HETATM   24  C   UNL     1     -11.916   9.259  70.848  1.00  0.00    -0.257 A  
HETATM   25  N   UNL     1     -12.725   9.852  71.743  1.00  0.00    -0.407 NA 
HETATM   26  C   UNL     1     -12.895  11.189  71.662  1.00  0.00    -0.419 A  
HETATM   27  C   UNL     1     -12.357  11.970  70.662  1.00  0.00    -0.394 A  
ENDBRANCH  15  17
ENDBRANCH  13  15
ENDBRANCH   6   7
ENDBRANCH   3   6
ENDBRANCH   2   3
TORSDOF 6
ENDMDL
MODEL      168
REMARK 921   NORMALIZED FREE ENERGY PREDICTED BY IDOCK:   -4.56 KCAL/MOL
REMARK 922        TOTAL FREE ENERGY PREDICTED BY IDOCK:   -7.17 KCAL/MOL
REMARK 923 INTER-LIGAND FREE ENERGY PREDICTED BY IDOCK:   -6.00 KCAL/MOL
REMARK 924 INTRA-LIGAND FREE ENERGY PREDICTED BY IDOCK:   -1.17 KCAL/MOL
REMARK 927      BINDING AFFINITY PREDICTED BY RF-SCORE:    0.00 PKD
ROOT
HETATM    1  C   UNL     1      -8.673   8.213  73.262  1.00  0.00    -0.313 C  
HETATM    2  C   UNL     1      -7.542   8.040  72.253  1.00  0.00    -0.110 C  
ENDROOT
BRANCH   2   3
HETATM    3  N   UNL     1      -8.001   7.624  70.909  1.00  0.00    -0.093 NA 
BRANCH   3   4
HETATM    4  C   UNL     1      -7.657   6.227  70.588  1.00  0.00    -0.096 C  
HETATM    5  C   UNL     1      -8.421   5.139  71.341  1.00  0.00    -0.124 C  
ENDBRANCH   3   4
BRANCH   3   6
HETATM    6  C   UNL     1      -9.450   7.882  70.716  1.00  0.00    -0.158 C  
BRANCH   6   7
HETATM    7  C   UNL     1      -9.831   7.986  69.252  1.00  0.00    -0.178 A  
HETATM    8  C   UNL     1     -10.597   7.010  68.603  1.00  0.00    -0.210 A  
HETATM    9  C   UNL     1     -10.708   7.000  67.222  1.00  0.00    -0.412 A  
HETATM   10  O   UNL     1     -11.170   5.973  69.285  1.00  0.00    -0.384 OA 
HETATM   11  C   UNL     1     -10.043   7.973  66.469  1.00  0.00    -0.270 A  
HETATM   12  H   UNL     1     -11.689   5.311  68.845  1.00  0.00     0.000 HD 
HETATM   13  C   UNL     1      -9.331   9.011  67.087  1.00  0.00    -0.147 A  
HETATM   14  C   UNL     1      -9.282   9.030  68.486  1.00  0.00    -0.136 A  
BRANCH  13  15
HETATM   15  N   UNL     1      -8.694  10.070  66.391  1.00  0.00    -0.128 NA 
HETATM   16  H   UNL     1      -7.674  10.062  66.392  1.00  0.00     0.000 HD 
BRANCH  15  17
HETATM   17  C   UNL     1      -9.318  11.144  65.690  1.00  0.00    -0.219 A  
HETATM   18  C   UNL     1      -9.755  12.323  66.338  1.00  0.00    -0.243 A  
HETATM   19  C   UNL     1      -9.357  12.678  67.647  1.00  0.00    -0.190 A  
HETATM   20  C   UNL     1      -9.935  13.758  68.303  1.00  0.00    -0.243 A  
HETATM   21  C   UNL     1     -10.902  14.502  67.644  1.00  0.00    -0.273 A  
HETATM   22 CL   UNL     1     -11.715  15.766  68.479  1.00  0.00    -0.375 Cl 
HETATM   23  C   UNL     1     -11.227  14.222  66.318  1.00  0.00    -0.337 A  
HETATM   24  C   UNL     1     -10.639  13.167  65.638  1.00  0.00    -0.277 A  
HETATM   25  N   UNL     1     -10.960  12.962  64.349  1.00  0.00    -0.349 NA 
HETATM   26  C   UNL     1     -10.423  11.897  63.718  1.00  0.00    -0.423 A  
HETATM   27  C   UNL     1      -9.634  10.955  64.343  1.00  0.00    -0.312 A  
ENDBRANCH  15  17
ENDBRANCH  13  15
ENDBRANCH   6   7
ENDBRANCH   3   6
ENDBRANCH   2   3
TORSDOF 6
ENDMDL
MODEL      169
REMARK 921   NORMALIZED FREE ENERGY PREDICTED BY IDOCK:   -4.55 KCAL/MOL
REMARK 922        TOTAL FREE ENERGY PREDICTED BY IDOCK:   -7.16 KCAL/MOL
REMARK 923 INTER-LIGAND FREE ENERGY PREDICTED BY IDOCK:   -5.95 KCAL/MOL
REMARK 924 INTRA-LIGAND FREE ENERGY PREDICTED BY IDOCK:   -1.22 KCAL/MOL
REMARK 927      BINDING AFFINITY PREDICTED BY RF-SCORE:    0.00 PKD
ROOT
HETATM    1  C   UNL     1      -6.664   8.386  71.976  1.00  0.00    -0.087 C  
HETATM    2  C   UNL     1      -5.848   9.155  70.942  1.00  0.00    -0.046 C  
ENDROOT
BRANCH   2   3
HETATM    3  N   UNL     1      -6.673   9.904  69.969  1.00  0.00    -0.084 NA 
BRANCH   3   4
HETATM    4  C   UNL     1      -6.431  11.358  70.004  1.00  0.00    -0.094 C  
HETATM    5  C   UNL     1      -5.426  11.913  68.995  1.00  0.00    -0.051 C  
ENDBRANCH   3   4
BRANCH   3   6
HETATM    6  C   UNL     1      -6.530   9.366  68.592  1.00  0.00    -0.052 C  
BRANCH   6   7
HETATM    7  C   UNL     1      -7.841   9.358  67.833  1.00  0.00    -0.091 A  
HETATM    8  C   UNL     1      -8.802   8.353  68.002  1.00  0.00    -0.142 A  
HETATM    9  C   UNL     1      -9.861   8.231  67.117  1.00  0.00    -0.281 A  
HETATM   10  O   UNL     1      -8.679   7.394  68.968  1.00  0.00    -0.132 OA 
HETATM   11  C   UNL     1      -9.967   9.117  66.040  1.00  0.00    -0.293 A  
HETATM   12  H   UNL     1      -9.330   6.713  69.082  1.00  0.00     0.000 HD 
HETATM   13  C   UNL     1      -9.069  10.182  65.883  1.00  0.00    -0.156 A  
HETATM   14  C   UNL     1      -8.041  10.317  66.825  1.00  0.00    -0.121 A  
BRANCH  13  15
HETATM   15  N   UNL     1      -9.158  11.160  64.860  1.00  0.00    -0.338 NA 
HETATM   16  H   UNL     1      -8.373  11.208  64.210  1.00  0.00     0.000 HD 
BRANCH  15  17
HETATM   17  C   UNL     1     -10.221  12.085  64.636  1.00  0.00    -0.282 A  
HETATM   18  C   UNL     1     -10.517  13.136  65.535  1.00  0.00    -0.297 A  
HETATM   19  C   UNL     1      -9.632  13.552  66.555  1.00  0.00    -0.284 A  
HETATM   20  C   UNL     1     -10.029  14.476  67.514  1.00  0.00    -0.224 A  
HETATM   21  C   UNL     1     -11.309  15.004  67.445  1.00  0.00    -0.332 A  
HETATM   22 CL   UNL     1     -11.861  16.056  68.689  1.00  0.00    -0.296 Cl 
HETATM   23  C   UNL     1     -12.153  14.676  66.385  1.00  0.00    -0.229 A  
HETATM   24  C   UNL     1     -11.763  13.779  65.403  1.00  0.00    -0.335 A  
HETATM   25  N   UNL     1     -12.600  13.526  64.382  1.00  0.00    -0.649 NA 
HETATM   26  C   UNL     1     -12.230  12.607  63.466  1.00  0.00    -0.547 A  
HETATM   27  C   UNL     1     -11.083  11.848  63.562  1.00  0.00    -0.506 A  
ENDBRANCH  15  17
ENDBRANCH  13  15
ENDBRANCH   6   7
ENDBRANCH   3   6
ENDBRANCH   2   3
TORSDOF 6
ENDMDL
MODEL      170
REMARK 921   NORMALIZED FREE ENERGY PREDICTED BY IDOCK:   -4.55 KCAL/MOL
REMARK 922        TOTAL FREE ENERGY PREDICTED BY IDOCK:   -7.16 KCAL/MOL
REMARK 923 INTER-LIGAND FREE ENERGY PREDICTED BY IDOCK:   -6.00 KCAL/MOL
REMARK 924 INTRA-LIGAND FREE ENERGY PREDICTED BY IDOCK:   -1.16 KCAL/MOL
REMARK 927      BINDING AFFINITY PREDICTED BY RF-SCORE:    0.00 PKD
ROOT
HETATM    1  C   UNL     1     -11.215   7.818  71.219  1.00  0.00    -0.280 C  
HETATM    2  C   UNL     1     -10.885   7.063  69.935  1.00  0.00    -0.251 C  
ENDROOT
BRANCH   2   3
HETATM    3  N   UNL     1      -9.782   7.668  69.155  1.00  0.00    -0.162 NA 
BRANCH   3   4
HETATM    4  C   UNL     1      -9.852   7.351  67.717  1.00  0.00    -0.152 C  
HETATM    5  C   UNL     1     -10.902   6.327  67.287  1.00  0.00    -0.457 C  
ENDBRANCH   3   4
BRANCH   3   6
HETATM    6  C   UNL     1      -9.683   9.132  69.381  1.00  0.00    -0.170 C  
BRANCH   6   7
HETATM    7  C   UNL     1      -8.651   9.789  68.487  1.00  0.00    -0.120 A  
HETATM    8  C   UNL     1      -7.286   9.488  68.566  1.00  0.00    -0.079 A  
HETATM    9  C   UNL     1      -6.348  10.281  67.926  1.00  0.00    -0.060 A  
HETATM   10  O   UNL     1      -6.817   8.478  69.358  1.00  0.00    -0.045 OA 
HETATM   11  C   UNL     1      -6.770  11.399  67.199  1.00  0.00    -0.121 A  
HETATM   12  H   UNL     1      -5.891   8.274  69.412  1.00  0.00     0.000 HD 
HETATM   13  C   UNL     1      -8.133  11.687  67.032  1.00  0.00    -0.164 A  
HETATM   14  C   UNL     1      -9.062  10.835  67.642  1.00  0.00    -0.148 A  
BRANCH  13  15
HETATM   15  N   UNL     1      -8.634  12.758  66.250  1.00  0.00    -0.380 NA 
HETATM   16  H   UNL     1      -8.001  13.140  65.547  1.00  0.00     0.000 HD 
BRANCH  15  17
HETATM   17  C   UNL     1      -9.925  13.361  66.333  1.00  0.00    -0.293 A  
HETATM   18  C   UNL     1     -10.317  14.171  67.424  1.00  0.00    -0.256 A  
HETATM   19  C   UNL     1      -9.401  14.699  68.363  1.00  0.00    -0.201 A  
HETATM   20  C   UNL     1      -9.845  15.352  69.506  1.00  0.00    -0.262 A  
HETATM   21  C   UNL     1     -11.209  15.498  69.707  1.00  0.00    -0.304 A  
HETATM   22 CL   UNL     1     -11.781  16.195  71.171  1.00  0.00    -0.475 Cl 
HETATM   23  C   UNL     1     -12.116  15.070  68.738  1.00  0.00    -0.215 A  
HETATM   24  C   UNL     1     -11.690  14.444  67.577  1.00  0.00    -0.387 A  
HETATM   25  N   UNL     1     -12.603  14.085  66.658  1.00  0.00    -0.260 NA 
HETATM   26  C   UNL     1     -12.178  13.423  65.561  1.00  0.00    -0.455 A  
HETATM   27  C   UNL     1     -10.875  13.016  65.368  1.00  0.00    -0.304 A  
ENDBRANCH  15  17
ENDBRANCH  13  15
ENDBRANCH   6   7
ENDBRANCH   3   6
ENDBRANCH   2   3
TORSDOF 6
ENDMDL
MODEL      171
REMARK 921   NORMALIZED FREE ENERGY PREDICTED BY IDOCK:   -4.55 KCAL/MOL
REMARK 922        TOTAL FREE ENERGY PREDICTED BY IDOCK:   -7.16 KCAL/MOL
REMARK 923 INTER-LIGAND FREE ENERGY PREDICTED BY IDOCK:   -6.31 KCAL/MOL
REMARK 924 INTRA-LIGAND FREE ENERGY PREDICTED BY IDOCK:   -0.85 KCAL/MOL
REMARK 927      BINDING AFFINITY PREDICTED BY RF-SCORE:    0.00 PKD
ROOT
HETATM    1  C   UNL     1     -11.595  15.703  67.996  1.00  0.00    -0.245 C  
HETATM    2  C   UNL     1     -11.861  14.447  67.173  1.00  0.00    -0.410 C  
ENDROOT
BRANCH   2   3
HETATM    3  N   UNL     1     -10.695  13.998  66.377  1.00  0.00    -0.277 NA 
BRANCH   3   4
HETATM    4  C   UNL     1     -10.847  14.258  64.934  1.00  0.00    -0.416 C  
HETATM    5  C   UNL     1     -11.126  13.049  64.042  1.00  0.00    -0.433 C  
ENDBRANCH   3   4
BRANCH   3   6
HETATM    6  C   UNL     1      -9.423  14.559  66.897  1.00  0.00    -0.252 C  
BRANCH   6   7
HETATM    7  C   UNL     1      -8.444  13.483  67.320  1.00  0.00    -0.200 A  
HETATM    8  C   UNL     1      -7.076  13.733  67.487  1.00  0.00    -0.157 A  
HETATM    9  C   UNL     1      -6.177  12.688  67.619  1.00  0.00    -0.148 A  
HETATM   10  O   UNL     1      -6.562  14.997  67.416  1.00  0.00    -0.260 OA 
HETATM   11  C   UNL     1      -6.640  11.369  67.579  1.00  0.00    -0.078 A  
HETATM   12  H   UNL     1      -5.634  15.167  67.528  1.00  0.00     0.000 HD 
HETATM   13  C   UNL     1      -8.010  11.080  67.492  1.00  0.00    -0.116 A  
HETATM   14  C   UNL     1      -8.902  12.157  67.418  1.00  0.00    -0.181 A  
BRANCH  13  15
HETATM   15  N   UNL     1      -8.556   9.772  67.520  1.00  0.00    -0.125 NA 
HETATM   16  H   UNL     1      -8.624   9.291  66.623  1.00  0.00     0.000 HD 
BRANCH  15  17
HETATM   17  C   UNL     1      -9.021   9.052  68.661  1.00  0.00    -0.137 A  
HETATM   18  C   UNL     1     -10.151   9.459  69.408  1.00  0.00    -0.204 A  
HETATM   19  C   UNL     1     -11.086  10.410  68.939  1.00  0.00    -0.296 A  
HETATM   20  C   UNL     1     -12.088  10.897  69.769  1.00  0.00    -0.409 A  
HETATM   21  C   UNL     1     -12.173  10.420  71.068  1.00  0.00    -0.393 A  
HETATM   22 CL   UNL     1     -13.328  11.097  72.147  1.00  0.00    -0.459 Cl 
HETATM   23  C   UNL     1     -11.319   9.409  71.506  1.00  0.00    -0.464 A  
HETATM   24  C   UNL     1     -10.333   8.888  70.682  1.00  0.00    -0.215 A  
HETATM   25  N   UNL     1      -9.561   7.888  71.141  1.00  0.00    -0.158 NA 
HETATM   26  C   UNL     1      -8.568   7.433  70.349  1.00  0.00    -0.144 A  
HETATM   27  C   UNL     1      -8.241   7.993  69.132  1.00  0.00    -0.130 A  
ENDBRANCH  15  17
ENDBRANCH  13  15
ENDBRANCH   6   7
ENDBRANCH   3   6
ENDBRANCH   2   3
TORSDOF 6
ENDMDL
MODEL      172
REMARK 921   NORMALIZED FREE ENERGY PREDICTED BY IDOCK:   -4.55 KCAL/MOL
REMARK 922        TOTAL FREE ENERGY PREDICTED BY IDOCK:   -7.16 KCAL/MOL
REMARK 923 INTER-LIGAND FREE ENERGY PREDICTED BY IDOCK:   -6.33 KCAL/MOL
REMARK 924 INTRA-LIGAND FREE ENERGY PREDICTED BY IDOCK:   -0.83 KCAL/MOL
REMARK 927      BINDING AFFINITY PREDICTED BY RF-SCORE:    0.00 PKD
ROOT
HETATM    1  C   UNL     1     -12.575  15.435  73.925  1.00  0.00    -0.750 C  
HETATM    2  C   UNL     1     -12.400  14.360  72.857  1.00  0.00    -0.091 C  
ENDROOT
BRANCH   2   3
HETATM    3  N   UNL     1     -12.465  14.880  71.472  1.00  0.00    -0.311 NA 
BRANCH   3   4
HETATM    4  C   UNL     1     -11.135  15.069  70.864  1.00  0.00    -0.183 C  
HETATM    5  C   UNL     1     -10.945  16.314  69.999  1.00  0.00    -0.356 C  
ENDBRANCH   3   4
BRANCH   3   6
HETATM    6  C   UNL     1     -13.340  14.046  70.609  1.00  0.00     0.081 C  
BRANCH   6   7
HETATM    7  C   UNL     1     -12.586  12.914  69.940  1.00  0.00     0.129 A  
HETATM    8  C   UNL     1     -12.349  11.689  70.576  1.00  0.00    -0.321 A  
HETATM    9  C   UNL     1     -11.446  10.781  70.048  1.00  0.00    -0.412 A  
HETATM   10  O   UNL     1     -12.906  11.386  71.786  1.00  0.00    -0.405 OA 
HETATM   11  C   UNL     1     -10.759  11.095  68.870  1.00  0.00    -0.246 A  
HETATM   12  H   UNL     1     -12.745  10.556  72.217  1.00  0.00     0.000 HD 
HETATM   13  C   UNL     1     -11.027  12.277  68.165  1.00  0.00    -0.231 A  
HETATM   14  C   UNL     1     -11.987  13.151  68.690  1.00  0.00    -0.319 A  
BRANCH  13  15
HETATM   15  N   UNL     1     -10.424  12.626  66.929  1.00  0.00    -0.232 NA 
HETATM   16  H   UNL     1     -10.307  11.870  66.254  1.00  0.00     0.000 HD 
BRANCH  15  17
HETATM   17  C   UNL     1      -9.963  13.914  66.524  1.00  0.00    -0.285 A  
HETATM   18  C   UNL     1      -8.924  14.596  67.198  1.00  0.00    -0.240 A  
HETATM   19  C   UNL     1      -8.057  13.967  68.120  1.00  0.00    -0.150 A  
HETATM   20  C   UNL     1      -7.158  14.708  68.877  1.00  0.00    -0.117 A  
HETATM   21  C   UNL     1      -7.107  16.082  68.701  1.00  0.00    -0.136 A  
HETATM   22 CL   UNL     1      -6.089  17.031  69.712  1.00  0.00    -0.233 Cl 
HETATM   23  C   UNL     1      -7.886  16.698  67.722  1.00  0.00    -0.175 A  
HETATM   24  C   UNL     1      -8.767  15.971  66.937  1.00  0.00    -0.229 A  
HETATM   25  N   UNL     1      -9.466  16.608  65.982  1.00  0.00    -0.446 NA 
HETATM   26  C   UNL     1     -10.362  15.897  65.265  1.00  0.00    -0.324 A  
HETATM   27  C   UNL     1     -10.666  14.576  65.514  1.00  0.00    -0.350 A  
ENDBRANCH  15  17
ENDBRANCH  13  15
ENDBRANCH   6   7
ENDBRANCH   3   6
ENDBRANCH   2   3
TORSDOF 6
ENDMDL
MODEL      173
REMARK 921   NORMALIZED FREE ENERGY PREDICTED BY IDOCK:   -4.54 KCAL/MOL
REMARK 922        TOTAL FREE ENERGY PREDICTED BY IDOCK:   -7.15 KCAL/MOL
REMARK 923 INTER-LIGAND FREE ENERGY PREDICTED BY IDOCK:   -5.96 KCAL/MOL
REMARK 924 INTRA-LIGAND FREE ENERGY PREDICTED BY IDOCK:   -1.19 KCAL/MOL
REMARK 927      BINDING AFFINITY PREDICTED BY RF-SCORE:    0.00 PKD
ROOT
HETATM    1  C   UNL     1      -5.928   8.462  72.276  1.00  0.00    -0.059 C  
HETATM    2  C   UNL     1      -6.306   8.428  70.798  1.00  0.00    -0.037 C  
ENDROOT
BRANCH   2   3
HETATM    3  N   UNL     1      -7.704   8.008  70.550  1.00  0.00    -0.083 NA 
BRANCH   3   4
HETATM    4  C   UNL     1      -7.828   6.572  70.238  1.00  0.00    -0.107 C  
HETATM    5  C   UNL     1      -8.349   6.213  68.847  1.00  0.00    -0.115 C  
ENDBRANCH   3   4
BRANCH   3   6
HETATM    6  C   UNL     1      -8.605   8.399  71.664  1.00  0.00    -0.170 C  
BRANCH   6   7
HETATM    7  C   UNL     1      -9.799   9.203  71.190  1.00  0.00    -0.371 A  
HETATM    8  C   UNL     1     -11.106   8.926  71.609  1.00  0.00    -0.350 A  
HETATM    9  C   UNL     1     -12.191   9.500  70.967  1.00  0.00    -0.385 A  
HETATM   10  O   UNL     1     -11.370   8.004  72.582  1.00  0.00    -0.372 OA 
HETATM   11  C   UNL     1     -11.978  10.361  69.886  1.00  0.00    -0.289 A  
HETATM   12  H   UNL     1     -12.256   7.816  72.866  1.00  0.00     0.000 HD 
HETATM   13  C   UNL     1     -10.682  10.723  69.488  1.00  0.00    -0.226 A  
HETATM   14  C   UNL     1      -9.604  10.172  70.190  1.00  0.00    -0.029 A  
BRANCH  13  15
HETATM   15  N   UNL     1     -10.392  11.644  68.450  1.00  0.00    -0.198 NA 
HETATM   16  H   UNL     1      -9.767  12.414  68.691  1.00  0.00     0.000 HD 
BRANCH  15  17
HETATM   17  C   UNL     1     -10.874  11.617  67.108  1.00  0.00    -0.261 A  
HETATM   18  C   UNL     1     -10.284  10.813  66.104  1.00  0.00    -0.308 A  
HETATM   19  C   UNL     1      -9.384   9.760  66.388  1.00  0.00    -0.218 A  
HETATM   20  C   UNL     1      -8.707   9.104  65.367  1.00  0.00    -0.217 A  
HETATM   21  C   UNL     1      -8.942   9.484  64.055  1.00  0.00    -0.188 A  
HETATM   22 CL   UNL     1      -8.026   8.769  62.787  1.00  0.00    -0.143 Cl 
HETATM   23  C   UNL     1      -9.902  10.451  63.760  1.00  0.00    -0.308 A  
HETATM   24  C   UNL     1     -10.610  11.095  64.764  1.00  0.00    -0.303 A  
HETATM   25  N   UNL     1     -11.551  11.992  64.424  1.00  0.00    -0.346 NA 
HETATM   26  C   UNL     1     -12.189  12.653  65.413  1.00  0.00    -0.459 A  
HETATM   27  C   UNL     1     -11.871  12.527  66.748  1.00  0.00    -0.416 A  
ENDBRANCH  15  17
ENDBRANCH  13  15
ENDBRANCH   6   7
ENDBRANCH   3   6
ENDBRANCH   2   3
TORSDOF 6
ENDMDL
MODEL      174
REMARK 921   NORMALIZED FREE ENERGY PREDICTED BY IDOCK:   -4.52 KCAL/MOL
REMARK 922        TOTAL FREE ENERGY PREDICTED BY IDOCK:   -7.12 KCAL/MOL
REMARK 923 INTER-LIGAND FREE ENERGY PREDICTED BY IDOCK:   -5.97 KCAL/MOL
REMARK 924 INTRA-LIGAND FREE ENERGY PREDICTED BY IDOCK:   -1.15 KCAL/MOL
REMARK 927      BINDING AFFINITY PREDICTED BY RF-SCORE:    0.00 PKD
ROOT
HETATM    1  C   UNL     1      -6.690   4.480  68.893  1.00  0.00    -0.046 C  
HETATM    2  C   UNL     1      -6.774   4.467  67.370  1.00  0.00    -0.047 C  
ENDROOT
BRANCH   2   3
HETATM    3  N   UNL     1      -7.834   5.344  66.824  1.00  0.00    -0.100 NA 
BRANCH   3   4
HETATM    4  C   UNL     1      -8.673   4.675  65.813  1.00  0.00    -0.124 C  
HETATM    5  C   UNL     1      -8.456   3.174  65.622  1.00  0.00    -0.108 C  
ENDBRANCH   3   4
BRANCH   3   6
HETATM    6  C   UNL     1      -8.661   5.947  67.899  1.00  0.00    -0.104 C  
BRANCH   6   7
HETATM    7  C   UNL     1      -8.714   7.460  67.811  1.00  0.00    -0.126 A  
HETATM    8  C   UNL     1      -7.568   8.258  67.901  1.00  0.00    -0.102 A  
HETATM    9  C   UNL     1      -7.672   9.629  68.077  1.00  0.00    -0.086 A  
HETATM   10  O   UNL     1      -6.313   7.717  67.931  1.00  0.00    -0.047 OA 
HETATM   11  C   UNL     1      -8.937  10.218  68.172  1.00  0.00    -0.130 A  
HETATM   12  H   UNL     1      -5.536   8.259  67.992  1.00  0.00     0.000 HD 
HETATM   13  C   UNL     1     -10.107   9.462  68.010  1.00  0.00    -0.191 A  
HETATM   14  C   UNL     1      -9.971   8.088  67.775  1.00  0.00    -0.224 A  
BRANCH  13  15
HETATM   15  N   UNL     1     -11.418  10.003  68.020  1.00  0.00    -0.610 NA 
HETATM   16  H   UNL     1     -12.164   9.386  67.696  1.00  0.00     0.000 HD 
BRANCH  15  17
HETATM   17  C   UNL     1     -11.812  11.310  68.434  1.00  0.00    -0.261 A  
HETATM   18  C   UNL     1     -11.775  12.426  67.565  1.00  0.00    -0.425 A  
HETATM   19  C   UNL     1     -11.642  12.308  66.162  1.00  0.00    -0.450 A  
HETATM   20  C   UNL     1     -11.449  13.431  65.366  1.00  0.00    -0.322 A  
HETATM   21  C   UNL     1     -11.407  14.679  65.967  1.00  0.00    -0.344 A  
HETATM   22 CL   UNL     1     -11.048  16.067  65.017  1.00  0.00    -0.380 Cl 
HETATM   23  C   UNL     1     -11.638  14.813  67.335  1.00  0.00    -0.377 A  
HETATM   24  C   UNL     1     -11.863  13.707  68.141  1.00  0.00    -0.372 A  
HETATM   25  N   UNL     1     -12.119  13.894  69.447  1.00  0.00    -0.339 NA 
HETATM   26  C   UNL     1     -12.277  12.805  70.229  1.00  0.00    -0.277 A  
HETATM   27  C   UNL     1     -12.105  11.512  69.785  1.00  0.00    -0.374 A  
ENDBRANCH  15  17
ENDBRANCH  13  15
ENDBRANCH   6   7
ENDBRANCH   3   6
ENDBRANCH   2   3
TORSDOF 6
ENDMDL
MODEL      175
REMARK 921   NORMALIZED FREE ENERGY PREDICTED BY IDOCK:   -4.50 KCAL/MOL
REMARK 922        TOTAL FREE ENERGY PREDICTED BY IDOCK:   -7.09 KCAL/MOL
REMARK 923 INTER-LIGAND FREE ENERGY PREDICTED BY IDOCK:   -6.74 KCAL/MOL
REMARK 924 INTRA-LIGAND FREE ENERGY PREDICTED BY IDOCK:   -0.35 KCAL/MOL
REMARK 927      BINDING AFFINITY PREDICTED BY RF-SCORE:    0.00 PKD
ROOT
HETATM    1  C   UNL     1     -13.316  14.446  72.760  1.00  0.00    -0.606 C  
HETATM    2  C   UNL     1     -13.616  14.368  71.267  1.00  0.00    -0.323 C  
ENDROOT
BRANCH   2   3
HETATM    3  N   UNL     1     -12.404  14.342  70.416  1.00  0.00    -0.323 NA 
BRANCH   3   4
HETATM    4  C   UNL     1     -11.255  15.035  71.027  1.00  0.00    -0.224 C  
HETATM    5  C   UNL     1     -10.976  16.460  70.549  1.00  0.00    -0.164 C  
ENDBRANCH   3   4
BRANCH   3   6
HETATM    6  C   UNL     1     -12.046  12.961  70.006  1.00  0.00    -0.286 C  
BRANCH   6   7
HETATM    7  C   UNL     1     -11.687  12.866  68.537  1.00  0.00    -0.374 A  
HETATM    8  C   UNL     1     -11.917  13.915  67.638  1.00  0.00    -0.368 A  
HETATM    9  C   UNL     1     -11.822  13.709  66.271  1.00  0.00    -0.426 A  
HETATM   10  O   UNL     1     -12.349  15.142  68.057  1.00  0.00    -0.465 OA 
HETATM   11  C   UNL     1     -11.498  12.438  65.785  1.00  0.00    -0.416 A  
HETATM   12  H   UNL     1     -12.506  15.853  67.448  1.00  0.00     0.000 HD 
HETATM   13  C   UNL     1     -11.185  11.384  66.656  1.00  0.00    -0.231 A  
HETATM   14  C   UNL     1     -11.233  11.635  68.032  1.00  0.00    -0.327 A  
BRANCH  13  15
HETATM   15  N   UNL     1     -10.778  10.092  66.235  1.00  0.00    -0.049 NA 
HETATM   16  H   UNL     1     -11.399   9.613  65.582  1.00  0.00     0.000 HD 
BRANCH  15  17
HETATM   17  C   UNL     1      -9.599   9.387  66.621  1.00  0.00    -0.192 A  
HETATM   18  C   UNL     1      -9.638   8.089  67.180  1.00  0.00    -0.227 A  
HETATM   19  C   UNL     1     -10.784   7.261  67.133  1.00  0.00    -0.413 A  
HETATM   20  C   UNL     1     -10.829   6.063  67.834  1.00  0.00    -0.378 A  
HETATM   21  C   UNL     1      -9.720   5.675  68.570  1.00  0.00    -0.136 A  
HETATM   22 CL   UNL     1      -9.799   4.257  69.541  1.00  0.00    -0.269 Cl 
HETATM   23  C   UNL     1      -8.551   6.434  68.541  1.00  0.00    -0.122 A  
HETATM   24  C   UNL     1      -8.477   7.618  67.822  1.00  0.00    -0.122 A  
HETATM   25  N   UNL     1      -7.315   8.292  67.796  1.00  0.00    -0.091 NA 
HETATM   26  C   UNL     1      -7.276   9.472  67.141  1.00  0.00    -0.087 A  
HETATM   27  C   UNL     1      -8.381  10.069  66.573  1.00  0.00    -0.126 A  
ENDBRANCH  15  17
ENDBRANCH  13  15
ENDBRANCH   6   7
ENDBRANCH   3   6
ENDBRANCH   2   3
TORSDOF 6
ENDMDL
MODEL      176
REMARK 921   NORMALIZED FREE ENERGY PREDICTED BY IDOCK:   -4.49 KCAL/MOL
REMARK 922        TOTAL FREE ENERGY PREDICTED BY IDOCK:   -7.08 KCAL/MOL
REMARK 923 INTER-LIGAND FREE ENERGY PREDICTED BY IDOCK:   -6.23 KCAL/MOL
REMARK 924 INTRA-LIGAND FREE ENERGY PREDICTED BY IDOCK:   -0.85 KCAL/MOL
REMARK 927      BINDING AFFINITY PREDICTED BY RF-SCORE:    0.00 PKD
ROOT
HETATM    1  C   UNL     1     -10.938   8.827  72.168  1.00  0.00    -0.404 C  
HETATM    2  C   UNL     1     -11.268   9.004  70.689  1.00  0.00    -0.270 C  
ENDROOT
BRANCH   2   3
HETATM    3  N   UNL     1     -10.156   8.640  69.782  1.00  0.00    -0.194 NA 
BRANCH   3   4
HETATM    4  C   UNL     1      -9.212   7.681  70.383  1.00  0.00    -0.156 C  
HETATM    5  C   UNL     1      -9.309   6.231  69.910  1.00  0.00    -0.158 C  
ENDBRANCH   3   4
BRANCH   3   6
HETATM    6  C   UNL     1     -10.649   8.161  68.466  1.00  0.00    -0.100 C  
BRANCH   6   7
HETATM    7  C   UNL     1     -10.345   9.133  67.343  1.00  0.00    -0.330 A  
HETATM    8  C   UNL     1      -9.742   8.731  66.145  1.00  0.00    -0.250 A  
HETATM    9  C   UNL     1      -9.244   9.669  65.255  1.00  0.00    -0.295 A  
HETATM   10  O   UNL     1      -9.521   7.414  65.856  1.00  0.00    -0.401 OA 
HETATM   11  C   UNL     1      -9.340  11.030  65.561  1.00  0.00    -0.242 A  
HETATM   12  H   UNL     1      -9.112   7.142  65.043  1.00  0.00     0.000 HD 
HETATM   13  C   UNL     1     -10.006  11.473  66.713  1.00  0.00    -0.208 A  
HETATM   14  C   UNL     1     -10.550  10.505  67.567  1.00  0.00    -0.306 A  
BRANCH  13  15
HETATM   15  N   UNL     1     -10.205  12.836  67.049  1.00  0.00    -0.240 NA 
HETATM   16  H   UNL     1     -11.082  13.255  66.738  1.00  0.00     0.000 HD 
BRANCH  15  17
HETATM   17  C   UNL     1      -9.319  13.687  67.773  1.00  0.00    -0.218 A  
HETATM   18  C   UNL     1      -9.625  15.039  68.056  1.00  0.00    -0.208 A  
HETATM   19  C   UNL     1     -10.924  15.581  67.924  1.00  0.00    -0.316 A  
HETATM   20  C   UNL     1     -11.145  16.946  68.056  1.00  0.00    -0.190 A  
HETATM   21  C   UNL     1     -10.072  17.775  68.342  1.00  0.00    -0.376 A  
HETATM   22 CL   UNL     1     -10.303  19.479  68.390  1.00  0.00    -0.521 Cl 
HETATM   23  C   UNL     1      -8.807  17.238  68.574  1.00  0.00    -0.269 A  
HETATM   24  C   UNL     1      -8.572  15.875  68.477  1.00  0.00    -0.190 A  
HETATM   25  N   UNL     1      -7.343  15.404  68.748  1.00  0.00    -0.127 NA 
HETATM   26  C   UNL     1      -7.116  14.083  68.591  1.00  0.00    -0.108 A  
HETATM   27  C   UNL     1      -8.047  13.201  68.085  1.00  0.00    -0.155 A  
ENDBRANCH  15  17
ENDBRANCH  13  15
ENDBRANCH   6   7
ENDBRANCH   3   6
ENDBRANCH   2   3
TORSDOF 6
ENDMDL
MODEL      177
REMARK 921   NORMALIZED FREE ENERGY PREDICTED BY IDOCK:   -4.49 KCAL/MOL
REMARK 922        TOTAL FREE ENERGY PREDICTED BY IDOCK:   -7.08 KCAL/MOL
REMARK 923 INTER-LIGAND FREE ENERGY PREDICTED BY IDOCK:   -6.24 KCAL/MOL
REMARK 924 INTRA-LIGAND FREE ENERGY PREDICTED BY IDOCK:   -0.83 KCAL/MOL
REMARK 927      BINDING AFFINITY PREDICTED BY RF-SCORE:    0.00 PKD
ROOT
HETATM    1  C   UNL     1      -9.149   4.112  72.215  1.00  0.00    -0.148 C  
HETATM    2  C   UNL     1      -8.074   4.432  73.249  1.00  0.00    -0.095 C  
ENDROOT
BRANCH   2   3
HETATM    3  N   UNL     1      -7.756   5.875  73.350  1.00  0.00    -0.101 NA 
BRANCH   3   4
HETATM    4  C   UNL     1      -6.526   6.142  74.118  1.00  0.00    -0.071 C  
HETATM    5  C   UNL     1      -5.551   7.158  73.524  1.00  0.00    -0.046 C  
ENDBRANCH   3   4
BRANCH   3   6
HETATM    6  C   UNL     1      -7.712   6.526  72.016  1.00  0.00    -0.098 C  
BRANCH   6   7
HETATM    7  C   UNL     1      -8.928   7.391  71.753  1.00  0.00    -0.135 A  
HETATM    8  C   UNL     1      -9.675   7.972  72.785  1.00  0.00    -0.280 A  
HETATM    9  C   UNL     1     -10.915   8.534  72.530  1.00  0.00    -0.323 A  
HETATM   10  O   UNL     1      -9.270   7.913  74.088  1.00  0.00    -0.396 OA 
HETATM   11  C   UNL     1     -11.429   8.515  71.229  1.00  0.00    -0.329 A  
HETATM   12  H   UNL     1      -9.777   8.307  74.788  1.00  0.00     0.000 HD 
HETATM   13  C   UNL     1     -10.677   8.011  70.158  1.00  0.00    -0.244 A  
HETATM   14  C   UNL     1      -9.403   7.501  70.434  1.00  0.00    -0.161 A  
BRANCH  13  15
HETATM   15  N   UNL     1     -11.103   8.025  68.805  1.00  0.00    -0.382 NA 
HETATM   16  H   UNL     1     -11.925   7.464  68.584  1.00  0.00     0.000 HD 
BRANCH  15  17
HETATM   17  C   UNL     1     -10.511   8.736  67.719  1.00  0.00    -0.229 A  
HETATM   18  C   UNL     1     -10.765  10.106  67.478  1.00  0.00    -0.347 A  
HETATM   19  C   UNL     1     -11.368  10.960  68.430  1.00  0.00    -0.370 A  
HETATM   20  C   UNL     1     -11.745  12.254  68.094  1.00  0.00    -0.408 A  
HETATM   21  C   UNL     1     -11.503  12.709  66.807  1.00  0.00    -0.351 A  
HETATM   22 CL   UNL     1     -12.071  14.263  66.336  1.00  0.00    -0.450 Cl 
HETATM   23  C   UNL     1     -10.819  11.910  65.892  1.00  0.00    -0.342 A  
HETATM   24  C   UNL     1     -10.408  10.628  66.219  1.00  0.00    -0.234 A  
HETATM   25  N   UNL     1      -9.718   9.913  65.313  1.00  0.00    -0.301 NA 
HETATM   26  C   UNL     1      -9.376   8.646  65.626  1.00  0.00    -0.103 A  
HETATM   27  C   UNL     1      -9.769   8.010  66.784  1.00  0.00    -0.305 A  
ENDBRANCH  15  17
ENDBRANCH  13  15
ENDBRANCH   6   7
ENDBRANCH   3   6
ENDBRANCH   2   3
TORSDOF 6
ENDMDL
MODEL      178
REMARK 921   NORMALIZED FREE ENERGY PREDICTED BY IDOCK:   -4.46 KCAL/MOL
REMARK 922        TOTAL FREE ENERGY PREDICTED BY IDOCK:   -7.03 KCAL/MOL
REMARK 923 INTER-LIGAND FREE ENERGY PREDICTED BY IDOCK:   -6.21 KCAL/MOL
REMARK 924 INTRA-LIGAND FREE ENERGY PREDICTED BY IDOCK:   -0.82 KCAL/MOL
REMARK 927      BINDING AFFINITY PREDICTED BY RF-SCORE:    0.00 PKD
ROOT
HETATM    1  C   UNL     1     -12.541  12.275  70.924  1.00  0.00    -0.334 C  
HETATM    2  C   UNL     1     -11.609  13.006  69.962  1.00  0.00    -0.124 C  
ENDROOT
BRANCH   2   3
HETATM    3  N   UNL     1     -12.284  14.046  69.154  1.00  0.00    -0.323 NA 
BRANCH   3   4
HETATM    4  C   UNL     1     -11.894  15.416  69.534  1.00  0.00    -0.349 C  
HETATM    5  C   UNL     1     -10.597  15.568  70.329  1.00  0.00    -0.324 C  
ENDBRANCH   3   4
BRANCH   3   6
HETATM    6  C   UNL     1     -12.103  13.818  67.698  1.00  0.00    -0.298 C  
BRANCH   6   7
HETATM    7  C   UNL     1     -10.762  13.191  67.371  1.00  0.00    -0.262 A  
HETATM    8  C   UNL     1     -10.584  11.805  67.275  1.00  0.00    -0.224 A  
HETATM    9  C   UNL     1      -9.313  11.257  67.234  1.00  0.00    -0.173 A  
HETATM   10  O   UNL     1     -11.639  10.938  67.330  1.00  0.00    -0.475 OA 
HETATM   11  C   UNL     1      -8.196  12.096  67.295  1.00  0.00    -0.180 A  
HETATM   12  H   UNL     1     -11.518   9.998  67.265  1.00  0.00     0.000 HD 
HETATM   13  C   UNL     1      -8.335  13.492  67.313  1.00  0.00    -0.179 A  
HETATM   14  C   UNL     1      -9.631  14.021  67.296  1.00  0.00    -0.238 A  
BRANCH  13  15
HETATM   15  N   UNL     1      -7.249  14.404  67.301  1.00  0.00    -0.311 NA 
HETATM   16  H   UNL     1      -6.633  14.364  66.489  1.00  0.00     0.000 HD 
BRANCH  15  17
HETATM   17  C   UNL     1      -6.921  15.372  68.296  1.00  0.00    -0.116 A  
HETATM   18  C   UNL     1      -7.150  16.757  68.115  1.00  0.00    -0.161 A  
HETATM   19  C   UNL     1      -7.979  17.276  67.094  1.00  0.00    -0.229 A  
HETATM   20  C   UNL     1      -8.046  18.642  66.854  1.00  0.00    -0.256 A  
HETATM   21  C   UNL     1      -7.299  19.500  67.647  1.00  0.00    -0.242 A  
HETATM   22 CL   UNL     1      -7.275  21.182  67.289  1.00  0.00    -0.379 Cl 
HETATM   23  C   UNL     1      -6.559  19.005  68.720  1.00  0.00    -0.301 A  
HETATM   24  C   UNL     1      -6.504  17.647  68.994  1.00  0.00    -0.228 A  
HETATM   25  N   UNL     1      -5.806  17.226  70.063  1.00  0.00    -0.246 NA 
HETATM   26  C   UNL     1      -5.714  15.898  70.282  1.00  0.00    -0.146 A  
HETATM   27  C   UNL     1      -6.219  14.943  69.425  1.00  0.00    -0.114 A  
ENDBRANCH  15  17
ENDBRANCH  13  15
ENDBRANCH   6   7
ENDBRANCH   3   6
ENDBRANCH   2   3
TORSDOF 6
ENDMDL
MODEL      179
REMARK 921   NORMALIZED FREE ENERGY PREDICTED BY IDOCK:   -4.45 KCAL/MOL
REMARK 922        TOTAL FREE ENERGY PREDICTED BY IDOCK:   -7.02 KCAL/MOL
REMARK 923 INTER-LIGAND FREE ENERGY PREDICTED BY IDOCK:   -6.65 KCAL/MOL
REMARK 924 INTRA-LIGAND FREE ENERGY PREDICTED BY IDOCK:   -0.37 KCAL/MOL
REMARK 927      BINDING AFFINITY PREDICTED BY RF-SCORE:    0.00 PKD
ROOT
HETATM    1  C   UNL     1     -10.880  16.263  69.583  1.00  0.00    -0.345 C  
HETATM    2  C   UNL     1     -11.026  15.481  68.281  1.00  0.00    -0.305 C  
ENDROOT
BRANCH   2   3
HETATM    3  N   UNL     1      -9.894  14.569  68.003  1.00  0.00    -0.218 NA 
BRANCH   3   4
HETATM    4  C   UNL     1     -10.252  13.146  68.144  1.00  0.00    -0.239 C  
HETATM    5  C   UNL     1     -11.739  12.799  68.068  1.00  0.00    -0.405 C  
ENDBRANCH   3   4
BRANCH   3   6
HETATM    6  C   UNL     1      -9.274  14.842  66.682  1.00  0.00    -0.275 C  
BRANCH   6   7
HETATM    7  C   UNL     1     -10.170  14.441  65.527  1.00  0.00    -0.386 A  
HETATM    8  C   UNL     1     -11.159  15.289  65.013  1.00  0.00    -0.426 A  
HETATM    9  C   UNL     1     -12.123  14.805  64.143  1.00  0.00    -0.323 A  
HETATM   10  O   UNL     1     -11.282  16.585  65.426  1.00  0.00    -0.065 OA 
HETATM   11  C   UNL     1     -12.111  13.455  63.780  1.00  0.00    -0.516 A  
HETATM   12  H   UNL     1     -11.953  17.160  65.077  1.00  0.00     0.000 HD 
HETATM   13  C   UNL     1     -11.092  12.593  64.214  1.00  0.00    -0.362 A  
HETATM   14  C   UNL     1     -10.098  13.122  65.046  1.00  0.00    -0.240 A  
BRANCH  13  15
HETATM   15  N   UNL     1     -10.976  11.234  63.828  1.00  0.00    -0.532 NA 
HETATM   16  H   UNL     1     -11.830  10.782  63.502  1.00  0.00     0.000 HD 
BRANCH  15  17
HETATM   17  C   UNL     1      -9.800  10.427  63.845  1.00  0.00    -0.267 A  
HETATM   18  C   UNL     1      -9.336   9.782  65.015  1.00  0.00    -0.325 A  
HETATM   19  C   UNL     1     -10.128   9.624  66.175  1.00  0.00    -0.328 A  
HETATM   20  C   UNL     1      -9.580   9.130  67.353  1.00  0.00    -0.193 A  
HETATM   21  C   UNL     1      -8.241   8.772  67.371  1.00  0.00    -0.109 A  
HETATM   22 CL   UNL     1      -7.515   8.274  68.848  1.00  0.00    -0.090 Cl 
HETATM   23  C   UNL     1      -7.479   8.829  66.205  1.00  0.00    -0.090 A  
HETATM   24  C   UNL     1      -8.016   9.291  65.013  1.00  0.00    -0.118 A  
HETATM   25  N   UNL     1      -7.249   9.289  63.909  1.00  0.00    -0.096 NA 
HETATM   26  C   UNL     1      -7.768   9.796  62.771  1.00  0.00    -0.124 A  
HETATM   27  C   UNL     1      -9.007  10.396  62.694  1.00  0.00    -0.277 A  
ENDBRANCH  15  17
ENDBRANCH  13  15
ENDBRANCH   6   7
ENDBRANCH   3   6
ENDBRANCH   2   3
TORSDOF 6
ENDMDL
MODEL      180
REMARK 921   NORMALIZED FREE ENERGY PREDICTED BY IDOCK:   -4.44 KCAL/MOL
REMARK 922        TOTAL FREE ENERGY PREDICTED BY IDOCK:   -7.01 KCAL/MOL
REMARK 923 INTER-LIGAND FREE ENERGY PREDICTED BY IDOCK:   -5.65 KCAL/MOL
REMARK 924 INTRA-LIGAND FREE ENERGY PREDICTED BY IDOCK:   -1.36 KCAL/MOL
REMARK 927      BINDING AFFINITY PREDICTED BY RF-SCORE:    0.00 PKD
ROOT
HETATM    1  C   UNL     1     -10.154   9.173  66.690  1.00  0.00    -0.343 C  
HETATM    2  C   UNL     1      -8.746   9.316  66.122  1.00  0.00    -0.149 C  
ENDROOT
BRANCH   2   3
HETATM    3  N   UNL     1      -8.424   8.324  65.071  1.00  0.00    -0.153 NA 
BRANCH   3   4
HETATM    4  C   UNL     1      -7.936   8.942  63.825  1.00  0.00    -0.154 C  
HETATM    5  C   UNL     1      -8.994   9.507  62.877  1.00  0.00    -0.230 C  
ENDBRANCH   3   4
BRANCH   3   6
HETATM    6  C   UNL     1      -7.484   7.284  65.562  1.00  0.00    -0.085 C  
BRANCH   6   7
HETATM    7  C   UNL     1      -8.188   6.182  66.329  1.00  0.00    -0.116 A  
HETATM    8  C   UNL     1      -9.111   5.318  65.727  1.00  0.00    -0.157 A  
HETATM    9  C   UNL     1      -9.922   4.501  66.498  1.00  0.00    -0.263 A  
HETATM   10  O   UNL     1      -9.328   5.323  64.378  1.00  0.00    -0.356 OA 
HETATM   11  C   UNL     1      -9.820   4.545  67.893  1.00  0.00    -0.162 A  
HETATM   12  H   UNL     1      -9.955   4.738  63.970  1.00  0.00     0.000 HD 
HETATM   13  C   UNL     1      -8.855   5.340  68.528  1.00  0.00    -0.097 A  
HETATM   14  C   UNL     1      -8.010   6.113  67.722  1.00  0.00    -0.106 A  
BRANCH  13  15
HETATM   15  N   UNL     1      -8.647   5.379  69.930  1.00  0.00    -0.106 NA 
HETATM   16  H   UNL     1      -8.344   4.508  70.366  1.00  0.00     0.000 HD 
BRANCH  15  17
HETATM   17  C   UNL     1      -8.812   6.498  70.799  1.00  0.00    -0.144 A  
HETATM   18  C   UNL     1     -10.084   6.948  71.225  1.00  0.00    -0.203 A  
HETATM   19  C   UNL     1     -11.262   6.179  71.088  1.00  0.00    -0.355 A  
HETATM   20  C   UNL     1     -12.508   6.724  71.371  1.00  0.00    -0.379 A  
HETATM   21  C   UNL     1     -12.581   8.036  71.814  1.00  0.00    -0.325 A  
HETATM   22 CL   UNL     1     -14.120   8.766  72.053  1.00  0.00    -0.495 Cl 
HETATM   23  C   UNL     1     -11.419   8.768  72.048  1.00  0.00    -0.441 A  
HETATM   24  C   UNL     1     -10.165   8.231  71.800  1.00  0.00    -0.230 A  
HETATM   25  N   UNL     1      -9.075   8.966  72.080  1.00  0.00    -0.380 NA 
HETATM   26  C   UNL     1      -7.864   8.452  71.778  1.00  0.00    -0.126 A  
HETATM   27  C   UNL     1      -7.682   7.255  71.119  1.00  0.00    -0.092 A  
ENDBRANCH  15  17
ENDBRANCH  13  15
ENDBRANCH   6   7
ENDBRANCH   3   6
ENDBRANCH   2   3
TORSDOF 6
ENDMDL
MODEL      181
REMARK 921   NORMALIZED FREE ENERGY PREDICTED BY IDOCK:   -4.43 KCAL/MOL
REMARK 922        TOTAL FREE ENERGY PREDICTED BY IDOCK:   -7.00 KCAL/MOL
REMARK 923 INTER-LIGAND FREE ENERGY PREDICTED BY IDOCK:   -6.37 KCAL/MOL
REMARK 924 INTRA-LIGAND FREE ENERGY PREDICTED BY IDOCK:   -0.64 KCAL/MOL
REMARK 927      BINDING AFFINITY PREDICTED BY RF-SCORE:    0.00 PKD
ROOT
HETATM    1  C   UNL     1     -12.088  13.669  64.758  1.00  0.00    -0.435 C  
HETATM    2  C   UNL     1     -11.617  14.268  66.080  1.00  0.00    -0.360 C  
ENDROOT
BRANCH   2   3
HETATM    3  N   UNL     1     -10.145  14.380  66.192  1.00  0.00    -0.296 NA 
BRANCH   3   4
HETATM    4  C   UNL     1      -9.655  15.757  66.003  1.00  0.00    -0.353 C  
HETATM    5  C   UNL     1      -8.899  16.385  67.173  1.00  0.00    -0.214 C  
ENDBRANCH   3   4
BRANCH   3   6
HETATM    6  C   UNL     1      -9.641  13.796  67.461  1.00  0.00    -0.219 C  
BRANCH   6   7
HETATM    7  C   UNL     1      -9.877  12.301  67.545  1.00  0.00    -0.193 A  
HETATM    8  C   UNL     1      -9.564  11.430  66.494  1.00  0.00    -0.198 A  
HETATM    9  C   UNL     1     -10.025  10.124  66.498  1.00  0.00    -0.283 A  
HETATM   10  O   UNL     1      -8.896  11.856  65.381  1.00  0.00    -0.401 OA 
HETATM   11  C   UNL     1     -10.814   9.673  67.560  1.00  0.00    -0.265 A  
HETATM   12  H   UNL     1      -8.684  11.265  64.668  1.00  0.00     0.000 HD 
HETATM   13  C   UNL     1     -11.083  10.491  68.667  1.00  0.00    -0.267 A  
HETATM   14  C   UNL     1     -10.557  11.789  68.664  1.00  0.00    -0.250 A  
BRANCH  13  15
HETATM   15  N   UNL     1     -11.813  10.078  69.810  1.00  0.00    -0.460 NA 
HETATM   16  H   UNL     1     -12.740  10.486  69.926  1.00  0.00     0.000 HD 
BRANCH  15  17
HETATM   17  C   UNL     1     -11.397   9.156  70.816  1.00  0.00    -0.280 A  
HETATM   18  C   UNL     1     -10.038   8.824  71.029  1.00  0.00    -0.301 A  
HETATM   19  C   UNL     1      -8.967   9.574  70.493  1.00  0.00    -0.265 A  
HETATM   20  C   UNL     1      -7.657   9.121  70.592  1.00  0.00    -0.143 A  
HETATM   21  C   UNL     1      -7.409   7.924  71.246  1.00  0.00    -0.068 A  
HETATM   22 CL   UNL     1      -5.812   7.286  71.274  1.00  0.00    -0.036 Cl 
HETATM   23  C   UNL     1      -8.448   7.229  71.865  1.00  0.00    -0.114 A  
HETATM   24  C   UNL     1      -9.757   7.682  71.803  1.00  0.00    -0.161 A  
HETATM   25  N   UNL     1     -10.715   6.995  72.449  1.00  0.00    -0.222 NA 
HETATM   26  C   UNL     1     -11.992   7.415  72.330  1.00  0.00    -0.239 A  
HETATM   27  C   UNL     1     -12.383   8.454  71.514  1.00  0.00    -0.343 A  
ENDBRANCH  15  17
ENDBRANCH  13  15
ENDBRANCH   6   7
ENDBRANCH   3   6
ENDBRANCH   2   3
TORSDOF 6
ENDMDL
MODEL      182
REMARK 921   NORMALIZED FREE ENERGY PREDICTED BY IDOCK:   -4.42 KCAL/MOL
REMARK 922        TOTAL FREE ENERGY PREDICTED BY IDOCK:   -6.99 KCAL/MOL
REMARK 923 INTER-LIGAND FREE ENERGY PREDICTED BY IDOCK:   -5.90 KCAL/MOL
REMARK 924 INTRA-LIGAND FREE ENERGY PREDICTED BY IDOCK:   -1.09 KCAL/MOL
REMARK 927      BINDING AFFINITY PREDICTED BY RF-SCORE:    0.00 PKD
ROOT
HETATM    1  C   UNL     1     -11.069   6.140  72.670  1.00  0.00    -0.308 C  
HETATM    2  C   UNL     1     -11.915   6.901  71.655  1.00  0.00    -0.339 C  
ENDROOT
BRANCH   2   3
HETATM    3  N   UNL     1     -11.794   8.373  71.762  1.00  0.00    -0.295 NA 
BRANCH   3   4
HETATM    4  C   UNL     1     -12.754   8.963  72.712  1.00  0.00    -0.068 C  
HETATM    5  C   UNL     1     -14.213   9.035  72.262  1.00  0.00    -0.432 C  
ENDBRANCH   3   4
BRANCH   3   6
HETATM    6  C   UNL     1     -10.403   8.792  72.069  1.00  0.00    -0.340 C  
BRANCH   6   7
HETATM    7  C   UNL     1      -9.666   9.297  70.844  1.00  0.00    -0.346 A  
HETATM    8  C   UNL     1      -8.287   9.126  70.673  1.00  0.00    -0.205 A  
HETATM    9  C   UNL     1      -7.606   9.816  69.684  1.00  0.00    -0.120 A  
HETATM   10  O   UNL     1      -7.543   8.366  71.532  1.00  0.00    -0.083 OA 
HETATM   11  C   UNL     1      -8.303  10.698  68.852  1.00  0.00    -0.150 A  
HETATM   12  H   UNL     1      -6.608   8.250  71.416  1.00  0.00     0.000 HD 
HETATM   13  C   UNL     1      -9.695  10.837  68.943  1.00  0.00    -0.198 A  
HETATM   14  C   UNL     1     -10.367  10.084  69.914  1.00  0.00    -0.315 A  
BRANCH  13  15
HETATM   15  N   UNL     1     -10.476  11.655  68.087  1.00  0.00    -0.188 NA 
HETATM   16  H   UNL     1     -10.781  11.231  67.211  1.00  0.00     0.000 HD 
BRANCH  15  17
HETATM   17  C   UNL     1     -10.883  13.004  68.313  1.00  0.00    -0.246 A  
HETATM   18  C   UNL     1     -10.049  14.109  68.025  1.00  0.00    -0.233 A  
HETATM   19  C   UNL     1      -8.886  14.011  67.226  1.00  0.00    -0.225 A  
HETATM   20  C   UNL     1      -8.012  15.084  67.103  1.00  0.00    -0.238 A  
HETATM   21  C   UNL     1      -8.305  16.268  67.762  1.00  0.00    -0.161 A  
HETATM   22 CL   UNL     1      -7.177  17.565  67.721  1.00  0.00    -0.178 Cl 
HETATM   23  C   UNL     1      -9.499  16.405  68.468  1.00  0.00    -0.227 A  
HETATM   24  C   UNL     1     -10.399  15.356  68.577  1.00  0.00    -0.226 A  
HETATM   25  N   UNL     1     -11.553  15.553  69.238  1.00  0.00    -0.334 NA 
HETATM   26  C   UNL     1     -12.391  14.505  69.385  1.00  0.00    -0.177 A  
HETATM   27  C   UNL     1     -12.094  13.223  68.976  1.00  0.00    -0.268 A  
ENDBRANCH  15  17
ENDBRANCH  13  15
ENDBRANCH   6   7
ENDBRANCH   3   6
ENDBRANCH   2   3
TORSDOF 6
ENDMDL
MODEL      183
REMARK 921   NORMALIZED FREE ENERGY PREDICTED BY IDOCK:   -4.42 KCAL/MOL
REMARK 922        TOTAL FREE ENERGY PREDICTED BY IDOCK:   -6.98 KCAL/MOL
REMARK 923 INTER-LIGAND FREE ENERGY PREDICTED BY IDOCK:   -6.43 KCAL/MOL
REMARK 924 INTRA-LIGAND FREE ENERGY PREDICTED BY IDOCK:   -0.55 KCAL/MOL
REMARK 927      BINDING AFFINITY PREDICTED BY RF-SCORE:    0.00 PKD
ROOT
HETATM    1  C   UNL     1     -11.688  16.042  72.339  1.00  0.00    -0.573 C  
HETATM    2  C   UNL     1     -11.800  15.904  70.824  1.00  0.00    -0.391 C  
ENDROOT
BRANCH   2   3
HETATM    3  N   UNL     1     -11.924  14.504  70.360  1.00  0.00    -0.298 NA 
BRANCH   3   4
HETATM    4  C   UNL     1     -12.787  13.683  71.229  1.00  0.00    -0.344 C  
HETATM    5  C   UNL     1     -14.199  14.207  71.491  1.00  0.00    -0.311 C  
ENDBRANCH   3   4
BRANCH   3   6
HETATM    6  C   UNL     1     -12.357  14.427  68.942  1.00  0.00    -0.069 C  
BRANCH   6   7
HETATM    7  C   UNL     1     -11.585  13.387  68.155  1.00  0.00    -0.376 A  
HETATM    8  C   UNL     1     -11.918  13.039  66.840  1.00  0.00    -0.352 A  
HETATM    9  C   UNL     1     -11.368  11.916  66.244  1.00  0.00    -0.394 A  
HETATM   10  O   UNL     1     -12.871  13.719  66.135  1.00  0.00    -0.349 OA 
HETATM   11  C   UNL     1     -10.475  11.118  66.968  1.00  0.00    -0.277 A  
HETATM   12  H   UNL     1     -13.097  13.483  65.243  1.00  0.00     0.000 HD 
HETATM   13  C   UNL     1     -10.059  11.477  68.258  1.00  0.00    -0.199 A  
HETATM   14  C   UNL     1     -10.587  12.649  68.814  1.00  0.00    -0.214 A  
BRANCH  13  15
HETATM   15  N   UNL     1      -9.104  10.757  69.020  1.00  0.00    -0.282 NA 
HETATM   16  H   UNL     1      -8.552  11.302  69.684  1.00  0.00     0.000 HD 
BRANCH  15  17
HETATM   17  C   UNL     1      -8.826   9.359  68.963  1.00  0.00    -0.141 A  
HETATM   18  C   UNL     1      -9.579   8.405  69.688  1.00  0.00    -0.163 A  
HETATM   19  C   UNL     1     -10.829   8.695  70.279  1.00  0.00    -0.250 A  
HETATM   20  C   UNL     1     -11.454   7.778  71.115  1.00  0.00    -0.295 A  
HETATM   21  C   UNL     1     -10.841   6.556  71.348  1.00  0.00    -0.245 A  
HETATM   22 CL   UNL     1     -11.538   5.457  72.472  1.00  0.00    -0.274 Cl 
HETATM   23  C   UNL     1      -9.659   6.223  70.689  1.00  0.00    -0.189 A  
HETATM   24  C   UNL     1      -9.036   7.113  69.828  1.00  0.00    -0.142 A  
HETATM   25  N   UNL     1      -7.918   6.728  69.189  1.00  0.00    -0.111 NA 
HETATM   26  C   UNL     1      -7.292   7.626  68.400  1.00  0.00    -0.095 A  
HETATM   27  C   UNL     1      -7.681   8.943  68.280  1.00  0.00    -0.096 A  
ENDBRANCH  15  17
ENDBRANCH  13  15
ENDBRANCH   6   7
ENDBRANCH   3   6
ENDBRANCH   2   3
TORSDOF 6
ENDMDL
MODEL      184
REMARK 921   NORMALIZED FREE ENERGY PREDICTED BY IDOCK:   -4.42 KCAL/MOL
REMARK 922        TOTAL FREE ENERGY PREDICTED BY IDOCK:   -6.98 KCAL/MOL
REMARK 923 INTER-LIGAND FREE ENERGY PREDICTED BY IDOCK:   -6.10 KCAL/MOL
REMARK 924 INTRA-LIGAND FREE ENERGY PREDICTED BY IDOCK:   -0.88 KCAL/MOL
REMARK 927      BINDING AFFINITY PREDICTED BY RF-SCORE:    0.00 PKD
ROOT
HETATM    1  C   UNL     1     -10.645  17.537  65.844  1.00  0.00    -0.203 C  
HETATM    2  C   UNL     1     -10.457  18.226  67.192  1.00  0.00    -0.395 C  
ENDROOT
BRANCH   2   3
HETATM    3  N   UNL     1      -9.797  17.376  68.209  1.00  0.00    -0.293 NA 
BRANCH   3   4
HETATM    4  C   UNL     1      -8.528  17.944  68.699  1.00  0.00    -0.266 C  
HETATM    5  C   UNL     1      -7.322  17.006  68.732  1.00  0.00    -0.236 C  
ENDBRANCH   3   4
BRANCH   3   6
HETATM    6  C   UNL     1     -10.712  17.047  69.331  1.00  0.00    -0.184 C  
BRANCH   6   7
HETATM    7  C   UNL     1     -11.086  15.578  69.363  1.00  0.00    -0.291 A  
HETATM    8  C   UNL     1     -12.233  15.108  70.013  1.00  0.00    -0.338 A  
HETATM    9  C   UNL     1     -12.410  13.754  70.246  1.00  0.00    -0.407 A  
HETATM   10  O   UNL     1     -13.163  15.961  70.538  1.00  0.00    -0.739 OA 
HETATM   11  C   UNL     1     -11.428  12.848  69.832  1.00  0.00    -0.147 A  
HETATM   12  H   UNL     1     -13.941  15.642  70.980  1.00  0.00     0.000 HD 
HETATM   13  C   UNL     1     -10.304  13.273  69.109  1.00  0.00     0.149 A  
HETATM   14  C   UNL     1     -10.179  14.641  68.838  1.00  0.00    -0.241 A  
BRANCH  13  15
HETATM   15  N   UNL     1      -9.308  12.405  68.595  1.00  0.00    -0.399 NA 
HETATM   16  H   UNL     1      -8.418  12.392  69.095  1.00  0.00     0.000 HD 
BRANCH  15  17
HETATM   17  C   UNL     1      -9.409  11.547  67.460  1.00  0.00    -0.166 A  
HETATM   18  C   UNL     1      -9.991  11.965  66.241  1.00  0.00    -0.245 A  
HETATM   19  C   UNL     1     -10.247  13.320  65.931  1.00  0.00    -0.295 A  
HETATM   20  C   UNL     1     -10.965  13.670  64.795  1.00  0.00    -0.384 A  
HETATM   21  C   UNL     1     -11.415  12.667  63.950  1.00  0.00    -0.442 A  
HETATM   22 CL   UNL     1     -12.409  13.071  62.606  1.00  0.00     0.608 Cl 
HETATM   23  C   UNL     1     -11.082  11.336  64.194  1.00  0.00    -0.306 A  
HETATM   24  C   UNL     1     -10.339  10.970  65.307  1.00  0.00    -0.275 A  
HETATM   25  N   UNL     1     -10.012   9.677  65.475  1.00  0.00    -0.289 NA 
HETATM   26  C   UNL     1      -9.340   9.329  66.593  1.00  0.00    -0.170 A  
HETATM   27  C   UNL     1      -9.047  10.206  67.614  1.00  0.00    -0.144 A  
ENDBRANCH  15  17
ENDBRANCH  13  15
ENDBRANCH   6   7
ENDBRANCH   3   6
ENDBRANCH   2   3
TORSDOF 6
ENDMDL
MODEL      185
REMARK 921   NORMALIZED FREE ENERGY PREDICTED BY IDOCK:   -4.42 KCAL/MOL
REMARK 922        TOTAL FREE ENERGY PREDICTED BY IDOCK:   -6.98 KCAL/MOL
REMARK 923 INTER-LIGAND FREE ENERGY PREDICTED BY IDOCK:   -6.51 KCAL/MOL
REMARK 924 INTRA-LIGAND FREE ENERGY PREDICTED BY IDOCK:   -0.47 KCAL/MOL
REMARK 927      BINDING AFFINITY PREDICTED BY RF-SCORE:    0.00 PKD
ROOT
HETATM    1  C   UNL     1      -9.594   4.475  67.956  1.00  0.00    -0.209 C  
HETATM    2  C   UNL     1      -9.233   5.956  67.889  1.00  0.00    -0.108 C  
ENDROOT
BRANCH   2   3
HETATM    3  N   UNL     1      -9.622   6.720  69.096  1.00  0.00    -0.140 NA 
BRANCH   3   4
HETATM    4  C   UNL     1      -9.511   5.933  70.337  1.00  0.00    -0.163 C  
HETATM    5  C   UNL     1      -8.231   6.111  71.153  1.00  0.00    -0.123 C  
ENDBRANCH   3   4
BRANCH   3   6
HETATM    6  C   UNL     1      -8.881   8.002  69.201  1.00  0.00    -0.145 C  
BRANCH   6   7
HETATM    7  C   UNL     1      -9.804   9.202  69.270  1.00  0.00    -0.175 A  
HETATM    8  C   UNL     1     -10.341   9.668  70.477  1.00  0.00    -0.295 A  
HETATM    9  C   UNL     1     -11.373  10.592  70.481  1.00  0.00    -0.400 A  
HETATM   10  O   UNL     1      -9.951   9.158  71.683  1.00  0.00    -0.316 OA 
HETATM   11  C   UNL     1     -11.889  11.057  69.267  1.00  0.00    -0.411 A  
HETATM   12  H   UNL     1     -10.316   9.474  72.501  1.00  0.00     0.000 HD 
HETATM   13  C   UNL     1     -11.326  10.672  68.042  1.00  0.00    -0.278 A  
HETATM   14  C   UNL     1     -10.245   9.782  68.068  1.00  0.00    -0.229 A  
BRANCH  13  15
HETATM   15  N   UNL     1     -11.748  11.160  66.779  1.00  0.00    -0.247 NA 
HETATM   16  H   UNL     1     -12.316  10.525  66.217  1.00  0.00     0.000 HD 
BRANCH  15  17
HETATM   17  C   UNL     1     -11.469  12.436  66.206  1.00  0.00    -0.371 A  
HETATM   18  C   UNL     1     -10.294  13.164  66.507  1.00  0.00    -0.284 A  
HETATM   19  C   UNL     1      -9.171  12.590  67.145  1.00  0.00    -0.205 A  
HETATM   20  C   UNL     1      -8.107  13.378  67.566  1.00  0.00    -0.183 A  
HETATM   21  C   UNL     1      -8.151  14.743  67.332  1.00  0.00    -0.198 A  
HETATM   22 CL   UNL     1      -6.903  15.751  67.951  1.00  0.00    -0.145 Cl 
HETATM   23  C   UNL     1      -9.207  15.303  66.614  1.00  0.00    -0.302 A  
HETATM   24  C   UNL     1     -10.263  14.529  66.160  1.00  0.00    -0.305 A  
HETATM   25  N   UNL     1     -11.236  15.112  65.440  1.00  0.00    -0.350 NA 
HETATM   26  C   UNL     1     -12.286  14.355  65.056  1.00  0.00    -0.396 A  
HETATM   27  C   UNL     1     -12.463  13.042  65.433  1.00  0.00    -0.531 A  
ENDBRANCH  15  17
ENDBRANCH  13  15
ENDBRANCH   6   7
ENDBRANCH   3   6
ENDBRANCH   2   3
TORSDOF 6
ENDMDL
MODEL      186
REMARK 921   NORMALIZED FREE ENERGY PREDICTED BY IDOCK:   -4.41 KCAL/MOL
REMARK 922        TOTAL FREE ENERGY PREDICTED BY IDOCK:   -6.98 KCAL/MOL
REMARK 923 INTER-LIGAND FREE ENERGY PREDICTED BY IDOCK:   -6.66 KCAL/MOL
REMARK 924 INTRA-LIGAND FREE ENERGY PREDICTED BY IDOCK:   -0.32 KCAL/MOL
REMARK 927      BINDING AFFINITY PREDICTED BY RF-SCORE:    0.00 PKD
ROOT
HETATM    1  C   UNL     1     -12.455  16.096  73.834  1.00  0.00    -0.706 C  
HETATM    2  C   UNL     1     -11.491  15.566  72.778  1.00  0.00    -0.239 C  
ENDROOT
BRANCH   2   3
HETATM    3  N   UNL     1     -11.849  15.955  71.395  1.00  0.00    -0.427 NA 
BRANCH   3   4
HETATM    4  C   UNL     1     -10.778  15.675  70.421  1.00  0.00    -0.317 C  
HETATM    5  C   UNL     1     -10.636  16.652  69.254  1.00  0.00    -0.343 C  
ENDBRANCH   3   4
BRANCH   3   6
HETATM    6  C   UNL     1     -13.138  15.356  70.968  1.00  0.00    -0.501 C  
BRANCH   6   7
HETATM    7  C   UNL     1     -13.030  13.865  70.717  1.00  0.00    -0.265 A  
HETATM    8  C   UNL     1     -13.227  12.916  71.728  1.00  0.00    -0.384 A  
HETATM    9  C   UNL     1     -12.870  11.591  71.534  1.00  0.00    -0.485 A  
HETATM   10  O   UNL     1     -13.670  13.269  72.971  1.00  0.00    -0.579 OA 
HETATM   11  C   UNL     1     -12.301  11.200  70.317  1.00  0.00    -0.397 A  
HETATM   12  H   UNL     1     -13.804  12.626  73.656  1.00  0.00     0.000 HD 
HETATM   13  C   UNL     1     -12.160  12.105  69.255  1.00  0.00    -0.178 A  
HETATM   14  C   UNL     1     -12.582  13.425  69.459  1.00  0.00     0.181 A  
BRANCH  13  15
HETATM   15  N   UNL     1     -11.661  11.763  67.973  1.00  0.00    -0.396 NA 
HETATM   16  H   UNL     1     -12.292  11.917  67.187  1.00  0.00     0.000 HD 
BRANCH  15  17
HETATM   17  C   UNL     1     -10.376  11.229  67.659  1.00  0.00    -0.184 A  
HETATM   18  C   UNL     1      -9.183  11.972  67.821  1.00  0.00    -0.190 A  
HETATM   19  C   UNL     1      -9.113  13.167  68.572  1.00  0.00    -0.053 A  
HETATM   20  C   UNL     1      -7.963  13.947  68.571  1.00  0.00    -0.137 A  
HETATM   21  C   UNL     1      -6.868  13.525  67.833  1.00  0.00    -0.151 A  
HETATM   22 CL   UNL     1      -5.480  14.534  67.720  1.00  0.00    -0.076 Cl 
HETATM   23  C   UNL     1      -6.893  12.298  67.171  1.00  0.00    -0.101 A  
HETATM   24  C   UNL     1      -8.021  11.492  67.186  1.00  0.00    -0.160 A  
HETATM   25  N   UNL     1      -7.979  10.301  66.564  1.00  0.00    -0.115 NA 
HETATM   26  C   UNL     1      -9.104   9.555  66.538  1.00  0.00    -0.151 A  
HETATM   27  C   UNL     1     -10.317   9.980  67.035  1.00  0.00    -0.305 A  
ENDBRANCH  15  17
ENDBRANCH  13  15
ENDBRANCH   6   7
ENDBRANCH   3   6
ENDBRANCH   2   3
TORSDOF 6
ENDMDL
MODEL      187
REMARK 921   NORMALIZED FREE ENERGY PREDICTED BY IDOCK:   -4.41 KCAL/MOL
REMARK 922        TOTAL FREE ENERGY PREDICTED BY IDOCK:   -6.97 KCAL/MOL
REMARK 923 INTER-LIGAND FREE ENERGY PREDICTED BY IDOCK:   -5.57 KCAL/MOL
REMARK 924 INTRA-LIGAND FREE ENERGY PREDICTED BY IDOCK:   -1.41 KCAL/MOL
REMARK 927      BINDING AFFINITY PREDICTED BY RF-SCORE:    0.00 PKD
ROOT
HETATM    1  C   UNL     1     -12.230   9.554  70.420  1.00  0.00     0.003 C  
HETATM    2  C   UNL     1     -11.237   9.696  71.569  1.00  0.00    -0.307 C  
ENDROOT
BRANCH   2   3
HETATM    3  N   UNL     1     -10.217   8.624  71.611  1.00  0.00    -0.266 NA 
BRANCH   3   4
HETATM    4  C   UNL     1     -10.664   7.432  72.355  1.00  0.00    -0.253 C  
HETATM    5  C   UNL     1     -10.350   6.073  71.730  1.00  0.00    -0.259 C  
ENDBRANCH   3   4
BRANCH   3   6
HETATM    6  C   UNL     1      -9.737   8.265  70.253  1.00  0.00    -0.175 C  
BRANCH   6   7
HETATM    7  C   UNL     1      -8.587   9.140  69.795  1.00  0.00    -0.144 A  
HETATM    8  C   UNL     1      -7.497   9.443  70.620  1.00  0.00    -0.136 A  
HETATM    9  C   UNL     1      -6.603  10.442  70.272  1.00  0.00    -0.141 A  
HETATM   10  O   UNL     1      -7.333   8.853  71.841  1.00  0.00    -0.281 OA 
HETATM   11  C   UNL     1      -6.795  11.159  69.087  1.00  0.00    -0.102 A  
HETATM   12  H   UNL     1      -6.594   9.059  72.401  1.00  0.00     0.000 HD 
HETATM   13  C   UNL     1      -7.829  10.832  68.198  1.00  0.00    -0.112 A  
HETATM   14  C   UNL     1      -8.684   9.780  68.547  1.00  0.00    -0.120 A  
BRANCH  13  15
HETATM   15  N   UNL     1      -8.039  11.465  66.946  1.00  0.00    -0.153 NA 
HETATM   16  H   UNL     1      -7.240  11.491  66.313  1.00  0.00     0.000 HD 
BRANCH  15  17
HETATM   17  C   UNL     1      -9.241  12.071  66.474  1.00  0.00    -0.216 A  
HETATM   18  C   UNL     1      -9.941  13.052  67.215  1.00  0.00    -0.232 A  
HETATM   19  C   UNL     1      -9.380  13.732  68.319  1.00  0.00    -0.209 A  
HETATM   20  C   UNL     1     -10.155  14.567  69.114  1.00  0.00    -0.145 A  
HETATM   21  C   UNL     1     -11.493  14.742  68.796  1.00  0.00    -0.301 A  
HETATM   22 CL   UNL     1     -12.498  15.674  69.836  1.00  0.00    -0.287 Cl 
HETATM   23  C   UNL     1     -12.030  14.156  67.651  1.00  0.00    -0.405 A  
HETATM   24  C   UNL     1     -11.264  13.344  66.829  1.00  0.00    -0.310 A  
HETATM   25  N   UNL     1     -11.820  12.833  65.717  1.00  0.00    -0.411 NA 
HETATM   26  C   UNL     1     -11.078  11.998  64.958  1.00  0.00    -0.316 A  
HETATM   27  C   UNL     1      -9.816  11.567  65.304  1.00  0.00    -0.286 A  
ENDBRANCH  15  17
ENDBRANCH  13  15
ENDBRANCH   6   7
ENDBRANCH   3   6
ENDBRANCH   2   3
TORSDOF 6
ENDMDL
MODEL      188
REMARK 921   NORMALIZED FREE ENERGY PREDICTED BY IDOCK:   -4.41 KCAL/MOL
REMARK 922        TOTAL FREE ENERGY PREDICTED BY IDOCK:   -6.97 KCAL/MOL
REMARK 923 INTER-LIGAND FREE ENERGY PREDICTED BY IDOCK:   -6.04 KCAL/MOL
REMARK 924 INTRA-LIGAND FREE ENERGY PREDICTED BY IDOCK:   -0.93 KCAL/MOL
REMARK 927      BINDING AFFINITY PREDICTED BY RF-SCORE:    0.00 PKD
ROOT
HETATM    1  C   UNL     1      -7.976  19.668  65.977  1.00  0.00    -0.337 C  
HETATM    2  C   UNL     1      -7.181  18.367  65.939  1.00  0.00    -0.232 C  
ENDROOT
BRANCH   2   3
HETATM    3  N   UNL     1      -7.208  17.615  67.213  1.00  0.00    -0.178 NA 
BRANCH   3   4
HETATM    4  C   UNL     1      -5.965  17.756  67.993  1.00  0.00    -0.163 C  
HETATM    5  C   UNL     1      -5.976  17.192  69.414  1.00  0.00    -0.222 C  
ENDBRANCH   3   4
BRANCH   3   6
HETATM    6  C   UNL     1      -8.401  17.954  68.030  1.00  0.00    -0.258 C  
BRANCH   6   7
HETATM    7  C   UNL     1      -9.363  16.790  68.164  1.00  0.00    -0.234 A  
HETATM    8  C   UNL     1     -10.464  16.821  69.027  1.00  0.00    -0.336 A  
HETATM    9  C   UNL     1     -11.167  15.663  69.320  1.00  0.00    -0.320 A  
HETATM   10  O   UNL     1     -10.822  17.957  69.698  1.00  0.00    -0.114 OA 
HETATM   11  C   UNL     1     -10.766  14.450  68.750  1.00  0.00    -0.258 A  
HETATM   12  H   UNL     1     -11.569  17.978  70.284  1.00  0.00     0.000 HD 
HETATM   13  C   UNL     1      -9.717  14.393  67.822  1.00  0.00    -0.221 A  
HETATM   14  C   UNL     1      -9.061  15.588  67.500  1.00  0.00    -0.198 A  
BRANCH  13  15
HETATM   15  N   UNL     1      -9.305  13.214  67.151  1.00  0.00    -0.227 NA 
HETATM   16  H   UNL     1      -8.532  12.700  67.574  1.00  0.00     0.000 HD 
BRANCH  15  17
HETATM   17  C   UNL     1      -9.849  12.665  65.952  1.00  0.00    -0.244 A  
HETATM   18  C   UNL     1      -9.479  11.390  65.462  1.00  0.00    -0.251 A  
HETATM   19  C   UNL     1      -8.790  10.434  66.242  1.00  0.00    -0.166 A  
HETATM   20  C   UNL     1      -8.307   9.262  65.673  1.00  0.00    -0.128 A  
HETATM   21  C   UNL     1      -8.528   9.031  64.324  1.00  0.00    -0.170 A  
HETATM   22 CL   UNL     1      -7.834   7.647  63.575  1.00  0.00    -0.133 Cl 
HETATM   23  C   UNL     1      -9.293   9.920  63.572  1.00  0.00    -0.231 A  
HETATM   24  C   UNL     1      -9.810  11.080  64.129  1.00  0.00    -0.308 A  
HETATM   25  N   UNL     1     -10.573  11.884  63.369  1.00  0.00    -0.428 NA 
HETATM   26  C   UNL     1     -11.019  13.037  63.910  1.00  0.00    -0.339 A  
HETATM   27  C   UNL     1     -10.666  13.482  65.166  1.00  0.00    -0.349 A  
ENDBRANCH  15  17
ENDBRANCH  13  15
ENDBRANCH   6   7
ENDBRANCH   3   6
ENDBRANCH   2   3
TORSDOF 6
ENDMDL
MODEL      189
REMARK 921   NORMALIZED FREE ENERGY PREDICTED BY IDOCK:   -4.41 KCAL/MOL
REMARK 922        TOTAL FREE ENERGY PREDICTED BY IDOCK:   -6.97 KCAL/MOL
REMARK 923 INTER-LIGAND FREE ENERGY PREDICTED BY IDOCK:   -6.08 KCAL/MOL
REMARK 924 INTRA-LIGAND FREE ENERGY PREDICTED BY IDOCK:   -0.89 KCAL/MOL
REMARK 927      BINDING AFFINITY PREDICTED BY RF-SCORE:    0.00 PKD
ROOT
HETATM    1  C   UNL     1      -6.720   5.466  69.421  1.00  0.00    -0.052 C  
HETATM    2  C   UNL     1      -7.377   4.811  70.632  1.00  0.00    -0.056 C  
ENDROOT
BRANCH   2   3
HETATM    3  N   UNL     1      -8.853   4.935  70.649  1.00  0.00    -0.115 NA 
BRANCH   3   4
HETATM    4  C   UNL     1      -9.540   3.719  70.178  1.00  0.00    -0.188 C  
HETATM    5  C   UNL     1      -9.607   2.545  71.154  1.00  0.00    -0.218 C  
ENDBRANCH   3   4
BRANCH   3   6
HETATM    6  C   UNL     1      -9.356   5.359  71.980  1.00  0.00    -0.144 C  
BRANCH   6   7
HETATM    7  C   UNL     1     -10.454   6.400  71.881  1.00  0.00    -0.239 A  
HETATM    8  C   UNL     1     -11.772   6.141  72.274  1.00  0.00    -0.302 A  
HETATM    9  C   UNL     1     -12.795   7.011  71.934  1.00  0.00    -0.296 A  
HETATM   10  O   UNL     1     -12.122   4.980  72.904  1.00  0.00    -0.328 OA 
HETATM   11  C   UNL     1     -12.507   8.157  71.185  1.00  0.00    -0.195 A  
HETATM   12  H   UNL     1     -13.016   4.804  73.171  1.00  0.00     0.000 HD 
HETATM   13  C   UNL     1     -11.189   8.489  70.841  1.00  0.00    -0.266 A  
HETATM   14  C   UNL     1     -10.168   7.621  71.247  1.00  0.00    -0.204 A  
BRANCH  13  15
HETATM   15  N   UNL     1     -10.816   9.669  70.148  1.00  0.00    -0.259 NA 
HETATM   16  H   UNL     1     -10.720  10.513  70.713  1.00  0.00     0.000 HD 
BRANCH  15  17
HETATM   17  C   UNL     1     -10.558   9.808  68.752  1.00  0.00    -0.219 A  
HETATM   18  C   UNL     1     -10.926  10.962  68.022  1.00  0.00    -0.317 A  
HETATM   19  C   UNL     1     -11.297  12.180  68.638  1.00  0.00    -0.330 A  
HETATM   20  C   UNL     1     -11.805  13.234  67.888  1.00  0.00    -0.388 A  
HETATM   21  C   UNL     1     -11.926  13.083  66.516  1.00  0.00    -0.391 A  
HETATM   22 CL   UNL     1     -12.663  14.329  65.587  1.00  0.00    -0.461 Cl 
HETATM   23  C   UNL     1     -11.468  11.925  65.889  1.00  0.00    -0.340 A  
HETATM   24  C   UNL     1     -10.931  10.875  66.617  1.00  0.00    -0.148 A  
HETATM   25  N   UNL     1     -10.470   9.796  65.960  1.00  0.00    -0.095 NA 
HETATM   26  C   UNL     1     -10.003   8.758  66.686  1.00  0.00    -0.285 A  
HETATM   27  C   UNL     1     -10.054   8.702  68.063  1.00  0.00    -0.241 A  
ENDBRANCH  15  17
ENDBRANCH  13  15
ENDBRANCH   6   7
ENDBRANCH   3   6
ENDBRANCH   2   3
TORSDOF 6
ENDMDL
MODEL      190
REMARK 921   NORMALIZED FREE ENERGY PREDICTED BY IDOCK:   -4.41 KCAL/MOL
REMARK 922        TOTAL FREE ENERGY PREDICTED BY IDOCK:   -6.97 KCAL/MOL
REMARK 923 INTER-LIGAND FREE ENERGY PREDICTED BY IDOCK:   -6.54 KCAL/MOL
REMARK 924 INTRA-LIGAND FREE ENERGY PREDICTED BY IDOCK:   -0.43 KCAL/MOL
REMARK 927      BINDING AFFINITY PREDICTED BY RF-SCORE:    0.00 PKD
ROOT
HETATM    1  C   UNL     1     -11.816  16.191  73.031  1.00  0.00    -0.510 C  
HETATM    2  C   UNL     1     -11.110  15.458  71.894  1.00  0.00    -0.160 C  
ENDROOT
BRANCH   2   3
HETATM    3  N   UNL     1     -11.581  15.854  70.547  1.00  0.00    -0.359 NA 
BRANCH   3   4
HETATM    4  C   UNL     1     -10.563  15.659  69.499  1.00  0.00    -0.266 C  
HETATM    5  C   UNL     1     -11.026  15.817  68.051  1.00  0.00    -0.330 C  
ENDBRANCH   3   4
BRANCH   3   6
HETATM    6  C   UNL     1     -12.858  15.186  70.190  1.00  0.00    -0.164 C  
BRANCH   6   7
HETATM    7  C   UNL     1     -12.847  13.704  70.509  1.00  0.00    -0.167 A  
HETATM    8  C   UNL     1     -13.426  13.181  71.672  1.00  0.00    -0.237 A  
HETATM    9  C   UNL     1     -13.177  11.875  72.060  1.00  0.00    -0.461 A  
HETATM   10  O   UNL     1     -14.163  13.957  72.521  1.00  0.00    -0.671 OA 
HETATM   11  C   UNL     1     -12.332  11.073  71.286  1.00  0.00    -0.426 A  
HETATM   12  H   UNL     1     -14.556  13.603  73.310  1.00  0.00     0.000 HD 
HETATM   13  C   UNL     1     -11.796  11.537  70.076  1.00  0.00    -0.355 A  
HETATM   14  C   UNL     1     -12.111  12.842  69.677  1.00  0.00    -0.286 A  
BRANCH  13  15
HETATM   15  N   UNL     1     -10.994  10.757  69.205  1.00  0.00    -0.225 NA 
HETATM   16  H   UNL     1     -11.254  10.769  68.218  1.00  0.00     0.000 HD 
BRANCH  15  17
HETATM   17  C   UNL     1      -9.864   9.959  69.551  1.00  0.00    -0.223 A  
HETATM   18  C   UNL     1      -9.989   8.659  70.094  1.00  0.00    -0.193 A  
HETATM   19  C   UNL     1     -11.195   7.922  70.065  1.00  0.00    -0.105 A  
HETATM   20  C   UNL     1     -11.315   6.720  70.751  1.00  0.00    -0.374 A  
HETATM   21  C   UNL     1     -10.222   6.237  71.454  1.00  0.00    -0.201 A  
HETATM   22 CL   UNL     1     -10.386   4.815  72.407  1.00  0.00    -0.254 Cl 
HETATM   23  C   UNL     1      -8.999   6.905  71.405  1.00  0.00    -0.141 A  
HETATM   24  C   UNL     1      -8.852   8.090  70.701  1.00  0.00    -0.143 A  
HETATM   25  N   UNL     1      -7.642   8.674  70.654  1.00  0.00    -0.071 NA 
HETATM   26  C   UNL     1      -7.529   9.857  70.014  1.00  0.00    -0.168 A  
HETATM   27  C   UNL     1      -8.597  10.546  69.482  1.00  0.00    -0.047 A  
ENDBRANCH  15  17
ENDBRANCH  13  15
ENDBRANCH   6   7
ENDBRANCH   3   6
ENDBRANCH   2   3
TORSDOF 6
ENDMDL
MODEL      191
REMARK 921   NORMALIZED FREE ENERGY PREDICTED BY IDOCK:   -4.40 KCAL/MOL
REMARK 922        TOTAL FREE ENERGY PREDICTED BY IDOCK:   -6.95 KCAL/MOL
REMARK 923 INTER-LIGAND FREE ENERGY PREDICTED BY IDOCK:   -6.64 KCAL/MOL
REMARK 924 INTRA-LIGAND FREE ENERGY PREDICTED BY IDOCK:   -0.31 KCAL/MOL
REMARK 927      BINDING AFFINITY PREDICTED BY RF-SCORE:    0.00 PKD
ROOT
HETATM    1  C   UNL     1     -11.946  10.515  70.769  1.00  0.00    -0.472 C  
HETATM    2  C   UNL     1     -10.943  10.219  69.659  1.00  0.00    -0.270 C  
ENDROOT
BRANCH   2   3
HETATM    3  N   UNL     1      -9.550  10.072  70.138  1.00  0.00    -0.179 NA 
BRANCH   3   4
HETATM    4  C   UNL     1      -9.399   9.020  71.159  1.00  0.00    -0.266 C  
HETATM    5  C   UNL     1      -9.206   7.591  70.652  1.00  0.00    -0.159 C  
ENDBRANCH   3   4
BRANCH   3   6
HETATM    6  C   UNL     1      -8.598   9.877  69.015  1.00  0.00    -0.149 C  
BRANCH   6   7
HETATM    7  C   UNL     1      -8.064  11.188  68.473  1.00  0.00    -0.146 A  
HETATM    8  C   UNL     1      -6.712  11.377  68.161  1.00  0.00    -0.059 A  
HETATM    9  C   UNL     1      -6.213  12.646  67.917  1.00  0.00    -0.108 A  
HETATM   10  O   UNL     1      -5.814  10.347  68.191  1.00  0.00    -0.044 OA 
HETATM   11  C   UNL     1      -7.069  13.750  67.991  1.00  0.00    -0.133 A  
HETATM   12  H   UNL     1      -4.898  10.476  67.980  1.00  0.00     0.000 HD 
HETATM   13  C   UNL     1      -8.443  13.592  68.224  1.00  0.00    -0.170 A  
HETATM   14  C   UNL     1      -8.930  12.293  68.410  1.00  0.00    -0.141 A  
BRANCH  13  15
HETATM   15  N   UNL     1      -9.380  14.656  68.239  1.00  0.00    -0.193 NA 
HETATM   16  H   UNL     1      -9.580  15.070  69.150  1.00  0.00     0.000 HD 
BRANCH  15  17
HETATM   17  C   UNL     1     -10.075  15.214  67.125  1.00  0.00    -0.239 A  
HETATM   18  C   UNL     1     -10.905  14.439  66.281  1.00  0.00    -0.313 A  
HETATM   19  C   UNL     1     -11.360  13.145  66.622  1.00  0.00    -0.361 A  
HETATM   20  C   UNL     1     -12.037  12.359  65.698  1.00  0.00    -0.396 A  
HETATM   21  C   UNL     1     -12.281  12.872  64.433  1.00  0.00    -0.417 A  
HETATM   22 CL   UNL     1     -13.009  11.872  63.238  1.00  0.00    -0.436 Cl 
HETATM   23  C   UNL     1     -11.926  14.183  64.122  1.00  0.00    -0.421 A  
HETATM   24  C   UNL     1     -11.277  14.993  65.041  1.00  0.00    -0.409 A  
HETATM   25  N   UNL     1     -10.990  16.262  64.703  1.00  0.00    -0.681 NA 
HETATM   26  C   UNL     1     -10.306  17.019  65.587  1.00  0.00    -0.209 A  
HETATM   27  C   UNL     1      -9.806  16.541  66.779  1.00  0.00    -0.274 A  
ENDBRANCH  15  17
ENDBRANCH  13  15
ENDBRANCH   6   7
ENDBRANCH   3   6
ENDBRANCH   2   3
TORSDOF 6
ENDMDL
MODEL      192
REMARK 921   NORMALIZED FREE ENERGY PREDICTED BY IDOCK:   -4.39 KCAL/MOL
REMARK 922        TOTAL FREE ENERGY PREDICTED BY IDOCK:   -6.95 KCAL/MOL
REMARK 923 INTER-LIGAND FREE ENERGY PREDICTED BY IDOCK:   -6.07 KCAL/MOL
REMARK 924 INTRA-LIGAND FREE ENERGY PREDICTED BY IDOCK:   -0.88 KCAL/MOL
REMARK 927      BINDING AFFINITY PREDICTED BY RF-SCORE:    0.00 PKD
ROOT
HETATM    1  C   UNL     1     -10.494  12.964  64.307  1.00  0.00    -0.430 C  
HETATM    2  C   UNL     1     -10.883  11.508  64.539  1.00  0.00    -0.327 C  
ENDROOT
BRANCH   2   3
HETATM    3  N   UNL     1      -9.898  10.748  65.343  1.00  0.00    -0.243 NA 
BRANCH   3   4
HETATM    4  C   UNL     1      -8.714  10.338  64.567  1.00  0.00    -0.192 C  
HETATM    5  C   UNL     1      -8.972   9.680  63.212  1.00  0.00    -0.251 C  
ENDBRANCH   3   4
BRANCH   3   6
HETATM    6  C   UNL     1      -9.511  11.479  66.576  1.00  0.00    -0.204 C  
BRANCH   6   7
HETATM    7  C   UNL     1     -10.240  10.972  67.804  1.00  0.00    -0.210 A  
HETATM    8  C   UNL     1     -11.506  11.440  68.174  1.00  0.00    -0.305 A  
HETATM    9  C   UNL     1     -12.028  11.155  69.425  1.00  0.00    -0.420 A  
HETATM   10  O   UNL     1     -12.226  12.281  67.372  1.00  0.00    -0.478 OA 
HETATM   11  C   UNL     1     -11.279  10.396  70.330  1.00  0.00    -0.395 A  
HETATM   12  H   UNL     1     -13.085  12.599  67.623  1.00  0.00     0.000 HD 
HETATM   13  C   UNL     1     -10.041   9.844  69.967  1.00  0.00    -0.260 A  
HETATM   14  C   UNL     1      -9.563  10.101  68.676  1.00  0.00    -0.165 A  
BRANCH  13  15
HETATM   15  N   UNL     1      -9.262   9.006  70.805  1.00  0.00    -0.224 NA 
HETATM   16  H   UNL     1      -8.916   9.426  71.668  1.00  0.00     0.000 HD 
BRANCH  15  17
HETATM   17  C   UNL     1      -8.907   7.644  70.577  1.00  0.00    -0.149 A  
HETATM   18  C   UNL     1      -9.589   6.567  71.192  1.00  0.00    -0.181 A  
HETATM   19  C   UNL     1     -10.841   6.711  71.832  1.00  0.00    -0.267 A  
HETATM   20  C   UNL     1     -11.395   5.666  72.561  1.00  0.00    -0.349 A  
HETATM   21  C   UNL     1     -10.709   4.463  72.636  1.00  0.00    -0.128 A  
HETATM   22 CL   UNL     1     -11.318   3.199  73.631  1.00  0.00    -0.298 Cl 
HETATM   23  C   UNL     1      -9.524   4.281  71.926  1.00  0.00    -0.201 A  
HETATM   24  C   UNL     1      -8.971   5.302  71.169  1.00  0.00    -0.139 A  
HETATM   25  N   UNL     1      -7.847   5.062  70.472  1.00  0.00    -0.073 NA 
HETATM   26  C   UNL     1      -7.290   6.083  69.787  1.00  0.00    -0.079 A  
HETATM   27  C   UNL     1      -7.755   7.379  69.832  1.00  0.00    -0.099 A  
ENDBRANCH  15  17
ENDBRANCH  13  15
ENDBRANCH   6   7
ENDBRANCH   3   6
ENDBRANCH   2   3
TORSDOF 6
ENDMDL
MODEL      193
REMARK 921   NORMALIZED FREE ENERGY PREDICTED BY IDOCK:   -4.38 KCAL/MOL
REMARK 922        TOTAL FREE ENERGY PREDICTED BY IDOCK:   -6.93 KCAL/MOL
REMARK 923 INTER-LIGAND FREE ENERGY PREDICTED BY IDOCK:   -6.35 KCAL/MOL
REMARK 924 INTRA-LIGAND FREE ENERGY PREDICTED BY IDOCK:   -0.58 KCAL/MOL
REMARK 927      BINDING AFFINITY PREDICTED BY RF-SCORE:    0.00 PKD
ROOT
HETATM    1  C   UNL     1     -12.032  13.385  63.457  1.00  0.00    -0.467 C  
HETATM    2  C   UNL     1     -11.994  11.868  63.612  1.00  0.00    -0.476 C  
ENDROOT
BRANCH   2   3
HETATM    3  N   UNL     1     -11.152  11.405  64.738  1.00  0.00    -0.239 NA 
BRANCH   3   4
HETATM    4  C   UNL     1     -10.064  10.505  64.313  1.00  0.00    -0.310 C  
HETATM    5  C   UNL     1      -9.595  10.629  62.863  1.00  0.00    -0.358 C  
ENDBRANCH   3   4
BRANCH   3   6
HETATM    6  C   UNL     1     -10.632  12.539  65.542  1.00  0.00    -0.275 C  
BRANCH   6   7
HETATM    7  C   UNL     1     -11.173  12.543  66.958  1.00  0.00    -0.353 A  
HETATM    8  C   UNL     1     -11.896  13.621  67.483  1.00  0.00    -0.381 A  
HETATM    9  C   UNL     1     -12.150  13.707  68.842  1.00  0.00    -0.335 A  
HETATM   10  O   UNL     1     -12.280  14.678  66.706  1.00  0.00    -0.418 OA 
HETATM   11  C   UNL     1     -11.674  12.708  69.698  1.00  0.00    -0.373 A  
HETATM   12  H   UNL     1     -12.770  15.409  67.063  1.00  0.00     0.000 HD 
HETATM   13  C   UNL     1     -11.015  11.576  69.200  1.00  0.00    -0.224 A  
HETATM   14  C   UNL     1     -10.822  11.486  67.816  1.00  0.00    -0.270 A  
BRANCH  13  15
HETATM   15  N   UNL     1     -10.571  10.491  69.999  1.00  0.00    -0.439 NA 
HETATM   16  H   UNL     1     -11.232  10.141  70.692  1.00  0.00     0.000 HD 
BRANCH  15  17
HETATM   17  C   UNL     1      -9.305   9.836  69.942  1.00  0.00    -0.231 A  
HETATM   18  C   UNL     1      -9.032   8.647  70.658  1.00  0.00    -0.199 A  
HETATM   19  C   UNL     1     -10.041   7.846  71.240  1.00  0.00    -0.210 A  
HETATM   20  C   UNL     1      -9.718   6.779  72.068  1.00  0.00    -0.159 A  
HETATM   21  C   UNL     1      -8.382   6.494  72.304  1.00  0.00    -0.106 A  
HETATM   22 CL   UNL     1      -7.963   5.255  73.421  1.00  0.00    -0.110 Cl 
HETATM   23  C   UNL     1      -7.381   7.214  71.655  1.00  0.00    -0.085 A  
HETATM   24  C   UNL     1      -7.684   8.263  70.801  1.00  0.00    -0.079 A  
HETATM   25  N   UNL     1      -6.683   8.901  70.171  1.00  0.00    -0.039 NA 
HETATM   26  C   UNL     1      -6.991   9.957  69.389  1.00  0.00    -0.063 A  
HETATM   27  C   UNL     1      -8.263  10.476  69.268  1.00  0.00    -0.151 A  
ENDBRANCH  15  17
ENDBRANCH  13  15
ENDBRANCH   6   7
ENDBRANCH   3   6
ENDBRANCH   2   3
TORSDOF 6
ENDMDL
MODEL      194
REMARK 921   NORMALIZED FREE ENERGY PREDICTED BY IDOCK:   -4.38 KCAL/MOL
REMARK 922        TOTAL FREE ENERGY PREDICTED BY IDOCK:   -6.92 KCAL/MOL
REMARK 923 INTER-LIGAND FREE ENERGY PREDICTED BY IDOCK:   -5.88 KCAL/MOL
REMARK 924 INTRA-LIGAND FREE ENERGY PREDICTED BY IDOCK:   -1.05 KCAL/MOL
REMARK 927      BINDING AFFINITY PREDICTED BY RF-SCORE:    0.00 PKD
ROOT
HETATM    1  C   UNL     1      -8.384   8.652  66.007  1.00  0.00    -0.135 C  
HETATM    2  C   UNL     1      -8.709   9.083  67.434  1.00  0.00    -0.119 C  
ENDROOT
BRANCH   2   3
HETATM    3  N   UNL     1      -9.554  10.297  67.512  1.00  0.00    -0.155 NA 
BRANCH   3   4
HETATM    4  C   UNL     1      -9.989  10.609  68.885  1.00  0.00    -0.204 C  
HETATM    5  C   UNL     1      -9.323   9.824  70.014  1.00  0.00    -0.274 C  
ENDBRANCH   3   4
BRANCH   3   6
HETATM    6  C   UNL     1      -8.900  11.466  66.872  1.00  0.00    -0.173 C  
BRANCH   6   7
HETATM    7  C   UNL     1      -9.889  12.366  66.159  1.00  0.00    -0.263 A  
HETATM    8  C   UNL     1     -10.865  11.867  65.287  1.00  0.00    -0.297 A  
HETATM    9  C   UNL     1     -11.577  12.720  64.459  1.00  0.00    -0.397 A  
HETATM   10  O   UNL     1     -11.078  10.526  65.136  1.00  0.00     0.208 OA 
HETATM   11  C   UNL     1     -11.312  14.093  64.491  1.00  0.00    -0.355 A  
HETATM   12  H   UNL     1     -11.740  10.188  64.545  1.00  0.00     0.000 HD 
HETATM   13  C   UNL     1     -10.398  14.637  65.404  1.00  0.00    -0.383 A  
HETATM   14  C   UNL     1      -9.735  13.759  66.269  1.00  0.00    -0.297 A  
BRANCH  13  15
HETATM   15  N   UNL     1     -10.133  16.024  65.543  1.00  0.00    -0.461 NA 
HETATM   16  H   UNL     1      -9.880  16.523  64.690  1.00  0.00     0.000 HD 
BRANCH  15  17
HETATM   17  C   UNL     1     -10.182  16.799  66.739  1.00  0.00    -0.304 A  
HETATM   18  C   UNL     1      -9.210  17.778  67.051  1.00  0.00    -0.257 A  
HETATM   19  C   UNL     1      -8.293  18.286  66.103  1.00  0.00    -0.159 A  
HETATM   20  C   UNL     1      -7.254  19.124  66.490  1.00  0.00    -0.239 A  
HETATM   21  C   UNL     1      -7.139  19.474  67.827  1.00  0.00    -0.252 A  
HETATM   22 CL   UNL     1      -5.792  20.409  68.346  1.00  0.00    -0.293 Cl 
HETATM   23  C   UNL     1      -8.096  19.059  68.751  1.00  0.00    -0.372 A  
HETATM   24  C   UNL     1      -9.157  18.248  68.378  1.00  0.00    -0.316 A  
HETATM   25  N   UNL     1     -10.074  17.908  69.300  1.00  0.00    -0.219 NA 
HETATM   26  C   UNL     1     -11.067  17.071  68.934  1.00  0.00    -0.037 A  
HETATM   27  C   UNL     1     -11.148  16.473  67.695  1.00  0.00    -0.127 A  
ENDBRANCH  15  17
ENDBRANCH  13  15
ENDBRANCH   6   7
ENDBRANCH   3   6
ENDBRANCH   2   3
TORSDOF 6
ENDMDL
MODEL      195
REMARK 921   NORMALIZED FREE ENERGY PREDICTED BY IDOCK:   -4.37 KCAL/MOL
REMARK 922        TOTAL FREE ENERGY PREDICTED BY IDOCK:   -6.92 KCAL/MOL
REMARK 923 INTER-LIGAND FREE ENERGY PREDICTED BY IDOCK:   -5.99 KCAL/MOL
REMARK 924 INTRA-LIGAND FREE ENERGY PREDICTED BY IDOCK:   -0.93 KCAL/MOL
REMARK 927      BINDING AFFINITY PREDICTED BY RF-SCORE:    0.00 PKD
ROOT
HETATM    1  C   UNL     1      -7.632  14.081  68.545  1.00  0.00    -0.130 C  
HETATM    2  C   UNL     1      -8.602  14.280  67.384  1.00  0.00    -0.213 C  
ENDROOT
BRANCH   2   3
HETATM    3  N   UNL     1      -9.807  13.424  67.461  1.00  0.00    -0.223 NA 
BRANCH   3   4
HETATM    4  C   UNL     1     -11.064  14.192  67.419  1.00  0.00    -0.306 C  
HETATM    5  C   UNL     1     -11.984  13.943  66.223  1.00  0.00    -0.462 C  
ENDBRANCH   3   4
BRANCH   3   6
HETATM    6  C   UNL     1      -9.792  12.355  66.431  1.00  0.00    -0.240 C  
BRANCH   6   7
HETATM    7  C   UNL     1      -9.868  10.967  67.034  1.00  0.00    -0.214 A  
HETATM    8  C   UNL     1     -10.008   9.814  66.252  1.00  0.00    -0.262 A  
HETATM    9  C   UNL     1     -10.333   8.599  66.834  1.00  0.00    -0.355 A  
HETATM   10  O   UNL     1      -9.941   9.856  64.888  1.00  0.00    -0.380 OA 
HETATM   11  C   UNL     1     -10.530   8.527  68.217  1.00  0.00    -0.222 A  
HETATM   12  H   UNL     1     -10.036   9.074  64.358  1.00  0.00     0.000 HD 
HETATM   13  C   UNL     1     -10.323   9.642  69.041  1.00  0.00    -0.205 A  
HETATM   14  C   UNL     1      -9.938  10.844  68.433  1.00  0.00    -0.188 A  
BRANCH  13  15
HETATM   15  N   UNL     1     -10.432   9.624  70.455  1.00  0.00    -0.284 NA 
HETATM   16  H   UNL     1     -10.149  10.476  70.941  1.00  0.00     0.000 HD 
BRANCH  15  17
HETATM   17  C   UNL     1     -10.892   8.551  71.274  1.00  0.00    -0.251 A  
HETATM   18  C   UNL     1     -10.013   7.739  72.029  1.00  0.00    -0.231 A  
HETATM   19  C   UNL     1      -8.667   8.086  72.282  1.00  0.00    -0.220 A  
HETATM   20  C   UNL     1      -7.798   7.186  72.887  1.00  0.00    -0.111 A  
HETATM   21  C   UNL     1      -8.278   5.941  73.262  1.00  0.00    -0.116 A  
HETATM   22 CL   UNL     1      -7.192   4.770  73.901  1.00  0.00    -0.076 Cl 
HETATM   23  C   UNL     1      -9.627   5.628  73.108  1.00  0.00    -0.156 A  
HETATM   24  C   UNL     1     -10.516   6.524  72.534  1.00  0.00    -0.205 A  
HETATM   25  N   UNL     1     -11.814   6.188  72.444  1.00  0.00    -0.283 NA 
HETATM   26  C   UNL     1     -12.654   7.047  71.829  1.00  0.00    -0.350 A  
HETATM   27  C   UNL     1     -12.245   8.208  71.210  1.00  0.00    -0.302 A  
ENDBRANCH  15  17
ENDBRANCH  13  15
ENDBRANCH   6   7
ENDBRANCH   3   6
ENDBRANCH   2   3
TORSDOF 6
ENDMDL
MODEL      196
REMARK 921   NORMALIZED FREE ENERGY PREDICTED BY IDOCK:   -4.37 KCAL/MOL
REMARK 922        TOTAL FREE ENERGY PREDICTED BY IDOCK:   -6.92 KCAL/MOL
REMARK 923 INTER-LIGAND FREE ENERGY PREDICTED BY IDOCK:   -6.00 KCAL/MOL
REMARK 924 INTRA-LIGAND FREE ENERGY PREDICTED BY IDOCK:   -0.92 KCAL/MOL
REMARK 927      BINDING AFFINITY PREDICTED BY RF-SCORE:    0.00 PKD
ROOT
HETATM    1  C   UNL     1      -9.577  19.906  67.252  1.00  0.00    -0.502 C  
HETATM    2  C   UNL     1      -9.452  18.587  68.008  1.00  0.00    -0.303 C  
ENDROOT
BRANCH   2   3
HETATM    3  N   UNL     1     -10.010  17.426  67.276  1.00  0.00    -0.292 NA 
BRANCH   3   4
HETATM    4  C   UNL     1      -9.871  17.546  65.813  1.00  0.00     0.024 C  
HETATM    5  C   UNL     1     -10.921  16.832  64.962  1.00  0.00    -0.118 C  
ENDBRANCH   3   4
BRANCH   3   6
HETATM    6  C   UNL     1      -9.450  16.142  67.768  1.00  0.00    -0.217 C  
BRANCH   6   7
HETATM    7  C   UNL     1     -10.528  15.160  68.182  1.00  0.00    -0.245 A  
HETATM    8  C   UNL     1     -11.002  15.074  69.497  1.00  0.00    -0.269 A  
HETATM    9  C   UNL     1     -11.788  14.006  69.897  1.00  0.00    -0.393 A  
HETATM   10  O   UNL     1     -10.623  15.968  70.459  1.00  0.00    -0.213 OA 
HETATM   11  C   UNL     1     -12.106  13.001  68.978  1.00  0.00    -0.220 A  
HETATM   12  H   UNL     1     -10.944  15.909  71.350  1.00  0.00     0.000 HD 
HETATM   13  C   UNL     1     -11.715  13.092  67.634  1.00  0.00    -0.366 A  
HETATM   14  C   UNL     1     -10.970  14.211  67.244  1.00  0.00    -0.304 A  
BRANCH  13  15
HETATM   15  N   UNL     1     -12.063  12.149  66.633  1.00  0.00    -0.578 NA 
HETATM   16  H   UNL     1     -13.060  11.977  66.502  1.00  0.00     0.000 HD 
BRANCH  15  17
HETATM   17  C   UNL     1     -11.177  11.416  65.789  1.00  0.00    -0.090 A  
HETATM   18  C   UNL     1     -10.050  10.723  66.289  1.00  0.00    -0.285 A  
HETATM   19  C   UNL     1      -9.863  10.441  67.662  1.00  0.00    -0.197 A  
HETATM   20  C   UNL     1      -8.668   9.903  68.124  1.00  0.00    -0.122 A  
HETATM   21  C   UNL     1      -7.660   9.626  67.214  1.00  0.00    -0.091 A  
HETATM   22 CL   UNL     1      -6.133   9.075  67.779  1.00  0.00    -0.050 Cl 
HETATM   23  C   UNL     1      -7.873   9.807  65.848  1.00  0.00    -0.108 A  
HETATM   24  C   UNL     1      -9.070  10.314  65.364  1.00  0.00    -0.185 A  
HETATM   25  N   UNL     1      -9.238  10.433  64.036  1.00  0.00    -0.239 NA 
HETATM   26  C   UNL     1     -10.385  10.982  63.585  1.00  0.00    -0.352 A  
HETATM   27  C   UNL     1     -11.357  11.510  64.407  1.00  0.00    -0.283 A  
ENDBRANCH  15  17
ENDBRANCH  13  15
ENDBRANCH   6   7
ENDBRANCH   3   6
ENDBRANCH   2   3
TORSDOF 6
ENDMDL
MODEL      197
REMARK 921   NORMALIZED FREE ENERGY PREDICTED BY IDOCK:   -4.36 KCAL/MOL
REMARK 922        TOTAL FREE ENERGY PREDICTED BY IDOCK:   -6.91 KCAL/MOL
REMARK 923 INTER-LIGAND FREE ENERGY PREDICTED BY IDOCK:   -5.60 KCAL/MOL
REMARK 924 INTRA-LIGAND FREE ENERGY PREDICTED BY IDOCK:   -1.31 KCAL/MOL
REMARK 927      BINDING AFFINITY PREDICTED BY RF-SCORE:    0.00 PKD
ROOT
HETATM    1  C   UNL     1     -12.235  10.689  69.652  1.00  0.00    -0.277 C  
HETATM    2  C   UNL     1     -11.797  10.267  71.051  1.00  0.00    -0.377 C  
ENDROOT
BRANCH   2   3
HETATM    3  N   UNL     1     -10.795   9.178  71.058  1.00  0.00    -0.264 NA 
BRANCH   3   4
HETATM    4  C   UNL     1     -11.336   7.899  71.553  1.00  0.00    -0.256 C  
HETATM    5  C   UNL     1     -11.201   7.629  73.052  1.00  0.00    -0.388 C  
ENDBRANCH   3   4
BRANCH   3   6
HETATM    6  C   UNL     1     -10.147   9.013  69.732  1.00  0.00    -0.200 C  
BRANCH   6   7
HETATM    7  C   UNL     1      -8.773   9.649  69.674  1.00  0.00    -0.206 A  
HETATM    8  C   UNL     1      -7.733   9.271  70.532  1.00  0.00    -0.148 A  
HETATM    9  C   UNL     1      -6.584  10.038  70.632  1.00  0.00    -0.088 A  
HETATM   10  O   UNL     1      -7.850   8.206  71.381  1.00  0.00    -0.086 OA 
HETATM   11  C   UNL     1      -6.464  11.205  69.870  1.00  0.00    -0.142 A  
HETATM   12  H   UNL     1      -7.145   7.950  71.963  1.00  0.00     0.000 HD 
HETATM   13  C   UNL     1      -7.450  11.573  68.943  1.00  0.00    -0.106 A  
HETATM   14  C   UNL     1      -8.575  10.749  68.822  1.00  0.00    -0.156 A  
BRANCH  13  15
HETATM   15  N   UNL     1      -7.363  12.700  68.087  1.00  0.00    -0.101 NA 
HETATM   16  H   UNL     1      -6.646  12.662  67.361  1.00  0.00     0.000 HD 
BRANCH  15  17
HETATM   17  C   UNL     1      -8.163  13.881  68.125  1.00  0.00    -0.158 A  
HETATM   18  C   UNL     1      -9.278  14.072  67.275  1.00  0.00    -0.231 A  
HETATM   19  C   UNL     1      -9.878  13.023  66.541  1.00  0.00    -0.263 A  
HETATM   20  C   UNL     1     -10.864  13.284  65.598  1.00  0.00    -0.291 A  
HETATM   21  C   UNL     1     -11.271  14.594  65.399  1.00  0.00    -0.347 A  
HETATM   22 CL   UNL     1     -12.402  14.952  64.154  1.00  0.00    -0.393 Cl 
HETATM   23  C   UNL     1     -10.758  15.621  66.189  1.00  0.00    -0.305 A  
HETATM   24  C   UNL     1      -9.794  15.376  67.156  1.00  0.00    -0.221 A  
HETATM   25  N   UNL     1      -9.360  16.395  67.917  1.00  0.00    -0.213 NA 
HETATM   26  C   UNL     1      -8.381  16.151  68.813  1.00  0.00    -0.231 A  
HETATM   27  C   UNL     1      -7.737  14.938  68.932  1.00  0.00    -0.148 A  
ENDBRANCH  15  17
ENDBRANCH  13  15
ENDBRANCH   6   7
ENDBRANCH   3   6
ENDBRANCH   2   3
TORSDOF 6
ENDMDL
MODEL      198
REMARK 921   NORMALIZED FREE ENERGY PREDICTED BY IDOCK:   -4.36 KCAL/MOL
REMARK 922        TOTAL FREE ENERGY PREDICTED BY IDOCK:   -6.90 KCAL/MOL
REMARK 923 INTER-LIGAND FREE ENERGY PREDICTED BY IDOCK:   -7.22 KCAL/MOL
REMARK 924 INTRA-LIGAND FREE ENERGY PREDICTED BY IDOCK:    0.31 KCAL/MOL
REMARK 927      BINDING AFFINITY PREDICTED BY RF-SCORE:    0.00 PKD
ROOT
HETATM    1  C   UNL     1      -8.738  13.679  66.715  1.00  0.00    -0.101 C  
HETATM    2  C   UNL     1     -10.042  13.347  67.433  1.00  0.00    -0.237 C  
ENDROOT
BRANCH   2   3
HETATM    3  N   UNL     1     -10.255  14.128  68.673  1.00  0.00    -0.238 NA 
BRANCH   3   4
HETATM    4  C   UNL     1      -9.288  15.229  68.835  1.00  0.00    -0.213 C  
HETATM    5  C   UNL     1      -8.063  14.947  69.703  1.00  0.00     0.018 C  
ENDBRANCH   3   4
BRANCH   3   6
HETATM    6  C   UNL     1     -11.653  14.616  68.784  1.00  0.00    -0.317 C  
BRANCH   6   7
HETATM    7  C   UNL     1     -12.410  13.954  69.919  1.00  0.00    -0.358 A  
HETATM    8  C   UNL     1     -13.170  14.683  70.842  1.00  0.00    -0.337 A  
HETATM    9  C   UNL     1     -13.631  14.089  72.005  1.00  0.00    -0.552 A  
HETATM   10  O   UNL     1     -13.393  16.023  70.692  1.00  0.00    -0.622 OA 
HETATM   11  C   UNL     1     -13.328  12.748  72.262  1.00  0.00    -0.563 A  
HETATM   12  H   UNL     1     -13.908  16.518  71.318  1.00  0.00     0.000 HD 
HETATM   13  C   UNL     1     -12.637  11.965  71.326  1.00  0.00    -0.277 A  
HETATM   14  C   UNL     1     -12.232  12.576  70.133  1.00  0.00    -0.307 A  
BRANCH  13  15
HETATM   15  N   UNL     1     -12.359  10.584  71.486  1.00  0.00    -0.365 NA 
HETATM   16  H   UNL     1     -12.784  10.128  72.294  1.00  0.00     0.000 HD 
BRANCH  15  17
HETATM   17  C   UNL     1     -11.553   9.759  70.646  1.00  0.00    -0.313 A  
HETATM   18  C   UNL     1     -11.230   8.423  70.977  1.00  0.00    -0.304 A  
HETATM   19  C   UNL     1     -11.899   7.693  71.986  1.00  0.00    -0.342 A  
HETATM   20  C   UNL     1     -11.443   6.443  72.386  1.00  0.00    -0.320 A  
HETATM   21  C   UNL     1     -10.326   5.906  71.764  1.00  0.00    -0.216 A  
HETATM   22 CL   UNL     1      -9.674   4.417  72.327  1.00  0.00    -0.210 Cl 
HETATM   23  C   UNL     1      -9.721   6.574  70.701  1.00  0.00    -0.194 A  
HETATM   24  C   UNL     1     -10.180   7.808  70.267  1.00  0.00    -0.199 A  
HETATM   25  N   UNL     1      -9.585   8.391  69.213  1.00  0.00    -0.162 NA 
HETATM   26  C   UNL     1     -10.005   9.619  68.841  1.00  0.00    -0.178 A  
HETATM   27  C   UNL     1     -10.949  10.347  69.532  1.00  0.00    -0.307 A  
ENDBRANCH  15  17
ENDBRANCH  13  15
ENDBRANCH   6   7
ENDBRANCH   3   6
ENDBRANCH   2   3
TORSDOF 6
ENDMDL
MODEL      199
REMARK 921   NORMALIZED FREE ENERGY PREDICTED BY IDOCK:   -4.36 KCAL/MOL
REMARK 922        TOTAL FREE ENERGY PREDICTED BY IDOCK:   -6.90 KCAL/MOL
REMARK 923 INTER-LIGAND FREE ENERGY PREDICTED BY IDOCK:   -5.59 KCAL/MOL
REMARK 924 INTRA-LIGAND FREE ENERGY PREDICTED BY IDOCK:   -1.31 KCAL/MOL
REMARK 927      BINDING AFFINITY PREDICTED BY RF-SCORE:    0.00 PKD
ROOT
HETATM    1  C   UNL     1     -13.144  11.855  63.489  1.00  0.00    -0.140 C  
HETATM    2  C   UNL     1     -12.243  13.087  63.499  1.00  0.00    -0.501 C  
ENDROOT
BRANCH   2   3
HETATM    3  N   UNL     1     -11.011  12.917  64.303  1.00  0.00    -0.365 NA 
BRANCH   3   4
HETATM    4  C   UNL     1     -10.001  12.073  63.639  1.00  0.00    -0.363 C  
HETATM    5  C   UNL     1      -9.447  10.899  64.446  1.00  0.00    -0.287 C  
ENDBRANCH   3   4
BRANCH   3   6
HETATM    6  C   UNL     1     -10.437  14.223  64.716  1.00  0.00    -0.395 C  
BRANCH   6   7
HETATM    7  C   UNL     1     -10.201  14.306  66.210  1.00  0.00    -0.307 A  
HETATM    8  C   UNL     1     -11.250  14.385  67.134  1.00  0.00    -0.328 A  
HETATM    9  C   UNL     1     -11.004  14.719  68.457  1.00  0.00    -0.265 A  
HETATM   10  O   UNL     1     -12.555  14.250  66.755  1.00  0.00    -0.563 OA 
HETATM   11  C   UNL     1      -9.695  14.984  68.870  1.00  0.00    -0.224 A  
HETATM   12  H   UNL     1     -13.267  14.304  67.382  1.00  0.00     0.000 HD 
HETATM   13  C   UNL     1      -8.610  14.838  67.993  1.00  0.00    -0.166 A  
HETATM   14  C   UNL     1      -8.881  14.444  66.676  1.00  0.00    -0.188 A  
BRANCH  13  15
HETATM   15  N   UNL     1      -7.253  15.018  68.361  1.00  0.00    -0.107 NA 
HETATM   16  H   UNL     1      -6.747  15.759  67.874  1.00  0.00     0.000 HD 
BRANCH  15  17
HETATM   17  C   UNL     1      -6.515  14.282  69.334  1.00  0.00    -0.125 A  
HETATM   18  C   UNL     1      -6.213  12.909  69.182  1.00  0.00    -0.101 A  
HETATM   19  C   UNL     1      -6.341  12.222  67.953  1.00  0.00    -0.088 A  
HETATM   20  C   UNL     1      -6.189  10.842  67.886  1.00  0.00    -0.054 A  
HETATM   21  C   UNL     1      -5.889  10.144  69.045  1.00  0.00    -0.037 A  
HETATM   22 CL   UNL     1      -5.818   8.426  69.007  1.00  0.00    -0.038 Cl 
HETATM   23  C   UNL     1      -5.662  10.824  70.241  1.00  0.00    -0.092 A  
HETATM   24  C   UNL     1      -5.779  12.203  70.320  1.00  0.00    -0.163 A  
HETATM   25  N   UNL     1      -5.512  12.813  71.488  1.00  0.00    -0.391 NA 
HETATM   26  C   UNL     1      -5.687  14.149  71.564  1.00  0.00    -0.212 A  
HETATM   27  C   UNL     1      -6.208  14.913  70.542  1.00  0.00    -0.088 A  
ENDBRANCH  15  17
ENDBRANCH  13  15
ENDBRANCH   6   7
ENDBRANCH   3   6
ENDBRANCH   2   3
TORSDOF 6
ENDMDL
MODEL      200
REMARK 921   NORMALIZED FREE ENERGY PREDICTED BY IDOCK:   -4.35 KCAL/MOL
REMARK 922        TOTAL FREE ENERGY PREDICTED BY IDOCK:   -6.88 KCAL/MOL
REMARK 923 INTER-LIGAND FREE ENERGY PREDICTED BY IDOCK:   -5.54 KCAL/MOL
REMARK 924 INTRA-LIGAND FREE ENERGY PREDICTED BY IDOCK:   -1.35 KCAL/MOL
REMARK 927      BINDING AFFINITY PREDICTED BY RF-SCORE:    0.00 PKD
ROOT
HETATM    1  C   UNL     1     -11.376  12.263  67.113  1.00  0.00    -0.398 C  
HETATM    2  C   UNL     1      -9.971  12.224  66.521  1.00  0.00    -0.220 C  
ENDROOT
BRANCH   2   3
HETATM    3  N   UNL     1      -9.282  10.927  66.706  1.00  0.00    -0.157 NA 
BRANCH   3   4
HETATM    4  C   UNL     1      -9.885   9.836  65.917  1.00  0.00    -0.282 C  
HETATM    5  C   UNL     1     -10.123   8.512  66.643  1.00  0.00    -0.364 C  
ENDBRANCH   3   4
BRANCH   3   6
HETATM    6  C   UNL     1      -7.823  11.034  66.452  1.00  0.00    -0.150 C  
BRANCH   6   7
HETATM    7  C   UNL     1      -7.000  10.257  67.459  1.00  0.00    -0.085 A  
HETATM    8  C   UNL     1      -5.999   9.356  67.077  1.00  0.00    -0.056 A  
HETATM    9  C   UNL     1      -5.449   8.477  67.996  1.00  0.00    -0.035 A  
HETATM   10  O   UNL     1      -5.605   9.227  65.775  1.00  0.00    -0.044 OA 
HETATM   11  C   UNL     1      -5.904   8.488  69.319  1.00  0.00    -0.038 A  
HETATM   12  H   UNL     1      -4.926   8.616  65.515  1.00  0.00     0.000 HD 
HETATM   13  C   UNL     1      -6.848   9.428  69.756  1.00  0.00    -0.055 A  
HETATM   14  C   UNL     1      -7.345  10.341  68.819  1.00  0.00    -0.086 A  
BRANCH  13  15
HETATM   15  N   UNL     1      -7.300   9.544  71.095  1.00  0.00    -0.332 NA 
HETATM   16  H   UNL     1      -6.997  10.375  71.604  1.00  0.00     0.000 HD 
BRANCH  15  17
HETATM   17  C   UNL     1      -8.131   8.632  71.812  1.00  0.00    -0.114 A  
HETATM   18  C   UNL     1      -9.543   8.687  71.758  1.00  0.00    -0.360 A  
HETATM   19  C   UNL     1     -10.251   9.428  70.785  1.00  0.00    -0.368 A  
HETATM   20  C   UNL     1     -11.629   9.584  70.868  1.00  0.00    -0.398 A  
HETATM   21  C   UNL     1     -12.310   8.982  71.915  1.00  0.00    -0.384 A  
HETATM   22 CL   UNL     1     -13.996   9.262  72.103  1.00  0.00    -0.441 Cl 
HETATM   23  C   UNL     1     -11.634   8.166  72.821  1.00  0.00    -0.371 A  
HETATM   24  C   UNL     1     -10.264   7.974  72.736  1.00  0.00    -0.319 A  
HETATM   25  N   UNL     1      -9.666   7.148  73.612  1.00  0.00    -0.240 NA 
HETATM   26  C   UNL     1      -8.324   7.018  73.553  1.00  0.00    -0.117 A  
HETATM   27  C   UNL     1      -7.520   7.749  72.706  1.00  0.00    -0.121 A  
ENDBRANCH  15  17
ENDBRANCH  13  15
ENDBRANCH   6   7
ENDBRANCH   3   6
ENDBRANCH   2   3
TORSDOF 6
ENDMDL
MODEL      201
REMARK 921   NORMALIZED FREE ENERGY PREDICTED BY IDOCK:   -4.35 KCAL/MOL
REMARK 922        TOTAL FREE ENERGY PREDICTED BY IDOCK:   -6.88 KCAL/MOL
REMARK 923 INTER-LIGAND FREE ENERGY PREDICTED BY IDOCK:   -6.78 KCAL/MOL
REMARK 924 INTRA-LIGAND FREE ENERGY PREDICTED BY IDOCK:   -0.10 KCAL/MOL
REMARK 927      BINDING AFFINITY PREDICTED BY RF-SCORE:    0.00 PKD
ROOT
HETATM    1  C   UNL     1      -9.811  17.540  68.555  1.00  0.00    -0.330 C  
HETATM    2  C   UNL     1     -10.901  16.475  68.479  1.00  0.00    -0.349 C  
ENDROOT
BRANCH   2   3
HETATM    3  N   UNL     1     -10.534  15.304  67.650  1.00  0.00    -0.258 NA 
BRANCH   3   4
HETATM    4  C   UNL     1      -9.469  14.482  68.252  1.00  0.00    -0.207 C  
HETATM    5  C   UNL     1      -8.219  14.247  67.404  1.00  0.00    -0.217 C  
ENDBRANCH   3   4
BRANCH   3   6
HETATM    6  C   UNL     1     -11.720  14.481  67.301  1.00  0.00    -0.406 C  
BRANCH   6   7
HETATM    7  C   UNL     1     -11.964  13.365  68.297  1.00  0.00    -0.352 A  
HETATM    8  C   UNL     1     -12.336  13.609  69.624  1.00  0.00    -0.203 A  
HETATM    9  C   UNL     1     -12.299  12.595  70.568  1.00  0.00    -0.350 A  
HETATM   10  O   UNL     1     -12.641  14.866  70.067  1.00  0.00    -0.495 OA 
HETATM   11  C   UNL     1     -11.880  11.316  70.190  1.00  0.00    -0.449 A  
HETATM   12  H   UNL     1     -12.893  15.032  70.967  1.00  0.00     0.000 HD 
HETATM   13  C   UNL     1     -11.574  11.014  68.855  1.00  0.00    -0.314 A  
HETATM   14  C   UNL     1     -11.675  12.044  67.911  1.00  0.00    -0.393 A  
BRANCH  13  15
HETATM   15  N   UNL     1     -11.214   9.725  68.387  1.00  0.00    -0.512 NA 
HETATM   16  H   UNL     1     -11.945   9.014  68.413  1.00  0.00     0.000 HD 
BRANCH  15  17
HETATM   17  C   UNL     1      -9.945   9.309  67.886  1.00  0.00    -0.187 A  
HETATM   18  C   UNL     1      -9.701   7.993  67.429  1.00  0.00    -0.216 A  
HETATM   19  C   UNL     1     -10.734   7.071  67.144  1.00  0.00    -0.433 A  
HETATM   20  C   UNL     1     -10.447   5.743  66.854  1.00  0.00    -0.348 A  
HETATM   21  C   UNL     1      -9.123   5.334  66.826  1.00  0.00    -0.118 A  
HETATM   22 CL   UNL     1      -8.752   3.671  66.589  1.00  0.00    -0.115 Cl 
HETATM   23  C   UNL     1      -8.094   6.258  67.005  1.00  0.00    -0.109 A  
HETATM   24  C   UNL     1      -8.361   7.594  67.266  1.00  0.00    -0.115 A  
HETATM   25  N   UNL     1      -7.333   8.450  67.393  1.00  0.00    -0.088 NA 
HETATM   26  C   UNL     1      -7.608   9.735  67.704  1.00  0.00    -0.091 A  
HETATM   27  C   UNL     1      -8.873  10.200  67.987  1.00  0.00    -0.125 A  
ENDBRANCH  15  17
ENDBRANCH  13  15
ENDBRANCH   6   7
ENDBRANCH   3   6
ENDBRANCH   2   3
TORSDOF 6
ENDMDL
MODEL      202
REMARK 921   NORMALIZED FREE ENERGY PREDICTED BY IDOCK:   -4.34 KCAL/MOL
REMARK 922        TOTAL FREE ENERGY PREDICTED BY IDOCK:   -6.87 KCAL/MOL
REMARK 923 INTER-LIGAND FREE ENERGY PREDICTED BY IDOCK:   -5.75 KCAL/MOL
REMARK 924 INTRA-LIGAND FREE ENERGY PREDICTED BY IDOCK:   -1.12 KCAL/MOL
REMARK 927      BINDING AFFINITY PREDICTED BY RF-SCORE:    0.00 PKD
ROOT
HETATM    1  C   UNL     1      -5.684  10.789  66.949  1.00  0.00    -0.062 C  
HETATM    2  C   UNL     1      -5.875   9.540  66.094  1.00  0.00    -0.057 C  
ENDROOT
BRANCH   2   3
HETATM    3  N   UNL     1      -7.294   9.178  65.876  1.00  0.00    -0.093 NA 
BRANCH   3   4
HETATM    4  C   UNL     1      -7.611   8.907  64.462  1.00  0.00    -0.109 C  
HETATM    5  C   UNL     1      -6.511   8.257  63.623  1.00  0.00    -0.072 C  
ENDBRANCH   3   4
BRANCH   3   6
HETATM    6  C   UNL     1      -7.718   8.054  66.750  1.00  0.00    -0.098 C  
BRANCH   6   7
HETATM    7  C   UNL     1      -8.297   8.529  68.067  1.00  0.00    -0.127 A  
HETATM    8  C   UNL     1      -7.633   8.353  69.287  1.00  0.00    -0.089 A  
HETATM    9  C   UNL     1      -8.294   8.559  70.488  1.00  0.00    -0.137 A  
HETATM   10  O   UNL     1      -6.357   7.869  69.350  1.00  0.00    -0.034 OA 
HETATM   11  C   UNL     1      -9.639   8.941  70.479  1.00  0.00    -0.242 A  
HETATM   12  H   UNL     1      -5.907   7.750  70.177  1.00  0.00     0.000 HD 
HETATM   13  C   UNL     1     -10.314   9.202  69.278  1.00  0.00    -0.216 A  
HETATM   14  C   UNL     1      -9.606   9.041  68.081  1.00  0.00    -0.164 A  
BRANCH  13  15
HETATM   15  N   UNL     1     -11.653   9.662  69.196  1.00  0.00    -0.412 NA 
HETATM   16  H   UNL     1     -12.247   9.203  68.505  1.00  0.00     0.000 HD 
BRANCH  15  17
HETATM   17  C   UNL     1     -12.263  10.693  69.970  1.00  0.00    -0.298 A  
HETATM   18  C   UNL     1     -12.145  12.064  69.639  1.00  0.00    -0.295 A  
HETATM   19  C   UNL     1     -11.684  12.518  68.382  1.00  0.00    -0.375 A  
HETATM   20  C   UNL     1     -11.432  13.865  68.157  1.00  0.00    -0.346 A  
HETATM   21  C   UNL     1     -11.657  14.770  69.184  1.00  0.00    -0.303 A  
HETATM   22 CL   UNL     1     -11.236  16.423  68.966  1.00  0.00    -0.317 Cl 
HETATM   23  C   UNL     1     -12.206  14.344  70.392  1.00  0.00    -0.404 A  
HETATM   24  C   UNL     1     -12.494  13.008  70.624  1.00  0.00    -0.268 A  
HETATM   25  N   UNL     1     -13.057  12.655  71.792  1.00  0.00    -0.404 NA 
HETATM   26  C   UNL     1     -13.277  11.344  72.025  1.00  0.00    -0.327 A  
HETATM   27  C   UNL     1     -12.876  10.337  71.174  1.00  0.00    -0.504 A  
ENDBRANCH  15  17
ENDBRANCH  13  15
ENDBRANCH   6   7
ENDBRANCH   3   6
ENDBRANCH   2   3
TORSDOF 6
ENDMDL
MODEL      203
REMARK 921   NORMALIZED FREE ENERGY PREDICTED BY IDOCK:   -4.33 KCAL/MOL
REMARK 922        TOTAL FREE ENERGY PREDICTED BY IDOCK:   -6.86 KCAL/MOL
REMARK 923 INTER-LIGAND FREE ENERGY PREDICTED BY IDOCK:   -5.79 KCAL/MOL
REMARK 924 INTRA-LIGAND FREE ENERGY PREDICTED BY IDOCK:   -1.07 KCAL/MOL
REMARK 927      BINDING AFFINITY PREDICTED BY RF-SCORE:    0.00 PKD
ROOT
HETATM    1  C   UNL     1      -5.418  11.105  70.864  1.00  0.00    -0.104 C  
HETATM    2  C   UNL     1      -6.208  12.203  70.159  1.00  0.00    -0.061 C  
ENDROOT
BRANCH   2   3
HETATM    3  N   UNL     1      -6.868  11.756  68.912  1.00  0.00    -0.095 NA 
BRANCH   3   4
HETATM    4  C   UNL     1      -6.347  12.429  67.709  1.00  0.00    -0.109 C  
HETATM    5  C   UNL     1      -6.454  13.954  67.673  1.00  0.00    -0.161 C  
ENDBRANCH   3   4
BRANCH   3   6
HETATM    6  C   UNL     1      -6.828  10.279  68.765  1.00  0.00    -0.058 C  
BRANCH   6   7
HETATM    7  C   UNL     1      -8.183   9.636  68.984  1.00  0.00    -0.113 A  
HETATM    8  C   UNL     1      -8.338   8.261  69.196  1.00  0.00    -0.123 A  
HETATM    9  C   UNL     1      -9.590   7.672  69.134  1.00  0.00    -0.155 A  
HETATM   10  O   UNL     1      -7.264   7.432  69.360  1.00  0.00    -0.078 OA 
HETATM   11  C   UNL     1     -10.711   8.460  68.852  1.00  0.00    -0.095 A  
HETATM   12  H   UNL     1      -7.369   6.499  69.503  1.00  0.00     0.000 HD 
HETATM   13  C   UNL     1     -10.605   9.852  68.711  1.00  0.00    -0.222 A  
HETATM   14  C   UNL     1      -9.335  10.428  68.835  1.00  0.00    -0.190 A  
BRANCH  13  15
HETATM   15  N   UNL     1     -11.706  10.720  68.496  1.00  0.00    -0.621 NA 
HETATM   16  H   UNL     1     -12.616  10.275  68.379  1.00  0.00     0.000 HD 
BRANCH  15  17
HETATM   17  C   UNL     1     -11.684  12.145  68.427  1.00  0.00    -0.332 A  
HETATM   18  C   UNL     1     -12.100  12.965  69.501  1.00  0.00    -0.274 A  
HETATM   19  C   UNL     1     -12.284  12.481  70.817  1.00  0.00    -0.332 A  
HETATM   20  C   UNL     1     -12.846  13.284  71.801  1.00  0.00    -0.367 A  
HETATM   21  C   UNL     1     -13.210  14.582  71.481  1.00  0.00    -0.358 A  
HETATM   22 CL   UNL     1     -14.018  15.551  72.650  1.00  0.00    -0.635 Cl 
HETATM   23  C   UNL     1     -12.940  15.100  70.215  1.00  0.00    -0.220 A  
HETATM   24  C   UNL     1     -12.351  14.324  69.228  1.00  0.00    -0.162 A  
HETATM   25  N   UNL     1     -12.077  14.882  68.037  1.00  0.00    -0.178 NA 
HETATM   26  C   UNL     1     -11.558  14.098  67.069  1.00  0.00    -0.382 A  
HETATM   27  C   UNL     1     -11.374  12.739  67.200  1.00  0.00    -0.365 A  
ENDBRANCH  15  17
ENDBRANCH  13  15
ENDBRANCH   6   7
ENDBRANCH   3   6
ENDBRANCH   2   3
TORSDOF 6
ENDMDL
MODEL      204
REMARK 921   NORMALIZED FREE ENERGY PREDICTED BY IDOCK:   -4.32 KCAL/MOL
REMARK 922        TOTAL FREE ENERGY PREDICTED BY IDOCK:   -6.84 KCAL/MOL
REMARK 923 INTER-LIGAND FREE ENERGY PREDICTED BY IDOCK:   -5.94 KCAL/MOL
REMARK 924 INTRA-LIGAND FREE ENERGY PREDICTED BY IDOCK:   -0.90 KCAL/MOL
REMARK 927      BINDING AFFINITY PREDICTED BY RF-SCORE:    0.00 PKD
ROOT
HETATM    1  C   UNL     1      -6.511   9.155  70.399  1.00  0.00    -0.051 C  
HETATM    2  C   UNL     1      -6.211   7.690  70.697  1.00  0.00    -0.034 C  
ENDROOT
BRANCH   2   3
HETATM    3  N   UNL     1      -6.895   7.175  71.905  1.00  0.00    -0.059 NA 
BRANCH   3   4
HETATM    4  C   UNL     1      -7.650   8.214  72.627  1.00  0.00    -0.125 C  
HETATM    5  C   UNL     1      -7.574   8.185  74.154  1.00  0.00    -0.256 C  
ENDBRANCH   3   4
BRANCH   3   6
HETATM    6  C   UNL     1      -7.750   6.001  71.597  1.00  0.00    -0.101 C  
BRANCH   6   7
HETATM    7  C   UNL     1      -9.191   6.387  71.328  1.00  0.00    -0.158 A  
HETATM    8  C   UNL     1     -10.217   6.151  72.251  1.00  0.00    -0.185 A  
HETATM    9  C   UNL     1     -11.546   6.275  71.878  1.00  0.00    -0.369 A  
HETATM   10  O   UNL     1      -9.961   5.687  73.510  1.00  0.00    -0.161 OA 
HETATM   11  C   UNL     1     -11.864   6.634  70.565  1.00  0.00    -0.430 A  
HETATM   12  H   UNL     1     -10.657   5.526  74.136  1.00  0.00     0.000 HD 
HETATM   13  C   UNL     1     -10.864   6.953  69.635  1.00  0.00    -0.259 A  
HETATM   14  C   UNL     1      -9.531   6.876  70.054  1.00  0.00    -0.158 A  
BRANCH  13  15
HETATM   15  N   UNL     1     -11.114   7.394  68.310  1.00  0.00    -0.449 NA 
HETATM   16  H   UNL     1     -11.787   6.848  67.771  1.00  0.00     0.000 HD 
BRANCH  15  17
HETATM   17  C   UNL     1     -10.532   8.515  67.646  1.00  0.00    -0.241 A  
HETATM   18  C   UNL     1     -10.795   9.849  68.034  1.00  0.00    -0.294 A  
HETATM   19  C   UNL     1     -11.398  10.192  69.266  1.00  0.00    -0.211 A  
HETATM   20  C   UNL     1     -11.783  11.499  69.534  1.00  0.00    -0.413 A  
HETATM   21  C   UNL     1     -11.551  12.476  68.579  1.00  0.00    -0.321 A  
HETATM   22 CL   UNL     1     -12.129  14.074  68.841  1.00  0.00    -0.382 Cl 
HETATM   23  C   UNL     1     -10.867  12.167  67.404  1.00  0.00    -0.286 A  
HETATM   24  C   UNL     1     -10.447  10.874  67.132  1.00  0.00    -0.237 A  
HETATM   25  N   UNL     1      -9.758  10.636  66.003  1.00  0.00    -0.199 NA 
HETATM   26  C   UNL     1      -9.408   9.363  65.725  1.00  0.00    -0.239 A  
HETATM   27  C   UNL     1      -9.791   8.279  66.485  1.00  0.00    -0.323 A  
ENDBRANCH  15  17
ENDBRANCH  13  15
ENDBRANCH   6   7
ENDBRANCH   3   6
ENDBRANCH   2   3
TORSDOF 6
ENDMDL
MODEL      205
REMARK 921   NORMALIZED FREE ENERGY PREDICTED BY IDOCK:   -4.31 KCAL/MOL
REMARK 922        TOTAL FREE ENERGY PREDICTED BY IDOCK:   -6.84 KCAL/MOL
REMARK 923 INTER-LIGAND FREE ENERGY PREDICTED BY IDOCK:   -5.59 KCAL/MOL
REMARK 924 INTRA-LIGAND FREE ENERGY PREDICTED BY IDOCK:   -1.25 KCAL/MOL
REMARK 927      BINDING AFFINITY PREDICTED BY RF-SCORE:    0.00 PKD
ROOT
HETATM    1  C   UNL     1      -5.368   6.194  64.923  1.00  0.00    -0.017 C  
HETATM    2  C   UNL     1      -5.724   4.819  65.479  1.00  0.00    -0.018 C  
ENDROOT
BRANCH   2   3
HETATM    3  N   UNL     1      -6.628   4.866  66.651  1.00  0.00    -0.045 NA 
BRANCH   3   4
HETATM    4  C   UNL     1      -6.283   3.875  67.686  1.00  0.00    -0.036 C  
HETATM    5  C   UNL     1      -7.448   3.219  68.427  1.00  0.00    -0.049 C  
ENDBRANCH   3   4
BRANCH   3   6
HETATM    6  C   UNL     1      -6.721   6.234  67.222  1.00  0.00    -0.060 C  
BRANCH   6   7
HETATM    7  C   UNL     1      -8.150   6.644  67.516  1.00  0.00    -0.118 A  
HETATM    8  C   UNL     1      -9.159   6.598  66.546  1.00  0.00    -0.149 A  
HETATM    9  C   UNL     1     -10.380   7.216  66.766  1.00  0.00    -0.297 A  
HETATM   10  O   UNL     1      -8.950   6.046  65.314  1.00  0.00    -0.349 OA 
HETATM   11  C   UNL     1     -10.602   7.898  67.966  1.00  0.00    -0.194 A  
HETATM   12  H   UNL     1      -9.635   6.015  64.656  1.00  0.00     0.000 HD 
HETATM   13  C   UNL     1      -9.645   7.900  68.991  1.00  0.00    -0.155 A  
HETATM   14  C   UNL     1      -8.443   7.218  68.765  1.00  0.00    -0.129 A  
BRANCH  13  15
HETATM   15  N   UNL     1      -9.830   8.506  70.259  1.00  0.00    -0.179 NA 
HETATM   16  H   UNL     1      -8.983   8.743  70.776  1.00  0.00     0.000 HD 
BRANCH  15  17
HETATM   17  C   UNL     1     -11.068   8.823  70.895  1.00  0.00    -0.268 A  
HETATM   18  C   UNL     1     -11.676  10.095  70.783  1.00  0.00    -0.446 A  
HETATM   19  C   UNL     1     -11.293  11.053  69.816  1.00  0.00    -0.366 A  
HETATM   20  C   UNL     1     -11.805  12.344  69.847  1.00  0.00    -0.376 A  
HETATM   21  C   UNL     1     -12.720  12.679  70.833  1.00  0.00    -0.188 A  
HETATM   22 CL   UNL     1     -13.273  14.302  70.962  1.00  0.00    -0.395 Cl 
HETATM   23  C   UNL     1     -13.179  11.714  71.728  1.00  0.00    -0.438 A  
HETATM   24  C   UNL     1     -12.703  10.412  71.694  1.00  0.00    -0.455 A  
HETATM   25  N   UNL     1     -13.207   9.511  72.554  1.00  0.00    -0.359 NA 
HETATM   26  C   UNL     1     -12.690   8.264  72.548  1.00  0.00    -0.177 A  
HETATM   27  C   UNL     1     -11.616   7.884  71.772  1.00  0.00    -0.321 A  
ENDBRANCH  15  17
ENDBRANCH  13  15
ENDBRANCH   6   7
ENDBRANCH   3   6
ENDBRANCH   2   3
TORSDOF 6
ENDMDL
MODEL      206
REMARK 921   NORMALIZED FREE ENERGY PREDICTED BY IDOCK:   -4.29 KCAL/MOL
REMARK 922        TOTAL FREE ENERGY PREDICTED BY IDOCK:   -6.81 KCAL/MOL
REMARK 923 INTER-LIGAND FREE ENERGY PREDICTED BY IDOCK:   -6.06 KCAL/MOL
REMARK 924 INTRA-LIGAND FREE ENERGY PREDICTED BY IDOCK:   -0.76 KCAL/MOL
REMARK 927      BINDING AFFINITY PREDICTED BY RF-SCORE:    0.00 PKD
ROOT
HETATM    1  C   UNL     1      -9.048  19.316  68.426  1.00  0.00    -0.408 C  
HETATM    2  C   UNL     1     -10.059  18.201  68.674  1.00  0.00    -0.392 C  
ENDROOT
BRANCH   2   3
HETATM    3  N   UNL     1      -9.578  16.860  68.272  1.00  0.00    -0.250 NA 
BRANCH   3   4
HETATM    4  C   UNL     1      -8.133  16.828  67.982  1.00  0.00    -0.187 C  
HETATM    5  C   UNL     1      -7.719  16.317  66.603  1.00  0.00    -0.286 C  
ENDBRANCH   3   4
BRANCH   3   6
HETATM    6  C   UNL     1      -9.953  15.819  69.262  1.00  0.00    -0.262 C  
BRANCH   6   7
HETATM    7  C   UNL     1     -10.483  14.559  68.607  1.00  0.00    -0.247 A  
HETATM    8  C   UNL     1     -11.152  14.576  67.377  1.00  0.00    -0.314 A  
HETATM    9  C   UNL     1     -11.845  13.462  66.933  1.00  0.00    -0.453 A  
HETATM   10  O   UNL     1     -11.243  15.712  66.622  1.00  0.00    -0.221 OA 
HETATM   11  C   UNL     1     -11.881  12.310  67.726  1.00  0.00    -0.341 A  
HETATM   12  H   UNL     1     -11.697  15.723  65.788  1.00  0.00     0.000 HD 
HETATM   13  C   UNL     1     -11.160  12.229  68.926  1.00  0.00    -0.242 A  
HETATM   14  C   UNL     1     -10.421  13.351  69.323  1.00  0.00     0.130 A  
BRANCH  13  15
HETATM   15  N   UNL     1     -11.092  11.072  69.743  1.00  0.00    -0.375 NA 
HETATM   16  H   UNL     1     -11.841  10.956  70.426  1.00  0.00     0.000 HD 
BRANCH  15  17
HETATM   17  C   UNL     1     -10.094  10.052  69.717  1.00  0.00    -0.248 A  
HETATM   18  C   UNL     1     -10.287   8.785  70.315  1.00  0.00    -0.227 A  
HETATM   19  C   UNL     1     -11.555   8.305  70.717  1.00  0.00    -0.250 A  
HETATM   20  C   UNL     1     -11.676   7.127  71.444  1.00  0.00    -0.330 A  
HETATM   21  C   UNL     1     -10.530   6.411  71.755  1.00  0.00    -0.214 A  
HETATM   22 CL   UNL     1     -10.646   5.017  72.756  1.00  0.00    -0.258 Cl 
HETATM   23  C   UNL     1      -9.288   6.823  71.276  1.00  0.00    -0.165 A  
HETATM   24  C   UNL     1      -9.151   7.980  70.524  1.00  0.00    -0.153 A  
HETATM   25  N   UNL     1      -7.936   8.311  70.054  1.00  0.00    -0.101 NA 
HETATM   26  C   UNL     1      -7.810   9.470  69.374  1.00  0.00    -0.097 A  
HETATM   27  C   UNL     1      -8.835  10.377  69.207  1.00  0.00    -0.166 A  
ENDBRANCH  15  17
ENDBRANCH  13  15
ENDBRANCH   6   7
ENDBRANCH   3   6
ENDBRANCH   2   3
TORSDOF 6
ENDMDL
MODEL      207
REMARK 921   NORMALIZED FREE ENERGY PREDICTED BY IDOCK:   -4.28 KCAL/MOL
REMARK 922        TOTAL FREE ENERGY PREDICTED BY IDOCK:   -6.80 KCAL/MOL
REMARK 923 INTER-LIGAND FREE ENERGY PREDICTED BY IDOCK:   -5.52 KCAL/MOL
REMARK 924 INTRA-LIGAND FREE ENERGY PREDICTED BY IDOCK:   -1.28 KCAL/MOL
REMARK 927      BINDING AFFINITY PREDICTED BY RF-SCORE:    0.00 PKD
ROOT
HETATM    1  C   UNL     1     -10.610  11.738  66.964  1.00  0.00    -0.267 C  
HETATM    2  C   UNL     1      -9.638  12.115  65.851  1.00  0.00    -0.214 C  
ENDROOT
BRANCH   2   3
HETATM    3  N   UNL     1      -9.467  11.060  64.826  1.00  0.00    -0.223 NA 
BRANCH   3   4
HETATM    4  C   UNL     1      -9.831  11.510  63.470  1.00  0.00    -0.383 C  
HETATM    5  C   UNL     1      -8.759  11.373  62.388  1.00  0.00    -0.099 C  
ENDBRANCH   3   4
BRANCH   3   6
HETATM    6  C   UNL     1      -8.102  10.478  64.854  1.00  0.00    -0.086 C  
BRANCH   6   7
HETATM    7  C   UNL     1      -8.084   9.068  65.410  1.00  0.00    -0.120 A  
HETATM    8  C   UNL     1      -8.189   7.936  64.592  1.00  0.00    -0.091 A  
HETATM    9  C   UNL     1      -8.429   6.687  65.141  1.00  0.00    -0.041 A  
HETATM   10  O   UNL     1      -8.170   8.028  63.229  1.00  0.00    -0.295 OA 
HETATM   11  C   UNL     1      -8.574   6.557  66.526  1.00  0.00    -0.123 A  
HETATM   12  H   UNL     1      -8.242   7.260  62.674  1.00  0.00     0.000 HD 
HETATM   13  C   UNL     1      -8.399   7.654  67.382  1.00  0.00    -0.116 A  
HETATM   14  C   UNL     1      -8.100   8.894  66.805  1.00  0.00    -0.111 A  
BRANCH  13  15
HETATM   15  N   UNL     1      -8.458   7.583  68.797  1.00  0.00    -0.129 NA 
HETATM   16  H   UNL     1      -7.623   7.882  69.300  1.00  0.00     0.000 HD 
BRANCH  15  17
HETATM   17  C   UNL     1      -9.554   7.141  69.596  1.00  0.00    -0.154 A  
HETATM   18  C   UNL     1     -10.547   8.024  70.082  1.00  0.00    -0.237 A  
HETATM   19  C   UNL     1     -10.720   9.338  69.589  1.00  0.00    -0.244 A  
HETATM   20  C   UNL     1     -11.597  10.223  70.203  1.00  0.00    -0.376 A  
HETATM   21  C   UNL     1     -12.322   9.792  71.303  1.00  0.00    -0.371 A  
HETATM   22 CL   UNL     1     -13.322  10.906  72.151  1.00  0.00    -0.458 Cl 
HETATM   23  C   UNL     1     -12.234   8.469  71.733  1.00  0.00    -0.388 A  
HETATM   24  C   UNL     1     -11.386   7.563  71.114  1.00  0.00    -0.267 A  
HETATM   25  N   UNL     1     -11.367   6.290  71.543  1.00  0.00    -0.289 NA 
HETATM   26  C   UNL     1     -10.494   5.435  70.969  1.00  0.00    -0.232 A  
HETATM   27  C   UNL     1      -9.560   5.812  70.028  1.00  0.00    -0.206 A  
ENDBRANCH  15  17
ENDBRANCH  13  15
ENDBRANCH   6   7
ENDBRANCH   3   6
ENDBRANCH   2   3
TORSDOF 6
ENDMDL
MODEL      208
REMARK 921   NORMALIZED FREE ENERGY PREDICTED BY IDOCK:   -4.28 KCAL/MOL
REMARK 922        TOTAL FREE ENERGY PREDICTED BY IDOCK:   -6.79 KCAL/MOL
REMARK 923 INTER-LIGAND FREE ENERGY PREDICTED BY IDOCK:   -6.13 KCAL/MOL
REMARK 924 INTRA-LIGAND FREE ENERGY PREDICTED BY IDOCK:   -0.67 KCAL/MOL
REMARK 927      BINDING AFFINITY PREDICTED BY RF-SCORE:    0.00 PKD
ROOT
HETATM    1  C   UNL     1     -10.517  16.675  65.586  1.00  0.00    -0.313 C  
HETATM    2  C   UNL     1     -10.245  17.744  66.640  1.00  0.00    -0.361 C  
ENDROOT
BRANCH   2   3
HETATM    3  N   UNL     1     -10.728  17.384  67.992  1.00  0.00    -0.390 NA 
BRANCH   3   4
HETATM    4  C   UNL     1     -11.404  16.074  68.034  1.00  0.00    -0.266 C  
HETATM    5  C   UNL     1     -12.127  15.714  69.331  1.00  0.00    -0.287 C  
ENDBRANCH   3   4
BRANCH   3   6
HETATM    6  C   UNL     1      -9.647  17.467  69.006  1.00  0.00    -0.162 C  
BRANCH   6   7
HETATM    7  C   UNL     1      -8.493  16.531  68.701  1.00  0.00    -0.243 A  
HETATM    8  C   UNL     1      -7.292  16.978  68.138  1.00  0.00    -0.192 A  
HETATM    9  C   UNL     1      -6.368  16.076  67.636  1.00  0.00    -0.187 A  
HETATM   10  O   UNL     1      -7.031  18.307  67.958  1.00  0.00    -0.213 OA 
HETATM   11  C   UNL     1      -6.642  14.706  67.688  1.00  0.00    -0.177 A  
HETATM   12  H   UNL     1      -6.216  18.610  67.576  1.00  0.00     0.000 HD 
HETATM   13  C   UNL     1      -7.798  14.217  68.314  1.00  0.00    -0.141 A  
HETATM   14  C   UNL     1      -8.687  15.148  68.864  1.00  0.00    -0.205 A  
BRANCH  13  15
HETATM   15  N   UNL     1      -8.104  12.842  68.469  1.00  0.00    -0.275 NA 
HETATM   16  H   UNL     1      -8.327  12.532  69.415  1.00  0.00     0.000 HD 
BRANCH  15  17
HETATM   17  C   UNL     1      -8.137  11.842  67.451  1.00  0.00    -0.165 A  
HETATM   18  C   UNL     1      -9.031  11.900  66.357  1.00  0.00    -0.180 A  
HETATM   19  C   UNL     1      -9.747  13.068  66.005  1.00  0.00    -0.223 A  
HETATM   20  C   UNL     1     -10.733  13.034  65.026  1.00  0.00    -0.333 A  
HETATM   21  C   UNL     1     -10.993  11.837  64.378  1.00  0.00    -0.339 A  
HETATM   22 CL   UNL     1     -12.289  11.746  63.251  1.00  0.00    -0.553 Cl 
HETATM   23  C   UNL     1     -10.224  10.706  64.647  1.00  0.00    -0.404 A  
HETATM   24  C   UNL     1      -9.216  10.728  65.599  1.00  0.00    -0.199 A  
HETATM   25  N   UNL     1      -8.478   9.621  65.792  1.00  0.00    -0.130 NA 
HETATM   26  C   UNL     1      -7.541   9.641  66.763  1.00  0.00    -0.098 A  
HETATM   27  C   UNL     1      -7.355  10.698  67.627  1.00  0.00    -0.090 A  
ENDBRANCH  15  17
ENDBRANCH  13  15
ENDBRANCH   6   7
ENDBRANCH   3   6
ENDBRANCH   2   3
TORSDOF 6
ENDMDL
MODEL      209
REMARK 921   NORMALIZED FREE ENERGY PREDICTED BY IDOCK:   -4.27 KCAL/MOL
REMARK 922        TOTAL FREE ENERGY PREDICTED BY IDOCK:   -6.78 KCAL/MOL
REMARK 923 INTER-LIGAND FREE ENERGY PREDICTED BY IDOCK:   -5.61 KCAL/MOL
REMARK 924 INTRA-LIGAND FREE ENERGY PREDICTED BY IDOCK:   -1.18 KCAL/MOL
REMARK 927      BINDING AFFINITY PREDICTED BY RF-SCORE:    0.00 PKD
ROOT
HETATM    1  C   UNL     1     -10.432  12.390  63.724  1.00  0.00    -0.475 C  
HETATM    2  C   UNL     1     -10.223  10.881  63.635  1.00  0.00    -0.332 C  
ENDROOT
BRANCH   2   3
HETATM    3  N   UNL     1      -9.710  10.277  64.886  1.00  0.00    -0.298 NA 
BRANCH   3   4
HETATM    4  C   UNL     1      -8.540   9.406  64.668  1.00  0.00    -0.187 C  
HETATM    5  C   UNL     1      -8.504   8.093  65.449  1.00  0.00    -0.164 C  
ENDBRANCH   3   4
BRANCH   3   6
HETATM    6  C   UNL     1      -9.434  11.302  65.923  1.00  0.00    -0.222 C  
BRANCH   6   7
HETATM    7  C   UNL     1     -10.088  10.975  67.251  1.00  0.00    -0.222 A  
HETATM    8  C   UNL     1     -11.400  11.356  67.557  1.00  0.00    -0.292 A  
HETATM    9  C   UNL     1     -11.876  11.274  68.855  1.00  0.00    -0.413 A  
HETATM   10  O   UNL     1     -12.222  11.924  66.624  1.00  0.00    -0.493 OA 
HETATM   11  C   UNL     1     -11.034  10.810  69.871  1.00  0.00    -0.304 A  
HETATM   12  H   UNL     1     -13.111  12.183  66.832  1.00  0.00     0.000 HD 
HETATM   13  C   UNL     1      -9.741  10.346  69.590  1.00  0.00    -0.124 A  
HETATM   14  C   UNL     1      -9.306  10.387  68.260  1.00  0.00    -0.150 A  
BRANCH  13  15
HETATM   15  N   UNL     1      -8.861   9.795  70.555  1.00  0.00    -0.339 NA 
HETATM   16  H   UNL     1      -8.018  10.333  70.758  1.00  0.00     0.000 HD 
BRANCH  15  17
HETATM   17  C   UNL     1      -9.020   8.574  71.275  1.00  0.00    -0.192 A  
HETATM   18  C   UNL     1      -8.368   7.377  70.897  1.00  0.00    -0.115 A  
HETATM   19  C   UNL     1      -7.290   7.340  69.982  1.00  0.00    -0.083 A  
HETATM   20  C   UNL     1      -6.788   6.131  69.518  1.00  0.00    -0.065 A  
HETATM   21  C   UNL     1      -7.348   4.950  69.981  1.00  0.00    -0.055 A  
HETATM   22 CL   UNL     1      -6.823   3.448  69.328  1.00  0.00    -0.041 Cl 
HETATM   23  C   UNL     1      -8.342   4.975  70.958  1.00  0.00    -0.118 A  
HETATM   24  C   UNL     1      -8.835   6.172  71.456  1.00  0.00    -0.135 A  
HETATM   25  N   UNL     1      -9.766   6.140  72.425  1.00  0.00    -0.158 NA 
HETATM   26  C   UNL     1     -10.278   7.311  72.857  1.00  0.00    -0.244 A  
HETATM   27  C   UNL     1      -9.966   8.534  72.302  1.00  0.00    -0.385 A  
ENDBRANCH  15  17
ENDBRANCH  13  15
ENDBRANCH   6   7
ENDBRANCH   3   6
ENDBRANCH   2   3
TORSDOF 6
ENDMDL
MODEL      210
REMARK 921   NORMALIZED FREE ENERGY PREDICTED BY IDOCK:   -4.27 KCAL/MOL
REMARK 922        TOTAL FREE ENERGY PREDICTED BY IDOCK:   -6.77 KCAL/MOL
REMARK 923 INTER-LIGAND FREE ENERGY PREDICTED BY IDOCK:   -6.10 KCAL/MOL
REMARK 924 INTRA-LIGAND FREE ENERGY PREDICTED BY IDOCK:   -0.67 KCAL/MOL
REMARK 927      BINDING AFFINITY PREDICTED BY RF-SCORE:    0.00 PKD
ROOT
HETATM    1  C   UNL     1     -13.135  11.206  71.748  1.00  0.00    -0.536 C  
HETATM    2  C   UNL     1     -12.468  10.568  70.534  1.00  0.00    -0.347 C  
ENDROOT
BRANCH   2   3
HETATM    3  N   UNL     1     -12.263  11.505  69.406  1.00  0.00    -0.257 NA 
BRANCH   3   4
HETATM    4  C   UNL     1     -11.591  12.754  69.808  1.00  0.00    -0.218 C  
HETATM    5  C   UNL     1     -12.281  14.062  69.422  1.00  0.00    -0.336 C  
ENDBRANCH   3   4
BRANCH   3   6
HETATM    6  C   UNL     1     -11.561  10.856  68.269  1.00  0.00    -0.262 C  
BRANCH   6   7
HETATM    7  C   UNL     1     -10.056  11.011  68.353  1.00  0.00    -0.194 A  
HETATM    8  C   UNL     1      -9.245  10.110  69.054  1.00  0.00    -0.185 A  
HETATM    9  C   UNL     1      -7.922  10.415  69.329  1.00  0.00    -0.157 A  
HETATM   10  O   UNL     1      -9.746   8.956  69.588  1.00  0.00    -0.168 OA 
HETATM   11  C   UNL     1      -7.393  11.638  68.906  1.00  0.00    -0.107 A  
HETATM   12  H   UNL     1      -9.196   8.345  70.064  1.00  0.00     0.000 HD 
HETATM   13  C   UNL     1      -8.151  12.532  68.135  1.00  0.00    -0.167 A  
HETATM   14  C   UNL     1      -9.468  12.173  67.823  1.00  0.00    -0.192 A  
BRANCH  13  15
HETATM   15  N   UNL     1      -7.659  13.754  67.611  1.00  0.00    -0.166 NA 
HETATM   16  H   UNL     1      -7.392  13.748  66.626  1.00  0.00     0.000 HD 
BRANCH  15  17
HETATM   17  C   UNL     1      -7.495  14.990  68.304  1.00  0.00    -0.107 A  
HETATM   18  C   UNL     1      -8.422  16.052  68.195  1.00  0.00    -0.169 A  
HETATM   19  C   UNL     1      -9.717  15.894  67.651  1.00  0.00    -0.223 A  
HETATM   20  C   UNL     1     -10.533  16.994  67.415  1.00  0.00    -0.322 A  
HETATM   21  C   UNL     1     -10.065  18.257  67.741  1.00  0.00    -0.356 A  
HETATM   22 CL   UNL     1     -11.008  19.640  67.346  1.00  0.00    -0.505 Cl 
HETATM   23  C   UNL     1      -8.831  18.413  68.371  1.00  0.00    -0.340 A  
HETATM   24  C   UNL     1      -8.016  17.324  68.642  1.00  0.00    -0.267 A  
HETATM   25  N   UNL     1      -6.854  17.525  69.286  1.00  0.00    -0.232 NA 
HETATM   26  C   UNL     1      -6.046  16.463  69.490  1.00  0.00    -0.188 A  
HETATM   27  C   UNL     1      -6.301  15.201  68.999  1.00  0.00    -0.100 A  
ENDBRANCH  15  17
ENDBRANCH  13  15
ENDBRANCH   6   7
ENDBRANCH   3   6
ENDBRANCH   2   3
TORSDOF 6
ENDMDL
MODEL      211
REMARK 921   NORMALIZED FREE ENERGY PREDICTED BY IDOCK:   -4.26 KCAL/MOL
REMARK 922        TOTAL FREE ENERGY PREDICTED BY IDOCK:   -6.77 KCAL/MOL
REMARK 923 INTER-LIGAND FREE ENERGY PREDICTED BY IDOCK:   -5.89 KCAL/MOL
REMARK 924 INTRA-LIGAND FREE ENERGY PREDICTED BY IDOCK:   -0.88 KCAL/MOL
REMARK 927      BINDING AFFINITY PREDICTED BY RF-SCORE:    0.00 PKD
ROOT
HETATM    1  C   UNL     1      -5.848  10.717  63.604  1.00  0.00    -0.027 C  
HETATM    2  C   UNL     1      -7.124  10.783  62.771  1.00  0.00     0.076 C  
ENDROOT
BRANCH   2   3
HETATM    3  N   UNL     1      -8.338  10.360  63.506  1.00  0.00    -0.166 NA 
BRANCH   3   4
HETATM    4  C   UNL     1      -8.336   8.926  63.847  1.00  0.00    -0.159 C  
HETATM    5  C   UNL     1      -8.540   8.568  65.319  1.00  0.00    -0.192 C  
ENDBRANCH   3   4
BRANCH   3   6
HETATM    6  C   UNL     1      -8.578  11.200  64.707  1.00  0.00     0.186 C  
BRANCH   6   7
HETATM    7  C   UNL     1      -9.838  12.034  64.589  1.00  0.00    -0.182 A  
HETATM    8  C   UNL     1     -10.944  11.622  63.835  1.00  0.00    -0.407 A  
HETATM    9  C   UNL     1     -11.966  12.508  63.536  1.00  0.00    -0.629 A  
HETATM   10  O   UNL     1     -11.011  10.378  63.275  1.00  0.00     0.133 OA 
HETATM   11  C   UNL     1     -11.888  13.830  63.987  1.00  0.00    -0.410 A  
HETATM   12  H   UNL     1     -11.761  10.098  62.763  1.00  0.00     0.000 HD 
HETATM   13  C   UNL     1     -10.835  14.258  64.809  1.00  0.00    -0.405 A  
HETATM   14  C   UNL     1      -9.846  13.326  65.144  1.00  0.00    -0.078 A  
BRANCH  13  15
HETATM   15  N   UNL     1     -10.730  15.559  65.362  1.00  0.00    -0.380 NA 
HETATM   16  H   UNL     1     -11.185  16.310  64.842  1.00  0.00     0.000 HD 
BRANCH  15  17
HETATM   17  C   UNL     1     -10.059  15.938  66.563  1.00  0.00    -0.282 A  
HETATM   18  C   UNL     1     -10.599  15.690  67.846  1.00  0.00    -0.278 A  
HETATM   19  C   UNL     1     -11.674  14.800  68.074  1.00  0.00    -0.360 A  
HETATM   20  C   UNL     1     -12.276  14.710  69.323  1.00  0.00    -0.247 A  
HETATM   21  C   UNL     1     -11.792  15.495  70.358  1.00  0.00    -0.351 A  
HETATM   22 CL   UNL     1     -12.599  15.488  71.877  1.00  0.00    -0.431 Cl 
HETATM   23  C   UNL     1     -10.669  16.299  70.169  1.00  0.00    -0.246 A  
HETATM   24  C   UNL     1     -10.037  16.379  68.938  1.00  0.00    -0.255 A  
HETATM   25  N   UNL     1      -8.935  17.140  68.820  1.00  0.00    -0.258 NA 
HETATM   26  C   UNL     1      -8.366  17.254  67.601  1.00  0.00    -0.205 A  
HETATM   27  C   UNL     1      -8.898  16.707  66.453  1.00  0.00    -0.337 A  
ENDBRANCH  15  17
ENDBRANCH  13  15
ENDBRANCH   6   7
ENDBRANCH   3   6
ENDBRANCH   2   3
TORSDOF 6
ENDMDL
MODEL      212
REMARK 921   NORMALIZED FREE ENERGY PREDICTED BY IDOCK:   -4.25 KCAL/MOL
REMARK 922        TOTAL FREE ENERGY PREDICTED BY IDOCK:   -6.76 KCAL/MOL
REMARK 923 INTER-LIGAND FREE ENERGY PREDICTED BY IDOCK:   -5.47 KCAL/MOL
REMARK 924 INTRA-LIGAND FREE ENERGY PREDICTED BY IDOCK:   -1.29 KCAL/MOL
REMARK 927      BINDING AFFINITY PREDICTED BY RF-SCORE:    0.00 PKD
ROOT
HETATM    1  C   UNL     1     -10.566  13.072  64.091  1.00  0.00    -0.421 C  
HETATM    2  C   UNL     1     -11.340  11.961  64.793  1.00  0.00    -0.283 C  
ENDROOT
BRANCH   2   3
HETATM    3  N   UNL     1     -10.482  10.874  65.316  1.00  0.00    -0.258 NA 
BRANCH   3   4
HETATM    4  C   UNL     1      -9.568  10.321  64.300  1.00  0.00    -0.313 C  
HETATM    5  C   UNL     1      -8.691   9.146  64.730  1.00  0.00    -0.208 C  
ENDBRANCH   3   4
BRANCH   3   6
HETATM    6  C   UNL     1      -9.745  11.291  66.536  1.00  0.00    -0.202 C  
BRANCH   6   7
HETATM    7  C   UNL     1     -10.227  10.571  67.779  1.00  0.00    -0.223 A  
HETATM    8  C   UNL     1     -11.364  10.976  68.489  1.00  0.00    -0.287 A  
HETATM    9  C   UNL     1     -11.628  10.468  69.750  1.00  0.00    -0.368 A  
HETATM   10  O   UNL     1     -12.191  11.960  68.024  1.00  0.00    -0.491 OA 
HETATM   11  C   UNL     1     -10.746   9.544  70.322  1.00  0.00    -0.315 A  
HETATM   12  H   UNL     1     -12.962  12.234  68.506  1.00  0.00     0.000 HD 
HETATM   13  C   UNL     1      -9.641   9.057  69.610  1.00  0.00    -0.171 A  
HETATM   14  C   UNL     1      -9.429   9.545  68.315  1.00  0.00    -0.143 A  
BRANCH  13  15
HETATM   15  N   UNL     1      -8.748   8.069  70.097  1.00  0.00    -0.133 NA 
HETATM   16  H   UNL     1      -7.859   8.405  70.466  1.00  0.00     0.000 HD 
BRANCH  15  17
HETATM   17  C   UNL     1      -8.952   6.657  70.128  1.00  0.00    -0.152 A  
HETATM   18  C   UNL     1      -8.760   5.836  68.992  1.00  0.00    -0.112 A  
HETATM   19  C   UNL     1      -8.075   6.267  67.833  1.00  0.00    -0.114 A  
HETATM   20  C   UNL     1      -8.051   5.486  66.685  1.00  0.00    -0.105 A  
HETATM   21  C   UNL     1      -8.695   4.259  66.695  1.00  0.00    -0.113 A  
HETATM   22 CL   UNL     1      -8.780   3.332  65.249  1.00  0.00    -0.114 Cl 
HETATM   23  C   UNL     1      -9.287   3.781  67.864  1.00  0.00    -0.236 A  
HETATM   24  C   UNL     1      -9.295   4.533  69.028  1.00  0.00    -0.148 A  
HETATM   25  N   UNL     1      -9.844   4.010  70.138  1.00  0.00    -0.194 NA 
HETATM   26  C   UNL     1      -9.896   4.778  71.247  1.00  0.00    -0.187 A  
HETATM   27  C   UNL     1      -9.499   6.097  71.285  1.00  0.00    -0.177 A  
ENDBRANCH  15  17
ENDBRANCH  13  15
ENDBRANCH   6   7
ENDBRANCH   3   6
ENDBRANCH   2   3
TORSDOF 6
ENDMDL
MODEL      213
REMARK 921   NORMALIZED FREE ENERGY PREDICTED BY IDOCK:   -4.21 KCAL/MOL
REMARK 922        TOTAL FREE ENERGY PREDICTED BY IDOCK:   -6.70 KCAL/MOL
REMARK 923 INTER-LIGAND FREE ENERGY PREDICTED BY IDOCK:   -6.19 KCAL/MOL
REMARK 924 INTRA-LIGAND FREE ENERGY PREDICTED BY IDOCK:   -0.51 KCAL/MOL
REMARK 927      BINDING AFFINITY PREDICTED BY RF-SCORE:    0.00 PKD
ROOT
HETATM    1  C   UNL     1     -11.816   8.518  72.287  1.00  0.00    -0.453 C  
HETATM    2  C   UNL     1     -10.707   7.822  73.071  1.00  0.00    -0.384 C  
ENDROOT
BRANCH   2   3
HETATM    3  N   UNL     1      -9.997   6.778  72.300  1.00  0.00    -0.160 NA 
BRANCH   3   4
HETATM    4  C   UNL     1      -9.817   5.524  73.055  1.00  0.00    -0.162 C  
HETATM    5  C   UNL     1      -9.616   5.653  74.565  1.00  0.00    -0.181 C  
ENDBRANCH   3   4
BRANCH   3   6
HETATM    6  C   UNL     1     -10.640   6.528  70.985  1.00  0.00    -0.231 C  
BRANCH   6   7
HETATM    7  C   UNL     1      -9.740   6.891  69.820  1.00  0.00    -0.166 A  
HETATM    8  C   UNL     1      -8.489   6.294  69.622  1.00  0.00    -0.129 A  
HETATM    9  C   UNL     1      -7.588   6.823  68.713  1.00  0.00    -0.105 A  
HETATM   10  O   UNL     1      -8.063   5.244  70.386  1.00  0.00    -0.092 OA 
HETATM   11  C   UNL     1      -7.931   7.970  67.989  1.00  0.00    -0.128 A  
HETATM   12  H   UNL     1      -7.215   4.839  70.252  1.00  0.00     0.000 HD 
HETATM   13  C   UNL     1      -9.203   8.550  68.104  1.00  0.00    -0.137 A  
HETATM   14  C   UNL     1     -10.114   7.961  68.988  1.00  0.00    -0.204 A  
BRANCH  13  15
HETATM   15  N   UNL     1      -9.644   9.667  67.350  1.00  0.00    -0.144 NA 
HETATM   16  H   UNL     1      -9.245   9.769  66.416  1.00  0.00     0.000 HD 
BRANCH  15  17
HETATM   17  C   UNL     1     -10.583  10.665  67.748  1.00  0.00    -0.236 A  
HETATM   18  C   UNL     1     -11.166  11.571  66.831  1.00  0.00    -0.363 A  
HETATM   19  C   UNL     1     -11.115  11.391  65.430  1.00  0.00    -0.196 A  
HETATM   20  C   UNL     1     -11.559  12.384  64.566  1.00  0.00    -0.409 A  
HETATM   21  C   UNL     1     -12.073  13.556  65.098  1.00  0.00    -0.404 A  
HETATM   22 CL   UNL     1     -12.514  14.844  64.048  1.00  0.00    -0.222 Cl 
HETATM   23  C   UNL     1     -12.220  13.700  66.477  1.00  0.00    -0.454 A  
HETATM   24  C   UNL     1     -11.812  12.707  67.355  1.00  0.00    -0.328 A  
HETATM   25  N   UNL     1     -12.010  12.881  68.673  1.00  0.00    -0.297 NA 
HETATM   26  C   UNL     1     -11.554  11.931  69.517  1.00  0.00    -0.327 A  
HETATM   27  C   UNL     1     -10.818  10.838  69.115  1.00  0.00    -0.281 A  
ENDBRANCH  15  17
ENDBRANCH  13  15
ENDBRANCH   6   7
ENDBRANCH   3   6
ENDBRANCH   2   3
TORSDOF 6
ENDMDL
MODEL      214
REMARK 921   NORMALIZED FREE ENERGY PREDICTED BY IDOCK:   -4.21 KCAL/MOL
REMARK 922        TOTAL FREE ENERGY PREDICTED BY IDOCK:   -6.70 KCAL/MOL
REMARK 923 INTER-LIGAND FREE ENERGY PREDICTED BY IDOCK:   -6.25 KCAL/MOL
REMARK 924 INTRA-LIGAND FREE ENERGY PREDICTED BY IDOCK:   -0.45 KCAL/MOL
REMARK 927      BINDING AFFINITY PREDICTED BY RF-SCORE:    0.00 PKD
ROOT
HETATM    1  C   UNL     1     -12.281  11.156  69.785  1.00  0.00    -0.369 C  
HETATM    2  C   UNL     1     -11.044  10.272  69.666  1.00  0.00    -0.274 C  
ENDROOT
BRANCH   2   3
HETATM    3  N   UNL     1     -10.339  10.404  68.371  1.00  0.00    -0.165 NA 
BRANCH   3   4
HETATM    4  C   UNL     1      -9.852   9.115  67.846  1.00  0.00    -0.169 C  
HETATM    5  C   UNL     1      -9.841   8.951  66.326  1.00  0.00    -0.355 C  
ENDBRANCH   3   4
BRANCH   3   6
HETATM    6  C   UNL     1     -11.163  11.121  67.365  1.00  0.00    -0.294 C  
BRANCH   6   7
HETATM    7  C   UNL     1     -10.589  12.477  67.006  1.00  0.00    -0.251 A  
HETATM    8  C   UNL     1     -11.061  13.231  65.924  1.00  0.00    -0.285 A  
HETATM    9  C   UNL     1     -10.355  14.331  65.467  1.00  0.00    -0.374 A  
HETATM   10  O   UNL     1     -12.165  12.855  65.212  1.00  0.00    -0.423 OA 
HETATM   11  C   UNL     1      -9.155  14.689  66.089  1.00  0.00    -0.125 A  
HETATM   12  H   UNL     1     -12.485  13.366  64.478  1.00  0.00     0.000 HD 
HETATM   13  C   UNL     1      -8.690  14.005  67.222  1.00  0.00    -0.218 A  
HETATM   14  C   UNL     1      -9.453  12.932  67.698  1.00  0.00    -0.197 A  
BRANCH  13  15
HETATM   15  N   UNL     1      -7.523  14.357  67.947  1.00  0.00    -0.135 NA 
HETATM   16  H   UNL     1      -6.979  13.583  68.331  1.00  0.00     0.000 HD 
BRANCH  15  17
HETATM   17  C   UNL     1      -7.022  15.669  68.199  1.00  0.00    -0.120 A  
HETATM   18  C   UNL     1      -7.872  16.774  68.435  1.00  0.00    -0.214 A  
HETATM   19  C   UNL     1      -9.246  16.642  68.740  1.00  0.00    -0.253 A  
HETATM   20  C   UNL     1     -10.075  17.755  68.804  1.00  0.00    -0.381 A  
HETATM   21  C   UNL     1      -9.529  19.010  68.584  1.00  0.00    -0.405 A  
HETATM   22 CL   UNL     1     -10.559  20.387  68.540  1.00  0.00    -0.176 Cl 
HETATM   23  C   UNL     1      -8.158  19.159  68.383  1.00  0.00    -0.378 A  
HETATM   24  C   UNL     1      -7.310  18.063  68.346  1.00  0.00    -0.261 A  
HETATM   25  N   UNL     1      -5.991  18.264  68.187  1.00  0.00    -0.173 NA 
HETATM   26  C   UNL     1      -5.187  17.184  68.094  1.00  0.00    -0.120 A  
HETATM   27  C   UNL     1      -5.649  15.886  68.063  1.00  0.00    -0.133 A  
ENDBRANCH  15  17
ENDBRANCH  13  15
ENDBRANCH   6   7
ENDBRANCH   3   6
ENDBRANCH   2   3
TORSDOF 6
ENDMDL
MODEL      215
REMARK 921   NORMALIZED FREE ENERGY PREDICTED BY IDOCK:   -4.20 KCAL/MOL
REMARK 922        TOTAL FREE ENERGY PREDICTED BY IDOCK:   -6.69 KCAL/MOL
REMARK 923 INTER-LIGAND FREE ENERGY PREDICTED BY IDOCK:   -6.04 KCAL/MOL
REMARK 924 INTRA-LIGAND FREE ENERGY PREDICTED BY IDOCK:   -0.65 KCAL/MOL
REMARK 927      BINDING AFFINITY PREDICTED BY RF-SCORE:    0.00 PKD
ROOT
HETATM    1  C   UNL     1     -11.808  15.384  68.662  1.00  0.00    -0.317 C  
HETATM    2  C   UNL     1     -11.549  14.208  67.725  1.00  0.00    -0.347 C  
ENDROOT
BRANCH   2   3
HETATM    3  N   UNL     1     -11.975  14.453  66.329  1.00  0.00    -0.396 NA 
BRANCH   3   4
HETATM    4  C   UNL     1     -10.924  15.078  65.506  1.00  0.00    -0.358 C  
HETATM    5  C   UNL     1     -11.389  15.967  64.352  1.00  0.00    -0.276 C  
ENDBRANCH   3   4
BRANCH   3   6
HETATM    6  C   UNL     1     -12.502  13.222  65.688  1.00  0.00    -0.451 C  
BRANCH   6   7
HETATM    7  C   UNL     1     -11.401  12.329  65.153  1.00  0.00    -0.376 A  
HETATM    8  C   UNL     1     -11.154  12.177  63.783  1.00  0.00    -0.436 A  
HETATM    9  C   UNL     1     -10.324  11.169  63.321  1.00  0.00    -0.368 A  
HETATM   10  O   UNL     1     -11.799  12.935  62.847  1.00  0.00    -0.783 OA 
HETATM   11  C   UNL     1      -9.732  10.289  64.234  1.00  0.00    -0.373 A  
HETATM   12  H   UNL     1     -11.632  12.832  61.918  1.00  0.00     0.000 HD 
HETATM   13  C   UNL     1      -9.894  10.458  65.617  1.00  0.00    -0.259 A  
HETATM   14  C   UNL     1     -10.691  11.521  66.058  1.00  0.00    -0.332 A  
BRANCH  13  15
HETATM   15  N   UNL     1      -9.266   9.652  66.600  1.00  0.00    -0.147 NA 
HETATM   16  H   UNL     1      -9.807   9.465  67.444  1.00  0.00     0.000 HD 
BRANCH  15  17
HETATM   17  C   UNL     1      -7.964   9.072  66.542  1.00  0.00    -0.103 A  
HETATM   18  C   UNL     1      -7.751   7.709  66.226  1.00  0.00    -0.089 A  
HETATM   19  C   UNL     1      -8.747   6.884  65.656  1.00  0.00    -0.086 A  
HETATM   20  C   UNL     1      -8.547   5.517  65.513  1.00  0.00    -0.150 A  
HETATM   21  C   UNL     1      -7.340   4.970  65.921  1.00  0.00    -0.077 A  
HETATM   22 CL   UNL     1      -7.118   3.265  65.865  1.00  0.00    -0.064 Cl 
HETATM   23  C   UNL     1      -6.315   5.790  66.390  1.00  0.00    -0.039 A  
HETATM   24  C   UNL     1      -6.486   7.161  66.512  1.00  0.00    -0.051 A  
HETATM   25  N   UNL     1      -5.453   7.911  66.933  1.00  0.00    -0.031 NA 
HETATM   26  C   UNL     1      -5.654   9.235  67.102  1.00  0.00    -0.041 A  
HETATM   27  C   UNL     1      -6.878   9.850  66.952  1.00  0.00    -0.087 A  
ENDBRANCH  15  17
ENDBRANCH  13  15
ENDBRANCH   6   7
ENDBRANCH   3   6
ENDBRANCH   2   3
TORSDOF 6
ENDMDL
MODEL      216
REMARK 921   NORMALIZED FREE ENERGY PREDICTED BY IDOCK:   -4.20 KCAL/MOL
REMARK 922        TOTAL FREE ENERGY PREDICTED BY IDOCK:   -6.69 KCAL/MOL
REMARK 923 INTER-LIGAND FREE ENERGY PREDICTED BY IDOCK:   -5.56 KCAL/MOL
REMARK 924 INTRA-LIGAND FREE ENERGY PREDICTED BY IDOCK:   -1.13 KCAL/MOL
REMARK 927      BINDING AFFINITY PREDICTED BY RF-SCORE:    0.00 PKD
ROOT
HETATM    1  C   UNL     1     -12.506   6.426  72.171  1.00  0.00    -0.173 C  
HETATM    2  C   UNL     1     -12.958   7.790  71.658  1.00  0.00    -0.345 C  
ENDROOT
BRANCH   2   3
HETATM    3  N   UNL     1     -11.859   8.614  71.107  1.00  0.00    -0.287 NA 
BRANCH   3   4
HETATM    4  C   UNL     1     -12.126  10.061  71.187  1.00  0.00    -0.380 C  
HETATM    5  C   UNL     1     -12.209  10.821  69.864  1.00  0.00    -0.384 C  
ENDBRANCH   3   4
BRANCH   3   6
HETATM    6  C   UNL     1     -10.550   8.271  71.719  1.00  0.00    -0.259 C  
BRANCH   6   7
HETATM    7  C   UNL     1      -9.637   7.533  70.760  1.00  0.00    -0.166 A  
HETATM    8  C   UNL     1      -8.382   7.045  71.144  1.00  0.00    -0.118 A  
HETATM    9  C   UNL     1      -7.471   6.611  70.194  1.00  0.00    -0.094 A  
HETATM   10  O   UNL     1      -7.962   7.078  72.444  1.00  0.00    -0.095 OA 
HETATM   11  C   UNL     1      -7.808   6.668  68.838  1.00  0.00    -0.111 A  
HETATM   12  H   UNL     1      -7.111   6.747  72.704  1.00  0.00     0.000 HD 
HETATM   13  C   UNL     1      -9.083   7.078  68.421  1.00  0.00    -0.127 A  
HETATM   14  C   UNL     1     -10.004   7.456  69.405  1.00  0.00    -0.176 A  
BRANCH  13  15
HETATM   15  N   UNL     1      -9.518   7.091  67.071  1.00  0.00    -0.143 NA 
HETATM   16  H   UNL     1     -10.285   6.460  66.837  1.00  0.00     0.000 HD 
BRANCH  15  17
HETATM   17  C   UNL     1      -9.006   7.887  66.004  1.00  0.00    -0.154 A  
HETATM   18  C   UNL     1      -9.412   9.225  65.790  1.00  0.00    -0.329 A  
HETATM   19  C   UNL     1     -10.110   9.984  66.757  1.00  0.00    -0.286 A  
HETATM   20  C   UNL     1     -10.628  11.235  66.445  1.00  0.00    -0.316 A  
HETATM   21  C   UNL     1     -10.434  11.742  65.170  1.00  0.00    -0.283 A  
HETATM   22 CL   UNL     1     -11.171  13.232  64.728  1.00  0.00    -0.333 Cl 
HETATM   23  C   UNL     1      -9.661  11.045  64.243  1.00  0.00    -0.333 A  
HETATM   24  C   UNL     1      -9.110   9.810  64.545  1.00  0.00    -0.249 A  
HETATM   25  N   UNL     1      -8.341   9.197  63.629  1.00  0.00    -0.179 NA 
HETATM   26  C   UNL     1      -7.860   7.969  63.917  1.00  0.00    -0.142 A  
HETATM   27  C   UNL     1      -8.184   7.268  65.058  1.00  0.00    -0.100 A  
ENDBRANCH  15  17
ENDBRANCH  13  15
ENDBRANCH   6   7
ENDBRANCH   3   6
ENDBRANCH   2   3
TORSDOF 6
ENDMDL
MODEL      217
REMARK 921   NORMALIZED FREE ENERGY PREDICTED BY IDOCK:   -4.19 KCAL/MOL
REMARK 922        TOTAL FREE ENERGY PREDICTED BY IDOCK:   -6.67 KCAL/MOL
REMARK 923 INTER-LIGAND FREE ENERGY PREDICTED BY IDOCK:   -5.69 KCAL/MOL
REMARK 924 INTRA-LIGAND FREE ENERGY PREDICTED BY IDOCK:   -0.98 KCAL/MOL
REMARK 927      BINDING AFFINITY PREDICTED BY RF-SCORE:    0.00 PKD
ROOT
HETATM    1  C   UNL     1     -12.579  12.877  70.948  1.00  0.00    -0.355 C  
HETATM    2  C   UNL     1     -11.575  13.431  69.942  1.00  0.00    -0.200 C  
ENDROOT
BRANCH   2   3
HETATM    3  N   UNL     1     -12.202  14.141  68.804  1.00  0.00    -0.280 NA 
BRANCH   3   4
HETATM    4  C   UNL     1     -11.650  15.491  68.591  1.00  0.00    -0.368 C  
HETATM    5  C   UNL     1     -10.549  15.944  69.550  1.00  0.00    -0.282 C  
ENDBRANCH   3   4
BRANCH   3   6
HETATM    6  C   UNL     1     -12.157  13.336  67.557  1.00  0.00    -0.264 C  
BRANCH   6   7
HETATM    7  C   UNL     1     -10.895  12.502  67.451  1.00  0.00    -0.272 A  
HETATM    8  C   UNL     1     -10.864  11.141  67.776  1.00  0.00    -0.239 A  
HETATM    9  C   UNL     1      -9.658  10.474  67.918  1.00  0.00    -0.164 A  
HETATM   10  O   UNL     1     -12.003  10.445  68.073  1.00  0.00    -0.706 OA 
HETATM   11  C   UNL     1      -8.459  11.172  67.740  1.00  0.00    -0.124 A  
HETATM   12  H   UNL     1     -11.982   9.522  68.294  1.00  0.00     0.000 HD 
HETATM   13  C   UNL     1      -8.451  12.515  67.339  1.00  0.00    -0.181 A  
HETATM   14  C   UNL     1      -9.685  13.149  67.147  1.00  0.00    -0.235 A  
BRANCH  13  15
HETATM   15  N   UNL     1      -7.276  13.263  67.069  1.00  0.00    -0.349 NA 
HETATM   16  H   UNL     1      -6.719  12.958  66.271  1.00  0.00     0.000 HD 
BRANCH  15  17
HETATM   17  C   UNL     1      -6.786  14.394  67.787  1.00  0.00    -0.178 A  
HETATM   18  C   UNL     1      -6.252  14.293  69.093  1.00  0.00    -0.099 A  
HETATM   19  C   UNL     1      -5.879  13.063  69.682  1.00  0.00    -0.111 A  
HETATM   20  C   UNL     1      -5.512  12.993  71.020  1.00  0.00    -0.188 A  
HETATM   21  C   UNL     1      -5.497  14.157  71.773  1.00  0.00    -0.220 A  
HETATM   22 CL   UNL     1      -5.164  14.075  73.458  1.00  0.00    -0.333 Cl 
HETATM   23  C   UNL     1      -5.766  15.388  71.175  1.00  0.00     0.173 A  
HETATM   24  C   UNL     1      -6.104  15.481  69.834  1.00  0.00    -0.157 A  
HETATM   25  N   UNL     1      -6.316  16.696  69.299  1.00  0.00    -0.189 NA 
HETATM   26  C   UNL     1      -6.701  16.765  68.007  1.00  0.00    -0.143 A  
HETATM   27  C   UNL     1      -6.977  15.661  67.229  1.00  0.00    -0.224 A  
ENDBRANCH  15  17
ENDBRANCH  13  15
ENDBRANCH   6   7
ENDBRANCH   3   6
ENDBRANCH   2   3
TORSDOF 6
ENDMDL
MODEL      218
REMARK 921   NORMALIZED FREE ENERGY PREDICTED BY IDOCK:   -4.19 KCAL/MOL
REMARK 922        TOTAL FREE ENERGY PREDICTED BY IDOCK:   -6.67 KCAL/MOL
REMARK 923 INTER-LIGAND FREE ENERGY PREDICTED BY IDOCK:   -5.64 KCAL/MOL
REMARK 924 INTRA-LIGAND FREE ENERGY PREDICTED BY IDOCK:   -1.03 KCAL/MOL
REMARK 927      BINDING AFFINITY PREDICTED BY RF-SCORE:    0.00 PKD
ROOT
HETATM    1  C   UNL     1      -7.585  10.748  66.328  1.00  0.00    -0.142 C  
HETATM    2  C   UNL     1      -8.796   9.974  66.838  1.00  0.00    -0.131 C  
ENDROOT
BRANCH   2   3
HETATM    3  N   UNL     1      -8.771   9.722  68.297  1.00  0.00    -0.119 NA 
BRANCH   3   4
HETATM    4  C   UNL     1      -7.410   9.510  68.822  1.00  0.00    -0.074 C  
HETATM    5  C   UNL     1      -6.952  10.440  69.945  1.00  0.00    -0.149 C  
ENDBRANCH   3   4
BRANCH   3   6
HETATM    6  C   UNL     1      -9.482  10.782  69.054  1.00  0.00    -0.166 C  
BRANCH   6   7
HETATM    7  C   UNL     1     -10.623  10.234  69.889  1.00  0.00    -0.324 A  
HETATM    8  C   UNL     1     -11.927  10.736  69.803  1.00  0.00    -0.325 A  
HETATM    9  C   UNL     1     -12.879  10.398  70.751  1.00  0.00    -0.450 A  
HETATM   10  O   UNL     1     -12.283  11.658  68.858  1.00  0.00    -0.377 OA 
HETATM   11  C   UNL     1     -12.531   9.551  71.807  1.00  0.00    -0.484 A  
HETATM   12  H   UNL     1     -13.167  11.999  68.801  1.00  0.00     0.000 HD 
HETATM   13  C   UNL     1     -11.258   8.966  71.883  1.00  0.00    -0.377 A  
HETATM   14  C   UNL     1     -10.333   9.280  70.880  1.00  0.00    -0.367 A  
BRANCH  13  15
HETATM   15  N   UNL     1     -10.859   8.043  72.883  1.00  0.00    -0.372 NA 
HETATM   16  H   UNL     1     -11.537   7.856  73.621  1.00  0.00     0.000 HD 
BRANCH  15  17
HETATM   17  C   UNL     1      -9.618   7.346  72.972  1.00  0.00    -0.194 A  
HETATM   18  C   UNL     1      -9.381   6.125  72.297  1.00  0.00    -0.149 A  
HETATM   19  C   UNL     1     -10.209   5.643  71.258  1.00  0.00    -0.279 A  
HETATM   20  C   UNL     1     -10.032   4.368  70.737  1.00  0.00    -0.247 A  
HETATM   21  C   UNL     1      -9.012   3.574  71.237  1.00  0.00    -0.098 A  
HETATM   22 CL   UNL     1      -8.853   1.951  70.691  1.00  0.00    -0.113 Cl 
HETATM   23  C   UNL     1      -8.128   4.078  72.190  1.00  0.00    -0.085 A  
HETATM   24  C   UNL     1      -8.270   5.359  72.700  1.00  0.00    -0.114 A  
HETATM   25  N   UNL     1      -7.367   5.811  73.589  1.00  0.00    -0.086 NA 
HETATM   26  C   UNL     1      -7.553   7.037  74.120  1.00  0.00    -0.107 A  
HETATM   27  C   UNL     1      -8.660   7.820  73.872  1.00  0.00    -0.313 A  
ENDBRANCH  15  17
ENDBRANCH  13  15
ENDBRANCH   6   7
ENDBRANCH   3   6
ENDBRANCH   2   3
TORSDOF 6
ENDMDL
MODEL      219
REMARK 921   NORMALIZED FREE ENERGY PREDICTED BY IDOCK:   -4.18 KCAL/MOL
REMARK 922        TOTAL FREE ENERGY PREDICTED BY IDOCK:   -6.66 KCAL/MOL
REMARK 923 INTER-LIGAND FREE ENERGY PREDICTED BY IDOCK:   -5.54 KCAL/MOL
REMARK 924 INTRA-LIGAND FREE ENERGY PREDICTED BY IDOCK:   -1.12 KCAL/MOL
REMARK 927      BINDING AFFINITY PREDICTED BY RF-SCORE:    0.00 PKD
ROOT
HETATM    1  C   UNL     1     -10.382   8.787  71.209  1.00  0.00    -0.331 C  
HETATM    2  C   UNL     1      -9.090   7.977  71.218  1.00  0.00    -0.139 C  
ENDROOT
BRANCH   2   3
HETATM    3  N   UNL     1      -9.189   6.689  70.495  1.00  0.00    -0.155 NA 
BRANCH   3   4
HETATM    4  C   UNL     1      -9.149   5.519  71.392  1.00  0.00    -0.143 C  
HETATM    5  C   UNL     1     -10.264   4.487  71.228  1.00  0.00    -0.167 C  
ENDBRANCH   3   4
BRANCH   3   6
HETATM    6  C   UNL     1     -10.375   6.645  69.603  1.00  0.00    -0.194 C  
BRANCH   6   7
HETATM    7  C   UNL     1     -10.005   6.769  68.139  1.00  0.00    -0.161 A  
HETATM    8  C   UNL     1      -9.338   5.753  67.443  1.00  0.00    -0.112 A  
HETATM    9  C   UNL     1      -8.788   5.993  66.195  1.00  0.00    -0.152 A  
HETATM   10  O   UNL     1      -9.106   4.529  68.004  1.00  0.00    -0.112 OA 
HETATM   11  C   UNL     1      -8.896   7.267  65.627  1.00  0.00    -0.044 A  
HETATM   12  H   UNL     1      -8.654   3.840  67.533  1.00  0.00     0.000 HD 
HETATM   13  C   UNL     1      -9.622   8.287  66.258  1.00  0.00    -0.196 A  
HETATM   14  C   UNL     1     -10.217   7.999  67.493  1.00  0.00    -0.311 A  
BRANCH  13  15
HETATM   15  N   UNL     1      -9.835   9.577  65.708  1.00  0.00    -0.300 NA 
HETATM   16  H   UNL     1     -10.241   9.608  64.773  1.00  0.00     0.000 HD 
BRANCH  15  17
HETATM   17  C   UNL     1      -9.545  10.835  66.315  1.00  0.00    -0.195 A  
HETATM   18  C   UNL     1     -10.176  12.036  65.915  1.00  0.00    -0.263 A  
HETATM   19  C   UNL     1     -11.341  12.066  65.113  1.00  0.00    -0.359 A  
HETATM   20  C   UNL     1     -11.832  13.265  64.612  1.00  0.00    -0.420 A  
HETATM   21  C   UNL     1     -11.173  14.444  64.927  1.00  0.00    -0.389 A  
HETATM   22 CL   UNL     1     -11.693  15.922  64.219  1.00  0.00    -0.295 Cl 
HETATM   23  C   UNL     1     -10.085  14.433  65.798  1.00  0.00    -0.361 A  
HETATM   24  C   UNL     1      -9.599  13.250  66.333  1.00  0.00    -0.254 A  
HETATM   25  N   UNL     1      -8.571  13.299  67.198  1.00  0.00    -0.205 NA 
HETATM   26  C   UNL     1      -8.072  12.135  67.663  1.00  0.00    -0.158 A  
HETATM   27  C   UNL     1      -8.496  10.895  67.236  1.00  0.00    -0.125 A  
ENDBRANCH  15  17
ENDBRANCH  13  15
ENDBRANCH   6   7
ENDBRANCH   3   6
ENDBRANCH   2   3
TORSDOF 6
ENDMDL
MODEL      220
REMARK 921   NORMALIZED FREE ENERGY PREDICTED BY IDOCK:   -4.18 KCAL/MOL
REMARK 922        TOTAL FREE ENERGY PREDICTED BY IDOCK:   -6.66 KCAL/MOL
REMARK 923 INTER-LIGAND FREE ENERGY PREDICTED BY IDOCK:   -6.82 KCAL/MOL
REMARK 924 INTRA-LIGAND FREE ENERGY PREDICTED BY IDOCK:    0.17 KCAL/MOL
REMARK 927      BINDING AFFINITY PREDICTED BY RF-SCORE:    0.00 PKD
ROOT
HETATM    1  C   UNL     1     -12.042  15.808  72.234  1.00  0.00    -0.574 C  
HETATM    2  C   UNL     1     -12.578  15.534  70.833  1.00  0.00    -0.456 C  
ENDROOT
BRANCH   2   3
HETATM    3  N   UNL     1     -12.232  14.191  70.315  1.00  0.00    -0.329 NA 
BRANCH   3   4
HETATM    4  C   UNL     1     -12.952  13.104  71.003  1.00  0.00    -0.133 C  
HETATM    5  C   UNL     1     -12.291  11.726  70.993  1.00  0.00    -0.386 C  
ENDBRANCH   3   4
BRANCH   3   6
HETATM    6  C   UNL     1     -12.403  14.105  68.843  1.00  0.00    -0.080 C  
BRANCH   6   7
HETATM    7  C   UNL     1     -11.141  13.648  68.138  1.00  0.00    -0.281 A  
HETATM    8  C   UNL     1     -10.971  12.337  67.677  1.00  0.00    -0.244 A  
HETATM    9  C   UNL     1      -9.724  11.884  67.276  1.00  0.00    -0.191 A  
HETATM   10  O   UNL     1     -11.988  11.425  67.707  1.00  0.00    -0.637 OA 
HETATM   11  C   UNL     1      -8.624  12.746  67.338  1.00  0.00    -0.194 A  
HETATM   12  H   UNL     1     -11.872  10.535  67.395  1.00  0.00     0.000 HD 
HETATM   13  C   UNL     1      -8.770  14.087  67.720  1.00  0.00    -0.185 A  
HETATM   14  C   UNL     1     -10.052  14.533  68.065  1.00  0.00    -0.226 A  
BRANCH  13  15
HETATM   15  N   UNL     1      -7.715  15.034  67.736  1.00  0.00    -0.139 NA 
HETATM   16  H   UNL     1      -6.806  14.704  67.411  1.00  0.00     0.000 HD 
BRANCH  15  17
HETATM   17  C   UNL     1      -7.781  16.397  68.154  1.00  0.00    -0.160 A  
HETATM   18  C   UNL     1      -8.648  17.337  67.549  1.00  0.00    -0.213 A  
HETATM   19  C   UNL     1      -9.720  16.968  66.704  1.00  0.00    -0.287 A  
HETATM   20  C   UNL     1     -10.442  17.927  66.005  1.00  0.00    -0.293 A  
HETATM   21  C   UNL     1     -10.109  19.264  66.163  1.00  0.00    -0.442 A  
HETATM   22 CL   UNL     1     -10.909  20.455  65.215  1.00  0.00     0.009 Cl 
HETATM   23  C   UNL     1      -9.120  19.643  67.070  1.00  0.00    -0.402 A  
HETATM   24  C   UNL     1      -8.410  18.702  67.799  1.00  0.00    -0.267 A  
HETATM   25  N   UNL     1      -7.494  19.123  68.688  1.00  0.00    -0.322 NA 
HETATM   26  C   UNL     1      -6.770  18.194  69.347  1.00  0.00    -0.167 A  
HETATM   27  C   UNL     1      -6.852  16.841  69.098  1.00  0.00    -0.227 A  
ENDBRANCH  15  17
ENDBRANCH  13  15
ENDBRANCH   6   7
ENDBRANCH   3   6
ENDBRANCH   2   3
TORSDOF 6
ENDMDL
MODEL      221
REMARK 921   NORMALIZED FREE ENERGY PREDICTED BY IDOCK:   -4.17 KCAL/MOL
REMARK 922        TOTAL FREE ENERGY PREDICTED BY IDOCK:   -6.64 KCAL/MOL
REMARK 923 INTER-LIGAND FREE ENERGY PREDICTED BY IDOCK:   -6.55 KCAL/MOL
REMARK 924 INTRA-LIGAND FREE ENERGY PREDICTED BY IDOCK:   -0.09 KCAL/MOL
REMARK 927      BINDING AFFINITY PREDICTED BY RF-SCORE:    0.00 PKD
ROOT
HETATM    1  C   UNL     1     -12.339  15.200  73.897  1.00  0.00    -0.722 C  
HETATM    2  C   UNL     1     -11.788  15.219  72.474  1.00  0.00    -0.431 C  
ENDROOT
BRANCH   2   3
HETATM    3  N   UNL     1     -12.821  15.444  71.438  1.00  0.00    -0.404 NA 
BRANCH   3   4
HETATM    4  C   UNL     1     -12.268  15.966  70.176  1.00  0.00    -0.218 C  
HETATM    5  C   UNL     1     -10.823  16.462  70.210  1.00  0.00    -0.218 C  
ENDBRANCH   3   4
BRANCH   3   6
HETATM    6  C   UNL     1     -13.645  14.230  71.206  1.00  0.00    -0.288 C  
BRANCH   6   7
HETATM    7  C   UNL     1     -12.862  13.117  70.539  1.00  0.00    -0.027 A  
HETATM    8  C   UNL     1     -12.681  11.863  71.136  1.00  0.00    -0.284 A  
HETATM    9  C   UNL     1     -11.755  10.965  70.629  1.00  0.00    -0.418 A  
HETATM   10  O   UNL     1     -13.319  11.518  72.294  1.00  0.00    -0.624 OA 
HETATM   11  C   UNL     1     -10.990  11.319  69.513  1.00  0.00    -0.249 A  
HETATM   12  H   UNL     1     -13.195  10.668  72.699  1.00  0.00     0.000 HD 
HETATM   13  C   UNL     1     -11.198  12.533  68.842  1.00  0.00    -0.281 A  
HETATM   14  C   UNL     1     -12.180  13.397  69.342  1.00  0.00    -0.246 A  
BRANCH  13  15
HETATM   15  N   UNL     1     -10.513  12.924  67.665  1.00  0.00    -0.222 NA 
HETATM   16  H   UNL     1     -11.041  13.493  67.002  1.00  0.00     0.000 HD 
BRANCH  15  17
HETATM   17  C   UNL     1      -9.168  12.614  67.301  1.00  0.00    -0.195 A  
HETATM   18  C   UNL     1      -8.850  11.666  66.301  1.00  0.00    -0.164 A  
HETATM   19  C   UNL     1      -9.798  11.171  65.377  1.00  0.00    -0.289 A  
HETATM   20  C   UNL     1      -9.481  10.125  64.519  1.00  0.00    -0.364 A  
HETATM   21  C   UNL     1      -8.207   9.582  64.566  1.00  0.00    -0.152 A  
HETATM   22 CL   UNL     1      -7.832   8.209  63.600  1.00  0.00    -0.146 Cl 
HETATM   23  C   UNL     1      -7.236  10.130  65.403  1.00  0.00    -0.144 A  
HETATM   24  C   UNL     1      -7.525  11.194  66.244  1.00  0.00    -0.064 A  
HETATM   25  N   UNL     1      -6.543  11.710  67.003  1.00  0.00    -0.136 NA 
HETATM   26  C   UNL     1      -6.854  12.706  67.859  1.00  0.00    -0.112 A  
HETATM   27  C   UNL     1      -8.137  13.165  68.066  1.00  0.00    -0.157 A  
ENDBRANCH  15  17
ENDBRANCH  13  15
ENDBRANCH   6   7
ENDBRANCH   3   6
ENDBRANCH   2   3
TORSDOF 6
ENDMDL
MODEL      222
REMARK 921   NORMALIZED FREE ENERGY PREDICTED BY IDOCK:   -4.16 KCAL/MOL
REMARK 922        TOTAL FREE ENERGY PREDICTED BY IDOCK:   -6.64 KCAL/MOL
REMARK 923 INTER-LIGAND FREE ENERGY PREDICTED BY IDOCK:   -6.29 KCAL/MOL
REMARK 924 INTRA-LIGAND FREE ENERGY PREDICTED BY IDOCK:   -0.35 KCAL/MOL
REMARK 927      BINDING AFFINITY PREDICTED BY RF-SCORE:    0.00 PKD
ROOT
HETATM    1  C   UNL     1      -7.417   6.614  73.004  1.00  0.00    -0.088 C  
HETATM    2  C   UNL     1      -8.757   7.039  72.411  1.00  0.00    -0.124 C  
ENDROOT
BRANCH   2   3
HETATM    3  N   UNL     1      -9.574   5.909  71.914  1.00  0.00    -0.151 NA 
BRANCH   3   4
HETATM    4  C   UNL     1      -9.682   4.805  72.885  1.00  0.00    -0.139 C  
HETATM    5  C   UNL     1     -10.618   5.021  74.073  1.00  0.00    -0.348 C  
ENDBRANCH   3   4
BRANCH   3   6
HETATM    6  C   UNL     1     -10.913   6.356  71.453  1.00  0.00    -0.267 C  
BRANCH   6   7
HETATM    7  C   UNL     1     -10.952   7.838  71.135  1.00  0.00    -0.259 A  
HETATM    8  C   UNL     1     -11.930   8.693  71.657  1.00  0.00    -0.326 A  
HETATM    9  C   UNL     1     -12.095   9.972  71.150  1.00  0.00    -0.475 A  
HETATM   10  O   UNL     1     -12.826   8.273  72.599  1.00  0.00    -0.591 OA 
HETATM   11  C   UNL     1     -11.279  10.410  70.102  1.00  0.00    -0.393 A  
HETATM   12  H   UNL     1     -13.489   8.853  72.953  1.00  0.00     0.000 HD 
HETATM   13  C   UNL     1     -10.239   9.610  69.606  1.00  0.00    -0.222 A  
HETATM   14  C   UNL     1     -10.057   8.344  70.176  1.00  0.00    -0.193 A  
BRANCH  13  15
HETATM   15  N   UNL     1      -9.328  10.016  68.598  1.00  0.00    -0.151 NA 
HETATM   16  H   UNL     1      -8.348   9.778  68.752  1.00  0.00     0.000 HD 
BRANCH  15  17
HETATM   17  C   UNL     1      -9.627  10.719  67.393  1.00  0.00    -0.159 A  
HETATM   18  C   UNL     1      -9.721  12.129  67.338  1.00  0.00    -0.180 A  
HETATM   19  C   UNL     1      -9.244  12.976  68.365  1.00  0.00    -0.136 A  
HETATM   20  C   UNL     1      -9.502  14.341  68.343  1.00  0.00    -0.213 A  
HETATM   21  C   UNL     1     -10.222  14.870  67.283  1.00  0.00    -0.241 A  
HETATM   22 CL   UNL     1     -10.655  16.535  67.299  1.00  0.00    -0.310 Cl 
HETATM   23  C   UNL     1     -10.608  14.060  66.217  1.00  0.00    -0.281 A  
HETATM   24  C   UNL     1     -10.334  12.701  66.206  1.00  0.00    -0.252 A  
HETATM   25  N   UNL     1     -10.695  11.972  65.137  1.00  0.00    -0.278 NA 
HETATM   26  C   UNL     1     -10.474  10.641  65.167  1.00  0.00    -0.201 A  
HETATM   27  C   UNL     1      -9.979   9.972  66.266  1.00  0.00    -0.310 A  
ENDBRANCH  15  17
ENDBRANCH  13  15
ENDBRANCH   6   7
ENDBRANCH   3   6
ENDBRANCH   2   3
TORSDOF 6
ENDMDL
MODEL      223
REMARK 921   NORMALIZED FREE ENERGY PREDICTED BY IDOCK:   -4.16 KCAL/MOL
REMARK 922        TOTAL FREE ENERGY PREDICTED BY IDOCK:   -6.63 KCAL/MOL
REMARK 923 INTER-LIGAND FREE ENERGY PREDICTED BY IDOCK:   -6.11 KCAL/MOL
REMARK 924 INTRA-LIGAND FREE ENERGY PREDICTED BY IDOCK:   -0.51 KCAL/MOL
REMARK 927      BINDING AFFINITY PREDICTED BY RF-SCORE:    0.00 PKD
ROOT
HETATM    1  C   UNL     1      -6.829   9.228  70.584  1.00  0.00    -0.094 C  
HETATM    2  C   UNL     1      -6.719   7.711  70.694  1.00  0.00    -0.042 C  
ENDROOT
BRANCH   2   3
HETATM    3  N   UNL     1      -7.070   7.184  72.033  1.00  0.00    -0.071 NA 
BRANCH   3   4
HETATM    4  C   UNL     1      -7.607   8.217  72.937  1.00  0.00    -0.135 C  
HETATM    5  C   UNL     1      -7.237   8.098  74.415  1.00  0.00    -0.222 C  
ENDBRANCH   3   4
BRANCH   3   6
HETATM    6  C   UNL     1      -7.982   6.015  71.945  1.00  0.00    -0.107 C  
BRANCH   6   7
HETATM    7  C   UNL     1      -9.442   6.421  71.899  1.00  0.00    -0.157 A  
HETATM    8  C   UNL     1     -10.421   5.794  72.678  1.00  0.00    -0.208 A  
HETATM    9  C   UNL     1     -11.767   6.005  72.427  1.00  0.00    -0.322 A  
HETATM   10  O   UNL     1     -10.099   4.871  73.634  1.00  0.00    -0.151 OA 
HETATM   11  C   UNL     1     -12.150   6.850  71.381  1.00  0.00    -0.408 A  
HETATM   12  H   UNL     1     -10.764   4.446  74.162  1.00  0.00     0.000 HD 
HETATM   13  C   UNL     1     -11.199   7.556  70.630  1.00  0.00    -0.268 A  
HETATM   14  C   UNL     1      -9.847   7.368  70.942  1.00  0.00    -0.177 A  
BRANCH  13  15
HETATM   15  N   UNL     1     -11.517   8.483  69.605  1.00  0.00    -0.370 NA 
HETATM   16  H   UNL     1     -12.156   8.155  68.880  1.00  0.00     0.000 HD 
BRANCH  15  17
HETATM   17  C   UNL     1     -11.044   9.823  69.472  1.00  0.00    -0.192 A  
HETATM   18  C   UNL     1     -11.595  10.900  70.205  1.00  0.00    -0.425 A  
HETATM   19  C   UNL     1     -12.434  10.720  71.329  1.00  0.00    -0.504 A  
HETATM   20  C   UNL     1     -13.081  11.800  71.918  1.00  0.00    -0.482 A  
HETATM   21  C   UNL     1     -12.877  13.068  71.397  1.00  0.00    -0.292 A  
HETATM   22 CL   UNL     1     -13.761  14.399  72.034  1.00  0.00    -0.484 Cl 
HETATM   23  C   UNL     1     -11.974  13.267  70.354  1.00  0.00    -0.350 A  
HETATM   24  C   UNL     1     -11.296  12.206  69.774  1.00  0.00    -0.100 A  
HETATM   25  N   UNL     1     -10.408  12.457  68.796  1.00  0.00    -0.171 NA 
HETATM   26  C   UNL     1      -9.800  11.408  68.202  1.00  0.00    -0.191 A  
HETATM   27  C   UNL     1     -10.101  10.092  68.477  1.00  0.00    -0.187 A  
ENDBRANCH  15  17
ENDBRANCH  13  15
ENDBRANCH   6   7
ENDBRANCH   3   6
ENDBRANCH   2   3
TORSDOF 6
ENDMDL
MODEL      224
REMARK 921   NORMALIZED FREE ENERGY PREDICTED BY IDOCK:   -4.15 KCAL/MOL
REMARK 922        TOTAL FREE ENERGY PREDICTED BY IDOCK:   -6.62 KCAL/MOL
REMARK 923 INTER-LIGAND FREE ENERGY PREDICTED BY IDOCK:   -5.48 KCAL/MOL
REMARK 924 INTRA-LIGAND FREE ENERGY PREDICTED BY IDOCK:   -1.14 KCAL/MOL
REMARK 927      BINDING AFFINITY PREDICTED BY RF-SCORE:    0.00 PKD
ROOT
HETATM    1  C   UNL     1     -11.798  12.648  66.505  1.00  0.00    -0.463 C  
HETATM    2  C   UNL     1     -10.597  12.164  65.699  1.00  0.00    -0.262 C  
ENDROOT
BRANCH   2   3
HETATM    3  N   UNL     1      -9.794  11.129  66.389  1.00  0.00    -0.205 NA 
BRANCH   3   4
HETATM    4  C   UNL     1     -10.094   9.762  65.926  1.00  0.00    -0.243 C  
HETATM    5  C   UNL     1      -8.923   8.951  65.370  1.00  0.00    -0.232 C  
ENDBRANCH   3   4
BRANCH   3   6
HETATM    6  C   UNL     1      -8.339  11.417  66.316  1.00  0.00    -0.111 C  
BRANCH   6   7
HETATM    7  C   UNL     1      -7.693  11.491  67.685  1.00  0.00    -0.123 A  
HETATM    8  C   UNL     1      -6.631  12.358  67.969  1.00  0.00    -0.081 A  
HETATM    9  C   UNL     1      -5.898  12.221  69.136  1.00  0.00    -0.074 A  
HETATM   10  O   UNL     1      -6.205  13.295  67.069  1.00  0.00    -0.449 OA 
HETATM   11  C   UNL     1      -6.219  11.200  70.037  1.00  0.00    -0.143 A  
HETATM   12  H   UNL     1      -5.485  13.883  67.262  1.00  0.00     0.000 HD 
HETATM   13  C   UNL     1      -7.323  10.362  69.824  1.00  0.00    -0.154 A  
HETATM   14  C   UNL     1      -8.082  10.560  68.664  1.00  0.00    -0.127 A  
BRANCH  13  15
HETATM   15  N   UNL     1      -7.751   9.356  70.727  1.00  0.00    -0.241 NA 
HETATM   16  H   UNL     1      -7.093   9.101  71.464  1.00  0.00     0.000 HD 
BRANCH  15  17
HETATM   17  C   UNL     1      -8.996   8.660  70.723  1.00  0.00    -0.175 A  
HETATM   18  C   UNL     1      -9.316   7.679  69.755  1.00  0.00    -0.150 A  
HETATM   19  C   UNL     1      -8.352   7.086  68.908  1.00  0.00    -0.125 A  
HETATM   20  C   UNL     1      -8.733   6.249  67.868  1.00  0.00    -0.114 A  
HETATM   21  C   UNL     1     -10.080   5.983  67.680  1.00  0.00    -0.160 A  
HETATM   22 CL   UNL     1     -10.581   5.047  66.327  1.00  0.00    -0.362 Cl 
HETATM   23  C   UNL     1     -11.029   6.481  68.572  1.00  0.00    -0.360 A  
HETATM   24  C   UNL     1     -10.665   7.294  69.634  1.00  0.00    -0.236 A  
HETATM   25  N   UNL     1     -11.615   7.716  70.486  1.00  0.00    -0.226 NA 
HETATM   26  C   UNL     1     -11.252   8.554  71.481  1.00  0.00    -0.279 A  
HETATM   27  C   UNL     1      -9.983   9.073  71.622  1.00  0.00    -0.383 A  
ENDBRANCH  15  17
ENDBRANCH  13  15
ENDBRANCH   6   7
ENDBRANCH   3   6
ENDBRANCH   2   3
TORSDOF 6
ENDMDL
MODEL      225
REMARK 921   NORMALIZED FREE ENERGY PREDICTED BY IDOCK:   -4.15 KCAL/MOL
REMARK 922        TOTAL FREE ENERGY PREDICTED BY IDOCK:   -6.62 KCAL/MOL
REMARK 923 INTER-LIGAND FREE ENERGY PREDICTED BY IDOCK:   -5.99 KCAL/MOL
REMARK 924 INTRA-LIGAND FREE ENERGY PREDICTED BY IDOCK:   -0.62 KCAL/MOL
REMARK 927      BINDING AFFINITY PREDICTED BY RF-SCORE:    0.00 PKD
ROOT
HETATM    1  C   UNL     1     -10.028   7.798  65.996  1.00  0.00     0.279 C  
HETATM    2  C   UNL     1     -10.485   8.630  67.190  1.00  0.00    -0.289 C  
ENDROOT
BRANCH   2   3
HETATM    3  N   UNL     1     -11.068   9.938  66.816  1.00  0.00     0.090 NA 
BRANCH   3   4
HETATM    4  C   UNL     1     -11.293  10.822  67.975  1.00  0.00    -0.307 C  
HETATM    5  C   UNL     1     -10.667  10.391  69.301  1.00  0.00    -0.270 C  
ENDBRANCH   3   4
BRANCH   3   6
HETATM    6  C   UNL     1     -10.270  10.619  65.765  1.00  0.00    -0.252 C  
BRANCH   6   7
HETATM    7  C   UNL     1     -10.717  12.049  65.532  1.00  0.00    -0.318 A  
HETATM    8  C   UNL     1     -11.852  12.368  64.778  1.00  0.00    -0.382 A  
HETATM    9  C   UNL     1     -12.086  13.671  64.369  1.00  0.00    -0.470 A  
HETATM   10  O   UNL     1     -12.710  11.405  64.324  1.00  0.00     0.097 OA 
HETATM   11  C   UNL     1     -11.174  14.676  64.708  1.00  0.00    -0.395 A  
HETATM   12  H   UNL     1     -13.480  11.622  63.813  1.00  0.00     0.000 HD 
HETATM   13  C   UNL     1     -10.068  14.408  65.526  1.00  0.00    -0.356 A  
HETATM   14  C   UNL     1      -9.886  13.094  65.974  1.00  0.00    -0.266 A  
BRANCH  13  15
HETATM   15  N   UNL     1      -9.144  15.389  65.970  1.00  0.00    -0.421 NA 
HETATM   16  H   UNL     1      -8.248  15.419  65.482  1.00  0.00     0.000 HD 
BRANCH  15  17
HETATM   17  C   UNL     1      -9.326  16.338  67.019  1.00  0.00    -0.221 A  
HETATM   18  C   UNL     1      -9.999  16.021  68.223  1.00  0.00    -0.220 A  
HETATM   19  C   UNL     1     -10.281  14.695  68.624  1.00  0.00    -0.244 A  
HETATM   20  C   UNL     1     -11.083  14.438  69.729  1.00  0.00    -0.202 A  
HETATM   21  C   UNL     1     -11.591  15.507  70.452  1.00  0.00    -0.337 A  
HETATM   22 CL   UNL     1     -12.683  15.213  71.748  1.00  0.00    -0.388 Cl 
HETATM   23  C   UNL     1     -11.236  16.814  70.123  1.00  0.00     0.163 A  
HETATM   24  C   UNL     1     -10.412  17.089  69.042  1.00  0.00    -0.337 A  
HETATM   25  N   UNL     1     -10.070  18.364  68.792  1.00  0.00    -0.385 NA 
HETATM   26  C   UNL     1      -9.316  18.620  67.702  1.00  0.00    -0.288 A  
HETATM   27  C   UNL     1      -8.950  17.662  66.782  1.00  0.00    -0.272 A  
ENDBRANCH  15  17
ENDBRANCH  13  15
ENDBRANCH   6   7
ENDBRANCH   3   6
ENDBRANCH   2   3
TORSDOF 6
ENDMDL
MODEL      226
REMARK 921   NORMALIZED FREE ENERGY PREDICTED BY IDOCK:   -4.14 KCAL/MOL
REMARK 922        TOTAL FREE ENERGY PREDICTED BY IDOCK:   -6.61 KCAL/MOL
REMARK 923 INTER-LIGAND FREE ENERGY PREDICTED BY IDOCK:   -6.70 KCAL/MOL
REMARK 924 INTRA-LIGAND FREE ENERGY PREDICTED BY IDOCK:    0.09 KCAL/MOL
REMARK 927      BINDING AFFINITY PREDICTED BY RF-SCORE:    0.00 PKD
ROOT
HETATM    1  C   UNL     1      -9.324   4.849  66.476  1.00  0.00    -0.142 C  
HETATM    2  C   UNL     1      -9.546   5.824  67.627  1.00  0.00    -0.114 C  
ENDROOT
BRANCH   2   3
HETATM    3  N   UNL     1      -9.428   5.203  68.966  1.00  0.00    -0.124 NA 
BRANCH   3   4
HETATM    4  C   UNL     1      -8.136   5.480  69.619  1.00  0.00    -0.101 C  
HETATM    5  C   UNL     1      -6.960   4.586  69.227  1.00  0.00    -0.050 C  
ENDBRANCH   3   4
BRANCH   3   6
HETATM    6  C   UNL     1     -10.567   5.567  69.846  1.00  0.00    -0.317 C  
BRANCH   6   7
HETATM    7  C   UNL     1     -10.559   7.033  70.229  1.00  0.00    -0.247 A  
HETATM    8  C   UNL     1     -10.352   7.465  71.545  1.00  0.00    -0.200 A  
HETATM    9  C   UNL     1     -10.605   8.778  71.907  1.00  0.00    -0.425 A  
HETATM   10  O   UNL     1     -10.003   6.597  72.541  1.00  0.00    -0.169 OA 
HETATM   11  C   UNL     1     -11.079   9.679  70.948  1.00  0.00    -0.422 A  
HETATM   12  H   UNL     1      -9.862   6.890  73.434  1.00  0.00     0.000 HD 
HETATM   13  C   UNL     1     -11.225   9.304  69.605  1.00  0.00    -0.041 A  
HETATM   14  C   UNL     1     -10.906   7.986  69.255  1.00  0.00    -0.072 A  
BRANCH  13  15
HETATM   15  N   UNL     1     -11.629  10.182  68.567  1.00  0.00    -0.589 NA 
HETATM   16  H   UNL     1     -12.523  10.654  68.698  1.00  0.00     0.000 HD 
BRANCH  15  17
HETATM   17  C   UNL     1     -10.926  10.480  67.362  1.00  0.00    -0.288 A  
HETATM   18  C   UNL     1     -11.134  11.675  66.636  1.00  0.00    -0.364 A  
HETATM   19  C   UNL     1     -11.810  12.796  67.170  1.00  0.00    -0.415 A  
HETATM   20  C   UNL     1     -12.132  13.885  66.369  1.00  0.00    -0.489 A  
HETATM   21  C   UNL     1     -11.763  13.867  65.033  1.00  0.00    -0.359 A  
HETATM   22 CL   UNL     1     -12.258  15.148  63.998  1.00  0.00    -0.252 Cl 
HETATM   23  C   UNL     1     -11.009  12.812  64.523  1.00  0.00    -0.370 A  
HETATM   24  C   UNL     1     -10.651  11.731  65.314  1.00  0.00    -0.278 A  
HETATM   25  N   UNL     1      -9.891  10.758  64.783  1.00  0.00    -0.273 NA 
HETATM   26  C   UNL     1      -9.601   9.685  65.549  1.00  0.00    -0.283 A  
HETATM   27  C   UNL     1     -10.111   9.486  66.813  1.00  0.00    -0.312 A  
ENDBRANCH  15  17
ENDBRANCH  13  15
ENDBRANCH   6   7
ENDBRANCH   3   6
ENDBRANCH   2   3
TORSDOF 6
ENDMDL
MODEL      227
REMARK 921   NORMALIZED FREE ENERGY PREDICTED BY IDOCK:   -4.14 KCAL/MOL
REMARK 922        TOTAL FREE ENERGY PREDICTED BY IDOCK:   -6.61 KCAL/MOL
REMARK 923 INTER-LIGAND FREE ENERGY PREDICTED BY IDOCK:   -5.70 KCAL/MOL
REMARK 924 INTRA-LIGAND FREE ENERGY PREDICTED BY IDOCK:   -0.91 KCAL/MOL
REMARK 927      BINDING AFFINITY PREDICTED BY RF-SCORE:    0.00 PKD
ROOT
HETATM    1  C   UNL     1      -9.343  19.258  68.937  1.00  0.00    -0.408 C  
HETATM    2  C   UNL     1      -9.174  18.302  67.760  1.00  0.00    -0.270 C  
ENDROOT
BRANCH   2   3
HETATM    3  N   UNL     1     -10.045  17.106  67.835  1.00  0.00    -0.294 NA 
BRANCH   3   4
HETATM    4  C   UNL     1     -10.391  16.561  66.510  1.00  0.00    -0.305 C  
HETATM    5  C   UNL     1     -10.736  17.573  65.418  1.00  0.00    -0.008 C  
ENDBRANCH   3   4
BRANCH   3   6
HETATM    6  C   UNL     1      -9.471  16.059  68.717  1.00  0.00    -0.227 C  
BRANCH   6   7
HETATM    7  C   UNL     1     -10.195  14.734  68.592  1.00  0.00    -0.236 A  
HETATM    8  C   UNL     1     -11.551  14.585  68.908  1.00  0.00    -0.309 A  
HETATM    9  C   UNL     1     -12.115  13.326  69.032  1.00  0.00    -0.268 A  
HETATM   10  O   UNL     1     -12.341  15.658  69.214  1.00  0.00    -0.584 OA 
HETATM   11  C   UNL     1     -11.319  12.192  68.845  1.00  0.00    -0.335 A  
HETATM   12  H   UNL     1     -13.261  15.557  69.428  1.00  0.00     0.000 HD 
HETATM   13  C   UNL     1      -9.977  12.300  68.452  1.00  0.00    -0.209 A  
HETATM   14  C   UNL     1      -9.448  13.585  68.277  1.00  0.00    -0.212 A  
BRANCH  13  15
HETATM   15  N   UNL     1      -9.133  11.196  68.174  1.00  0.00    -0.153 NA 
HETATM   16  H   UNL     1      -8.412  10.992  68.867  1.00  0.00     0.000 HD 
BRANCH  15  17
HETATM   17  C   UNL     1      -9.176  10.338  67.035  1.00  0.00    -0.150 A  
HETATM   18  C   UNL     1      -9.455   8.954  67.136  1.00  0.00    -0.202 A  
HETATM   19  C   UNL     1     -10.002   8.359  68.295  1.00  0.00    -0.214 A  
HETATM   20  C   UNL     1     -10.108   6.978  68.408  1.00  0.00    -0.176 A  
HETATM   21  C   UNL     1      -9.686   6.185  67.351  1.00  0.00    -0.120 A  
HETATM   22 CL   UNL     1      -9.696   4.474  67.518  1.00  0.00    -0.214 Cl 
HETATM   23  C   UNL     1      -9.240   6.767  66.166  1.00  0.00    -0.120 A  
HETATM   24  C   UNL     1      -9.156   8.144  66.024  1.00  0.00    -0.167 A  
HETATM   25  N   UNL     1      -8.756   8.654  64.846  1.00  0.00    -0.139 NA 
HETATM   26  C   UNL     1      -8.623   9.993  64.744  1.00  0.00    -0.177 A  
HETATM   27  C   UNL     1      -8.788  10.863  65.800  1.00  0.00    -0.202 A  
ENDBRANCH  15  17
ENDBRANCH  13  15
ENDBRANCH   6   7
ENDBRANCH   3   6
ENDBRANCH   2   3
TORSDOF 6
ENDMDL
MODEL      228
REMARK 921   NORMALIZED FREE ENERGY PREDICTED BY IDOCK:   -4.14 KCAL/MOL
REMARK 922        TOTAL FREE ENERGY PREDICTED BY IDOCK:   -6.61 KCAL/MOL
REMARK 923 INTER-LIGAND FREE ENERGY PREDICTED BY IDOCK:   -5.42 KCAL/MOL
REMARK 924 INTRA-LIGAND FREE ENERGY PREDICTED BY IDOCK:   -1.18 KCAL/MOL
REMARK 927      BINDING AFFINITY PREDICTED BY RF-SCORE:    0.00 PKD
ROOT
HETATM    1  C   UNL     1     -10.336   5.453  67.460  1.00  0.00    -0.246 C  
HETATM    2  C   UNL     1      -9.331   6.374  68.144  1.00  0.00    -0.108 C  
ENDROOT
BRANCH   2   3
HETATM    3  N   UNL     1      -8.106   6.615  67.349  1.00  0.00    -0.120 NA 
BRANCH   3   4
HETATM    4  C   UNL     1      -6.927   5.905  67.876  1.00  0.00    -0.065 C  
HETATM    5  C   UNL     1      -6.794   4.426  67.511  1.00  0.00    -0.052 C  
ENDBRANCH   3   4
BRANCH   3   6
HETATM    6  C   UNL     1      -8.315   6.320  65.909  1.00  0.00    -0.142 C  
BRANCH   6   7
HETATM    7  C   UNL     1      -8.233   7.563  65.044  1.00  0.00    -0.105 A  
HETATM    8  C   UNL     1      -7.820   7.522  63.707  1.00  0.00    -0.112 A  
HETATM    9  C   UNL     1      -7.508   8.688  63.027  1.00  0.00    -0.105 A  
HETATM   10  O   UNL     1      -7.601   6.341  63.056  1.00  0.00    -0.066 OA 
HETATM   11  C   UNL     1      -7.602   9.918  63.687  1.00  0.00    -0.134 A  
HETATM   12  H   UNL     1      -7.320   6.313  62.149  1.00  0.00     0.000 HD 
HETATM   13  C   UNL     1      -8.086  10.005  65.000  1.00  0.00    -0.145 A  
HETATM   14  C   UNL     1      -8.449   8.816  65.644  1.00  0.00    -0.174 A  
BRANCH  13  15
HETATM   15  N   UNL     1      -8.277  11.221  65.704  1.00  0.00    -0.369 NA 
HETATM   16  H   UNL     1      -7.438  11.769  65.896  1.00  0.00     0.000 HD 
BRANCH  15  17
HETATM   17  C   UNL     1      -9.509  11.765  66.174  1.00  0.00    -0.226 A  
HETATM   18  C   UNL     1     -10.034  11.466  67.454  1.00  0.00    -0.207 A  
HETATM   19  C   UNL     1      -9.271  10.864  68.480  1.00  0.00    -0.181 A  
HETATM   20  C   UNL     1      -9.868  10.443  69.662  1.00  0.00    -0.179 A  
HETATM   21  C   UNL     1     -11.230  10.639  69.831  1.00  0.00    -0.308 A  
HETATM   22 CL   UNL     1     -12.009  10.016  71.232  1.00  0.00    -0.461 Cl 
HETATM   23  C   UNL     1     -11.971  11.322  68.868  1.00  0.00    -0.378 A  
HETATM   24  C   UNL     1     -11.386  11.777  67.696  1.00  0.00    -0.302 A  
HETATM   25  N   UNL     1     -12.136  12.463  66.817  1.00  0.00    -0.565 NA 
HETATM   26  C   UNL     1     -11.567  12.848  65.655  1.00  0.00    -0.361 A  
HETATM   27  C   UNL     1     -10.287  12.502  65.278  1.00  0.00    -0.310 A  
ENDBRANCH  15  17
ENDBRANCH  13  15
ENDBRANCH   6   7
ENDBRANCH   3   6
ENDBRANCH   2   3
TORSDOF 6
ENDMDL
MODEL      229
REMARK 921   NORMALIZED FREE ENERGY PREDICTED BY IDOCK:   -4.13 KCAL/MOL
REMARK 922        TOTAL FREE ENERGY PREDICTED BY IDOCK:   -6.59 KCAL/MOL
REMARK 923 INTER-LIGAND FREE ENERGY PREDICTED BY IDOCK:   -5.55 KCAL/MOL
REMARK 924 INTRA-LIGAND FREE ENERGY PREDICTED BY IDOCK:   -1.04 KCAL/MOL
REMARK 927      BINDING AFFINITY PREDICTED BY RF-SCORE:    0.00 PKD
ROOT
HETATM    1  C   UNL     1     -12.531  13.528  63.693  1.00  0.00    -0.278 C  
HETATM    2  C   UNL     1     -12.282  12.600  64.878  1.00  0.00    -0.471 C  
ENDROOT
BRANCH   2   3
HETATM    3  N   UNL     1     -10.958  11.937  64.847  1.00  0.00    -0.306 NA 
BRANCH   3   4
HETATM    4  C   UNL     1     -10.734  11.151  63.621  1.00  0.00    -0.308 C  
HETATM    5  C   UNL     1      -9.337  10.562  63.425  1.00  0.00    -0.335 C  
ENDBRANCH   3   4
BRANCH   3   6
HETATM    6  C   UNL     1      -9.852  12.900  65.081  1.00  0.00    -0.068 C  
BRANCH   6   7
HETATM    7  C   UNL     1      -9.249  12.767  66.465  1.00  0.00    -0.190 A  
HETATM    8  C   UNL     1      -8.902  13.878  67.243  1.00  0.00    -0.221 A  
HETATM    9  C   UNL     1      -8.123  13.730  68.380  1.00  0.00    -0.148 A  
HETATM   10  O   UNL     1      -9.216  15.152  66.861  1.00  0.00    -0.212 OA 
HETATM   11  C   UNL     1      -7.676  12.457  68.749  1.00  0.00    -0.007 A  
HETATM   12  H   UNL     1      -8.980  15.905  67.389  1.00  0.00     0.000 HD 
HETATM   13  C   UNL     1      -8.068  11.313  68.038  1.00  0.00    -0.128 A  
HETATM   14  C   UNL     1      -8.902  11.486  66.927  1.00  0.00    -0.182 A  
BRANCH  13  15
HETATM   15  N   UNL     1      -7.713   9.988  68.397  1.00  0.00    -0.084 NA 
HETATM   16  H   UNL     1      -7.256   9.431  67.675  1.00  0.00     0.000 HD 
BRANCH  15  17
HETATM   17  C   UNL     1      -7.924   9.345  69.653  1.00  0.00    -0.109 A  
HETATM   18  C   UNL     1      -9.210   9.182  70.218  1.00  0.00    -0.249 A  
HETATM   19  C   UNL     1     -10.405   9.359  69.483  1.00  0.00    -0.223 A  
HETATM   20  C   UNL     1     -11.642   9.348  70.116  1.00  0.00    -0.117 A  
HETATM   21  C   UNL     1     -11.692   9.140  71.485  1.00  0.00    -0.363 A  
HETATM   22 CL   UNL     1     -13.201   9.243  72.305  1.00  0.00    -0.510 Cl 
HETATM   23  C   UNL     1     -10.528   8.865  72.201  1.00  0.00    -0.320 A  
HETATM   24  C   UNL     1      -9.288   8.841  71.582  1.00  0.00    -0.275 A  
HETATM   25  N   UNL     1      -8.202   8.533  72.311  1.00  0.00    -0.304 NA 
HETATM   26  C   UNL     1      -6.995   8.573  71.707  1.00  0.00    -0.093 A  
HETATM   27  C   UNL     1      -6.802   8.995  70.409  1.00  0.00    -0.055 A  
ENDBRANCH  15  17
ENDBRANCH  13  15
ENDBRANCH   6   7
ENDBRANCH   3   6
ENDBRANCH   2   3
TORSDOF 6
ENDMDL
MODEL      230
REMARK 921   NORMALIZED FREE ENERGY PREDICTED BY IDOCK:   -4.09 KCAL/MOL
REMARK 922        TOTAL FREE ENERGY PREDICTED BY IDOCK:   -6.54 KCAL/MOL
REMARK 923 INTER-LIGAND FREE ENERGY PREDICTED BY IDOCK:   -5.41 KCAL/MOL
REMARK 924 INTRA-LIGAND FREE ENERGY PREDICTED BY IDOCK:   -1.13 KCAL/MOL
REMARK 927      BINDING AFFINITY PREDICTED BY RF-SCORE:    0.00 PKD
ROOT
HETATM    1  C   UNL     1     -12.438  12.238  64.140  1.00  0.00    -0.530 C  
HETATM    2  C   UNL     1     -12.579  13.123  65.374  1.00  0.00    -0.454 C  
ENDROOT
BRANCH   2   3
HETATM    3  N   UNL     1     -11.296  13.396  66.061  1.00  0.00    -0.304 NA 
BRANCH   3   4
HETATM    4  C   UNL     1     -11.117  14.817  66.406  1.00  0.00    -0.340 C  
HETATM    5  C   UNL     1     -10.414  15.122  67.729  1.00  0.00    -0.247 C  
ENDBRANCH   3   4
BRANCH   3   6
HETATM    6  C   UNL     1     -11.110  12.524  67.249  1.00  0.00    -0.274 C  
BRANCH   6   7
HETATM    7  C   UNL     1     -10.098  11.422  67.007  1.00  0.00    -0.237 A  
HETATM    8  C   UNL     1      -8.789  11.683  66.584  1.00  0.00    -0.187 A  
HETATM    9  C   UNL     1      -7.977  10.659  66.126  1.00  0.00    -0.151 A  
HETATM   10  O   UNL     1      -8.300  12.956  66.499  1.00  0.00    -0.413 OA 
HETATM   11  C   UNL     1      -8.472   9.352  66.081  1.00  0.00    -0.127 A  
HETATM   12  H   UNL     1      -7.413  13.133  66.211  1.00  0.00     0.000 HD 
HETATM   13  C   UNL     1      -9.749   9.040  66.569  1.00  0.00    -0.244 A  
HETATM   14  C   UNL     1     -10.528  10.085  67.079  1.00  0.00    -0.302 A  
BRANCH  13  15
HETATM   15  N   UNL     1     -10.288   7.729  66.622  1.00  0.00    -0.477 NA 
HETATM   16  H   UNL     1     -11.248   7.621  66.293  1.00  0.00     0.000 HD 
BRANCH  15  17
HETATM   17  C   UNL     1      -9.640   6.545  67.084  1.00  0.00    -0.136 A  
HETATM   18  C   UNL     1      -8.961   5.661  66.214  1.00  0.00    -0.141 A  
HETATM   19  C   UNL     1      -8.603   6.003  64.890  1.00  0.00    -0.008 A  
HETATM   20  C   UNL     1      -8.083   5.052  64.021  1.00  0.00    -0.119 A  
HETATM   21  C   UNL     1      -7.900   3.756  64.478  1.00  0.00    -0.085 A  
HETATM   22 CL   UNL     1      -7.373   2.537  63.386  1.00  0.00    -0.051 Cl 
HETATM   23  C   UNL     1      -8.155   3.434  65.810  1.00  0.00    -0.093 A  
HETATM   24  C   UNL     1      -8.645   4.378  66.700  1.00  0.00    -0.111 A  
HETATM   25  N   UNL     1      -8.838   4.025  67.983  1.00  0.00    -0.102 NA 
HETATM   26  C   UNL     1      -9.371   4.938  68.822  1.00  0.00    -0.135 A  
HETATM   27  C   UNL     1      -9.811   6.181  68.422  1.00  0.00    -0.142 A  
ENDBRANCH  15  17
ENDBRANCH  13  15
ENDBRANCH   6   7
ENDBRANCH   3   6
ENDBRANCH   2   3
TORSDOF 6
ENDMDL
MODEL      231
REMARK 921   NORMALIZED FREE ENERGY PREDICTED BY IDOCK:   -4.09 KCAL/MOL
REMARK 922        TOTAL FREE ENERGY PREDICTED BY IDOCK:   -6.54 KCAL/MOL
REMARK 923 INTER-LIGAND FREE ENERGY PREDICTED BY IDOCK:   -5.78 KCAL/MOL
REMARK 924 INTRA-LIGAND FREE ENERGY PREDICTED BY IDOCK:   -0.76 KCAL/MOL
REMARK 927      BINDING AFFINITY PREDICTED BY RF-SCORE:    0.00 PKD
ROOT
HETATM    1  C   UNL     1      -6.111  10.194  65.935  1.00  0.00    -0.087 C  
HETATM    2  C   UNL     1      -7.117   9.086  65.635  1.00  0.00    -0.081 C  
ENDROOT
BRANCH   2   3
HETATM    3  N   UNL     1      -8.049   9.410  64.532  1.00  0.00    -0.127 NA 
BRANCH   3   4
HETATM    4  C   UNL     1      -7.775   8.647  63.301  1.00  0.00    -0.134 C  
HETATM    5  C   UNL     1      -8.001   7.137  63.362  1.00  0.00    -0.066 C  
ENDBRANCH   3   4
BRANCH   3   6
HETATM    6  C   UNL     1      -9.468   9.271  64.949  1.00  0.00     0.019 C  
BRANCH   6   7
HETATM    7  C   UNL     1      -9.825  10.185  66.104  1.00  0.00    -0.297 A  
HETATM    8  C   UNL     1     -10.546   9.740  67.220  1.00  0.00    -0.255 A  
HETATM    9  C   UNL     1     -11.077  10.644  68.125  1.00  0.00    -0.343 A  
HETATM   10  O   UNL     1     -10.848   8.420  67.402  1.00  0.00    -0.479 OA 
HETATM   11  C   UNL     1     -10.896  12.016  67.918  1.00  0.00    -0.254 A  
HETATM   12  H   UNL     1     -11.337   8.119  68.159  1.00  0.00     0.000 HD 
HETATM   13  C   UNL     1     -10.116  12.495  66.856  1.00  0.00    -0.225 A  
HETATM   14  C   UNL     1      -9.543  11.557  65.989  1.00  0.00    -0.251 A  
BRANCH  13  15
HETATM   15  N   UNL     1      -9.830  13.865  66.628  1.00  0.00    -0.276 NA 
HETATM   16  H   UNL     1     -10.061  14.227  65.702  1.00  0.00     0.000 HD 
BRANCH  15  17
HETATM   17  C   UNL     1      -9.256  14.795  67.546  1.00  0.00    -0.198 A  
HETATM   18  C   UNL     1      -9.453  16.191  67.437  1.00  0.00    -0.227 A  
HETATM   19  C   UNL     1     -10.451  16.770  66.620  1.00  0.00    -0.258 A  
HETATM   20  C   UNL     1     -10.503  18.143  66.418  1.00  0.00    -0.364 A  
HETATM   21  C   UNL     1      -9.568  18.949  67.050  1.00  0.00    -0.312 A  
HETATM   22 CL   UNL     1      -9.539  20.636  66.718  1.00  0.00    -0.443 Cl 
HETATM   23  C   UNL     1      -8.644  18.397  67.936  1.00  0.00    -0.285 A  
HETATM   24  C   UNL     1      -8.596  17.032  68.173  1.00  0.00    -0.228 A  
HETATM   25  N   UNL     1      -7.712  16.556  69.066  1.00  0.00    -0.234 NA 
HETATM   26  C   UNL     1      -7.638  15.220  69.242  1.00  0.00    -0.213 A  
HETATM   27  C   UNL     1      -8.355  14.309  68.496  1.00  0.00    -0.156 A  
ENDBRANCH  15  17
ENDBRANCH  13  15
ENDBRANCH   6   7
ENDBRANCH   3   6
ENDBRANCH   2   3
TORSDOF 6
ENDMDL
MODEL      232
REMARK 921   NORMALIZED FREE ENERGY PREDICTED BY IDOCK:   -4.07 KCAL/MOL
REMARK 922        TOTAL FREE ENERGY PREDICTED BY IDOCK:   -6.51 KCAL/MOL
REMARK 923 INTER-LIGAND FREE ENERGY PREDICTED BY IDOCK:   -5.79 KCAL/MOL
REMARK 924 INTRA-LIGAND FREE ENERGY PREDICTED BY IDOCK:   -0.71 KCAL/MOL
REMARK 927      BINDING AFFINITY PREDICTED BY RF-SCORE:    0.00 PKD
ROOT
HETATM    1  C   UNL     1      -9.440   9.816  64.803  1.00  0.00    -0.318 C  
HETATM    2  C   UNL     1      -8.244   8.978  65.243  1.00  0.00    -0.137 C  
ENDROOT
BRANCH   2   3
HETATM    3  N   UNL     1      -8.021   7.775  64.410  1.00  0.00    -0.137 NA 
BRANCH   3   4
HETATM    4  C   UNL     1      -6.967   7.962  63.396  1.00  0.00    -0.076 C  
HETATM    5  C   UNL     1      -5.885   8.994  63.710  1.00  0.00    -0.072 C  
ENDBRANCH   3   4
BRANCH   3   6
HETATM    6  C   UNL     1      -7.766   6.569  65.238  1.00  0.00    -0.102 C  
BRANCH   6   7
HETATM    7  C   UNL     1      -8.837   6.349  66.288  1.00  0.00    -0.152 A  
HETATM    8  C   UNL     1      -9.945   5.521  66.069  1.00  0.00    -0.035 A  
HETATM    9  C   UNL     1     -11.027   5.544  66.934  1.00  0.00    -0.077 A  
HETATM   10  O   UNL     1     -10.056   4.748  64.948  1.00  0.00    -0.384 OA 
HETATM   11  C   UNL     1     -11.013   6.407  68.035  1.00  0.00    -0.400 A  
HETATM   12  H   UNL     1     -10.808   4.187  64.799  1.00  0.00     0.000 HD 
HETATM   13  C   UNL     1      -9.889   7.193  68.330  1.00  0.00    -0.151 A  
HETATM   14  C   UNL     1      -8.787   7.108  67.470  1.00  0.00    -0.119 A  
BRANCH  13  15
HETATM   15  N   UNL     1      -9.777   8.034  69.466  1.00  0.00    -0.168 NA 
HETATM   16  H   UNL     1      -8.874   8.031  69.942  1.00  0.00     0.000 HD 
BRANCH  15  17
HETATM   17  C   UNL     1     -10.781   8.883  70.018  1.00  0.00    -0.228 A  
HETATM   18  C   UNL     1     -11.122  10.130  69.445  1.00  0.00    -0.288 A  
HETATM   19  C   UNL     1     -10.734  10.513  68.140  1.00  0.00    -0.273 A  
HETATM   20  C   UNL     1     -10.952  11.805  67.680  1.00  0.00    -0.286 A  
HETATM   21  C   UNL     1     -11.578  12.718  68.515  1.00  0.00    -0.321 A  
HETATM   22 CL   UNL     1     -11.747  14.353  68.011  1.00  0.00    -0.359 Cl 
HETATM   23  C   UNL     1     -12.054  12.321  69.764  1.00  0.00    -0.298 A  
HETATM   24  C   UNL     1     -11.873  11.028  70.228  1.00  0.00    -0.367 A  
HETATM   25  N   UNL     1     -12.385  10.687  71.423  1.00  0.00    -0.364 NA 
HETATM   26  C   UNL     1     -12.150   9.441  71.887  1.00  0.00    -0.357 A  
HETATM   27  C   UNL     1     -11.341   8.526  71.247  1.00  0.00    -0.325 A  
ENDBRANCH  15  17
ENDBRANCH  13  15
ENDBRANCH   6   7
ENDBRANCH   3   6
ENDBRANCH   2   3
TORSDOF 6
ENDMDL
MODEL      233
REMARK 921   NORMALIZED FREE ENERGY PREDICTED BY IDOCK:   -4.06 KCAL/MOL
REMARK 922        TOTAL FREE ENERGY PREDICTED BY IDOCK:   -6.50 KCAL/MOL
REMARK 923 INTER-LIGAND FREE ENERGY PREDICTED BY IDOCK:   -5.49 KCAL/MOL
REMARK 924 INTRA-LIGAND FREE ENERGY PREDICTED BY IDOCK:   -1.01 KCAL/MOL
REMARK 927      BINDING AFFINITY PREDICTED BY RF-SCORE:    0.00 PKD
ROOT
HETATM    1  C   UNL     1     -11.345  12.851  67.831  1.00  0.00    -0.336 C  
HETATM    2  C   UNL     1      -9.982  12.692  67.166  1.00  0.00    -0.217 C  
ENDROOT
BRANCH   2   3
HETATM    3  N   UNL     1      -9.826  11.420  66.423  1.00  0.00    -0.206 NA 
BRANCH   3   4
HETATM    4  C   UNL     1     -10.001  11.577  64.968  1.00  0.00    -0.263 C  
HETATM    5  C   UNL     1      -9.949  13.002  64.418  1.00  0.00    -0.131 C  
ENDBRANCH   3   4
BRANCH   3   6
HETATM    6  C   UNL     1      -8.542  10.747  66.744  1.00  0.00    -0.136 C  
BRANCH   6   7
HETATM    7  C   UNL     1      -8.723   9.276  67.064  1.00  0.00    -0.131 A  
HETATM    8  C   UNL     1      -8.030   8.268  66.382  1.00  0.00    -0.096 A  
HETATM    9  C   UNL     1      -8.403   6.940  66.514  1.00  0.00    -0.121 A  
HETATM   10  O   UNL     1      -7.043   8.555  65.482  1.00  0.00    -0.079 OA 
HETATM   11  C   UNL     1      -9.486   6.605  67.333  1.00  0.00    -0.143 A  
HETATM   12  H   UNL     1      -6.573   7.871  65.020  1.00  0.00     0.000 HD 
HETATM   13  C   UNL     1     -10.154   7.578  68.092  1.00  0.00    -0.183 A  
HETATM   14  C   UNL     1      -9.719   8.905  67.983  1.00  0.00    -0.181 A  
BRANCH  13  15
HETATM   15  N   UNL     1     -11.210   7.302  68.997  1.00  0.00    -0.455 NA 
HETATM   16  H   UNL     1     -12.081   6.964  68.586  1.00  0.00     0.000 HD 
BRANCH  15  17
HETATM   17  C   UNL     1     -11.193   7.442  70.416  1.00  0.00    -0.262 A  
HETATM   18  C   UNL     1     -10.755   6.408  71.277  1.00  0.00    -0.288 A  
HETATM   19  C   UNL     1     -10.027   5.283  70.826  1.00  0.00    -0.279 A  
HETATM   20  C   UNL     1      -9.760   4.217  71.676  1.00  0.00    -0.243 A  
HETATM   21  C   UNL     1     -10.201   4.279  72.989  1.00  0.00    -0.166 A  
HETATM   22 CL   UNL     1      -9.986   2.921  74.022  1.00  0.00    -0.143 Cl 
HETATM   23  C   UNL     1     -10.830   5.427  73.469  1.00  0.00    -0.342 A  
HETATM   24  C   UNL     1     -11.079   6.513  72.644  1.00  0.00    -0.257 A  
HETATM   25  N   UNL     1     -11.654   7.610  73.166  1.00  0.00    -0.186 NA 
HETATM   26  C   UNL     1     -11.943   8.635  72.337  1.00  0.00    -0.340 A  
HETATM   27  C   UNL     1     -11.764   8.590  70.971  1.00  0.00    -0.310 A  
ENDBRANCH  15  17
ENDBRANCH  13  15
ENDBRANCH   6   7
ENDBRANCH   3   6
ENDBRANCH   2   3
TORSDOF 6
ENDMDL
MODEL      234
REMARK 921   NORMALIZED FREE ENERGY PREDICTED BY IDOCK:   -4.05 KCAL/MOL
REMARK 922        TOTAL FREE ENERGY PREDICTED BY IDOCK:   -6.48 KCAL/MOL
REMARK 923 INTER-LIGAND FREE ENERGY PREDICTED BY IDOCK:   -6.19 KCAL/MOL
REMARK 924 INTRA-LIGAND FREE ENERGY PREDICTED BY IDOCK:   -0.29 KCAL/MOL
REMARK 927      BINDING AFFINITY PREDICTED BY RF-SCORE:    0.00 PKD
ROOT
HETATM    1  C   UNL     1      -9.809  17.545  68.556  1.00  0.00    -0.330 C  
HETATM    2  C   UNL     1     -10.919  16.500  68.499  1.00  0.00    -0.350 C  
ENDROOT
BRANCH   2   3
HETATM    3  N   UNL     1     -10.587  15.323  67.665  1.00  0.00    -0.264 NA 
BRANCH   3   4
HETATM    4  C   UNL     1      -9.524  14.485  68.247  1.00  0.00    -0.207 C  
HETATM    5  C   UNL     1      -8.296  14.225  67.373  1.00  0.00    -0.212 C  
ENDBRANCH   3   4
BRANCH   3   6
HETATM    6  C   UNL     1     -11.793  14.519  67.340  1.00  0.00    -0.388 C  
BRANCH   6   7
HETATM    7  C   UNL     1     -12.026  13.397  68.333  1.00  0.00    -0.359 A  
HETATM    8  C   UNL     1     -12.359  13.635  69.672  1.00  0.00    -0.203 A  
HETATM    9  C   UNL     1     -12.311  12.612  70.605  1.00  0.00    -0.375 A  
HETATM   10  O   UNL     1     -12.634  14.891  70.133  1.00  0.00    -0.455 OA 
HETATM   11  C   UNL     1     -11.919  11.330  70.206  1.00  0.00    -0.466 A  
HETATM   12  H   UNL     1     -12.859  15.053  71.041  1.00  0.00     0.000 HD 
HETATM   13  C   UNL     1     -11.654  11.037  68.860  1.00  0.00    -0.314 A  
HETATM   14  C   UNL     1     -11.766  12.076  67.929  1.00  0.00    -0.393 A  
BRANCH  13  15
HETATM   15  N   UNL     1     -11.324   9.746  68.373  1.00  0.00    -0.517 NA 
HETATM   16  H   UNL     1     -12.067   9.048  68.402  1.00  0.00     0.000 HD 
BRANCH  15  17
HETATM   17  C   UNL     1     -10.071   9.315  67.845  1.00  0.00    -0.200 A  
HETATM   18  C   UNL     1      -9.056   8.756  68.657  1.00  0.00    -0.141 A  
HETATM   19  C   UNL     1      -9.285   8.300  69.976  1.00  0.00    -0.151 A  
HETATM   20  C   UNL     1      -8.229   7.909  70.790  1.00  0.00    -0.110 A  
HETATM   21  C   UNL     1      -6.940   7.952  70.283  1.00  0.00    -0.049 A  
HETATM   22 CL   UNL     1      -5.611   7.589  71.312  1.00  0.00    -0.035 Cl 
HETATM   23  C   UNL     1      -6.715   8.304  68.953  1.00  0.00    -0.053 A  
HETATM   24  C   UNL     1      -7.759   8.668  68.116  1.00  0.00    -0.102 A  
HETATM   25  N   UNL     1      -7.492   8.961  66.832  1.00  0.00    -0.083 NA 
HETATM   26  C   UNL     1      -8.510   9.370  66.046  1.00  0.00    -0.124 A  
HETATM   27  C   UNL     1      -9.791   9.590  66.504  1.00  0.00    -0.305 A  
ENDBRANCH  15  17
ENDBRANCH  13  15
ENDBRANCH   6   7
ENDBRANCH   3   6
ENDBRANCH   2   3
TORSDOF 6
ENDMDL
MODEL      235
REMARK 921   NORMALIZED FREE ENERGY PREDICTED BY IDOCK:   -4.04 KCAL/MOL
REMARK 922        TOTAL FREE ENERGY PREDICTED BY IDOCK:   -6.47 KCAL/MOL
REMARK 923 INTER-LIGAND FREE ENERGY PREDICTED BY IDOCK:   -5.90 KCAL/MOL
REMARK 924 INTRA-LIGAND FREE ENERGY PREDICTED BY IDOCK:   -0.56 KCAL/MOL
REMARK 927      BINDING AFFINITY PREDICTED BY RF-SCORE:    0.00 PKD
ROOT
HETATM    1  C   UNL     1     -11.927  10.425  70.458  1.00  0.00    -0.427 C  
HETATM    2  C   UNL     1     -10.839  10.099  69.439  1.00  0.00    -0.241 C  
ENDROOT
BRANCH   2   3
HETATM    3  N   UNL     1      -9.507   9.871  70.042  1.00  0.00    -0.230 NA 
BRANCH   3   4
HETATM    4  C   UNL     1      -9.526   8.869  71.123  1.00  0.00    -0.265 C  
HETATM    5  C   UNL     1      -8.173   8.452  71.700  1.00  0.00    -0.195 C  
ENDBRANCH   3   4
BRANCH   3   6
HETATM    6  C   UNL     1      -8.485   9.540  69.016  1.00  0.00    -0.128 C  
BRANCH   6   7
HETATM    7  C   UNL     1      -7.697  10.755  68.569  1.00  0.00    -0.118 A  
HETATM    8  C   UNL     1      -6.314  10.718  68.355  1.00  0.00    -0.053 A  
HETATM    9  C   UNL     1      -5.589  11.889  68.202  1.00  0.00    -0.045 A  
HETATM   10  O   UNL     1      -5.610   9.547  68.399  1.00  0.00    -0.037 OA 
HETATM   11  C   UNL     1      -6.247  13.121  68.268  1.00  0.00    -0.092 A  
HETATM   12  H   UNL     1      -4.672   9.521  68.255  1.00  0.00     0.000 HD 
HETATM   13  C   UNL     1      -7.641  13.196  68.403  1.00  0.00    -0.133 A  
HETATM   14  C   UNL     1      -8.355  11.996  68.498  1.00  0.00    -0.104 A  
BRANCH  13  15
HETATM   15  N   UNL     1      -8.381  14.406  68.404  1.00  0.00    -0.150 NA 
HETATM   16  H   UNL     1      -8.551  14.831  69.315  1.00  0.00     0.000 HD 
BRANCH  15  17
HETATM   17  C   UNL     1      -8.915  15.095  67.275  1.00  0.00    -0.199 A  
HETATM   18  C   UNL     1      -9.034  16.504  67.230  1.00  0.00    -0.212 A  
HETATM   19  C   UNL     1      -8.377  17.364  68.139  1.00  0.00    -0.240 A  
HETATM   20  C   UNL     1      -8.650  18.726  68.159  1.00  0.00    -0.338 A  
HETATM   21  C   UNL     1      -9.566  19.239  67.254  1.00  0.00    -0.320 A  
HETATM   22 CL   UNL     1     -10.007  20.899  67.342  1.00  0.00    -0.417 Cl 
HETATM   23  C   UNL     1     -10.142  18.416  66.288  1.00  0.00    -0.409 A  
HETATM   24  C   UNL     1      -9.859  17.060  66.233  1.00  0.00    -0.294 A  
HETATM   25  N   UNL     1     -10.411  16.318  65.258  1.00  0.00    -0.604 NA 
HETATM   26  C   UNL     1     -10.173  14.989  65.254  1.00  0.00    -0.377 A  
HETATM   27  C   UNL     1      -9.469  14.334  66.241  1.00  0.00    -0.277 A  
ENDBRANCH  15  17
ENDBRANCH  13  15
ENDBRANCH   6   7
ENDBRANCH   3   6
ENDBRANCH   2   3
TORSDOF 6
ENDMDL
MODEL      236
REMARK 921   NORMALIZED FREE ENERGY PREDICTED BY IDOCK:   -4.04 KCAL/MOL
REMARK 922        TOTAL FREE ENERGY PREDICTED BY IDOCK:   -6.46 KCAL/MOL
REMARK 923 INTER-LIGAND FREE ENERGY PREDICTED BY IDOCK:   -5.62 KCAL/MOL
REMARK 924 INTRA-LIGAND FREE ENERGY PREDICTED BY IDOCK:   -0.84 KCAL/MOL
REMARK 927      BINDING AFFINITY PREDICTED BY RF-SCORE:    0.00 PKD
ROOT
HETATM    1  C   UNL     1     -11.220  15.384  72.625  1.00  0.00    -0.047 C  
HETATM    2  C   UNL     1     -11.788  16.017  71.359  1.00  0.00    -0.470 C  
ENDROOT
BRANCH   2   3
HETATM    3  N   UNL     1     -11.711  15.141  70.168  1.00  0.00    -0.283 NA 
BRANCH   3   4
HETATM    4  C   UNL     1     -12.341  13.825  70.379  1.00  0.00    -0.353 C  
HETATM    5  C   UNL     1     -11.626  12.615  69.778  1.00  0.00    -0.285 C  
ENDBRANCH   3   4
BRANCH   3   6
HETATM    6  C   UNL     1     -12.247  15.809  68.955  1.00  0.00    -0.028 C  
BRANCH   6   7
HETATM    7  C   UNL     1     -11.423  15.512  67.718  1.00  0.00    -0.247 A  
HETATM    8  C   UNL     1     -11.682  14.415  66.888  1.00  0.00    -0.402 A  
HETATM    9  C   UNL     1     -10.766  14.024  65.925  1.00  0.00    -0.293 A  
HETATM   10  O   UNL     1     -12.782  13.623  67.063  1.00  0.00    -0.259 OA 
HETATM   11  C   UNL     1      -9.567  14.732  65.785  1.00  0.00    -0.289 A  
HETATM   12  H   UNL     1     -12.958  12.879  66.500  1.00  0.00     0.000 HD 
HETATM   13  C   UNL     1      -9.308  15.882  66.544  1.00  0.00    -0.277 A  
HETATM   14  C   UNL     1     -10.277  16.287  67.471  1.00  0.00    -0.270 A  
BRANCH  13  15
HETATM   15  N   UNL     1      -8.150  16.689  66.405  1.00  0.00    -0.300 NA 
HETATM   16  H   UNL     1      -7.870  16.917  65.451  1.00  0.00     0.000 HD 
BRANCH  15  17
HETATM   17  C   UNL     1      -7.333  17.217  67.448  1.00  0.00    -0.163 A  
HETATM   18  C   UNL     1      -6.702  16.395  68.411  1.00  0.00    -0.141 A  
HETATM   19  C   UNL     1      -6.571  14.995  68.265  1.00  0.00    -0.115 A  
HETATM   20  C   UNL     1      -6.091  14.210  69.305  1.00  0.00    -0.101 A  
HETATM   21  C   UNL     1      -5.720  14.823  70.492  1.00  0.00    -0.152 A  
HETATM   22 CL   UNL     1      -5.239  13.857  71.832  1.00  0.00    -0.181 Cl 
HETATM   23  C   UNL     1      -5.752  16.211  70.610  1.00  0.00     0.016 A  
HETATM   24  C   UNL     1      -6.199  17.014  69.572  1.00  0.00    -0.237 A  
HETATM   25  N   UNL     1      -6.173  18.349  69.723  1.00  0.00    -0.224 NA 
HETATM   26  C   UNL     1      -6.666  19.114  68.726  1.00  0.00    -0.296 A  
HETATM   27  C   UNL     1      -7.276  18.605  67.600  1.00  0.00    -0.225 A  
ENDBRANCH  15  17
ENDBRANCH  13  15
ENDBRANCH   6   7
ENDBRANCH   3   6
ENDBRANCH   2   3
TORSDOF 6
ENDMDL
MODEL      237
REMARK 921   NORMALIZED FREE ENERGY PREDICTED BY IDOCK:   -4.04 KCAL/MOL
REMARK 922        TOTAL FREE ENERGY PREDICTED BY IDOCK:   -6.46 KCAL/MOL
REMARK 923 INTER-LIGAND FREE ENERGY PREDICTED BY IDOCK:   -5.63 KCAL/MOL
REMARK 924 INTRA-LIGAND FREE ENERGY PREDICTED BY IDOCK:   -0.83 KCAL/MOL
REMARK 927      BINDING AFFINITY PREDICTED BY RF-SCORE:    0.00 PKD
ROOT
HETATM    1  C   UNL     1     -12.172  15.435  64.091  1.00  0.00    -0.075 C  
HETATM    2  C   UNL     1     -11.561  14.102  64.509  1.00  0.00    -0.389 C  
ENDROOT
BRANCH   2   3
HETATM    3  N   UNL     1     -12.044  13.609  65.819  1.00  0.00    -0.401 NA 
BRANCH   3   4
HETATM    4  C   UNL     1     -11.596  12.237  66.121  1.00  0.00    -0.390 C  
HETATM    5  C   UNL     1     -10.800  11.518  65.032  1.00  0.00    -0.336 C  
ENDBRANCH   3   4
BRANCH   3   6
HETATM    6  C   UNL     1     -11.704  14.544  66.921  1.00  0.00    -0.382 C  
BRANCH   6   7
HETATM    7  C   UNL     1     -10.256  14.428  67.353  1.00  0.00    -0.247 A  
HETATM    8  C   UNL     1      -9.273  15.334  66.938  1.00  0.00    -0.234 A  
HETATM    9  C   UNL     1      -7.929  15.059  67.134  1.00  0.00    -0.238 A  
HETATM   10  O   UNL     1      -9.585  16.462  66.233  1.00  0.00    -0.273 OA 
HETATM   11  C   UNL     1      -7.552  13.860  67.746  1.00  0.00    -0.175 A  
HETATM   12  H   UNL     1      -8.918  17.077  65.951  1.00  0.00     0.000 HD 
HETATM   13  C   UNL     1      -8.509  12.964  68.245  1.00  0.00    -0.161 A  
HETATM   14  C   UNL     1      -9.860  13.295  68.085  1.00  0.00    -0.231 A  
BRANCH  13  15
HETATM   15  N   UNL     1      -8.200  11.768  68.940  1.00  0.00    -0.356 NA 
HETATM   16  H   UNL     1      -7.507  11.844  69.685  1.00  0.00     0.000 HD 
BRANCH  15  17
HETATM   17  C   UNL     1      -8.749  10.470  68.717  1.00  0.00    -0.154 A  
HETATM   18  C   UNL     1      -8.413   9.686  67.588  1.00  0.00    -0.125 A  
HETATM   19  C   UNL     1      -7.306   9.967  66.754  1.00  0.00    -0.095 A  
HETATM   20  C   UNL     1      -7.109   9.270  65.569  1.00  0.00    -0.086 A  
HETATM   21  C   UNL     1      -8.007   8.273  65.221  1.00  0.00    -0.128 A  
HETATM   22 CL   UNL     1      -7.850   7.482  63.702  1.00  0.00    -0.124 Cl 
HETATM   23  C   UNL     1      -9.042   7.921  66.086  1.00  0.00    -0.210 A  
HETATM   24  C   UNL     1      -9.237   8.585  67.287  1.00  0.00    -0.141 A  
HETATM   25  N   UNL     1     -10.226   8.181  68.102  1.00  0.00    -0.203 NA 
HETATM   26  C   UNL     1     -10.439   8.875  69.240  1.00  0.00    -0.224 A  
HETATM   27  C   UNL     1      -9.760  10.027  69.573  1.00  0.00    -0.253 A  
ENDBRANCH  15  17
ENDBRANCH  13  15
ENDBRANCH   6   7
ENDBRANCH   3   6
ENDBRANCH   2   3
TORSDOF 6
ENDMDL
MODEL      238
REMARK 921   NORMALIZED FREE ENERGY PREDICTED BY IDOCK:   -4.03 KCAL/MOL
REMARK 922        TOTAL FREE ENERGY PREDICTED BY IDOCK:   -6.46 KCAL/MOL
REMARK 923 INTER-LIGAND FREE ENERGY PREDICTED BY IDOCK:   -5.35 KCAL/MOL
REMARK 924 INTRA-LIGAND FREE ENERGY PREDICTED BY IDOCK:   -1.10 KCAL/MOL
REMARK 927      BINDING AFFINITY PREDICTED BY RF-SCORE:    0.00 PKD
ROOT
HETATM    1  C   UNL     1      -6.482  17.770  67.710  1.00  0.00    -0.188 C  
HETATM    2  C   UNL     1      -7.218  18.974  67.131  1.00  0.00    -0.208 C  
ENDROOT
BRANCH   2   3
HETATM    3  N   UNL     1      -8.691  18.881  67.243  1.00  0.00    -0.275 NA 
BRANCH   3   4
HETATM    4  C   UNL     1      -9.366  20.179  67.059  1.00  0.00    -0.395 C  
HETATM    5  C   UNL     1     -10.877  20.142  66.826  1.00  0.00    -0.081 C  
ENDBRANCH   3   4
BRANCH   3   6
HETATM    6  C   UNL     1      -9.251  17.848  66.335  1.00  0.00    -0.242 C  
BRANCH   6   7
HETATM    7  C   UNL     1      -9.490  16.527  67.038  1.00  0.00    -0.249 A  
HETATM    8  C   UNL     1     -10.040  16.448  68.323  1.00  0.00    -0.248 A  
HETATM    9  C   UNL     1     -10.007  15.260  69.036  1.00  0.00    -0.229 A  
HETATM   10  O   UNL     1     -10.528  17.550  68.967  1.00  0.00    -0.350 OA 
HETATM   11  C   UNL     1      -9.411  14.130  68.467  1.00  0.00    -0.191 A  
HETATM   12  H   UNL     1     -10.901  17.497  69.839  1.00  0.00     0.000 HD 
HETATM   13  C   UNL     1      -8.919  14.150  67.153  1.00  0.00    -0.225 A  
HETATM   14  C   UNL     1      -9.018  15.348  66.435  1.00  0.00    -0.351 A  
BRANCH  13  15
HETATM   15  N   UNL     1      -8.370  13.025  66.487  1.00  0.00    -0.388 NA 
HETATM   16  H   UNL     1      -7.457  13.159  66.052  1.00  0.00     0.000 HD 
BRANCH  15  17
HETATM   17  C   UNL     1      -8.950  11.728  66.357  1.00  0.00    -0.201 A  
HETATM   18  C   UNL     1      -8.621  10.657  67.221  1.00  0.00    -0.126 A  
HETATM   19  C   UNL     1      -7.942  10.836  68.448  1.00  0.00    -0.124 A  
HETATM   20  C   UNL     1      -7.498   9.744  69.184  1.00  0.00    -0.082 A  
HETATM   21  C   UNL     1      -7.749   8.467  68.708  1.00  0.00    -0.102 A  
HETATM   22 CL   UNL     1      -7.104   7.108  69.541  1.00  0.00    -0.069 Cl 
HETATM   23  C   UNL     1      -8.506   8.281  67.552  1.00  0.00    -0.130 A  
HETATM   24  C   UNL     1      -8.983   9.357  66.820  1.00  0.00    -0.131 A  
HETATM   25  N   UNL     1      -9.740   9.122  65.734  1.00  0.00    -0.266 NA 
HETATM   26  C   UNL     1     -10.147  10.179  64.999  1.00  0.00    -0.235 A  
HETATM   27  C   UNL     1      -9.760  11.478  65.246  1.00  0.00    -0.268 A  
ENDBRANCH  15  17
ENDBRANCH  13  15
ENDBRANCH   6   7
ENDBRANCH   3   6
ENDBRANCH   2   3
TORSDOF 6
ENDMDL
MODEL      239
REMARK 921   NORMALIZED FREE ENERGY PREDICTED BY IDOCK:   -4.03 KCAL/MOL
REMARK 922        TOTAL FREE ENERGY PREDICTED BY IDOCK:   -6.46 KCAL/MOL
REMARK 923 INTER-LIGAND FREE ENERGY PREDICTED BY IDOCK:   -5.18 KCAL/MOL
REMARK 924 INTRA-LIGAND FREE ENERGY PREDICTED BY IDOCK:   -1.27 KCAL/MOL
REMARK 927      BINDING AFFINITY PREDICTED BY RF-SCORE:    0.00 PKD
ROOT
HETATM    1  C   UNL     1      -9.092   6.579  70.736  1.00  0.00    -0.154 C  
HETATM    2  C   UNL     1      -7.983   7.281  69.958  1.00  0.00    -0.117 C  
ENDROOT
BRANCH   2   3
HETATM    3  N   UNL     1      -8.479   8.147  68.865  1.00  0.00    -0.129 NA 
BRANCH   3   4
HETATM    4  C   UNL     1      -9.464   7.475  67.998  1.00  0.00    -0.142 C  
HETATM    5  C   UNL     1      -9.112   7.360  66.515  1.00  0.00    -0.195 C  
ENDBRANCH   3   4
BRANCH   3   6
HETATM    6  C   UNL     1      -9.002   9.439  69.376  1.00  0.00    -0.157 C  
BRANCH   6   7
HETATM    7  C   UNL     1      -8.603  10.612  68.504  1.00  0.00    -0.137 A  
HETATM    8  C   UNL     1      -7.269  10.888  68.179  1.00  0.00    -0.083 A  
HETATM    9  C   UNL     1      -6.916  12.099  67.605  1.00  0.00    -0.121 A  
HETATM   10  O   UNL     1      -6.255  10.034  68.511  1.00  0.00    -0.045 OA 
HETATM   11  C   UNL     1      -7.904  13.057  67.353  1.00  0.00    -0.166 A  
HETATM   12  H   UNL     1      -5.350  10.222  68.292  1.00  0.00     0.000 HD 
HETATM   13  C   UNL     1      -9.259  12.787  67.593  1.00  0.00    -0.192 A  
HETATM   14  C   UNL     1      -9.593  11.533  68.120  1.00  0.00    -0.187 A  
BRANCH  13  15
HETATM   15  N   UNL     1     -10.318  13.680  67.294  1.00  0.00    -0.248 NA 
HETATM   16  H   UNL     1     -10.857  13.477  66.452  1.00  0.00     0.000 HD 
BRANCH  15  17
HETATM   17  C   UNL     1     -10.717  14.831  68.038  1.00  0.00    -0.248 A  
HETATM   18  C   UNL     1     -10.219  16.125  67.761  1.00  0.00    -0.267 A  
HETATM   19  C   UNL     1      -9.537  16.452  66.567  1.00  0.00    -0.291 A  
HETATM   20  C   UNL     1      -8.926  17.689  66.408  1.00  0.00    -0.255 A  
HETATM   21  C   UNL     1      -9.012  18.616  67.435  1.00  0.00    -0.272 A  
HETATM   22 CL   UNL     1      -8.162  20.106  67.308  1.00  0.00    -0.364 Cl 
HETATM   23  C   UNL     1      -9.767  18.341  68.574  1.00  0.00    -0.379 A  
HETATM   24  C   UNL     1     -10.409  17.123  68.737  1.00  0.00    -0.353 A  
HETATM   25  N   UNL     1     -11.156  16.922  69.836  1.00  0.00    -0.003 NA 
HETATM   26  C   UNL     1     -11.726  15.711  70.009  1.00  0.00    -0.357 A  
HETATM   27  C   UNL     1     -11.515  14.639  69.169  1.00  0.00    -0.320 A  
ENDBRANCH  15  17
ENDBRANCH  13  15
ENDBRANCH   6   7
ENDBRANCH   3   6
ENDBRANCH   2   3
TORSDOF 6
ENDMDL
MODEL      240
REMARK 921   NORMALIZED FREE ENERGY PREDICTED BY IDOCK:   -4.03 KCAL/MOL
REMARK 922        TOTAL FREE ENERGY PREDICTED BY IDOCK:   -6.45 KCAL/MOL
REMARK 923 INTER-LIGAND FREE ENERGY PREDICTED BY IDOCK:   -5.65 KCAL/MOL
REMARK 924 INTRA-LIGAND FREE ENERGY PREDICTED BY IDOCK:   -0.80 KCAL/MOL
REMARK 927      BINDING AFFINITY PREDICTED BY RF-SCORE:    0.00 PKD
ROOT
HETATM    1  C   UNL     1      -8.042  20.561  67.208  1.00  0.00    -0.362 C  
HETATM    2  C   UNL     1      -8.505  19.383  66.356  1.00  0.00    -0.346 C  
ENDROOT
BRANCH   2   3
HETATM    3  N   UNL     1      -8.683  18.128  67.120  1.00  0.00    -0.244 NA 
BRANCH   3   4
HETATM    4  C   UNL     1     -10.036  17.984  67.687  1.00  0.00    -0.347 C  
HETATM    5  C   UNL     1     -10.356  18.820  68.926  1.00  0.00    -0.119 C  
ENDBRANCH   3   4
BRANCH   3   6
HETATM    6  C   UNL     1      -8.303  16.936  66.320  1.00  0.00    -0.296 C  
BRANCH   6   7
HETATM    7  C   UNL     1      -7.537  15.912  67.134  1.00  0.00    -0.255 A  
HETATM    8  C   UNL     1      -6.205  16.102  67.520  1.00  0.00    -0.162 A  
HETATM    9  C   UNL     1      -5.459  15.052  68.031  1.00  0.00    -0.140 A  
HETATM   10  O   UNL     1      -5.556  17.286  67.309  1.00  0.00    -0.115 OA 
HETATM   11  C   UNL     1      -6.043  13.788  68.157  1.00  0.00    -0.120 A  
HETATM   12  H   UNL     1      -4.652  17.415  67.570  1.00  0.00     0.000 HD 
HETATM   13  C   UNL     1      -7.396  13.577  67.854  1.00  0.00    -0.149 A  
HETATM   14  C   UNL     1      -8.142  14.669  67.394  1.00  0.00    -0.216 A  
BRANCH  13  15
HETATM   15  N   UNL     1      -8.073  12.343  68.026  1.00  0.00    -0.151 NA 
HETATM   16  H   UNL     1      -7.492  11.539  68.268  1.00  0.00     0.000 HD 
BRANCH  15  17
HETATM   17  C   UNL     1      -9.472  12.098  67.900  1.00  0.00    -0.195 A  
HETATM   18  C   UNL     1     -10.154  12.196  66.665  1.00  0.00    -0.218 A  
HETATM   19  C   UNL     1      -9.490  12.245  65.418  1.00  0.00     0.014 A  
HETATM   20  C   UNL     1     -10.188  12.503  64.245  1.00  0.00    -0.359 A  
HETATM   21  C   UNL     1     -11.560  12.694  64.311  1.00  0.00    -0.374 A  
HETATM   22 CL   UNL     1     -12.424  13.135  62.891  1.00  0.00     0.018 Cl 
HETATM   23  C   UNL     1     -12.237  12.548  65.521  1.00  0.00    -0.442 A  
HETATM   24  C   UNL     1     -11.560  12.260  66.696  1.00  0.00    -0.375 A  
HETATM   25  N   UNL     1     -12.265  12.092  67.828  1.00  0.00    -0.368 NA 
HETATM   26  C   UNL     1     -11.587  11.870  68.975  1.00  0.00    -0.317 A  
HETATM   27  C   UNL     1     -10.212  11.895  69.068  1.00  0.00    -0.016 A  
ENDBRANCH  15  17
ENDBRANCH  13  15
ENDBRANCH   6   7
ENDBRANCH   3   6
ENDBRANCH   2   3
TORSDOF 6
ENDMDL
MODEL      241
REMARK 921   NORMALIZED FREE ENERGY PREDICTED BY IDOCK:   -4.01 KCAL/MOL
REMARK 922        TOTAL FREE ENERGY PREDICTED BY IDOCK:   -6.43 KCAL/MOL
REMARK 923 INTER-LIGAND FREE ENERGY PREDICTED BY IDOCK:   -6.03 KCAL/MOL
REMARK 924 INTRA-LIGAND FREE ENERGY PREDICTED BY IDOCK:   -0.40 KCAL/MOL
REMARK 927      BINDING AFFINITY PREDICTED BY RF-SCORE:    0.00 PKD
ROOT
HETATM    1  C   UNL     1     -12.967  13.351  71.010  1.00  0.00    -0.260 C  
HETATM    2  C   UNL     1     -11.791  13.651  70.085  1.00  0.00    -0.281 C  
ENDROOT
BRANCH   2   3
HETATM    3  N   UNL     1     -12.195  14.035  68.714  1.00  0.00    -0.295 NA 
BRANCH   3   4
HETATM    4  C   UNL     1     -11.705  15.368  68.320  1.00  0.00    -0.297 C  
HETATM    5  C   UNL     1     -10.826  16.105  69.330  1.00  0.00    -0.310 C  
ENDBRANCH   3   4
BRANCH   3   6
HETATM    6  C   UNL     1     -11.813  13.003  67.716  1.00  0.00    -0.347 C  
BRANCH   6   7
HETATM    7  C   UNL     1     -10.398  12.499  67.915  1.00  0.00    -0.219 A  
HETATM    8  C   UNL     1      -9.376  12.744  66.991  1.00  0.00    -0.229 A  
HETATM    9  C   UNL     1      -8.173  12.061  67.067  1.00  0.00    -0.169 A  
HETATM   10  O   UNL     1      -9.557  13.575  65.920  1.00  0.00    -0.449 OA 
HETATM   11  C   UNL     1      -7.981  11.112  68.077  1.00  0.00    -0.117 A  
HETATM   12  H   UNL     1      -8.863  13.741  65.293  1.00  0.00     0.000 HD 
HETATM   13  C   UNL     1      -8.951  10.895  69.066  1.00  0.00    -0.094 A  
HETATM   14  C   UNL     1     -10.134  11.641  68.998  1.00  0.00    -0.034 A  
BRANCH  13  15
HETATM   15  N   UNL     1      -8.796  10.004  70.158  1.00  0.00    -0.358 NA 
HETATM   16  H   UNL     1      -7.977  10.151  70.748  1.00  0.00     0.000 HD 
BRANCH  15  17
HETATM   17  C   UNL     1      -9.655   8.927  70.526  1.00  0.00    -0.202 A  
HETATM   18  C   UNL     1      -9.549   7.639  69.950  1.00  0.00    -0.160 A  
HETATM   19  C   UNL     1      -8.426   7.217  69.203  1.00  0.00    -0.133 A  
HETATM   20  C   UNL     1      -8.434   6.006  68.523  1.00  0.00    -0.113 A  
HETATM   21  C   UNL     1      -9.560   5.200  68.602  1.00  0.00    -0.142 A  
HETATM   22 CL   UNL     1      -9.637   3.756  67.670  1.00  0.00    -0.228 Cl 
HETATM   23  C   UNL     1     -10.631   5.561  69.417  1.00  0.00    -0.349 A  
HETATM   24  C   UNL     1     -10.628   6.752  70.128  1.00  0.00    -0.218 A  
HETATM   25  N   UNL     1     -11.670   7.034  70.929  1.00  0.00    -0.326 NA 
HETATM   26  C   UNL     1     -11.679   8.223  71.568  1.00  0.00    -0.292 A  
HETATM   27  C   UNL     1     -10.727   9.202  71.379  1.00  0.00    -0.414 A  
ENDBRANCH  15  17
ENDBRANCH  13  15
ENDBRANCH   6   7
ENDBRANCH   3   6
ENDBRANCH   2   3
TORSDOF 6
ENDMDL
MODEL      242
REMARK 921   NORMALIZED FREE ENERGY PREDICTED BY IDOCK:   -4.00 KCAL/MOL
REMARK 922        TOTAL FREE ENERGY PREDICTED BY IDOCK:   -6.42 KCAL/MOL
REMARK 923 INTER-LIGAND FREE ENERGY PREDICTED BY IDOCK:   -5.24 KCAL/MOL
REMARK 924 INTRA-LIGAND FREE ENERGY PREDICTED BY IDOCK:   -1.17 KCAL/MOL
REMARK 927      BINDING AFFINITY PREDICTED BY RF-SCORE:    0.00 PKD
ROOT
HETATM    1  C   UNL     1      -9.351   5.032  65.913  1.00  0.00    -0.165 C  
HETATM    2  C   UNL     1      -9.756   5.341  67.351  1.00  0.00    -0.146 C  
ENDROOT
BRANCH   2   3
HETATM    3  N   UNL     1      -9.219   6.624  67.858  1.00  0.00    -0.113 NA 
BRANCH   3   4
HETATM    4  C   UNL     1      -7.850   6.506  68.391  1.00  0.00    -0.106 C  
HETATM    5  C   UNL     1      -6.724   7.080  67.531  1.00  0.00    -0.068 C  
ENDBRANCH   3   4
BRANCH   3   6
HETATM    6  C   UNL     1      -9.312   7.703  66.842  1.00  0.00    -0.161 C  
BRANCH   6   7
HETATM    7  C   UNL     1      -9.514   9.070  67.464  1.00  0.00    -0.168 A  
HETATM    8  C   UNL     1     -10.447   9.303  68.482  1.00  0.00    -0.206 A  
HETATM    9  C   UNL     1     -10.790  10.595  68.846  1.00  0.00    -0.272 A  
HETATM   10  O   UNL     1     -11.134   8.282  69.077  1.00  0.00    -0.430 OA 
HETATM   11  C   UNL     1     -10.201  11.678  68.184  1.00  0.00    -0.206 A  
HETATM   12  H   UNL     1     -11.767   8.440  69.767  1.00  0.00     0.000 HD 
HETATM   13  C   UNL     1      -9.206  11.485  67.214  1.00  0.00    -0.167 A  
HETATM   14  C   UNL     1      -8.838  10.170  66.907  1.00  0.00    -0.142 A  
BRANCH  13  15
HETATM   15  N   UNL     1      -8.515  12.534  66.557  1.00  0.00    -0.413 NA 
HETATM   16  H   UNL     1      -8.390  12.431  65.549  1.00  0.00     0.000 HD 
BRANCH  15  17
HETATM   17  C   UNL     1      -7.976  13.717  67.144  1.00  0.00    -0.044 A  
HETATM   18  C   UNL     1      -8.607  14.978  67.031  1.00  0.00    -0.266 A  
HETATM   19  C   UNL     1      -9.945  15.137  66.604  1.00  0.00    -0.261 A  
HETATM   20  C   UNL     1     -10.471  16.398  66.354  1.00  0.00    -0.288 A  
HETATM   21  C   UNL     1      -9.667  17.511  66.550  1.00  0.00    -0.295 A  
HETATM   22 CL   UNL     1     -10.259  19.070  66.132  1.00  0.00    -0.485 Cl 
HETATM   23  C   UNL     1      -8.380  17.370  67.068  1.00  0.00    -0.239 A  
HETATM   24  C   UNL     1      -7.849  16.121  67.352  1.00  0.00    -0.154 A  
HETATM   25  N   UNL     1      -6.618  16.043  67.885  1.00  0.00    -0.132 NA 
HETATM   26  C   UNL     1      -6.093  14.818  68.101  1.00  0.00    -0.141 A  
HETATM   27  C   UNL     1      -6.708  13.644  67.725  1.00  0.00    -0.177 A  
ENDBRANCH  15  17
ENDBRANCH  13  15
ENDBRANCH   6   7
ENDBRANCH   3   6
ENDBRANCH   2   3
TORSDOF 6
ENDMDL
MODEL      243
REMARK 921   NORMALIZED FREE ENERGY PREDICTED BY IDOCK:   -4.00 KCAL/MOL
REMARK 922        TOTAL FREE ENERGY PREDICTED BY IDOCK:   -6.41 KCAL/MOL
REMARK 923 INTER-LIGAND FREE ENERGY PREDICTED BY IDOCK:   -5.08 KCAL/MOL
REMARK 924 INTRA-LIGAND FREE ENERGY PREDICTED BY IDOCK:   -1.34 KCAL/MOL
REMARK 927      BINDING AFFINITY PREDICTED BY RF-SCORE:    0.00 PKD
ROOT
HETATM    1  C   UNL     1      -8.209   6.241  62.555  1.00  0.00    -0.067 C  
HETATM    2  C   UNL     1      -7.205   7.275  63.056  1.00  0.00    -0.078 C  
ENDROOT
BRANCH   2   3
HETATM    3  N   UNL     1      -7.326   7.574  64.501  1.00  0.00    -0.080 NA 
BRANCH   3   4
HETATM    4  C   UNL     1      -6.025   7.620  65.192  1.00  0.00    -0.038 C  
HETATM    5  C   UNL     1      -5.676   6.428  66.082  1.00  0.00    -0.021 C  
ENDBRANCH   3   4
BRANCH   3   6
HETATM    6  C   UNL     1      -8.112   8.810  64.745  1.00  0.00    -0.151 C  
BRANCH   6   7
HETATM    7  C   UNL     1      -8.823   8.789  66.083  1.00  0.00    -0.201 A  
HETATM    8  C   UNL     1      -9.627   7.718  66.492  1.00  0.00    -0.201 A  
HETATM    9  C   UNL     1     -10.462   7.838  67.591  1.00  0.00    -0.308 A  
HETATM   10  O   UNL     1      -9.705   6.560  65.770  1.00  0.00    -0.376 OA 
HETATM   11  C   UNL     1     -10.507   9.046  68.295  1.00  0.00    -0.247 A  
HETATM   12  H   UNL     1     -10.250   5.833  66.047  1.00  0.00     0.000 HD 
HETATM   13  C   UNL     1      -9.661  10.114  67.963  1.00  0.00    -0.145 A  
HETATM   14  C   UNL     1      -8.785   9.945  66.884  1.00  0.00    -0.135 A  
BRANCH  13  15
HETATM   15  N   UNL     1      -9.600  11.338  68.676  1.00  0.00    -0.224 NA 
HETATM   16  H   UNL     1      -9.776  11.286  69.680  1.00  0.00     0.000 HD 
BRANCH  15  17
HETATM   17  C   UNL     1      -9.319  12.634  68.149  1.00  0.00    -0.210 A  
HETATM   18  C   UNL     1     -10.178  13.285  67.234  1.00  0.00    -0.240 A  
HETATM   19  C   UNL     1     -11.507  12.868  66.991  1.00  0.00    -0.390 A  
HETATM   20  C   UNL     1     -12.259  13.435  65.969  1.00  0.00    -0.491 A  
HETATM   21  C   UNL     1     -11.692  14.438  65.197  1.00  0.00    -0.372 A  
HETATM   22 CL   UNL     1     -12.560  15.067  63.853  1.00  0.00     0.083 Cl 
HETATM   23  C   UNL     1     -10.420  14.925  65.495  1.00  0.00    -0.380 A  
HETATM   24  C   UNL     1      -9.667  14.392  66.530  1.00  0.00    -0.290 A  
HETATM   25  N   UNL     1      -8.462  14.924  66.799  1.00  0.00    -0.223 NA 
HETATM   26  C   UNL     1      -7.717  14.356  67.771  1.00  0.00    -0.161 A  
HETATM   27  C   UNL     1      -8.080  13.209  68.443  1.00  0.00    -0.130 A  
ENDBRANCH  15  17
ENDBRANCH  13  15
ENDBRANCH   6   7
ENDBRANCH   3   6
ENDBRANCH   2   3
TORSDOF 6
ENDMDL
MODEL      244
REMARK 921   NORMALIZED FREE ENERGY PREDICTED BY IDOCK:   -3.98 KCAL/MOL
REMARK 922        TOTAL FREE ENERGY PREDICTED BY IDOCK:   -6.38 KCAL/MOL
REMARK 923 INTER-LIGAND FREE ENERGY PREDICTED BY IDOCK:   -5.37 KCAL/MOL
REMARK 924 INTRA-LIGAND FREE ENERGY PREDICTED BY IDOCK:   -1.01 KCAL/MOL
REMARK 927      BINDING AFFINITY PREDICTED BY RF-SCORE:    0.00 PKD
ROOT
HETATM    1  C   UNL     1      -5.886   9.271  68.660  1.00  0.00    -0.041 C  
HETATM    2  C   UNL     1      -6.497   9.853  67.389  1.00  0.00    -0.068 C  
ENDROOT
BRANCH   2   3
HETATM    3  N   UNL     1      -7.956   9.631  67.273  1.00  0.00    -0.106 NA 
BRANCH   3   4
HETATM    4  C   UNL     1      -8.733  10.883  67.292  1.00  0.00    -0.131 C  
HETATM    5  C   UNL     1      -8.043  12.113  67.880  1.00  0.00    -0.153 C  
ENDBRANCH   3   4
BRANCH   3   6
HETATM    6  C   UNL     1      -8.296   8.802  66.089  1.00  0.00    -0.123 C  
BRANCH   6   7
HETATM    7  C   UNL     1      -8.963   7.494  66.468  1.00  0.00    -0.189 A  
HETATM    8  C   UNL     1      -8.862   6.342  65.679  1.00  0.00    -0.074 A  
HETATM    9  C   UNL     1      -9.683   5.251  65.912  1.00  0.00    -0.125 A  
HETATM   10  O   UNL     1      -8.038   6.285  64.590  1.00  0.00    -0.127 OA 
HETATM   11  C   UNL     1     -10.627   5.305  66.943  1.00  0.00    -0.283 A  
HETATM   12  H   UNL     1      -7.970   5.503  64.055  1.00  0.00     0.000 HD 
HETATM   13  C   UNL     1     -10.705   6.410  67.802  1.00  0.00    -0.303 A  
HETATM   14  C   UNL     1      -9.823   7.475  67.580  1.00  0.00    -0.203 A  
BRANCH  13  15
HETATM   15  N   UNL     1     -11.585   6.503  68.910  1.00  0.00    -0.563 NA 
HETATM   16  H   UNL     1     -12.552   6.224  68.743  1.00  0.00     0.000 HD 
BRANCH  15  17
HETATM   17  C   UNL     1     -11.271   6.941  70.231  1.00  0.00    -0.316 A  
HETATM   18  C   UNL     1     -10.780   6.064  71.226  1.00  0.00    -0.320 A  
HETATM   19  C   UNL     1     -10.276   4.775  70.940  1.00  0.00    -0.247 A  
HETATM   20  C   UNL     1      -9.955   3.890  71.961  1.00  0.00    -0.241 A  
HETATM   21  C   UNL     1     -10.118   4.296  73.277  1.00  0.00    -0.145 A  
HETATM   22 CL   UNL     1      -9.842   3.176  74.552  1.00  0.00    -0.149 Cl 
HETATM   23  C   UNL     1     -10.517   5.600  73.569  1.00  0.00    -0.280 A  
HETATM   24  C   UNL     1     -10.812   6.507  72.563  1.00  0.00    -0.239 A  
HETATM   25  N   UNL     1     -11.156   7.762  72.898  1.00  0.00    -0.396 NA 
HETATM   26  C   UNL     1     -11.497   8.616  71.910  1.00  0.00    -0.348 A  
HETATM   27  C   UNL     1     -11.599   8.252  70.584  1.00  0.00    -0.199 A  
ENDBRANCH  15  17
ENDBRANCH  13  15
ENDBRANCH   6   7
ENDBRANCH   3   6
ENDBRANCH   2   3
TORSDOF 6
ENDMDL
MODEL      245
REMARK 921   NORMALIZED FREE ENERGY PREDICTED BY IDOCK:   -3.96 KCAL/MOL
REMARK 922        TOTAL FREE ENERGY PREDICTED BY IDOCK:   -6.36 KCAL/MOL
REMARK 923 INTER-LIGAND FREE ENERGY PREDICTED BY IDOCK:   -5.95 KCAL/MOL
REMARK 924 INTRA-LIGAND FREE ENERGY PREDICTED BY IDOCK:   -0.41 KCAL/MOL
REMARK 927      BINDING AFFINITY PREDICTED BY RF-SCORE:    0.00 PKD
ROOT
HETATM    1  C   UNL     1     -11.240  15.518  71.913  1.00  0.00    -0.352 C  
HETATM    2  C   UNL     1     -11.757  15.664  70.485  1.00  0.00    -0.366 C  
ENDROOT
BRANCH   2   3
HETATM    3  N   UNL     1     -11.788  14.391  69.730  1.00  0.00    -0.301 NA 
BRANCH   3   4
HETATM    4  C   UNL     1     -12.290  13.259  70.528  1.00  0.00    -0.316 C  
HETATM    5  C   UNL     1     -13.544  13.509  71.366  1.00  0.00    -0.163 C  
ENDBRANCH   3   4
BRANCH   3   6
HETATM    6  C   UNL     1     -12.534  14.525  68.453  1.00  0.00     0.224 C  
BRANCH   6   7
HETATM    7  C   UNL     1     -11.716  14.086  67.255  1.00  0.00    -0.420 A  
HETATM    8  C   UNL     1     -12.303  13.720  66.037  1.00  0.00    -0.457 A  
HETATM    9  C   UNL     1     -11.560  13.082  65.057  1.00  0.00    -0.359 A  
HETATM   10  O   UNL     1     -13.641  13.872  65.808  1.00  0.00    -0.515 OA 
HETATM   11  C   UNL     1     -10.211  12.796  65.290  1.00  0.00    -0.296 A  
HETATM   12  H   UNL     1     -14.039  13.624  64.983  1.00  0.00     0.000 HD 
HETATM   13  C   UNL     1      -9.570  13.216  66.464  1.00  0.00    -0.268 A  
HETATM   14  C   UNL     1     -10.330  13.909  67.414  1.00  0.00    -0.252 A  
BRANCH  13  15
HETATM   15  N   UNL     1      -8.191  13.026  66.736  1.00  0.00    -0.408 NA 
HETATM   16  H   UNL     1      -7.538  13.466  66.087  1.00  0.00     0.000 HD 
BRANCH  15  17
HETATM   17  C   UNL     1      -7.614  12.289  67.812  1.00  0.00    -0.131 A  
HETATM   18  C   UNL     1      -8.206  11.115  68.333  1.00  0.00    -0.144 A  
HETATM   19  C   UNL     1      -9.229  10.404  67.666  1.00  0.00    -0.157 A  
HETATM   20  C   UNL     1      -9.891   9.352  68.288  1.00  0.00    -0.180 A  
HETATM   21  C   UNL     1      -9.519   8.992  69.573  1.00  0.00    -0.164 A  
HETATM   22 CL   UNL     1     -10.405   7.775  70.404  1.00  0.00    -0.208 Cl 
HETATM   23  C   UNL     1      -8.444   9.621  70.200  1.00  0.00    -0.231 A  
HETATM   24  C   UNL     1      -7.751  10.652  69.583  1.00  0.00    -0.070 A  
HETATM   25  N   UNL     1      -6.698  11.198  70.215  1.00  0.00    -0.200 NA 
HETATM   26  C   UNL     1      -6.072  12.240  69.628  1.00  0.00    -0.132 A  
HETATM   27  C   UNL     1      -6.502  12.833  68.461  1.00  0.00    -0.082 A  
ENDBRANCH  15  17
ENDBRANCH  13  15
ENDBRANCH   6   7
ENDBRANCH   3   6
ENDBRANCH   2   3
TORSDOF 6
ENDMDL
MODEL      246
REMARK 921   NORMALIZED FREE ENERGY PREDICTED BY IDOCK:   -3.95 KCAL/MOL
REMARK 922        TOTAL FREE ENERGY PREDICTED BY IDOCK:   -6.35 KCAL/MOL
REMARK 923 INTER-LIGAND FREE ENERGY PREDICTED BY IDOCK:   -5.89 KCAL/MOL
REMARK 924 INTRA-LIGAND FREE ENERGY PREDICTED BY IDOCK:   -0.47 KCAL/MOL
REMARK 927      BINDING AFFINITY PREDICTED BY RF-SCORE:    0.00 PKD
ROOT
HETATM    1  C   UNL     1     -12.202   8.653  71.916  1.00  0.00    -0.419 C  
HETATM    2  C   UNL     1     -11.092   7.633  72.152  1.00  0.00    -0.267 C  
ENDROOT
BRANCH   2   3
HETATM    3  N   UNL     1     -10.559   7.034  70.907  1.00  0.00    -0.215 NA 
BRANCH   3   4
HETATM    4  C   UNL     1     -10.971   5.630  70.721  1.00  0.00    -0.187 C  
HETATM    5  C   UNL     1     -10.275   4.587  71.595  1.00  0.00    -0.214 C  
ENDBRANCH   3   4
BRANCH   3   6
HETATM    6  C   UNL     1     -10.886   7.856  69.714  1.00  0.00    -0.202 C  
BRANCH   6   7
HETATM    7  C   UNL     1      -9.682   8.607  69.181  1.00  0.00    -0.173 A  
HETATM    8  C   UNL     1      -8.434   7.997  69.002  1.00  0.00    -0.130 A  
HETATM    9  C   UNL     1      -7.302   8.759  68.763  1.00  0.00    -0.083 A  
HETATM   10  O   UNL     1      -8.260   6.651  69.162  1.00  0.00    -0.118 OA 
HETATM   11  C   UNL     1      -7.408  10.153  68.707  1.00  0.00    -0.084 A  
HETATM   12  H   UNL     1      -7.414   6.238  69.041  1.00  0.00     0.000 HD 
HETATM   13  C   UNL     1      -8.651  10.794  68.804  1.00  0.00    -0.156 A  
HETATM   14  C   UNL     1      -9.787   9.995  68.987  1.00  0.00    -0.203 A  
BRANCH  13  15
HETATM   15  N   UNL     1      -8.842  12.194  68.684  1.00  0.00    -0.376 NA 
HETATM   16  H   UNL     1      -8.265  12.782  69.285  1.00  0.00     0.000 HD 
BRANCH  15  17
HETATM   17  C   UNL     1      -9.749  12.872  67.817  1.00  0.00    -0.214 A  
HETATM   18  C   UNL     1      -9.520  14.190  67.357  1.00  0.00    -0.220 A  
HETATM   19  C   UNL     1      -8.266  14.836  67.456  1.00  0.00    -0.201 A  
HETATM   20  C   UNL     1      -8.129  16.182  67.140  1.00  0.00    -0.223 A  
HETATM   21  C   UNL     1      -9.241  16.885  66.703  1.00  0.00    -0.256 A  
HETATM   22 CL   UNL     1      -9.119  18.578  66.424  1.00  0.00    -0.298 Cl 
HETATM   23  C   UNL     1     -10.457  16.232  66.506  1.00  0.00    -0.290 A  
HETATM   24  C   UNL     1     -10.606  14.883  66.787  1.00  0.00    -0.305 A  
HETATM   25  N   UNL     1     -11.789  14.293  66.543  1.00  0.00    -0.402 NA 
HETATM   26  C   UNL     1     -11.935  12.994  66.877  1.00  0.00    -0.352 A  
HETATM   27  C   UNL     1     -10.972  12.259  67.534  1.00  0.00    -0.298 A  
ENDBRANCH  15  17
ENDBRANCH  13  15
ENDBRANCH   6   7
ENDBRANCH   3   6
ENDBRANCH   2   3
TORSDOF 6
ENDMDL
MODEL      247
REMARK 921   NORMALIZED FREE ENERGY PREDICTED BY IDOCK:   -3.95 KCAL/MOL
REMARK 922        TOTAL FREE ENERGY PREDICTED BY IDOCK:   -6.35 KCAL/MOL
REMARK 923 INTER-LIGAND FREE ENERGY PREDICTED BY IDOCK:   -5.59 KCAL/MOL
REMARK 924 INTRA-LIGAND FREE ENERGY PREDICTED BY IDOCK:   -0.75 KCAL/MOL
REMARK 927      BINDING AFFINITY PREDICTED BY RF-SCORE:    0.00 PKD
ROOT
HETATM    1  C   UNL     1     -10.946   5.201  72.300  1.00  0.00    -0.209 C  
HETATM    2  C   UNL     1     -11.309   6.105  71.127  1.00  0.00    -0.275 C  
ENDROOT
BRANCH   2   3
HETATM    3  N   UNL     1     -11.343   7.545  71.472  1.00  0.00    -0.250 NA 
BRANCH   3   4
HETATM    4  C   UNL     1     -12.682   8.009  71.879  1.00  0.00    -0.327 C  
HETATM    5  C   UNL     1     -12.819   9.490  72.232  1.00  0.00    -0.426 C  
ENDBRANCH   3   4
BRANCH   3   6
HETATM    6  C   UNL     1     -10.318   7.894  72.488  1.00  0.00    -0.285 C  
BRANCH   6   7
HETATM    7  C   UNL     1      -9.005   8.323  71.864  1.00  0.00    -0.249 A  
HETATM    8  C   UNL     1      -7.779   8.188  72.525  1.00  0.00    -0.128 A  
HETATM    9  C   UNL     1      -6.643   8.819  72.045  1.00  0.00    -0.054 A  
HETATM   10  O   UNL     1      -7.672   7.529  73.718  1.00  0.00    -0.108 OA 
HETATM   11  C   UNL     1      -6.725   9.604  70.890  1.00  0.00    -0.063 A  
HETATM   12  H   UNL     1      -6.840   7.438  74.167  1.00  0.00     0.000 HD 
HETATM   13  C   UNL     1      -7.917   9.700  70.158  1.00  0.00    -0.176 A  
HETATM   14  C   UNL     1      -9.036   9.005  70.635  1.00  0.00    -0.263 A  
BRANCH  13  15
HETATM   15  N   UNL     1      -8.055  10.416  68.942  1.00  0.00    -0.120 NA 
HETATM   16  H   UNL     1      -7.189  10.729  68.502  1.00  0.00     0.000 HD 
BRANCH  15  17
HETATM   17  C   UNL     1      -9.265  10.747  68.264  1.00  0.00    -0.157 A  
HETATM   18  C   UNL     1      -9.423  10.588  66.868  1.00  0.00    -0.191 A  
HETATM   19  C   UNL     1      -8.539   9.824  66.072  1.00  0.00    -0.146 A  
HETATM   20  C   UNL     1      -8.639   9.828  64.687  1.00  0.00    -0.199 A  
HETATM   21  C   UNL     1      -9.639  10.580  64.089  1.00  0.00    -0.313 A  
HETATM   22 CL   UNL     1      -9.705  10.694  62.374  1.00  0.00    -0.176 Cl 
HETATM   23  C   UNL     1     -10.577  11.254  64.869  1.00  0.00    -0.364 A  
HETATM   24  C   UNL     1     -10.512  11.237  66.254  1.00  0.00    -0.258 A  
HETATM   25  N   UNL     1     -11.463  11.872  66.959  1.00  0.00    -0.440 NA 
HETATM   26  C   UNL     1     -11.352  11.896  68.304  1.00  0.00    -0.277 A  
HETATM   27  C   UNL     1     -10.273  11.384  68.992  1.00  0.00    -0.137 A  
ENDBRANCH  15  17
ENDBRANCH  13  15
ENDBRANCH   6   7
ENDBRANCH   3   6
ENDBRANCH   2   3
TORSDOF 6
ENDMDL
MODEL      248
REMARK 921   NORMALIZED FREE ENERGY PREDICTED BY IDOCK:   -3.95 KCAL/MOL
REMARK 922        TOTAL FREE ENERGY PREDICTED BY IDOCK:   -6.34 KCAL/MOL
REMARK 923 INTER-LIGAND FREE ENERGY PREDICTED BY IDOCK:   -5.27 KCAL/MOL
REMARK 924 INTRA-LIGAND FREE ENERGY PREDICTED BY IDOCK:   -1.07 KCAL/MOL
REMARK 927      BINDING AFFINITY PREDICTED BY RF-SCORE:    0.00 PKD
ROOT
HETATM    1  C   UNL     1     -11.025   5.456  73.482  1.00  0.00    -0.323 C  
HETATM    2  C   UNL     1     -11.340   5.632  72.000  1.00  0.00    -0.176 C  
ENDROOT
BRANCH   2   3
HETATM    3  N   UNL     1     -11.543   7.042  71.597  1.00  0.00    -0.270 NA 
BRANCH   3   4
HETATM    4  C   UNL     1     -12.954   7.463  71.659  1.00  0.00    -0.366 C  
HETATM    5  C   UNL     1     -13.221   8.963  71.783  1.00  0.00    -0.427 C  
ENDBRANCH   3   4
BRANCH   3   6
HETATM    6  C   UNL     1     -10.670   7.967  72.364  1.00  0.00    -0.305 C  
BRANCH   6   7
HETATM    7  C   UNL     1      -9.413   8.343  71.604  1.00  0.00    -0.281 A  
HETATM    8  C   UNL     1      -8.196   8.604  72.246  1.00  0.00    -0.039 A  
HETATM    9  C   UNL     1      -7.147   9.192  71.559  1.00  0.00     0.018 A  
HETATM   10  O   UNL     1      -8.030   8.397  73.586  1.00  0.00    -0.305 OA 
HETATM   11  C   UNL     1      -7.307   9.533  70.212  1.00  0.00    -0.135 A  
HETATM   12  H   UNL     1      -7.204   8.574  74.021  1.00  0.00     0.000 HD 
HETATM   13  C   UNL     1      -8.483   9.217  69.516  1.00  0.00    -0.128 A  
HETATM   14  C   UNL     1      -9.507   8.571  70.220  1.00  0.00    -0.176 A  
BRANCH  13  15
HETATM   15  N   UNL     1      -8.688   9.465  68.135  1.00  0.00    -0.124 NA 
HETATM   16  H   UNL     1      -8.401   8.725  67.495  1.00  0.00     0.000 HD 
BRANCH  15  17
HETATM   17  C   UNL     1      -9.250  10.634  67.540  1.00  0.00    -0.143 A  
HETATM   18  C   UNL     1      -8.567  11.872  67.501  1.00  0.00    -0.160 A  
HETATM   19  C   UNL     1      -7.184  11.999  67.764  1.00  0.00    -0.108 A  
HETATM   20  C   UNL     1      -6.589  13.250  67.873  1.00  0.00    -0.145 A  
HETATM   21  C   UNL     1      -7.371  14.381  67.700  1.00  0.00    -0.180 A  
HETATM   22 CL   UNL     1      -6.682  15.937  67.950  1.00  0.00    -0.147 Cl 
HETATM   23  C   UNL     1      -8.713  14.264  67.341  1.00  0.00    -0.217 A  
HETATM   24  C   UNL     1      -9.317  13.024  67.198  1.00  0.00    -0.230 A  
HETATM   25  N   UNL     1     -10.604  12.966  66.813  1.00  0.00    -0.256 NA 
HETATM   26  C   UNL     1     -11.193  11.754  66.736  1.00  0.00    -0.328 A  
HETATM   27  C   UNL     1     -10.579  10.579  67.112  1.00  0.00    -0.319 A  
ENDBRANCH  15  17
ENDBRANCH  13  15
ENDBRANCH   6   7
ENDBRANCH   3   6
ENDBRANCH   2   3
TORSDOF 6
ENDMDL
MODEL      249
REMARK 921   NORMALIZED FREE ENERGY PREDICTED BY IDOCK:   -3.95 KCAL/MOL
REMARK 922        TOTAL FREE ENERGY PREDICTED BY IDOCK:   -6.34 KCAL/MOL
REMARK 923 INTER-LIGAND FREE ENERGY PREDICTED BY IDOCK:   -5.54 KCAL/MOL
REMARK 924 INTRA-LIGAND FREE ENERGY PREDICTED BY IDOCK:   -0.80 KCAL/MOL
REMARK 927      BINDING AFFINITY PREDICTED BY RF-SCORE:    0.00 PKD
ROOT
HETATM    1  C   UNL     1     -11.816  14.497  67.070  1.00  0.00    -0.408 C  
HETATM    2  C   UNL     1     -11.158  13.300  66.391  1.00  0.00    -0.295 C  
ENDROOT
BRANCH   2   3
HETATM    3  N   UNL     1     -10.952  12.143  67.291  1.00  0.00    -0.247 NA 
BRANCH   3   4
HETATM    4  C   UNL     1      -9.889  11.233  66.828  1.00  0.00    -0.199 C  
HETATM    5  C   UNL     1     -10.158  10.458  65.539  1.00  0.00    -0.352 C  
ENDBRANCH   3   4
BRANCH   3   6
HETATM    6  C   UNL     1     -10.726  12.569  68.695  1.00  0.00    -0.234 C  
BRANCH   6   7
HETATM    7  C   UNL     1     -11.494  11.721  69.690  1.00  0.00    -0.341 A  
HETATM    8  C   UNL     1     -12.432  12.265  70.576  1.00  0.00    -0.189 A  
HETATM    9  C   UNL     1     -12.920  11.518  71.635  1.00  0.00    -0.499 A  
HETATM   10  O   UNL     1     -12.818  13.574  70.501  1.00  0.00    -0.192 OA 
HETATM   11  C   UNL     1     -12.466  10.209  71.825  1.00  0.00    -0.455 A  
HETATM   12  H   UNL     1     -13.454  13.943  71.102  1.00  0.00     0.000 HD 
HETATM   13  C   UNL     1     -11.587   9.604  70.915  1.00  0.00    -0.344 A  
HETATM   14  C   UNL     1     -11.153  10.363  69.821  1.00  0.00    -0.352 A  
BRANCH  13  15
HETATM   15  N   UNL     1     -11.143   8.261  71.003  1.00  0.00    -0.245 NA 
HETATM   16  H   UNL     1     -11.814   7.544  70.727  1.00  0.00     0.000 HD 
BRANCH  15  17
HETATM   17  C   UNL     1      -9.864   7.798  71.434  1.00  0.00    -0.167 A  
HETATM   18  C   UNL     1      -8.767   7.661  70.551  1.00  0.00    -0.138 A  
HETATM   19  C   UNL     1      -8.737   8.239  69.261  1.00  0.00    -0.139 A  
HETATM   20  C   UNL     1      -7.713   7.946  68.370  1.00  0.00    -0.114 A  
HETATM   21  C   UNL     1      -6.700   7.088  68.772  1.00  0.00    -0.060 A  
HETATM   22 CL   UNL     1      -5.490   6.617  67.644  1.00  0.00    -0.008 Cl 
HETATM   23  C   UNL     1      -6.668   6.594  70.075  1.00  0.00    -0.049 A  
HETATM   24  C   UNL     1      -7.666   6.900  70.988  1.00  0.00    -0.096 A  
HETATM   25  N   UNL     1      -7.567   6.430  72.243  1.00  0.00    -0.096 NA 
HETATM   26  C   UNL     1      -8.575   6.688  73.102  1.00  0.00    -0.120 A  
HETATM   27  C   UNL     1      -9.741   7.330  72.745  1.00  0.00    -0.203 A  
ENDBRANCH  15  17
ENDBRANCH  13  15
ENDBRANCH   6   7
ENDBRANCH   3   6
ENDBRANCH   2   3
TORSDOF 6
ENDMDL
MODEL      250
REMARK 921   NORMALIZED FREE ENERGY PREDICTED BY IDOCK:   -3.93 KCAL/MOL
REMARK 922        TOTAL FREE ENERGY PREDICTED BY IDOCK:   -6.33 KCAL/MOL
REMARK 923 INTER-LIGAND FREE ENERGY PREDICTED BY IDOCK:   -5.52 KCAL/MOL
REMARK 924 INTRA-LIGAND FREE ENERGY PREDICTED BY IDOCK:   -0.80 KCAL/MOL
REMARK 927      BINDING AFFINITY PREDICTED BY RF-SCORE:    0.00 PKD
ROOT
HETATM    1  C   UNL     1      -8.949   4.058  67.084  1.00  0.00    -0.146 C  
HETATM    2  C   UNL     1      -9.425   5.028  68.160  1.00  0.00    -0.132 C  
ENDROOT
BRANCH   2   3
HETATM    3  N   UNL     1      -8.746   4.852  69.464  1.00  0.00    -0.086 NA 
BRANCH   3   4
HETATM    4  C   UNL     1      -7.606   5.769  69.650  1.00  0.00    -0.076 C  
HETATM    5  C   UNL     1      -6.208   5.158  69.548  1.00  0.00    -0.026 C  
ENDBRANCH   3   4
BRANCH   3   6
HETATM    6  C   UNL     1      -9.699   4.939  70.599  1.00  0.00    -0.201 C  
BRANCH   6   7
HETATM    7  C   UNL     1      -9.877   6.358  71.101  1.00  0.00    -0.198 A  
HETATM    8  C   UNL     1      -9.391   6.782  72.344  1.00  0.00    -0.137 A  
HETATM    9  C   UNL     1      -9.790   7.995  72.882  1.00  0.00    -0.357 A  
HETATM   10  O   UNL     1      -8.602   5.982  73.120  1.00  0.00    -0.119 OA 
HETATM   11  C   UNL     1     -10.691   8.800  72.178  1.00  0.00    -0.383 A  
HETATM   12  H   UNL     1      -8.273   6.269  73.963  1.00  0.00     0.000 HD 
HETATM   13  C   UNL     1     -11.138   8.445  70.897  1.00  0.00    -0.254 A  
HETATM   14  C   UNL     1     -10.675   7.241  70.353  1.00  0.00    -0.253 A  
BRANCH  13  15
HETATM   15  N   UNL     1     -11.993   9.245  70.097  1.00  0.00    -0.454 NA 
HETATM   16  H   UNL     1     -12.958   8.928  70.010  1.00  0.00     0.000 HD 
BRANCH  15  17
HETATM   17  C   UNL     1     -11.655  10.443  69.400  1.00  0.00    -0.202 A  
HETATM   18  C   UNL     1     -10.939  10.437  68.180  1.00  0.00    -0.334 A  
HETATM   19  C   UNL     1     -10.757   9.274  67.396  1.00  0.00    -0.263 A  
HETATM   20  C   UNL     1      -9.913   9.281  66.293  1.00  0.00    -0.357 A  
HETATM   21  C   UNL     1      -9.261  10.456  65.954  1.00  0.00    -0.170 A  
HETATM   22 CL   UNL     1      -8.121  10.454  64.667  1.00  0.00    -0.153 Cl 
HETATM   23  C   UNL     1      -9.512  11.632  66.661  1.00  0.00    -0.213 A  
HETATM   24  C   UNL     1     -10.375  11.652  67.746  1.00  0.00    -0.182 A  
HETATM   25  N   UNL     1     -10.611  12.820  68.368  1.00  0.00    -0.243 NA 
HETATM   26  C   UNL     1     -11.407  12.812  69.459  1.00  0.00    -0.154 A  
HETATM   27  C   UNL     1     -11.919  11.664  70.025  1.00  0.00    -0.429 A  
ENDBRANCH  15  17
ENDBRANCH  13  15
ENDBRANCH   6   7
ENDBRANCH   3   6
ENDBRANCH   2   3
TORSDOF 6
ENDMDL
MODEL      251
REMARK 921   NORMALIZED FREE ENERGY PREDICTED BY IDOCK:   -3.93 KCAL/MOL
REMARK 922        TOTAL FREE ENERGY PREDICTED BY IDOCK:   -6.32 KCAL/MOL
REMARK 923 INTER-LIGAND FREE ENERGY PREDICTED BY IDOCK:   -5.10 KCAL/MOL
REMARK 924 INTRA-LIGAND FREE ENERGY PREDICTED BY IDOCK:   -1.22 KCAL/MOL
REMARK 927      BINDING AFFINITY PREDICTED BY RF-SCORE:    0.00 PKD
ROOT
HETATM    1  C   UNL     1     -11.398  15.328  72.415  1.00  0.00    -0.346 C  
HETATM    2  C   UNL     1     -11.800  15.778  71.015  1.00  0.00    -0.420 C  
ENDROOT
BRANCH   2   3
HETATM    3  N   UNL     1     -11.789  14.689  70.012  1.00  0.00    -0.289 NA 
BRANCH   3   4
HETATM    4  C   UNL     1     -12.426  13.452  70.497  1.00  0.00    -0.279 C  
HETATM    5  C   UNL     1     -11.922  12.138  69.900  1.00  0.00    -0.380 C  
ENDBRANCH   3   4
BRANCH   3   6
HETATM    6  C   UNL     1     -12.371  15.125  68.717  1.00  0.00     0.062 C  
BRANCH   6   7
HETATM    7  C   UNL     1     -11.471  14.807  67.540  1.00  0.00    -0.369 A  
HETATM    8  C   UNL     1     -11.947  14.199  66.372  1.00  0.00    -0.436 A  
HETATM    9  C   UNL     1     -11.068  13.690  65.430  1.00  0.00    -0.304 A  
HETATM   10  O   UNL     1     -13.281  13.985  66.164  1.00  0.00    -0.415 OA 
HETATM   11  C   UNL     1      -9.690  13.779  65.653  1.00  0.00    -0.136 A  
HETATM   12  H   UNL     1     -13.604  13.573  65.371  1.00  0.00     0.000 HD 
HETATM   13  C   UNL     1      -9.175  14.448  66.773  1.00  0.00    -0.268 A  
HETATM   14  C   UNL     1     -10.086  15.004  67.680  1.00  0.00    -0.231 A  
BRANCH  13  15
HETATM   15  N   UNL     1      -7.793  14.640  67.025  1.00  0.00    -0.343 NA 
HETATM   16  H   UNL     1      -7.308  15.296  66.412  1.00  0.00     0.000 HD 
BRANCH  15  17
HETATM   17  C   UNL     1      -7.004  14.021  68.040  1.00  0.00    -0.145 A  
HETATM   18  C   UNL     1      -6.524  12.696  67.928  1.00  0.00    -0.113 A  
HETATM   19  C   UNL     1      -6.516  11.978  66.710  1.00  0.00     0.030 A  
HETATM   20  C   UNL     1      -6.187  10.628  66.678  1.00  0.00    -0.083 A  
HETATM   21  C   UNL     1      -5.844   9.994  67.862  1.00  0.00    -0.038 A  
HETATM   22 CL   UNL     1      -5.552   8.299  67.863  1.00  0.00    -0.034 Cl 
HETATM   23  C   UNL     1      -5.751  10.717  69.050  1.00  0.00    -0.040 A  
HETATM   24  C   UNL     1      -6.046  12.071  69.096  1.00  0.00    -0.080 A  
HETATM   25  N   UNL     1      -5.904  12.730  70.259  1.00  0.00    -0.162 NA 
HETATM   26  C   UNL     1      -6.251  14.033  70.300  1.00  0.00    -0.133 A  
HETATM   27  C   UNL     1      -6.826  14.707  69.245  1.00  0.00    -0.143 A  
ENDBRANCH  15  17
ENDBRANCH  13  15
ENDBRANCH   6   7
ENDBRANCH   3   6
ENDBRANCH   2   3
TORSDOF 6
ENDMDL
MODEL      252
REMARK 921   NORMALIZED FREE ENERGY PREDICTED BY IDOCK:   -3.92 KCAL/MOL
REMARK 922        TOTAL FREE ENERGY PREDICTED BY IDOCK:   -6.31 KCAL/MOL
REMARK 923 INTER-LIGAND FREE ENERGY PREDICTED BY IDOCK:   -5.71 KCAL/MOL
REMARK 924 INTRA-LIGAND FREE ENERGY PREDICTED BY IDOCK:   -0.60 KCAL/MOL
REMARK 927      BINDING AFFINITY PREDICTED BY RF-SCORE:    0.00 PKD
ROOT
HETATM    1  C   UNL     1     -11.415   6.553  70.290  1.00  0.00    -0.474 C  
HETATM    2  C   UNL     1      -9.945   6.949  70.196  1.00  0.00    -0.178 C  
ENDROOT
BRANCH   2   3
HETATM    3  N   UNL     1      -9.733   8.377  69.863  1.00  0.00    -0.178 NA 
BRANCH   3   4
HETATM    4  C   UNL     1      -8.405   8.642  69.280  1.00  0.00    -0.118 C  
HETATM    5  C   UNL     1      -7.225   8.692  70.250  1.00  0.00    -0.049 C  
ENDBRANCH   3   4
BRANCH   3   6
HETATM    6  C   UNL     1     -10.818   8.910  69.002  1.00  0.00    -0.046 C  
BRANCH   6   7
HETATM    7  C   UNL     1     -10.993  10.409  69.151  1.00  0.00    -0.285 A  
HETATM    8  C   UNL     1     -12.001  10.973  69.942  1.00  0.00    -0.351 A  
HETATM    9  C   UNL     1     -12.297  12.323  69.854  1.00  0.00    -0.121 A  
HETATM   10  O   UNL     1     -12.802  10.207  70.742  1.00  0.00    -0.413 OA 
HETATM   11  C   UNL     1     -11.584  13.130  68.961  1.00  0.00    -0.360 A  
HETATM   12  H   UNL     1     -13.486  10.590  71.278  1.00  0.00     0.000 HD 
HETATM   13  C   UNL     1     -10.516  12.617  68.210  1.00  0.00    -0.239 A  
HETATM   14  C   UNL     1     -10.202  11.261  68.361  1.00  0.00    -0.205 A  
BRANCH  13  15
HETATM   15  N   UNL     1      -9.704  13.390  67.342  1.00  0.00    -0.217 NA 
HETATM   16  H   UNL     1     -10.060  13.531  66.396  1.00  0.00     0.000 HD 
BRANCH  15  17
HETATM   17  C   UNL     1      -8.446  13.992  67.641  1.00  0.00    -0.191 A  
HETATM   18  C   UNL     1      -8.151  15.337  67.317  1.00  0.00    -0.229 A  
HETATM   19  C   UNL     1      -9.140  16.280  66.955  1.00  0.00    -0.242 A  
HETATM   20  C   UNL     1      -8.789  17.541  66.490  1.00  0.00    -0.291 A  
HETATM   21  C   UNL     1      -7.447  17.874  66.404  1.00  0.00    -0.273 A  
HETATM   22 CL   UNL     1      -6.989  19.384  65.718  1.00  0.00    -0.293 Cl 
HETATM   23  C   UNL     1      -6.469  16.989  66.854  1.00  0.00    -0.248 A  
HETATM   24  C   UNL     1      -6.801  15.737  67.350  1.00  0.00    -0.201 A  
HETATM   25  N   UNL     1      -5.823  14.936  67.807  1.00  0.00    -0.268 NA 
HETATM   26  C   UNL     1      -6.157  13.699  68.231  1.00  0.00    -0.108 A  
HETATM   27  C   UNL     1      -7.428  13.176  68.141  1.00  0.00    -0.131 A  
ENDBRANCH  15  17
ENDBRANCH  13  15
ENDBRANCH   6   7
ENDBRANCH   3   6
ENDBRANCH   2   3
TORSDOF 6
ENDMDL
MODEL      253
REMARK 921   NORMALIZED FREE ENERGY PREDICTED BY IDOCK:   -3.92 KCAL/MOL
REMARK 922        TOTAL FREE ENERGY PREDICTED BY IDOCK:   -6.31 KCAL/MOL
REMARK 923 INTER-LIGAND FREE ENERGY PREDICTED BY IDOCK:   -5.54 KCAL/MOL
REMARK 924 INTRA-LIGAND FREE ENERGY PREDICTED BY IDOCK:   -0.77 KCAL/MOL
REMARK 927      BINDING AFFINITY PREDICTED BY RF-SCORE:    0.00 PKD
ROOT
HETATM    1  C   UNL     1     -11.827  10.904  68.872  1.00  0.00    -0.340 C  
HETATM    2  C   UNL     1     -11.423  10.425  70.263  1.00  0.00    -0.325 C  
ENDROOT
BRANCH   2   3
HETATM    3  N   UNL     1     -10.103   9.756  70.303  1.00  0.00    -0.262 NA 
BRANCH   3   4
HETATM    4  C   UNL     1     -10.165   8.392  70.859  1.00  0.00    -0.194 C  
HETATM    5  C   UNL     1      -9.950   8.251  72.366  1.00  0.00    -0.379 C  
ENDBRANCH   3   4
BRANCH   3   6
HETATM    6  C   UNL     1      -9.436   9.769  68.977  1.00  0.00    -0.173 C  
BRANCH   6   7
HETATM    7  C   UNL     1      -8.247  10.708  68.935  1.00  0.00    -0.145 A  
HETATM    8  C   UNL     1      -7.180  10.610  69.836  1.00  0.00    -0.102 A  
HETATM    9  C   UNL     1      -6.246  11.628  69.940  1.00  0.00    -0.144 A  
HETATM   10  O   UNL     1      -7.076   9.572  70.719  1.00  0.00    -0.127 OA 
HETATM   11  C   UNL     1      -6.375  12.768  69.140  1.00  0.00    -0.106 A  
HETATM   12  H   UNL     1      -6.352   9.505  71.330  1.00  0.00     0.000 HD 
HETATM   13  C   UNL     1      -7.385  12.868  68.173  1.00  0.00    -0.119 A  
HETATM   14  C   UNL     1      -8.282  11.799  68.049  1.00  0.00    -0.152 A  
BRANCH  13  15
HETATM   15  N   UNL     1      -7.533  13.959  67.279  1.00  0.00    -0.339 NA 
HETATM   16  H   UNL     1      -8.038  13.769  66.413  1.00  0.00     0.000 HD 
BRANCH  15  17
HETATM   17  C   UNL     1      -7.055  15.291  67.453  1.00  0.00    -0.191 A  
HETATM   18  C   UNL     1      -7.895  16.423  67.335  1.00  0.00    -0.179 A  
HETATM   19  C   UNL     1      -9.307  16.340  67.336  1.00  0.00    -0.224 A  
HETATM   20  C   UNL     1     -10.088  17.454  67.056  1.00  0.00    -0.313 A  
HETATM   21  C   UNL     1      -9.463  18.663  66.794  1.00  0.00    -0.316 A  
HETATM   22 CL   UNL     1     -10.406  20.023  66.327  1.00  0.00    -0.578 Cl 
HETATM   23  C   UNL     1      -8.077  18.776  66.890  1.00  0.00    -0.267 A  
HETATM   24  C   UNL     1      -7.282  17.683  67.198  1.00  0.00    -0.180 A  
HETATM   25  N   UNL     1      -5.954  17.855  67.316  1.00  0.00    -0.134 NA 
HETATM   26  C   UNL     1      -5.189  16.770  67.558  1.00  0.00    -0.134 A  
HETATM   27  C   UNL     1      -5.679  15.482  67.603  1.00  0.00    -0.116 A  
ENDBRANCH  15  17
ENDBRANCH  13  15
ENDBRANCH   6   7
ENDBRANCH   3   6
ENDBRANCH   2   3
TORSDOF 6
ENDMDL
MODEL      254
REMARK 921   NORMALIZED FREE ENERGY PREDICTED BY IDOCK:   -3.91 KCAL/MOL
REMARK 922        TOTAL FREE ENERGY PREDICTED BY IDOCK:   -6.30 KCAL/MOL
REMARK 923 INTER-LIGAND FREE ENERGY PREDICTED BY IDOCK:   -5.83 KCAL/MOL
REMARK 924 INTRA-LIGAND FREE ENERGY PREDICTED BY IDOCK:   -0.47 KCAL/MOL
REMARK 927      BINDING AFFINITY PREDICTED BY RF-SCORE:    0.00 PKD
ROOT
HETATM    1  C   UNL     1      -7.368   6.318  67.657  1.00  0.00    -0.084 C  
HETATM    2  C   UNL     1      -7.451   7.636  68.419  1.00  0.00    -0.104 C  
ENDROOT
BRANCH   2   3
HETATM    3  N   UNL     1      -8.596   8.485  68.020  1.00  0.00    -0.134 NA 
BRANCH   3   4
HETATM    4  C   UNL     1      -9.147   9.274  69.136  1.00  0.00    -0.145 C  
HETATM    5  C   UNL     1     -10.621   9.052  69.475  1.00  0.00    -0.231 C  
ENDBRANCH   3   4
BRANCH   3   6
HETATM    6  C   UNL     1      -8.265   9.350  66.859  1.00  0.00    -0.116 C  
BRANCH   6   7
HETATM    7  C   UNL     1      -8.090  10.803  67.250  1.00  0.00    -0.117 A  
HETATM    8  C   UNL     1      -6.969  11.263  67.952  1.00  0.00    -0.073 A  
HETATM    9  C   UNL     1      -6.958  12.528  68.517  1.00  0.00    -0.086 A  
HETATM   10  O   UNL     1      -5.896  10.456  68.204  1.00  0.00    -0.044 OA 
HETATM   11  C   UNL     1      -8.081  13.352  68.388  1.00  0.00    -0.138 A  
HETATM   12  H   UNL     1      -5.136  10.768  68.681  1.00  0.00     0.000 HD 
HETATM   13  C   UNL     1      -9.191  12.956  67.627  1.00  0.00    -0.193 A  
HETATM   14  C   UNL     1      -9.152  11.695  67.019  1.00  0.00    -0.179 A  
BRANCH  13  15
HETATM   15  N   UNL     1     -10.331  13.766  67.393  1.00  0.00    -0.251 NA 
HETATM   16  H   UNL     1     -11.114  13.640  68.035  1.00  0.00     0.000 HD 
BRANCH  15  17
HETATM   17  C   UNL     1     -10.507  14.736  66.362  1.00  0.00    -0.293 A  
HETATM   18  C   UNL     1     -10.202  16.105  66.546  1.00  0.00    -0.304 A  
HETATM   19  C   UNL     1      -9.431  16.586  67.629  1.00  0.00    -0.225 A  
HETATM   20  C   UNL     1      -9.293  17.950  67.858  1.00  0.00    -0.271 A  
HETATM   21  C   UNL     1      -9.910  18.841  66.994  1.00  0.00    -0.325 A  
HETATM   22 CL   UNL     1      -9.852  20.526  67.329  1.00  0.00    -0.605 Cl 
HETATM   23  C   UNL     1     -10.587  18.377  65.867  1.00  0.00    -0.313 A  
HETATM   24  C   UNL     1     -10.709  17.021  65.604  1.00  0.00    -0.144 A  
HETATM   25  N   UNL     1     -11.339  16.629  64.484  1.00  0.00    -0.943 NA 
HETATM   26  C   UNL     1     -11.501  15.305  64.273  1.00  0.00    -0.153 A  
HETATM   27  C   UNL     1     -11.137  14.335  65.182  1.00  0.00    -0.354 A  
ENDBRANCH  15  17
ENDBRANCH  13  15
ENDBRANCH   6   7
ENDBRANCH   3   6
ENDBRANCH   2   3
TORSDOF 6
ENDMDL
MODEL      255
REMARK 921   NORMALIZED FREE ENERGY PREDICTED BY IDOCK:   -3.91 KCAL/MOL
REMARK 922        TOTAL FREE ENERGY PREDICTED BY IDOCK:   -6.29 KCAL/MOL
REMARK 923 INTER-LIGAND FREE ENERGY PREDICTED BY IDOCK:   -5.40 KCAL/MOL
REMARK 924 INTRA-LIGAND FREE ENERGY PREDICTED BY IDOCK:   -0.89 KCAL/MOL
REMARK 927      BINDING AFFINITY PREDICTED BY RF-SCORE:    0.00 PKD
ROOT
HETATM    1  C   UNL     1     -10.540   6.089  71.084  1.00  0.00    -0.303 C  
HETATM    2  C   UNL     1     -11.642   7.086  70.741  1.00  0.00    -0.338 C  
ENDROOT
BRANCH   2   3
HETATM    3  N   UNL     1     -11.146   8.457  70.481  1.00  0.00    -0.254 NA 
BRANCH   3   4
HETATM    4  C   UNL     1     -11.037   9.273  71.703  1.00  0.00    -0.368 C  
HETATM    5  C   UNL     1     -12.196   9.186  72.695  1.00  0.00     0.019 C  
ENDBRANCH   3   4
BRANCH   3   6
HETATM    6  C   UNL     1      -9.869   8.447  69.722  1.00  0.00    -0.187 C  
BRANCH   6   7
HETATM    7  C   UNL     1      -9.972   9.191  68.405  1.00  0.00    -0.202 A  
HETATM    8  C   UNL     1      -9.600   8.615  67.185  1.00  0.00    -0.173 A  
HETATM    9  C   UNL     1      -9.459   9.394  66.048  1.00  0.00    -0.304 A  
HETATM   10  O   UNL     1      -9.255   7.296  67.087  1.00  0.00    -0.128 OA 
HETATM   11  C   UNL     1      -9.686  10.772  66.123  1.00  0.00    -0.253 A  
HETATM   12  H   UNL     1      -9.003   6.905  66.259  1.00  0.00     0.000 HD 
HETATM   13  C   UNL     1     -10.134  11.373  67.308  1.00  0.00    -0.192 A  
HETATM   14  C   UNL     1     -10.323  10.552  68.427  1.00  0.00    -0.199 A  
BRANCH  13  15
HETATM   15  N   UNL     1     -10.453  12.748  67.437  1.00  0.00    -0.228 NA 
HETATM   16  H   UNL     1     -11.170  12.983  68.124  1.00  0.00     0.000 HD 
BRANCH  15  17
HETATM   17  C   UNL     1      -9.886  13.840  66.716  1.00  0.00    -0.275 A  
HETATM   18  C   UNL     1      -8.731  14.527  67.159  1.00  0.00    -0.237 A  
HETATM   19  C   UNL     1      -7.872  14.025  68.164  1.00  0.00    -0.144 A  
HETATM   20  C   UNL     1      -6.845  14.804  68.680  1.00  0.00    -0.103 A  
HETATM   21  C   UNL     1      -6.657  16.083  68.179  1.00  0.00    -0.122 A  
HETATM   22 CL   UNL     1      -5.469  17.106  68.887  1.00  0.00    -0.142 Cl 
HETATM   23  C   UNL     1      -7.434  16.548  67.119  1.00  0.00    -0.217 A  
HETATM   24  C   UNL     1      -8.444  15.773  66.571  1.00  0.00    -0.300 A  
HETATM   25  N   UNL     1      -9.139  16.254  65.525  1.00  0.00    -0.291 NA 
HETATM   26  C   UNL     1     -10.158  15.512  65.041  1.00  0.00    -0.128 A  
HETATM   27  C   UNL     1     -10.585  14.332  65.611  1.00  0.00    -0.328 A  
ENDBRANCH  15  17
ENDBRANCH  13  15
ENDBRANCH   6   7
ENDBRANCH   3   6
ENDBRANCH   2   3
TORSDOF 6
ENDMDL
MODEL      256
REMARK 921   NORMALIZED FREE ENERGY PREDICTED BY IDOCK:   -3.90 KCAL/MOL
REMARK 922        TOTAL FREE ENERGY PREDICTED BY IDOCK:   -6.29 KCAL/MOL
REMARK 923 INTER-LIGAND FREE ENERGY PREDICTED BY IDOCK:   -5.43 KCAL/MOL
REMARK 924 INTRA-LIGAND FREE ENERGY PREDICTED BY IDOCK:   -0.85 KCAL/MOL
REMARK 927      BINDING AFFINITY PREDICTED BY RF-SCORE:    0.00 PKD
ROOT
HETATM    1  C   UNL     1     -10.558  17.415  65.704  1.00  0.00    -0.158 C  
HETATM    2  C   UNL     1     -10.377  17.920  67.132  1.00  0.00    -0.367 C  
ENDROOT
BRANCH   2   3
HETATM    3  N   UNL     1      -9.690  16.958  68.022  1.00  0.00    -0.250 NA 
BRANCH   3   4
HETATM    4  C   UNL     1      -8.280  17.308  68.271  1.00  0.00    -0.237 C  
HETATM    5  C   UNL     1      -7.309  16.146  68.482  1.00  0.00    -0.161 C  
ENDBRANCH   3   4
BRANCH   3   6
HETATM    6  C   UNL     1     -10.430  16.756  69.294  1.00  0.00    -0.331 C  
BRANCH   6   7
HETATM    7  C   UNL     1     -11.099  15.398  69.366  1.00  0.00    -0.283 A  
HETATM    8  C   UNL     1     -12.048  15.079  70.345  1.00  0.00    -0.333 A  
HETATM    9  C   UNL     1     -12.445  13.767  70.545  1.00  0.00    -0.409 A  
HETATM   10  O   UNL     1     -12.535  16.019  71.209  1.00  0.00    -0.546 OA 
HETATM   11  C   UNL     1     -11.885  12.750  69.764  1.00  0.00    -0.380 A  
HETATM   12  H   UNL     1     -13.179  15.802  71.873  1.00  0.00     0.000 HD 
HETATM   13  C   UNL     1     -10.991  13.039  68.723  1.00  0.00    -0.258 A  
HETATM   14  C   UNL     1     -10.651  14.380  68.506  1.00  0.00    -0.256 A  
BRANCH  13  15
HETATM   15  N   UNL     1     -10.442  12.069  67.846  1.00  0.00    -0.197 NA 
HETATM   16  H   UNL     1     -10.777  12.090  66.883  1.00  0.00     0.000 HD 
BRANCH  15  17
HETATM   17  C   UNL     1      -9.475  11.068  68.159  1.00  0.00    -0.172 A  
HETATM   18  C   UNL     1      -8.691  10.433  67.167  1.00  0.00    -0.130 A  
HETATM   19  C   UNL     1      -8.570  10.922  65.847  1.00  0.00    -0.179 A  
HETATM   20  C   UNL     1      -7.923  10.181  64.866  1.00  0.00    -0.150 A  
HETATM   21  C   UNL     1      -7.375   8.953  65.206  1.00  0.00    -0.088 A  
HETATM   22 CL   UNL     1      -6.678   7.967  63.982  1.00  0.00    -0.061 Cl 
HETATM   23  C   UNL     1      -7.402   8.510  66.527  1.00  0.00    -0.084 A  
HETATM   24  C   UNL     1      -8.016   9.250  67.525  1.00  0.00    -0.099 A  
HETATM   25  N   UNL     1      -7.980   8.795  68.790  1.00  0.00    -0.105 NA 
HETATM   26  C   UNL     1      -8.633   9.497  69.739  1.00  0.00    -0.192 A  
HETATM   27  C   UNL     1      -9.409  10.605  69.475  1.00  0.00    -0.008 A  
ENDBRANCH  15  17
ENDBRANCH  13  15
ENDBRANCH   6   7
ENDBRANCH   3   6
ENDBRANCH   2   3
TORSDOF 6
ENDMDL
MODEL      257
REMARK 921   NORMALIZED FREE ENERGY PREDICTED BY IDOCK:   -3.90 KCAL/MOL
REMARK 922        TOTAL FREE ENERGY PREDICTED BY IDOCK:   -6.29 KCAL/MOL
REMARK 923 INTER-LIGAND FREE ENERGY PREDICTED BY IDOCK:   -5.30 KCAL/MOL
REMARK 924 INTRA-LIGAND FREE ENERGY PREDICTED BY IDOCK:   -0.98 KCAL/MOL
REMARK 927      BINDING AFFINITY PREDICTED BY RF-SCORE:    0.00 PKD
ROOT
HETATM    1  C   UNL     1     -12.335  15.171  64.439  1.00  0.00    -0.225 C  
HETATM    2  C   UNL     1     -12.489  13.951  65.341  1.00  0.00    -0.501 C  
ENDROOT
BRANCH   2   3
HETATM    3  N   UNL     1     -11.427  12.936  65.157  1.00  0.00    -0.303 NA 
BRANCH   3   4
HETATM    4  C   UNL     1     -11.636  12.091  63.968  1.00  0.00    -0.411 C  
HETATM    5  C   UNL     1     -10.385  11.646  63.211  1.00  0.00    -0.444 C  
ENDBRANCH   3   4
BRANCH   3   6
HETATM    6  C   UNL     1     -10.074  13.548  65.155  1.00  0.00    -0.256 C  
BRANCH   6   7
HETATM    7  C   UNL     1      -9.287  13.220  66.408  1.00  0.00    -0.185 A  
HETATM    8  C   UNL     1      -8.675  14.207  67.191  1.00  0.00    -0.224 A  
HETATM    9  C   UNL     1      -7.757  13.865  68.170  1.00  0.00    -0.142 A  
HETATM   10  O   UNL     1      -8.869  15.539  66.952  1.00  0.00    -0.216 OA 
HETATM   11  C   UNL     1      -7.434  12.519  68.374  1.00  0.00    -0.127 A  
HETATM   12  H   UNL     1      -8.454  16.208  67.483  1.00  0.00     0.000 HD 
HETATM   13  C   UNL     1      -8.083  11.499  67.664  1.00  0.00    -0.130 A  
HETATM   14  C   UNL     1      -9.049  11.870  66.720  1.00  0.00    -0.197 A  
BRANCH  13  15
HETATM   15  N   UNL     1      -7.860  10.114  67.869  1.00  0.00    -0.100 NA 
HETATM   16  H   UNL     1      -7.162   9.675  67.269  1.00  0.00     0.000 HD 
BRANCH  15  17
HETATM   17  C   UNL     1      -8.502   9.266  68.820  1.00  0.00    -0.129 A  
HETATM   18  C   UNL     1      -8.585   7.863  68.654  1.00  0.00    -0.128 A  
HETATM   19  C   UNL     1      -7.803   7.148  67.718  1.00  0.00    -0.114 A  
HETATM   20  C   UNL     1      -8.033   5.800  67.476  1.00  0.00    -0.102 A  
HETATM   21  C   UNL     1      -9.033   5.153  68.185  1.00  0.00    -0.110 A  
HETATM   22 CL   UNL     1      -9.414   3.517  67.815  1.00  0.00    -0.246 Cl 
HETATM   23  C   UNL     1      -9.741   5.824  69.181  1.00  0.00    -0.189 A  
HETATM   24  C   UNL     1      -9.505   7.162  69.458  1.00  0.00    -0.151 A  
HETATM   25  N   UNL     1     -10.187   7.752  70.454  1.00  0.00    -0.195 NA 
HETATM   26  C   UNL     1      -9.989   9.069  70.671  1.00  0.00    -0.233 A  
HETATM   27  C   UNL     1      -9.193   9.865  69.876  1.00  0.00    -0.245 A  
ENDBRANCH  15  17
ENDBRANCH  13  15
ENDBRANCH   6   7
ENDBRANCH   3   6
ENDBRANCH   2   3
TORSDOF 6
ENDMDL
MODEL      258
REMARK 921   NORMALIZED FREE ENERGY PREDICTED BY IDOCK:   -3.90 KCAL/MOL
REMARK 922        TOTAL FREE ENERGY PREDICTED BY IDOCK:   -6.28 KCAL/MOL
REMARK 923 INTER-LIGAND FREE ENERGY PREDICTED BY IDOCK:   -5.11 KCAL/MOL
REMARK 924 INTRA-LIGAND FREE ENERGY PREDICTED BY IDOCK:   -1.17 KCAL/MOL
REMARK 927      BINDING AFFINITY PREDICTED BY RF-SCORE:    0.00 PKD
ROOT
HETATM    1  C   UNL     1     -11.038   5.449  73.482  1.00  0.00    -0.273 C  
HETATM    2  C   UNL     1     -11.492   5.525  72.027  1.00  0.00    -0.058 C  
ENDROOT
BRANCH   2   3
HETATM    3  N   UNL     1     -11.847   6.892  71.584  1.00  0.00    -0.304 NA 
BRANCH   3   4
HETATM    4  C   UNL     1     -13.265   7.224  71.814  1.00  0.00    -0.312 C  
HETATM    5  C   UNL     1     -13.621   8.708  71.896  1.00  0.00    -0.446 C  
ENDBRANCH   3   4
BRANCH   3   6
HETATM    6  C   UNL     1     -10.950   7.916  72.178  1.00  0.00    -0.281 C  
BRANCH   6   7
HETATM    7  C   UNL     1      -9.870   8.370  71.216  1.00  0.00    -0.255 A  
HETATM    8  C   UNL     1      -8.610   8.801  71.649  1.00  0.00    -0.159 A  
HETATM    9  C   UNL     1      -7.747   9.448  70.780  1.00  0.00    -0.144 A  
HETATM   10  O   UNL     1      -8.226   8.704  72.957  1.00  0.00    -0.402 OA 
HETATM   11  C   UNL     1      -8.141   9.677  69.458  1.00  0.00    -0.129 A  
HETATM   12  H   UNL     1      -7.372   8.997  73.251  1.00  0.00     0.000 HD 
HETATM   13  C   UNL     1      -9.362   9.192  68.968  1.00  0.00    -0.151 A  
HETATM   14  C   UNL     1     -10.191   8.491  69.853  1.00  0.00    -0.204 A  
BRANCH  13  15
HETATM   15  N   UNL     1      -9.794   9.323  67.624  1.00  0.00    -0.167 NA 
HETATM   16  H   UNL     1     -10.594   9.937  67.464  1.00  0.00     0.000 HD 
BRANCH  15  17
HETATM   17  C   UNL     1      -9.238   8.695  66.470  1.00  0.00    -0.187 A  
HETATM   18  C   UNL     1      -9.374   7.310  66.218  1.00  0.00    -0.160 A  
HETATM   19  C   UNL     1     -10.302   6.489  66.898  1.00  0.00    -0.311 A  
HETATM   20  C   UNL     1     -10.290   5.109  66.734  1.00  0.00    -0.306 A  
HETATM   21  C   UNL     1      -9.361   4.545  65.873  1.00  0.00    -0.159 A  
HETATM   22 CL   UNL     1      -9.250   2.833  65.749  1.00  0.00    -0.130 Cl 
HETATM   23  C   UNL     1      -8.510   5.354  65.123  1.00  0.00    -0.150 A  
HETATM   24  C   UNL     1      -8.528   6.735  65.250  1.00  0.00    -0.061 A  
HETATM   25  N   UNL     1      -7.713   7.471  64.475  1.00  0.00    -0.116 NA 
HETATM   26  C   UNL     1      -7.701   8.809  64.653  1.00  0.00    -0.119 A  
HETATM   27  C   UNL     1      -8.409   9.457  65.642  1.00  0.00    -0.129 A  
ENDBRANCH  15  17
ENDBRANCH  13  15
ENDBRANCH   6   7
ENDBRANCH   3   6
ENDBRANCH   2   3
TORSDOF 6
ENDMDL
MODEL      259
REMARK 921   NORMALIZED FREE ENERGY PREDICTED BY IDOCK:   -3.88 KCAL/MOL
REMARK 922        TOTAL FREE ENERGY PREDICTED BY IDOCK:   -6.26 KCAL/MOL
REMARK 923 INTER-LIGAND FREE ENERGY PREDICTED BY IDOCK:   -5.47 KCAL/MOL
REMARK 924 INTRA-LIGAND FREE ENERGY PREDICTED BY IDOCK:   -0.79 KCAL/MOL
REMARK 927      BINDING AFFINITY PREDICTED BY RF-SCORE:    0.00 PKD
ROOT
HETATM    1  C   UNL     1      -5.861   3.205  67.024  1.00  0.00    -0.023 C  
HETATM    2  C   UNL     1      -6.505   2.845  68.359  1.00  0.00    -0.029 C  
ENDROOT
BRANCH   2   3
HETATM    3  N   UNL     1      -7.572   3.782  68.778  1.00  0.00    -0.054 NA 
BRANCH   3   4
HETATM    4  C   UNL     1      -8.913   3.368  68.325  1.00  0.00    -0.137 C  
HETATM    5  C   UNL     1      -9.551   4.199  67.213  1.00  0.00    -0.228 C  
ENDBRANCH   3   4
BRANCH   3   6
HETATM    6  C   UNL     1      -7.548   4.029  70.242  1.00  0.00    -0.045 C  
BRANCH   6   7
HETATM    7  C   UNL     1      -8.643   4.977  70.688  1.00  0.00    -0.125 A  
HETATM    8  C   UNL     1      -9.819   4.531  71.303  1.00  0.00    -0.190 A  
HETATM    9  C   UNL     1     -10.901   5.382  71.462  1.00  0.00    -0.218 A  
HETATM   10  O   UNL     1      -9.991   3.226  71.667  1.00  0.00    -0.165 OA 
HETATM   11  C   UNL     1     -10.817   6.699  70.997  1.00  0.00    -0.289 A  
HETATM   12  H   UNL     1     -10.789   2.923  72.084  1.00  0.00     0.000 HD 
HETATM   13  C   UNL     1      -9.630   7.203  70.447  1.00  0.00    -0.169 A  
HETATM   14  C   UNL     1      -8.533   6.338  70.351  1.00  0.00    -0.134 A  
BRANCH  13  15
HETATM   15  N   UNL     1      -9.450   8.545  70.024  1.00  0.00    -0.163 NA 
HETATM   16  H   UNL     1      -8.499   8.911  70.076  1.00  0.00     0.000 HD 
BRANCH  15  17
HETATM   17  C   UNL     1     -10.447   9.439  69.534  1.00  0.00    -0.218 A  
HETATM   18  C   UNL     1     -10.492   9.863  68.185  1.00  0.00    -0.256 A  
HETATM   19  C   UNL     1      -9.766   9.228  67.151  1.00  0.00    -0.225 A  
HETATM   20  C   UNL     1      -9.713   9.775  65.875  1.00  0.00    -0.332 A  
HETATM   21  C   UNL     1     -10.404  10.950  65.620  1.00  0.00    -0.242 A  
HETATM   22 CL   UNL     1     -10.253  11.706  64.083  1.00  0.00    -0.338 Cl 
HETATM   23  C   UNL     1     -11.204  11.527  66.605  1.00  0.00    -0.336 A  
HETATM   24  C   UNL     1     -11.293  10.979  67.875  1.00  0.00    -0.311 A  
HETATM   25  N   UNL     1     -12.109  11.553  68.777  1.00  0.00    -0.471 NA 
HETATM   26  C   UNL     1     -12.139  11.042  70.026  1.00  0.00    -0.364 A  
HETATM   27  C   UNL     1     -11.319  10.022  70.457  1.00  0.00    -0.409 A  
ENDBRANCH  15  17
ENDBRANCH  13  15
ENDBRANCH   6   7
ENDBRANCH   3   6
ENDBRANCH   2   3
TORSDOF 6
ENDMDL
MODEL      260
REMARK 921   NORMALIZED FREE ENERGY PREDICTED BY IDOCK:   -3.87 KCAL/MOL
REMARK 922        TOTAL FREE ENERGY PREDICTED BY IDOCK:   -6.24 KCAL/MOL
REMARK 923 INTER-LIGAND FREE ENERGY PREDICTED BY IDOCK:   -5.36 KCAL/MOL
REMARK 924 INTRA-LIGAND FREE ENERGY PREDICTED BY IDOCK:   -0.88 KCAL/MOL
REMARK 927      BINDING AFFINITY PREDICTED BY RF-SCORE:    0.00 PKD
ROOT
HETATM    1  C   UNL     1     -11.625  14.657  68.109  1.00  0.00    -0.362 C  
HETATM    2  C   UNL     1     -11.368  13.349  67.367  1.00  0.00    -0.309 C  
ENDROOT
BRANCH   2   3
HETATM    3  N   UNL     1     -10.334  13.455  66.313  1.00  0.00    -0.285 NA 
BRANCH   3   4
HETATM    4  C   UNL     1     -10.884  13.845  65.002  1.00  0.00    -0.382 C  
HETATM    5  C   UNL     1     -11.325  12.712  64.076  1.00  0.00    -0.466 C  
ENDBRANCH   3   4
BRANCH   3   6
HETATM    6  C   UNL     1      -9.220  14.349  66.720  1.00  0.00    -0.268 C  
BRANCH   6   7
HETATM    7  C   UNL     1      -8.210  13.650  67.607  1.00  0.00    -0.178 A  
HETATM    8  C   UNL     1      -7.178  14.337  68.257  1.00  0.00    -0.117 A  
HETATM    9  C   UNL     1      -6.128  13.648  68.843  1.00  0.00    -0.088 A  
HETATM   10  O   UNL     1      -7.103  15.701  68.247  1.00  0.00    -0.108 OA 
HETATM   11  C   UNL     1      -6.097  12.251  68.778  1.00  0.00    -0.068 A  
HETATM   12  H   UNL     1      -6.403  16.168  68.688  1.00  0.00     0.000 HD 
HETATM   13  C   UNL     1      -7.151  11.526  68.203  1.00  0.00    -0.076 A  
HETATM   14  C   UNL     1      -8.227  12.245  67.670  1.00  0.00    -0.166 A  
BRANCH  13  15
HETATM   15  N   UNL     1      -7.221  10.110  68.167  1.00  0.00    -0.080 NA 
HETATM   16  H   UNL     1      -6.347   9.609  68.327  1.00  0.00     0.000 HD 
BRANCH  15  17
HETATM   17  C   UNL     1      -8.377   9.306  67.934  1.00  0.00    -0.116 A  
HETATM   18  C   UNL     1      -9.206   8.843  68.982  1.00  0.00    -0.140 A  
HETATM   19  C   UNL     1      -9.154   9.364  70.296  1.00  0.00    -0.283 A  
HETATM   20  C   UNL     1      -9.870   8.771  71.328  1.00  0.00    -0.336 A  
HETATM   21  C   UNL     1     -10.658   7.666  71.049  1.00  0.00    -0.217 A  
HETATM   22 CL   UNL     1     -11.455   6.845  72.333  1.00  0.00    -0.300 Cl 
HETATM   23  C   UNL     1     -10.794   7.208  69.739  1.00  0.00    -0.261 A  
HETATM   24  C   UNL     1     -10.112   7.806  68.691  1.00  0.00    -0.199 A  
HETATM   25  N   UNL     1     -10.308   7.350  67.442  1.00  0.00    -0.241 NA 
HETATM   26  C   UNL     1      -9.592   7.903  66.440  1.00  0.00    -0.181 A  
HETATM   27  C   UNL     1      -8.607   8.847  66.634  1.00  0.00    -0.130 A  
ENDBRANCH  15  17
ENDBRANCH  13  15
ENDBRANCH   6   7
ENDBRANCH   3   6
ENDBRANCH   2   3
TORSDOF 6
ENDMDL
MODEL      261
REMARK 921   NORMALIZED FREE ENERGY PREDICTED BY IDOCK:   -3.83 KCAL/MOL
REMARK 922        TOTAL FREE ENERGY PREDICTED BY IDOCK:   -6.18 KCAL/MOL
REMARK 923 INTER-LIGAND FREE ENERGY PREDICTED BY IDOCK:   -5.05 KCAL/MOL
REMARK 924 INTRA-LIGAND FREE ENERGY PREDICTED BY IDOCK:   -1.14 KCAL/MOL
REMARK 927      BINDING AFFINITY PREDICTED BY RF-SCORE:    0.00 PKD
ROOT
HETATM    1  C   UNL     1     -12.032  14.656  67.292  1.00  0.00    -0.312 C  
HETATM    2  C   UNL     1     -11.036  13.895  66.423  1.00  0.00    -0.303 C  
ENDROOT
BRANCH   2   3
HETATM    3  N   UNL     1     -10.843  12.485  66.832  1.00  0.00    -0.243 NA 
BRANCH   3   4
HETATM    4  C   UNL     1     -11.619  12.121  68.032  1.00  0.00    -0.348 C  
HETATM    5  C   UNL     1     -11.759  10.630  68.335  1.00  0.00    -0.168 C  
ENDBRANCH   3   4
BRANCH   3   6
HETATM    6  C   UNL     1     -11.105  11.544  65.713  1.00  0.00    -0.210 C  
BRANCH   6   7
HETATM    7  C   UNL     1      -9.852  10.827  65.253  1.00  0.00    -0.329 A  
HETATM    8  C   UNL     1      -9.157  11.197  64.094  1.00  0.00    -0.039 A  
HETATM    9  C   UNL     1      -8.179  10.372  63.563  1.00  0.00    -0.135 A  
HETATM   10  O   UNL     1      -9.485  12.317  63.384  1.00  0.00    -0.673 OA 
HETATM   11  C   UNL     1      -7.888   9.155  64.187  1.00  0.00    -0.128 A  
HETATM   12  H   UNL     1      -9.014  12.567  62.599  1.00  0.00     0.000 HD 
HETATM   13  C   UNL     1      -8.508   8.787  65.391  1.00  0.00    -0.170 A  
HETATM   14  C   UNL     1      -9.451   9.666  65.937  1.00  0.00    -0.296 A  
BRANCH  13  15
HETATM   15  N   UNL     1      -8.210   7.606  66.116  1.00  0.00    -0.117 NA 
HETATM   16  H   UNL     1      -7.225   7.443  66.329  1.00  0.00     0.000 HD 
BRANCH  15  17
HETATM   17  C   UNL     1      -9.130   6.621  66.582  1.00  0.00    -0.145 A  
HETATM   18  C   UNL     1      -9.580   6.573  67.922  1.00  0.00    -0.119 A  
HETATM   19  C   UNL     1      -9.410   7.641  68.832  1.00  0.00    -0.145 A  
HETATM   20  C   UNL     1      -9.721   7.491  70.178  1.00  0.00    -0.172 A  
HETATM   21  C   UNL     1     -10.224   6.276  70.618  1.00  0.00    -0.194 A  
HETATM   22 CL   UNL     1     -10.501   6.029  72.297  1.00  0.00    -0.229 Cl 
HETATM   23  C   UNL     1     -10.490   5.251  69.710  1.00  0.00    -0.340 A  
HETATM   24  C   UNL     1     -10.214   5.394  68.359  1.00  0.00    -0.163 A  
HETATM   25  N   UNL     1     -10.525   4.390  67.521  1.00  0.00     0.242 NA 
HETATM   26  C   UNL     1     -10.196   4.521  66.218  1.00  0.00    -0.239 A  
HETATM   27  C   UNL     1      -9.482   5.585  65.712  1.00  0.00    -0.071 A  
ENDBRANCH  15  17
ENDBRANCH  13  15
ENDBRANCH   6   7
ENDBRANCH   3   6
ENDBRANCH   2   3
TORSDOF 6
ENDMDL
MODEL      262
REMARK 921   NORMALIZED FREE ENERGY PREDICTED BY IDOCK:   -3.83 KCAL/MOL
REMARK 922        TOTAL FREE ENERGY PREDICTED BY IDOCK:   -6.18 KCAL/MOL
REMARK 923 INTER-LIGAND FREE ENERGY PREDICTED BY IDOCK:   -5.87 KCAL/MOL
REMARK 924 INTRA-LIGAND FREE ENERGY PREDICTED BY IDOCK:   -0.31 KCAL/MOL
REMARK 927      BINDING AFFINITY PREDICTED BY RF-SCORE:    0.00 PKD
ROOT
HETATM    1  C   UNL     1      -8.420  19.423  68.721  1.00  0.00    -0.377 C  
HETATM    2  C   UNL     1      -8.611  18.164  67.881  1.00  0.00    -0.254 C  
ENDROOT
BRANCH   2   3
HETATM    3  N   UNL     1      -9.916  17.498  68.093  1.00  0.00    -0.303 NA 
BRANCH   3   4
HETATM    4  C   UNL     1     -10.566  17.088  66.836  1.00  0.00    -0.208 C  
HETATM    5  C   UNL     1     -10.680  18.148  65.741  1.00  0.00    -0.102 C  
ENDBRANCH   3   4
BRANCH   3   6
HETATM    6  C   UNL     1      -9.808  16.361  69.042  1.00  0.00    -0.266 C  
BRANCH   6   7
HETATM    7  C   UNL     1     -10.399  15.082  68.484  1.00  0.00    -0.230 A  
HETATM    8  C   UNL     1     -11.694  14.651  68.799  1.00  0.00    -0.324 A  
HETATM    9  C   UNL     1     -12.107  13.366  68.488  1.00  0.00    -0.283 A  
HETATM   10  O   UNL     1     -12.557  15.431  69.517  1.00  0.00    -0.606 OA 
HETATM   11  C   UNL     1     -11.220  12.489  67.858  1.00  0.00    -0.312 A  
HETATM   12  H   UNL     1     -13.435  15.139  69.731  1.00  0.00     0.000 HD 
HETATM   13  C   UNL     1      -9.943  12.908  67.457  1.00  0.00    -0.215 A  
HETATM   14  C   UNL     1      -9.571  14.229  67.733  1.00  0.00    -0.221 A  
BRANCH  13  15
HETATM   15  N   UNL     1      -9.019  12.097  66.751  1.00  0.00    -0.200 NA 
HETATM   16  H   UNL     1      -8.060  12.093  67.101  1.00  0.00     0.000 HD 
BRANCH  15  17
HETATM   17  C   UNL     1      -9.278  11.285  65.606  1.00  0.00    -0.213 A  
HETATM   18  C   UNL     1      -8.557  10.099  65.336  1.00  0.00    -0.165 A  
HETATM   19  C   UNL     1      -7.745   9.453  66.296  1.00  0.00    -0.097 A  
HETATM   20  C   UNL     1      -6.930   8.385  65.941  1.00  0.00    -0.068 A  
HETATM   21  C   UNL     1      -6.939   7.943  64.627  1.00  0.00    -0.067 A  
HETATM   22 CL   UNL     1      -5.851   6.703  64.141  1.00  0.00    -0.030 Cl 
HETATM   23  C   UNL     1      -7.811   8.508  63.698  1.00  0.00    -0.151 A  
HETATM   24  C   UNL     1      -8.653   9.555  64.041  1.00  0.00    -0.207 A  
HETATM   25  N   UNL     1      -9.501  10.038  63.117  1.00  0.00    -0.269 NA 
HETATM   26  C   UNL     1     -10.272  11.095  63.449  1.00  0.00    -0.380 A  
HETATM   27  C   UNL     1     -10.178  11.764  64.651  1.00  0.00    -0.326 A  
ENDBRANCH  15  17
ENDBRANCH  13  15
ENDBRANCH   6   7
ENDBRANCH   3   6
ENDBRANCH   2   3
TORSDOF 6
ENDMDL
MODEL      263
REMARK 921   NORMALIZED FREE ENERGY PREDICTED BY IDOCK:   -3.82 KCAL/MOL
REMARK 922        TOTAL FREE ENERGY PREDICTED BY IDOCK:   -6.17 KCAL/MOL
REMARK 923 INTER-LIGAND FREE ENERGY PREDICTED BY IDOCK:   -5.39 KCAL/MOL
REMARK 924 INTRA-LIGAND FREE ENERGY PREDICTED BY IDOCK:   -0.78 KCAL/MOL
REMARK 927      BINDING AFFINITY PREDICTED BY RF-SCORE:    0.00 PKD
ROOT
HETATM    1  C   UNL     1     -13.400  14.192  72.738  1.00  0.00    -0.618 C  
HETATM    2  C   UNL     1     -13.655  13.743  71.303  1.00  0.00    -0.103 C  
ENDROOT
BRANCH   2   3
HETATM    3  N   UNL     1     -12.470  13.858  70.423  1.00  0.00    -0.344 NA 
BRANCH   3   4
HETATM    4  C   UNL     1     -11.370  14.626  71.033  1.00  0.00    -0.080 C  
HETATM    5  C   UNL     1     -11.297  16.114  70.692  1.00  0.00    -0.394 C  
ENDBRANCH   3   4
BRANCH   3   6
HETATM    6  C   UNL     1     -12.004  12.530  69.948  1.00  0.00    -0.301 C  
BRANCH   6   7
HETATM    7  C   UNL     1     -11.176  12.625  68.682  1.00  0.00    -0.323 A  
HETATM    8  C   UNL     1     -11.568  13.399  67.583  1.00  0.00    -0.340 A  
HETATM    9  C   UNL     1     -10.934  13.263  66.359  1.00  0.00    -0.301 A  
HETATM   10  O   UNL     1     -12.652  14.230  67.637  1.00  0.00    -0.499 OA 
HETATM   11  C   UNL     1      -9.894  12.338  66.219  1.00  0.00    -0.254 A  
HETATM   12  H   UNL     1     -12.918  14.755  66.892  1.00  0.00     0.000 HD 
HETATM   13  C   UNL     1      -9.422  11.602  67.316  1.00  0.00    -0.168 A  
HETATM   14  C   UNL     1     -10.044  11.801  68.555  1.00  0.00    -0.212 A  
BRANCH  13  15
HETATM   15  N   UNL     1      -8.327  10.703  67.265  1.00  0.00    -0.119 NA 
HETATM   16  H   UNL     1      -7.459  11.070  66.874  1.00  0.00     0.000 HD 
BRANCH  15  17
HETATM   17  C   UNL     1      -8.302   9.344  67.698  1.00  0.00    -0.119 A  
HETATM   18  C   UNL     1      -8.196   8.260  66.795  1.00  0.00    -0.103 A  
HETATM   19  C   UNL     1      -7.810   8.414  65.444  1.00  0.00    -0.108 A  
HETATM   20  C   UNL     1      -7.876   7.348  64.556  1.00  0.00    -0.129 A  
HETATM   21  C   UNL     1      -8.311   6.115  65.018  1.00  0.00    -0.112 A  
HETATM   22 CL   UNL     1      -8.515   4.816  63.910  1.00  0.00    -0.128 Cl 
HETATM   23  C   UNL     1      -8.596   5.929  66.370  1.00  0.00    -0.127 A  
HETATM   24  C   UNL     1      -8.507   6.973  67.278  1.00  0.00    -0.121 A  
HETATM   25  N   UNL     1      -8.756   6.731  68.576  1.00  0.00    -0.125 NA 
HETATM   26  C   UNL     1      -8.722   7.771  69.437  1.00  0.00    -0.135 A  
HETATM   27  C   UNL     1      -8.534   9.080  69.050  1.00  0.00    -0.132 A  
ENDBRANCH  15  17
ENDBRANCH  13  15
ENDBRANCH   6   7
ENDBRANCH   3   6
ENDBRANCH   2   3
TORSDOF 6
ENDMDL
MODEL      264
REMARK 921   NORMALIZED FREE ENERGY PREDICTED BY IDOCK:   -3.81 KCAL/MOL
REMARK 922        TOTAL FREE ENERGY PREDICTED BY IDOCK:   -6.16 KCAL/MOL
REMARK 923 INTER-LIGAND FREE ENERGY PREDICTED BY IDOCK:   -5.02 KCAL/MOL
REMARK 924 INTRA-LIGAND FREE ENERGY PREDICTED BY IDOCK:   -1.15 KCAL/MOL
REMARK 927      BINDING AFFINITY PREDICTED BY RF-SCORE:    0.00 PKD
ROOT
HETATM    1  C   UNL     1      -5.126  12.230  70.759  1.00  0.00    -0.135 C  
HETATM    2  C   UNL     1      -5.864  13.442  70.200  1.00  0.00    -0.148 C  
ENDROOT
BRANCH   2   3
HETATM    3  N   UNL     1      -6.058  13.396  68.733  1.00  0.00    -0.081 NA 
BRANCH   3   4
HETATM    4  C   UNL     1      -5.437  14.535  68.033  1.00  0.00    -0.117 C  
HETATM    5  C   UNL     1      -6.346  15.719  67.702  1.00  0.00    -0.186 C  
ENDBRANCH   3   4
BRANCH   3   6
HETATM    6  C   UNL     1      -5.616  12.101  68.157  1.00  0.00    -0.053 C  
BRANCH   6   7
HETATM    7  C   UNL     1      -6.766  11.300  67.580  1.00  0.00    -0.073 A  
HETATM    8  C   UNL     1      -6.632   9.958  67.202  1.00  0.00    -0.070 A  
HETATM    9  C   UNL     1      -7.612   9.335  66.447  1.00  0.00    -0.093 A  
HETATM   10  O   UNL     1      -5.495   9.247  67.462  1.00  0.00    -0.037 OA 
HETATM   11  C   UNL     1      -8.744  10.056  66.054  1.00  0.00    -0.152 A  
HETATM   12  H   UNL     1      -5.404   8.337  67.206  1.00  0.00     0.000 HD 
HETATM   13  C   UNL     1      -8.949  11.377  66.478  1.00  0.00    -0.189 A  
HETATM   14  C   UNL     1      -7.970  11.964  67.289  1.00  0.00    -0.171 A  
BRANCH  13  15
HETATM   15  N   UNL     1     -10.105  12.143  66.180  1.00  0.00    -0.223 NA 
HETATM   16  H   UNL     1     -10.869  11.648  65.720  1.00  0.00     0.000 HD 
BRANCH  15  17
HETATM   17  C   UNL     1     -10.319  13.527  66.450  1.00  0.00    -0.289 A  
HETATM   18  C   UNL     1     -10.883  13.987  67.663  1.00  0.00    -0.270 A  
HETATM   19  C   UNL     1     -11.004  13.177  68.815  1.00  0.00    -0.298 A  
HETATM   20  C   UNL     1     -11.709  13.617  69.928  1.00  0.00    -0.346 A  
HETATM   21  C   UNL     1     -12.279  14.881  69.904  1.00  0.00    -0.309 A  
HETATM   22 CL   UNL     1     -13.255  15.397  71.222  1.00  0.00    -0.544 Cl 
HETATM   23  C   UNL     1     -12.078  15.725  68.813  1.00  0.00    -0.087 A  
HETATM   24  C   UNL     1     -11.353  15.314  67.705  1.00  0.00    -0.326 A  
HETATM   25  N   UNL     1     -11.157  16.181  66.696  1.00  0.00    -0.049 NA 
HETATM   26  C   UNL     1     -10.499  15.746  65.601  1.00  0.00    -0.383 A  
HETATM   27  C   UNL     1     -10.094  14.442  65.418  1.00  0.00    -0.388 A  
ENDBRANCH  15  17
ENDBRANCH  13  15
ENDBRANCH   6   7
ENDBRANCH   3   6
ENDBRANCH   2   3
TORSDOF 6
ENDMDL
MODEL      265
REMARK 921   NORMALIZED FREE ENERGY PREDICTED BY IDOCK:   -3.76 KCAL/MOL
REMARK 922        TOTAL FREE ENERGY PREDICTED BY IDOCK:   -6.10 KCAL/MOL
REMARK 923 INTER-LIGAND FREE ENERGY PREDICTED BY IDOCK:   -5.28 KCAL/MOL
REMARK 924 INTRA-LIGAND FREE ENERGY PREDICTED BY IDOCK:   -0.81 KCAL/MOL
REMARK 927      BINDING AFFINITY PREDICTED BY RF-SCORE:    0.00 PKD
ROOT
HETATM    1  C   UNL     1     -11.025  14.837  65.294  1.00  0.00    -0.382 C  
HETATM    2  C   UNL     1     -11.891  14.100  66.311  1.00  0.00    -0.411 C  
ENDROOT
BRANCH   2   3
HETATM    3  N   UNL     1     -11.371  14.164  67.695  1.00  0.00    -0.303 NA 
BRANCH   3   4
HETATM    4  C   UNL     1     -11.807  15.370  68.421  1.00  0.00    -0.244 C  
HETATM    5  C   UNL     1     -10.717  16.197  69.101  1.00  0.00    -0.292 C  
ENDBRANCH   3   4
BRANCH   3   6
HETATM    6  C   UNL     1     -11.683  12.930  68.460  1.00  0.00    -0.339 C  
BRANCH   6   7
HETATM    7  C   UNL     1     -10.519  11.959  68.496  1.00  0.00    -0.240 A  
HETATM    8  C   UNL     1      -9.185  12.384  68.473  1.00  0.00    -0.076 A  
HETATM    9  C   UNL     1      -8.159  11.481  68.246  1.00  0.00    -0.148 A  
HETATM   10  O   UNL     1      -8.848  13.705  68.562  1.00  0.00    -0.251 OA 
HETATM   11  C   UNL     1      -8.461  10.133  68.031  1.00  0.00    -0.118 A  
HETATM   12  H   UNL     1      -7.944  13.993  68.547  1.00  0.00     0.000 HD 
HETATM   13  C   UNL     1      -9.777   9.658  68.123  1.00  0.00    -0.146 A  
HETATM   14  C   UNL     1     -10.789  10.582  68.411  1.00  0.00    -0.284 A  
BRANCH  13  15
HETATM   15  N   UNL     1     -10.148   8.295  67.990  1.00  0.00    -0.190 NA 
HETATM   16  H   UNL     1     -10.500   8.010  67.076  1.00  0.00     0.000 HD 
BRANCH  15  17
HETATM   17  C   UNL     1     -10.084   7.279  68.989  1.00  0.00    -0.186 A  
HETATM   18  C   UNL     1      -9.469   6.025  68.760  1.00  0.00    -0.137 A  
HETATM   19  C   UNL     1      -8.616   5.772  67.662  1.00  0.00    -0.101 A  
HETATM   20  C   UNL     1      -8.165   4.487  67.388  1.00  0.00    -0.101 A  
HETATM   21  C   UNL     1      -8.550   3.450  68.224  1.00  0.00    -0.094 A  
HETATM   22 CL   UNL     1      -8.103   1.835  67.834  1.00  0.00    -0.061 Cl 
HETATM   23  C   UNL     1      -9.307   3.706  69.366  1.00  0.00    -0.246 A  
HETATM   24  C   UNL     1      -9.740   4.987  69.672  1.00  0.00    -0.196 A  
HETATM   25  N   UNL     1     -10.436   5.186  70.805  1.00  0.00    -0.226 NA 
HETATM   26  C   UNL     1     -10.900   6.428  71.059  1.00  0.00    -0.262 A  
HETATM   27  C   UNL     1     -10.781   7.485  70.182  1.00  0.00    -0.248 A  
ENDBRANCH  15  17
ENDBRANCH  13  15
ENDBRANCH   6   7
ENDBRANCH   3   6
ENDBRANCH   2   3
TORSDOF 6
ENDMDL
MODEL      266
REMARK 921   NORMALIZED FREE ENERGY PREDICTED BY IDOCK:   -3.75 KCAL/MOL
REMARK 922        TOTAL FREE ENERGY PREDICTED BY IDOCK:   -6.08 KCAL/MOL
REMARK 923 INTER-LIGAND FREE ENERGY PREDICTED BY IDOCK:   -5.36 KCAL/MOL
REMARK 924 INTRA-LIGAND FREE ENERGY PREDICTED BY IDOCK:   -0.73 KCAL/MOL
REMARK 927      BINDING AFFINITY PREDICTED BY RF-SCORE:    0.00 PKD
ROOT
HETATM    1  C   UNL     1      -9.522   4.597  67.352  1.00  0.00    -0.177 C  
HETATM    2  C   UNL     1      -8.751   4.956  68.619  1.00  0.00    -0.093 C  
ENDROOT
BRANCH   2   3
HETATM    3  N   UNL     1      -9.578   5.624  69.650  1.00  0.00    -0.145 NA 
BRANCH   3   4
HETATM    4  C   UNL     1     -10.192   4.677  70.599  1.00  0.00    -0.141 C  
HETATM    5  C   UNL     1      -9.301   4.155  71.725  1.00  0.00    -0.194 C  
ENDBRANCH   3   4
BRANCH   3   6
HETATM    6  C   UNL     1      -8.823   6.687  70.360  1.00  0.00    -0.152 C  
BRANCH   6   7
HETATM    7  C   UNL     1      -9.652   7.935  70.585  1.00  0.00    -0.167 A  
HETATM    8  C   UNL     1     -10.474   8.100  71.706  1.00  0.00    -0.242 A  
HETATM    9  C   UNL     1     -11.407   9.123  71.756  1.00  0.00    -0.451 A  
HETATM   10  O   UNL     1     -10.472   7.205  72.739  1.00  0.00    -0.207 OA 
HETATM   11  C   UNL     1     -11.532   9.997  70.671  1.00  0.00    -0.425 A  
HETATM   12  H   UNL     1     -11.030   7.316  73.499  1.00  0.00     0.000 HD 
HETATM   13  C   UNL     1     -10.673   9.911  69.565  1.00  0.00    -0.242 A  
HETATM   14  C   UNL     1      -9.701   8.903  69.567  1.00  0.00    -0.173 A  
BRANCH  13  15
HETATM   15  N   UNL     1     -10.693  10.806  68.465  1.00  0.00    -0.195 NA 
HETATM   16  H   UNL     1     -10.730  10.382  67.538  1.00  0.00     0.000 HD 
BRANCH  15  17
HETATM   17  C   UNL     1     -10.668  12.232  68.508  1.00  0.00    -0.237 A  
HETATM   18  C   UNL     1      -9.515  12.982  68.179  1.00  0.00    -0.218 A  
HETATM   19  C   UNL     1      -8.403  12.433  67.502  1.00  0.00    -0.173 A  
HETATM   20  C   UNL     1      -7.231  13.162  67.343  1.00  0.00    -0.119 A  
HETATM   21  C   UNL     1      -7.172  14.453  67.843  1.00  0.00    -0.160 A  
HETATM   22 CL   UNL     1      -5.693  15.327  67.764  1.00  0.00    -0.148 Cl 
HETATM   23  C   UNL     1      -8.297  15.038  68.422  1.00  0.00    -0.154 A  
HETATM   24  C   UNL     1      -9.485  14.337  68.562  1.00  0.00    -0.206 A  
HETATM   25  N   UNL     1     -10.551  14.961  69.092  1.00  0.00    -0.241 NA 
HETATM   26  C   UNL     1     -11.681  14.247  69.276  1.00  0.00    -0.321 A  
HETATM   27  C   UNL     1     -11.781  12.894  69.033  1.00  0.00    -0.375 A  
ENDBRANCH  15  17
ENDBRANCH  13  15
ENDBRANCH   6   7
ENDBRANCH   3   6
ENDBRANCH   2   3
TORSDOF 6
ENDMDL
MODEL      267
REMARK 921   NORMALIZED FREE ENERGY PREDICTED BY IDOCK:   -3.75 KCAL/MOL
REMARK 922        TOTAL FREE ENERGY PREDICTED BY IDOCK:   -6.08 KCAL/MOL
REMARK 923 INTER-LIGAND FREE ENERGY PREDICTED BY IDOCK:   -6.33 KCAL/MOL
REMARK 924 INTRA-LIGAND FREE ENERGY PREDICTED BY IDOCK:    0.26 KCAL/MOL
REMARK 927      BINDING AFFINITY PREDICTED BY RF-SCORE:    0.00 PKD
ROOT
HETATM    1  C   UNL     1      -5.479  19.002  70.563  1.00  0.00    -0.237 C  
HETATM    2  C   UNL     1      -6.834  18.692  69.934  1.00  0.00     0.235 C  
ENDROOT
BRANCH   2   3
HETATM    3  N   UNL     1      -6.742  18.101  68.580  1.00  0.00    -0.229 NA 
BRANCH   3   4
HETATM    4  C   UNL     1      -5.413  17.532  68.289  1.00  0.00    -0.147 C  
HETATM    5  C   UNL     1      -5.185  16.075  68.690  1.00  0.00    -0.098 C  
ENDBRANCH   3   4
BRANCH   3   6
HETATM    6  C   UNL     1      -7.820  17.109  68.336  1.00  0.00    -0.244 C  
BRANCH   6   7
HETATM    7  C   UNL     1      -8.721  17.505  67.183  1.00  0.00    -0.247 A  
HETATM    8  C   UNL     1      -9.327  18.764  67.100  1.00  0.00    -0.297 A  
HETATM    9  C   UNL     1     -10.339  19.004  66.184  1.00  0.00    -0.537 A  
HETATM   10  O   UNL     1      -9.031  19.765  67.982  1.00  0.00    -0.317 OA 
HETATM   11  C   UNL     1     -10.761  17.974  65.337  1.00  0.00     0.156 A  
HETATM   12  H   UNL     1      -9.443  20.619  67.926  1.00  0.00     0.000 HD 
HETATM   13  C   UNL     1     -10.125  16.724  65.337  1.00  0.00     0.024 A  
HETATM   14  C   UNL     1      -9.068  16.527  66.234  1.00  0.00    -0.348 A  
BRANCH  13  15
HETATM   15  N   UNL     1     -10.451  15.660  64.458  1.00  0.00    -0.600 NA 
HETATM   16  H   UNL     1     -10.063  15.717  63.516  1.00  0.00     0.000 HD 
BRANCH  15  17
HETATM   17  C   UNL     1     -11.259  14.519  64.742  1.00  0.00    -0.390 A  
HETATM   18  C   UNL     1     -11.461  14.038  66.057  1.00  0.00    -0.340 A  
HETATM   19  C   UNL     1     -11.148  14.792  67.211  1.00  0.00    -0.334 A  
HETATM   20  C   UNL     1     -11.212  14.221  68.476  1.00  0.00    -0.289 A  
HETATM   21  C   UNL     1     -11.610  12.898  68.596  1.00  0.00    -0.316 A  
HETATM   22 CL   UNL     1     -11.579  12.138  70.138  1.00  0.00    -0.276 Cl 
HETATM   23  C   UNL     1     -12.018  12.179  67.473  1.00  0.00    -0.175 A  
HETATM   24  C   UNL     1     -11.990  12.742  66.206  1.00  0.00    -0.395 A  
HETATM   25  N   UNL     1     -12.430  12.018  65.162  1.00  0.00    -0.340 NA 
HETATM   26  C   UNL     1     -12.341  12.559  63.928  1.00  0.00    -0.485 A  
HETATM   27  C   UNL     1     -11.745  13.773  63.665  1.00  0.00    -0.108 A  
ENDBRANCH  15  17
ENDBRANCH  13  15
ENDBRANCH   6   7
ENDBRANCH   3   6
ENDBRANCH   2   3
TORSDOF 6
ENDMDL
MODEL      268
REMARK 921   NORMALIZED FREE ENERGY PREDICTED BY IDOCK:   -3.74 KCAL/MOL
REMARK 922        TOTAL FREE ENERGY PREDICTED BY IDOCK:   -6.07 KCAL/MOL
REMARK 923 INTER-LIGAND FREE ENERGY PREDICTED BY IDOCK:   -6.07 KCAL/MOL
REMARK 924 INTRA-LIGAND FREE ENERGY PREDICTED BY IDOCK:    0.00 KCAL/MOL
REMARK 927      BINDING AFFINITY PREDICTED BY RF-SCORE:    0.00 PKD
ROOT
HETATM    1  C   UNL     1      -6.225   6.808  66.958  1.00  0.00    -0.037 C  
HETATM    2  C   UNL     1      -7.468   7.475  67.539  1.00  0.00    -0.104 C  
ENDROOT
BRANCH   2   3
HETATM    3  N   UNL     1      -8.613   6.553  67.713  1.00  0.00    -0.117 NA 
BRANCH   3   4
HETATM    4  C   UNL     1      -9.076   6.465  69.110  1.00  0.00    -0.131 C  
HETATM    5  C   UNL     1     -10.587   6.515  69.339  1.00  0.00    -0.291 C  
ENDBRANCH   3   4
BRANCH   3   6
HETATM    6  C   UNL     1      -9.731   6.881  66.793  1.00  0.00    -0.177 C  
BRANCH   6   7
HETATM    7  C   UNL     1      -9.381   7.997  65.830  1.00  0.00    -0.010 A  
HETATM    8  C   UNL     1      -8.517   7.810  64.744  1.00  0.00     0.031 A  
HETATM    9  C   UNL     1      -8.017   8.895  64.043  1.00  0.00    -0.153 A  
HETATM   10  O   UNL     1      -8.048   6.573  64.402  1.00  0.00    -0.163 OA 
HETATM   11  C   UNL     1      -8.374  10.191  64.429  1.00  0.00    -0.171 A  
HETATM   12  H   UNL     1      -7.462   6.446  63.665  1.00  0.00     0.000 HD 
HETATM   13  C   UNL     1      -9.297  10.415  65.461  1.00  0.00    -0.197 A  
HETATM   14  C   UNL     1      -9.832   9.298  66.115  1.00  0.00    -0.363 A  
BRANCH  13  15
HETATM   15  N   UNL     1      -9.761  11.695  65.857  1.00  0.00    -0.229 NA 
HETATM   16  H   UNL     1      -9.616  11.946  66.835  1.00  0.00     0.000 HD 
BRANCH  15  17
HETATM   17  C   UNL     1     -10.406  12.672  65.042  1.00  0.00    -0.299 A  
HETATM   18  C   UNL     1     -10.289  14.061  65.284  1.00  0.00    -0.403 A  
HETATM   19  C   UNL     1      -9.311  14.617  66.140  1.00  0.00    -0.265 A  
HETATM   20  C   UNL     1      -9.336  15.966  66.473  1.00  0.00    -0.306 A  
HETATM   21  C   UNL     1     -10.329  16.771  65.936  1.00  0.00    -0.328 A  
HETATM   22 CL   UNL     1     -10.450  18.413  66.431  1.00  0.00    -0.420 Cl 
HETATM   23  C   UNL     1     -11.236  16.253  65.013  1.00  0.00    -0.181 A  
HETATM   24  C   UNL     1     -11.208  14.916  64.644  1.00  0.00    -0.341 A  
HETATM   25  N   UNL     1     -12.080  14.477  63.722  1.00  0.00    -0.462 NA 
HETATM   26  C   UNL     1     -12.078  13.161  63.417  1.00  0.00    -0.486 A  
HETATM   27  C   UNL     1     -11.295  12.227  64.061  1.00  0.00    -0.469 A  
ENDBRANCH  15  17
ENDBRANCH  13  15
ENDBRANCH   6   7
ENDBRANCH   3   6
ENDBRANCH   2   3
TORSDOF 6
ENDMDL
MODEL      269
REMARK 921   NORMALIZED FREE ENERGY PREDICTED BY IDOCK:   -3.74 KCAL/MOL
REMARK 922        TOTAL FREE ENERGY PREDICTED BY IDOCK:   -6.07 KCAL/MOL
REMARK 923 INTER-LIGAND FREE ENERGY PREDICTED BY IDOCK:   -5.49 KCAL/MOL
REMARK 924 INTRA-LIGAND FREE ENERGY PREDICTED BY IDOCK:   -0.58 KCAL/MOL
REMARK 927      BINDING AFFINITY PREDICTED BY RF-SCORE:    0.00 PKD
ROOT
HETATM    1  C   UNL     1      -5.615  12.874  70.410  1.00  0.00    -0.162 C  
HETATM    2  C   UNL     1      -6.342  14.106  69.880  1.00  0.00    -0.141 C  
ENDROOT
BRANCH   2   3
HETATM    3  N   UNL     1      -6.361  14.198  68.403  1.00  0.00    -0.091 NA 
BRANCH   3   4
HETATM    4  C   UNL     1      -5.736  15.432  67.893  1.00  0.00    -0.143 C  
HETATM    5  C   UNL     1      -6.603  16.690  67.884  1.00  0.00    -0.156 C  
ENDBRANCH   3   4
BRANCH   3   6
HETATM    6  C   UNL     1      -5.773  12.992  67.767  1.00  0.00    -0.134 C  
BRANCH   6   7
HETATM    7  C   UNL     1      -6.805  11.914  67.501  1.00  0.00    -0.124 A  
HETATM    8  C   UNL     1      -6.453  10.585  67.238  1.00  0.00    -0.071 A  
HETATM    9  C   UNL     1      -7.389   9.689  66.749  1.00  0.00    -0.091 A  
HETATM   10  O   UNL     1      -5.163  10.146  67.344  1.00  0.00    -0.040 OA 
HETATM   11  C   UNL     1      -8.698  10.119  66.510  1.00  0.00    -0.139 A  
HETATM   12  H   UNL     1      -4.924   9.245  67.165  1.00  0.00     0.000 HD 
HETATM   13  C   UNL     1      -9.107  11.421  66.834  1.00  0.00    -0.175 A  
HETATM   14  C   UNL     1      -8.154  12.289  67.381  1.00  0.00    -0.175 A  
BRANCH  13  15
HETATM   15  N   UNL     1     -10.432  11.904  66.688  1.00  0.00    -0.211 NA 
HETATM   16  H   UNL     1     -11.087  11.661  67.433  1.00  0.00     0.000 HD 
BRANCH  15  17
HETATM   17  C   UNL     1     -10.954  12.691  65.619  1.00  0.00    -0.280 A  
HETATM   18  C   UNL     1     -10.722  14.082  65.516  1.00  0.00    -0.317 A  
HETATM   19  C   UNL     1      -9.730  14.758  66.263  1.00  0.00    -0.326 A  
HETATM   20  C   UNL     1      -9.645  16.145  66.249  1.00  0.00    -0.334 A  
HETATM   21  C   UNL     1     -10.539  16.863  65.471  1.00  0.00    -0.202 A  
HETATM   22 CL   UNL     1     -10.529  18.582  65.534  1.00  0.00    -0.137 Cl 
HETATM   23  C   UNL     1     -11.454  16.202  64.653  1.00  0.00    -0.225 A  
HETATM   24  C   UNL     1     -11.533  14.818  64.630  1.00  0.00    -0.381 A  
HETATM   25  N   UNL     1     -12.407  14.229  63.795  1.00  0.00    -0.759 NA 
HETATM   26  C   UNL     1     -12.513  12.884  63.828  1.00  0.00    -0.347 A  
HETATM   27  C   UNL     1     -11.843  12.084  64.729  1.00  0.00    -0.325 A  
ENDBRANCH  15  17
ENDBRANCH  13  15
ENDBRANCH   6   7
ENDBRANCH   3   6
ENDBRANCH   2   3
TORSDOF 6
ENDMDL
MODEL      270
REMARK 921   NORMALIZED FREE ENERGY PREDICTED BY IDOCK:   -3.74 KCAL/MOL
REMARK 922        TOTAL FREE ENERGY PREDICTED BY IDOCK:   -6.07 KCAL/MOL
REMARK 923 INTER-LIGAND FREE ENERGY PREDICTED BY IDOCK:   -5.68 KCAL/MOL
REMARK 924 INTRA-LIGAND FREE ENERGY PREDICTED BY IDOCK:   -0.39 KCAL/MOL
REMARK 927      BINDING AFFINITY PREDICTED BY RF-SCORE:    0.00 PKD
ROOT
HETATM    1  C   UNL     1     -11.996  14.239  64.753  1.00  0.00    -0.449 C  
HETATM    2  C   UNL     1     -12.270  14.329  66.251  1.00  0.00    -0.410 C  
ENDROOT
BRANCH   2   3
HETATM    3  N   UNL     1     -11.261  13.635  67.084  1.00  0.00    -0.300 NA 
BRANCH   3   4
HETATM    4  C   UNL     1     -11.803  12.456  67.783  1.00  0.00    -0.298 C  
HETATM    5  C   UNL     1     -12.022  12.590  69.290  1.00  0.00    -0.304 C  
ENDBRANCH   3   4
BRANCH   3   6
HETATM    6  C   UNL     1     -10.045  13.290  66.306  1.00  0.00    -0.294 C  
BRANCH   6   7
HETATM    7  C   UNL     1      -9.687  11.821  66.411  1.00  0.00    -0.234 A  
HETATM    8  C   UNL     1     -10.033  10.890  65.424  1.00  0.00    -0.263 A  
HETATM    9  C   UNL     1      -9.924   9.530  65.664  1.00  0.00    -0.269 A  
HETATM   10  O   UNL     1     -10.591  11.273  64.236  1.00  0.00    -0.321 OA 
HETATM   11  C   UNL     1      -9.469   9.083  66.909  1.00  0.00    -0.219 A  
HETATM   12  H   UNL     1     -10.826  10.642  63.567  1.00  0.00     0.000 HD 
HETATM   13  C   UNL     1      -9.040   9.985  67.894  1.00  0.00    -0.131 A  
HETATM   14  C   UNL     1      -9.107  11.353  67.603  1.00  0.00    -0.155 A  
BRANCH  13  15
HETATM   15  N   UNL     1      -8.500   9.603  69.148  1.00  0.00    -0.134 NA 
HETATM   16  H   UNL     1      -7.542   9.897  69.336  1.00  0.00     0.000 HD 
BRANCH  15  17
HETATM   17  C   UNL     1      -9.146   8.854  70.177  1.00  0.00    -0.176 A  
HETATM   18  C   UNL     1      -8.797   7.516  70.477  1.00  0.00    -0.147 A  
HETATM   19  C   UNL     1      -7.610   6.905  70.014  1.00  0.00    -0.099 A  
HETATM   20  C   UNL     1      -7.387   5.546  70.197  1.00  0.00    -0.069 A  
HETATM   21  C   UNL     1      -8.343   4.794  70.862  1.00  0.00    -0.098 A  
HETATM   22 CL   UNL     1      -8.143   3.091  70.993  1.00  0.00    -0.057 Cl 
HETATM   23  C   UNL     1      -9.468   5.407  71.411  1.00  0.00    -0.188 A  
HETATM   24  C   UNL     1      -9.692   6.767  71.265  1.00  0.00    -0.172 A  
HETATM   25  N   UNL     1     -10.774   7.315  71.845  1.00  0.00    -0.214 NA 
HETATM   26  C   UNL     1     -11.009   8.629  71.644  1.00  0.00    -0.308 A  
HETATM   27  C   UNL     1     -10.255   9.423  70.807  1.00  0.00    -0.368 A  
ENDBRANCH  15  17
ENDBRANCH  13  15
ENDBRANCH   6   7
ENDBRANCH   3   6
ENDBRANCH   2   3
TORSDOF 6
ENDMDL
MODEL      271
REMARK 921   NORMALIZED FREE ENERGY PREDICTED BY IDOCK:   -3.73 KCAL/MOL
REMARK 922        TOTAL FREE ENERGY PREDICTED BY IDOCK:   -6.06 KCAL/MOL
REMARK 923 INTER-LIGAND FREE ENERGY PREDICTED BY IDOCK:   -5.68 KCAL/MOL
REMARK 924 INTRA-LIGAND FREE ENERGY PREDICTED BY IDOCK:   -0.38 KCAL/MOL
REMARK 927      BINDING AFFINITY PREDICTED BY RF-SCORE:    0.00 PKD
ROOT
HETATM    1  C   UNL     1     -12.439   8.713  72.405  1.00  0.00    -0.428 C  
HETATM    2  C   UNL     1     -11.347   7.686  72.126  1.00  0.00    -0.293 C  
ENDROOT
BRANCH   2   3
HETATM    3  N   UNL     1     -10.913   7.646  70.711  1.00  0.00    -0.247 NA 
BRANCH   3   4
HETATM    4  C   UNL     1     -11.634   6.637  69.914  1.00  0.00    -0.332 C  
HETATM    5  C   UNL     1     -11.141   6.407  68.486  1.00  0.00    -0.385 C  
ENDBRANCH   3   4
BRANCH   3   6
HETATM    6  C   UNL     1     -10.980   8.986  70.075  1.00  0.00    -0.214 C  
BRANCH   6   7
HETATM    7  C   UNL     1      -9.623   9.479  69.614  1.00  0.00    -0.216 A  
HETATM    8  C   UNL     1      -8.431   8.833  69.964  1.00  0.00    -0.133 A  
HETATM    9  C   UNL     1      -7.206   9.445  69.750  1.00  0.00    -0.076 A  
HETATM   10  O   UNL     1      -8.426   7.637  70.625  1.00  0.00    -0.124 OA 
HETATM   11  C   UNL     1      -7.162  10.723  69.184  1.00  0.00    -0.107 A  
HETATM   12  H   UNL     1      -7.617   7.200  70.863  1.00  0.00     0.000 HD 
HETATM   13  C   UNL     1      -8.329  11.367  68.750  1.00  0.00    -0.096 A  
HETATM   14  C   UNL     1      -9.549  10.702  68.926  1.00  0.00    -0.204 A  
BRANCH  13  15
HETATM   15  N   UNL     1      -8.354  12.629  68.102  1.00  0.00    -0.169 NA 
HETATM   16  H   UNL     1      -8.661  12.631  67.129  1.00  0.00     0.000 HD 
BRANCH  15  17
HETATM   17  C   UNL     1      -7.998  13.894  68.657  1.00  0.00    -0.109 A  
HETATM   18  C   UNL     1      -8.766  15.062  68.443  1.00  0.00    -0.175 A  
HETATM   19  C   UNL     1     -10.085  15.036  67.933  1.00  0.00    -0.226 A  
HETATM   20  C   UNL     1     -10.741  16.211  67.588  1.00  0.00    -0.318 A  
HETATM   21  C   UNL     1     -10.089  17.421  67.772  1.00  0.00    -0.323 A  
HETATM   22 CL   UNL     1     -10.835  18.877  67.240  1.00  0.00    -0.511 Cl 
HETATM   23  C   UNL     1      -8.830  17.462  68.368  1.00  0.00    -0.271 A  
HETATM   24  C   UNL     1      -8.172  16.302  68.747  1.00  0.00    -0.227 A  
HETATM   25  N   UNL     1      -6.976  16.399  69.353  1.00  0.00    -0.223 NA 
HETATM   26  C   UNL     1      -6.323  15.258  69.661  1.00  0.00    -0.154 A  
HETATM   27  C   UNL     1      -6.768  14.002  69.312  1.00  0.00    -0.120 A  
ENDBRANCH  15  17
ENDBRANCH  13  15
ENDBRANCH   6   7
ENDBRANCH   3   6
ENDBRANCH   2   3
TORSDOF 6
ENDMDL
MODEL      272
REMARK 921   NORMALIZED FREE ENERGY PREDICTED BY IDOCK:   -3.71 KCAL/MOL
REMARK 922        TOTAL FREE ENERGY PREDICTED BY IDOCK:   -6.03 KCAL/MOL
REMARK 923 INTER-LIGAND FREE ENERGY PREDICTED BY IDOCK:   -4.97 KCAL/MOL
REMARK 924 INTRA-LIGAND FREE ENERGY PREDICTED BY IDOCK:   -1.05 KCAL/MOL
REMARK 927      BINDING AFFINITY PREDICTED BY RF-SCORE:    0.00 PKD
ROOT
HETATM    1  C   UNL     1     -11.631  13.933  68.163  1.00  0.00    -0.370 C  
HETATM    2  C   UNL     1     -10.336  13.717  67.386  1.00  0.00    -0.244 C  
ENDROOT
BRANCH   2   3
HETATM    3  N   UNL     1     -10.352  12.513  66.524  1.00  0.00    -0.234 NA 
BRANCH   3   4
HETATM    4  C   UNL     1     -10.736  12.806  65.131  1.00  0.00    -0.294 C  
HETATM    5  C   UNL     1     -12.161  12.440  64.718  1.00  0.00    -0.493 C  
ENDBRANCH   3   4
BRANCH   3   6
HETATM    6  C   UNL     1      -9.067  11.772  66.586  1.00  0.00    -0.194 C  
BRANCH   6   7
HETATM    7  C   UNL     1      -9.255  10.317  66.967  1.00  0.00    -0.169 A  
HETATM    8  C   UNL     1      -9.653   9.343  66.043  1.00  0.00    -0.261 A  
HETATM    9  C   UNL     1     -10.064   8.090  66.468  1.00  0.00    -0.270 A  
HETATM   10  O   UNL     1      -9.759   9.617  64.708  1.00  0.00    -0.427 OA 
HETATM   11  C   UNL     1     -10.086   7.798  67.835  1.00  0.00    -0.232 A  
HETATM   12  H   UNL     1     -10.029   8.957  64.081  1.00  0.00     0.000 HD 
HETATM   13  C   UNL     1      -9.622   8.720  68.784  1.00  0.00    -0.158 A  
HETATM   14  C   UNL     1      -9.158   9.958  68.323  1.00  0.00    -0.122 A  
BRANCH  13  15
HETATM   15  N   UNL     1      -9.547   8.466  70.178  1.00  0.00    -0.164 NA 
HETATM   16  H   UNL     1     -10.251   8.921  70.759  1.00  0.00     0.000 HD 
BRANCH  15  17
HETATM   17  C   UNL     1      -8.600   7.645  70.858  1.00  0.00    -0.129 A  
HETATM   18  C   UNL     1      -8.940   6.387  71.410  1.00  0.00    -0.138 A  
HETATM   19  C   UNL     1     -10.133   5.700  71.089  1.00  0.00    -0.262 A  
HETATM   20  C   UNL     1     -10.502   4.549  71.774  1.00  0.00    -0.114 A  
HETATM   21  C   UNL     1      -9.669   4.067  72.771  1.00  0.00    -0.141 A  
HETATM   22 CL   UNL     1     -10.164   2.715  73.711  1.00  0.00    -0.172 Cl 
HETATM   23  C   UNL     1      -8.443   4.680  73.025  1.00  0.00    -0.099 A  
HETATM   24  C   UNL     1      -8.044   5.812  72.331  1.00  0.00    -0.107 A  
HETATM   25  N   UNL     1      -6.835   6.341  72.587  1.00  0.00    -0.073 NA 
HETATM   26  C   UNL     1      -6.487   7.477  71.946  1.00  0.00    -0.042 A  
HETATM   27  C   UNL     1      -7.331   8.174  71.109  1.00  0.00    -0.065 A  
ENDBRANCH  15  17
ENDBRANCH  13  15
ENDBRANCH   6   7
ENDBRANCH   3   6
ENDBRANCH   2   3
TORSDOF 6
ENDMDL
MODEL      273
REMARK 921   NORMALIZED FREE ENERGY PREDICTED BY IDOCK:   -3.71 KCAL/MOL
REMARK 922        TOTAL FREE ENERGY PREDICTED BY IDOCK:   -6.02 KCAL/MOL
REMARK 923 INTER-LIGAND FREE ENERGY PREDICTED BY IDOCK:   -5.52 KCAL/MOL
REMARK 924 INTRA-LIGAND FREE ENERGY PREDICTED BY IDOCK:   -0.50 KCAL/MOL
REMARK 927      BINDING AFFINITY PREDICTED BY RF-SCORE:    0.00 PKD
ROOT
HETATM    1  C   UNL     1      -7.640   2.613  66.882  1.00  0.00    -0.070 C  
HETATM    2  C   UNL     1      -7.909   3.532  68.069  1.00  0.00    -0.068 C  
ENDROOT
BRANCH   2   3
HETATM    3  N   UNL     1      -7.971   2.825  69.368  1.00  0.00    -0.045 NA 
BRANCH   3   4
HETATM    4  C   UNL     1      -6.925   3.260  70.312  1.00  0.00    -0.034 C  
HETATM    5  C   UNL     1      -6.057   4.442  69.881  1.00  0.00    -0.019 C  
ENDBRANCH   3   4
BRANCH   3   6
HETATM    6  C   UNL     1      -9.321   2.912  69.981  1.00  0.00    -0.142 C  
BRANCH   6   7
HETATM    7  C   UNL     1      -9.754   4.343  70.230  1.00  0.00    -0.281 A  
HETATM    8  C   UNL     1      -9.942   4.858  71.518  1.00  0.00    -0.194 A  
HETATM    9  C   UNL     1     -10.581   6.073  71.708  1.00  0.00    -0.277 A  
HETATM   10  O   UNL     1      -9.609   4.144  72.635  1.00  0.00    -0.124 OA 
HETATM   11  C   UNL     1     -11.048   6.788  70.601  1.00  0.00    -0.338 A  
HETATM   12  H   UNL     1      -9.737   4.494  73.509  1.00  0.00     0.000 HD 
HETATM   13  C   UNL     1     -10.810   6.342  69.293  1.00  0.00    -0.342 A  
HETATM   14  C   UNL     1     -10.111   5.140  69.128  1.00  0.00    -0.274 A  
BRANCH  13  15
HETATM   15  N   UNL     1     -11.189   7.050  68.124  1.00  0.00    -0.519 NA 
HETATM   16  H   UNL     1     -12.163   6.957  67.835  1.00  0.00     0.000 HD 
BRANCH  15  17
HETATM   17  C   UNL     1     -10.363   7.878  67.307  1.00  0.00    -0.307 A  
HETATM   18  C   UNL     1     -10.500   9.285  67.265  1.00  0.00    -0.334 A  
HETATM   19  C   UNL     1     -11.237  10.018  68.224  1.00  0.00    -0.195 A  
HETATM   20  C   UNL     1     -11.479  11.375  68.054  1.00  0.00    -0.377 A  
HETATM   21  C   UNL     1     -10.968  12.012  66.934  1.00  0.00    -0.281 A  
HETATM   22 CL   UNL     1     -11.358  13.662  66.643  1.00  0.00    -0.327 Cl 
HETATM   23  C   UNL     1     -10.156  11.320  66.036  1.00  0.00    -0.283 A  
HETATM   24  C   UNL     1      -9.878   9.972  66.205  1.00  0.00    -0.236 A  
HETATM   25  N   UNL     1      -9.059   9.362  65.333  1.00  0.00    -0.212 NA 
HETATM   26  C   UNL     1      -8.845   8.037  65.477  1.00  0.00    -0.061 A  
HETATM   27  C   UNL     1      -9.487   7.255  66.413  1.00  0.00    -0.185 A  
ENDBRANCH  15  17
ENDBRANCH  13  15
ENDBRANCH   6   7
ENDBRANCH   3   6
ENDBRANCH   2   3
TORSDOF 6
ENDMDL
MODEL      274
REMARK 921   NORMALIZED FREE ENERGY PREDICTED BY IDOCK:   -3.69 KCAL/MOL
REMARK 922        TOTAL FREE ENERGY PREDICTED BY IDOCK:   -6.00 KCAL/MOL
REMARK 923 INTER-LIGAND FREE ENERGY PREDICTED BY IDOCK:   -5.27 KCAL/MOL
REMARK 924 INTRA-LIGAND FREE ENERGY PREDICTED BY IDOCK:   -0.73 KCAL/MOL
REMARK 927      BINDING AFFINITY PREDICTED BY RF-SCORE:    0.00 PKD
ROOT
HETATM    1  C   UNL     1     -10.576  15.800  65.935  1.00  0.00    -0.350 C  
HETATM    2  C   UNL     1     -10.210  16.864  66.965  1.00  0.00    -0.297 C  
ENDROOT
BRANCH   2   3
HETATM    3  N   UNL     1     -10.801  16.628  68.301  1.00  0.00    -0.348 NA 
BRANCH   3   4
HETATM    4  C   UNL     1     -11.547  15.359  68.386  1.00  0.00    -0.354 C  
HETATM    5  C   UNL     1     -12.008  14.923  69.777  1.00  0.00    -0.366 C  
ENDBRANCH   3   4
BRANCH   3   6
HETATM    6  C   UNL     1      -9.786  16.731  69.380  1.00  0.00    -0.095 C  
BRANCH   6   7
HETATM    7  C   UNL     1      -8.493  16.022  69.030  1.00  0.00    -0.244 A  
HETATM    8  C   UNL     1      -7.323  16.715  68.696  1.00  0.00    -0.203 A  
HETATM    9  C   UNL     1      -6.244  16.052  68.135  1.00  0.00    -0.127 A  
HETATM   10  O   UNL     1      -7.235  18.075  68.804  1.00  0.00    -0.267 OA 
HETATM   11  C   UNL     1      -6.328  14.677  67.894  1.00  0.00    -0.173 A  
HETATM   12  H   UNL     1      -6.442  18.545  68.578  1.00  0.00     0.000 HD 
HETATM   13  C   UNL     1      -7.452  13.936  68.285  1.00  0.00    -0.118 A  
HETATM   14  C   UNL     1      -8.505  14.622  68.903  1.00  0.00    -0.136 A  
BRANCH  13  15
HETATM   15  N   UNL     1      -7.576  12.531  68.140  1.00  0.00    -0.117 NA 
HETATM   16  H   UNL     1      -6.750  11.979  68.372  1.00  0.00     0.000 HD 
BRANCH  15  17
HETATM   17  C   UNL     1      -8.723  11.804  67.706  1.00  0.00    -0.155 A  
HETATM   18  C   UNL     1      -9.214  10.673  68.400  1.00  0.00    -0.159 A  
HETATM   19  C   UNL     1      -8.817  10.341  69.715  1.00  0.00    -0.070 A  
HETATM   20  C   UNL     1      -9.199   9.138  70.296  1.00  0.00    -0.249 A  
HETATM   21  C   UNL     1      -9.997   8.267  69.570  1.00  0.00    -0.187 A  
HETATM   22 CL   UNL     1     -10.379   6.723  70.222  1.00  0.00    -0.214 Cl 
HETATM   23  C   UNL     1     -10.476   8.630  68.312  1.00  0.00    -0.234 A  
HETATM   24  C   UNL     1     -10.130   9.840  67.729  1.00  0.00    -0.180 A  
HETATM   25  N   UNL     1     -10.650  10.158  66.531  1.00  0.00    -0.154 NA 
HETATM   26  C   UNL     1     -10.258  11.312  65.951  1.00  0.00    -0.249 A  
HETATM   27  C   UNL     1      -9.289  12.141  66.474  1.00  0.00    -0.229 A  
ENDBRANCH  15  17
ENDBRANCH  13  15
ENDBRANCH   6   7
ENDBRANCH   3   6
ENDBRANCH   2   3
TORSDOF 6
ENDMDL
MODEL      275
REMARK 921   NORMALIZED FREE ENERGY PREDICTED BY IDOCK:   -3.68 KCAL/MOL
REMARK 922        TOTAL FREE ENERGY PREDICTED BY IDOCK:   -5.99 KCAL/MOL
REMARK 923 INTER-LIGAND FREE ENERGY PREDICTED BY IDOCK:   -5.49 KCAL/MOL
REMARK 924 INTRA-LIGAND FREE ENERGY PREDICTED BY IDOCK:   -0.50 KCAL/MOL
REMARK 927      BINDING AFFINITY PREDICTED BY RF-SCORE:    0.00 PKD
ROOT
HETATM    1  C   UNL     1      -7.120   6.026  65.348  1.00  0.00    -0.065 C  
HETATM    2  C   UNL     1      -8.028   6.706  66.368  1.00  0.00    -0.106 C  
ENDROOT
BRANCH   2   3
HETATM    3  N   UNL     1      -8.799   7.843  65.815  1.00  0.00    -0.150 NA 
BRANCH   3   4
HETATM    4  C   UNL     1      -9.894   8.282  66.698  1.00  0.00    -0.267 C  
HETATM    5  C   UNL     1     -10.903   7.216  67.126  1.00  0.00    -0.403 C  
ENDBRANCH   3   4
BRANCH   3   6
HETATM    6  C   UNL     1      -7.918   8.978  65.441  1.00  0.00    -0.111 C  
BRANCH   6   7
HETATM    7  C   UNL     1      -8.057  10.155  66.386  1.00  0.00    -0.122 A  
HETATM    8  C   UNL     1      -7.528  10.145  67.682  1.00  0.00    -0.090 A  
HETATM    9  C   UNL     1      -7.889  11.117  68.601  1.00  0.00    -0.138 A  
HETATM   10  O   UNL     1      -6.730   9.129  68.127  1.00  0.00    -0.060 OA 
HETATM   11  C   UNL     1      -8.797  12.114  68.230  1.00  0.00    -0.182 A  
HETATM   12  H   UNL     1      -6.372   9.122  69.006  1.00  0.00     0.000 HD 
HETATM   13  C   UNL     1      -9.288  12.202  66.919  1.00  0.00    -0.203 A  
HETATM   14  C   UNL     1      -8.861  11.240  65.995  1.00  0.00    -0.189 A  
BRANCH  13  15
HETATM   15  N   UNL     1     -10.151  13.226  66.454  1.00  0.00    -0.283 NA 
HETATM   16  H   UNL     1     -10.522  13.111  65.511  1.00  0.00     0.000 HD 
BRANCH  15  17
HETATM   17  C   UNL     1     -10.560  14.399  67.156  1.00  0.00    -0.277 A  
HETATM   18  C   UNL     1      -9.751  15.557  67.237  1.00  0.00    -0.218 A  
HETATM   19  C   UNL     1      -8.630  15.776  66.405  1.00  0.00    -0.346 A  
HETATM   20  C   UNL     1      -7.773  16.847  66.628  1.00  0.00    -0.298 A  
HETATM   21  C   UNL     1      -8.045  17.717  67.673  1.00  0.00    -0.216 A  
HETATM   22 CL   UNL     1      -6.933  18.976  68.040  1.00  0.00    -0.249 Cl 
HETATM   23  C   UNL     1      -9.203  17.567  68.434  1.00  0.00    -0.279 A  
HETATM   24  C   UNL     1     -10.086  16.522  68.207  1.00  0.00    -0.259 A  
HETATM   25  N   UNL     1     -11.207  16.445  68.944  1.00  0.00    -0.327 NA 
HETATM   26  C   UNL     1     -12.026  15.389  68.751  1.00  0.00    -0.253 A  
HETATM   27  C   UNL     1     -11.737  14.340  67.905  1.00  0.00    -0.394 A  
ENDBRANCH  15  17
ENDBRANCH  13  15
ENDBRANCH   6   7
ENDBRANCH   3   6
ENDBRANCH   2   3
TORSDOF 6
ENDMDL
MODEL      276
REMARK 921   NORMALIZED FREE ENERGY PREDICTED BY IDOCK:   -3.68 KCAL/MOL
REMARK 922        TOTAL FREE ENERGY PREDICTED BY IDOCK:   -5.99 KCAL/MOL
REMARK 923 INTER-LIGAND FREE ENERGY PREDICTED BY IDOCK:   -5.44 KCAL/MOL
REMARK 924 INTRA-LIGAND FREE ENERGY PREDICTED BY IDOCK:   -0.55 KCAL/MOL
REMARK 927      BINDING AFFINITY PREDICTED BY RF-SCORE:    0.00 PKD
ROOT
HETATM    1  C   UNL     1      -8.605   5.386  64.344  1.00  0.00    -0.060 C  
HETATM    2  C   UNL     1      -8.120   5.859  65.711  1.00  0.00    -0.121 C  
ENDROOT
BRANCH   2   3
HETATM    3  N   UNL     1      -8.721   5.121  66.845  1.00  0.00    -0.108 NA 
BRANCH   3   4
HETATM    4  C   UNL     1      -7.862   5.103  68.042  1.00  0.00    -0.087 C  
HETATM    5  C   UNL     1      -7.590   3.737  68.673  1.00  0.00    -0.054 C  
ENDBRANCH   3   4
BRANCH   3   6
HETATM    6  C   UNL     1     -10.084   5.616  67.165  1.00  0.00    -0.183 C  
BRANCH   6   7
HETATM    7  C   UNL     1     -10.089   6.591  68.326  1.00  0.00    -0.171 A  
HETATM    8  C   UNL     1     -10.460   6.213  69.622  1.00  0.00    -0.252 A  
HETATM    9  C   UNL     1     -10.703   7.169  70.595  1.00  0.00    -0.255 A  
HETATM   10  O   UNL     1     -10.703   4.910  69.951  1.00  0.00    -0.051 OA 
HETATM   11  C   UNL     1     -10.582   8.526  70.276  1.00  0.00    -0.238 A  
HETATM   12  H   UNL     1     -10.955   4.654  70.831  1.00  0.00     0.000 HD 
HETATM   13  C   UNL     1     -10.139   8.939  69.011  1.00  0.00    -0.197 A  
HETATM   14  C   UNL     1      -9.844   7.950  68.065  1.00  0.00    -0.195 A  
BRANCH  13  15
HETATM   15  N   UNL     1      -9.923  10.291  68.641  1.00  0.00    -0.166 NA 
HETATM   16  H   UNL     1      -8.987  10.526  68.311  1.00  0.00     0.000 HD 
BRANCH  15  17
HETATM   17  C   UNL     1     -10.868  11.360  68.678  1.00  0.00    -0.208 A  
HETATM   18  C   UNL     1     -11.331  12.006  67.509  1.00  0.00    -0.387 A  
HETATM   19  C   UNL     1     -11.149  11.478  66.210  1.00  0.00    -0.321 A  
HETATM   20  C   UNL     1     -11.476  12.222  65.083  1.00  0.00    -0.390 A  
HETATM   21  C   UNL     1     -12.007  13.491  65.249  1.00  0.00    -0.373 A  
HETATM   22 CL   UNL     1     -12.305  14.474  63.869  1.00  0.00    -0.267 Cl 
HETATM   23  C   UNL     1     -12.284  13.980  66.525  1.00  0.00    -0.485 A  
HETATM   24  C   UNL     1     -11.993  13.240  67.661  1.00  0.00    -0.322 A  
HETATM   25  N   UNL     1     -12.315  13.741  68.865  1.00  0.00    -0.186 NA 
HETATM   26  C   UNL     1     -11.972  13.035  69.963  1.00  0.00    -0.312 A  
HETATM   27  C   UNL     1     -11.232  11.873  69.926  1.00  0.00    -0.051 A  
ENDBRANCH  15  17
ENDBRANCH  13  15
ENDBRANCH   6   7
ENDBRANCH   3   6
ENDBRANCH   2   3
TORSDOF 6
ENDMDL
MODEL      277
REMARK 921   NORMALIZED FREE ENERGY PREDICTED BY IDOCK:   -3.68 KCAL/MOL
REMARK 922        TOTAL FREE ENERGY PREDICTED BY IDOCK:   -5.98 KCAL/MOL
REMARK 923 INTER-LIGAND FREE ENERGY PREDICTED BY IDOCK:   -5.05 KCAL/MOL
REMARK 924 INTRA-LIGAND FREE ENERGY PREDICTED BY IDOCK:   -0.93 KCAL/MOL
REMARK 927      BINDING AFFINITY PREDICTED BY RF-SCORE:    0.00 PKD
ROOT
HETATM    1  C   UNL     1     -10.428  15.089  65.400  1.00  0.00    -0.406 C  
HETATM    2  C   UNL     1     -10.391  16.200  66.444  1.00  0.00    -0.315 C  
ENDROOT
BRANCH   2   3
HETATM    3  N   UNL     1     -11.113  15.868  67.693  1.00  0.00    -0.303 NA 
BRANCH   3   4
HETATM    4  C   UNL     1     -11.393  14.428  67.832  1.00  0.00    -0.301 C  
HETATM    5  C   UNL     1     -11.931  13.958  69.184  1.00  0.00    -0.404 C  
ENDBRANCH   3   4
BRANCH   3   6
HETATM    6  C   UNL     1     -10.416  16.401  68.892  1.00  0.00    -0.285 C  
BRANCH   6   7
HETATM    7  C   UNL     1      -8.918  16.177  68.840  1.00  0.00    -0.247 A  
HETATM    8  C   UNL     1      -8.017  17.194  68.503  1.00  0.00    -0.259 A  
HETATM    9  C   UNL     1      -6.695  16.901  68.212  1.00  0.00    -0.159 A  
HETATM   10  O   UNL     1      -8.422  18.489  68.339  1.00  0.00    -0.312 OA 
HETATM   11  C   UNL     1      -6.258  15.573  68.251  1.00  0.00    -0.123 A  
HETATM   12  H   UNL     1      -7.811  19.179  68.110  1.00  0.00     0.000 HD 
HETATM   13  C   UNL     1      -7.111  14.537  68.659  1.00  0.00    -0.113 A  
HETATM   14  C   UNL     1      -8.427  14.870  69.002  1.00  0.00    -0.178 A  
BRANCH  13  15
HETATM   15  N   UNL     1      -6.717  13.181  68.791  1.00  0.00    -0.095 NA 
HETATM   16  H   UNL     1      -6.434  12.882  69.725  1.00  0.00     0.000 HD 
BRANCH  15  17
HETATM   17  C   UNL     1      -6.674  12.188  67.768  1.00  0.00    -0.103 A  
HETATM   18  C   UNL     1      -7.694  11.223  67.601  1.00  0.00    -0.115 A  
HETATM   19  C   UNL     1      -8.964  11.327  68.212  1.00  0.00    -0.172 A  
HETATM   20  C   UNL     1      -9.875  10.280  68.151  1.00  0.00    -0.166 A  
HETATM   21  C   UNL     1      -9.528   9.129  67.460  1.00  0.00    -0.139 A  
HETATM   22 CL   UNL     1     -10.591   7.777  67.476  1.00  0.00    -0.333 Cl 
HETATM   23  C   UNL     1      -8.319   9.057  66.770  1.00  0.00    -0.115 A  
HETATM   24  C   UNL     1      -7.410  10.104  66.794  1.00  0.00    -0.104 A  
HETATM   25  N   UNL     1      -6.276   9.998  66.081  1.00  0.00    -0.071 NA 
HETATM   26  C   UNL     1      -5.376  11.000  66.161  1.00  0.00    -0.137 A  
HETATM   27  C   UNL     1      -5.510  12.085  67.001  1.00  0.00    -0.099 A  
ENDBRANCH  15  17
ENDBRANCH  13  15
ENDBRANCH   6   7
ENDBRANCH   3   6
ENDBRANCH   2   3
TORSDOF 6
ENDMDL
MODEL      278
REMARK 921   NORMALIZED FREE ENERGY PREDICTED BY IDOCK:   -3.65 KCAL/MOL
REMARK 922        TOTAL FREE ENERGY PREDICTED BY IDOCK:   -5.94 KCAL/MOL
REMARK 923 INTER-LIGAND FREE ENERGY PREDICTED BY IDOCK:   -5.44 KCAL/MOL
REMARK 924 INTRA-LIGAND FREE ENERGY PREDICTED BY IDOCK:   -0.50 KCAL/MOL
REMARK 927      BINDING AFFINITY PREDICTED BY RF-SCORE:    0.00 PKD
ROOT
HETATM    1  C   UNL     1      -6.704  16.246  69.353  1.00  0.00    -0.209 C  
HETATM    2  C   UNL     1      -7.311  15.821  68.020  1.00  0.00    -0.125 C  
ENDROOT
BRANCH   2   3
HETATM    3  N   UNL     1      -8.201  14.642  68.119  1.00  0.00    -0.135 NA 
BRANCH   3   4
HETATM    4  C   UNL     1      -8.778  14.244  66.822  1.00  0.00    -0.134 C  
HETATM    5  C   UNL     1     -10.248  14.588  66.588  1.00  0.00    -0.276 C  
ENDBRANCH   3   4
BRANCH   3   6
HETATM    6  C   UNL     1      -7.530  13.498  68.787  1.00  0.00    -0.071 C  
BRANCH   6   7
HETATM    7  C   UNL     1      -7.715  12.196  68.032  1.00  0.00    -0.134 A  
HETATM    8  C   UNL     1      -6.805  11.752  67.066  1.00  0.00    -0.137 A  
HETATM    9  C   UNL     1      -7.128  10.705  66.218  1.00  0.00    -0.137 A  
HETATM   10  O   UNL     1      -5.618  12.393  66.845  1.00  0.00    -0.358 OA 
HETATM   11  C   UNL     1      -8.380  10.090  66.326  1.00  0.00    -0.127 A  
HETATM   12  H   UNL     1      -5.001  12.092  66.189  1.00  0.00     0.000 HD 
HETATM   13  C   UNL     1      -9.286  10.456  67.331  1.00  0.00    -0.145 A  
HETATM   14  C   UNL     1      -8.911  11.479  68.211  1.00  0.00    -0.166 A  
BRANCH  13  15
HETATM   15  N   UNL     1     -10.540   9.829  67.546  1.00  0.00    -0.263 NA 
HETATM   16  H   UNL     1     -11.366  10.376  67.303  1.00  0.00     0.000 HD 
BRANCH  15  17
HETATM   17  C   UNL     1     -10.776   8.521  68.062  1.00  0.00    -0.059 A  
HETATM   18  C   UNL     1     -10.783   8.239  69.448  1.00  0.00    -0.160 A  
HETATM   19  C   UNL     1     -10.860   9.244  70.440  1.00  0.00    -0.302 A  
HETATM   20  C   UNL     1     -10.701   8.934  71.785  1.00  0.00    -0.432 A  
HETATM   21  C   UNL     1     -10.486   7.614  72.148  1.00  0.00    -0.221 A  
HETATM   22 CL   UNL     1     -10.167   7.227  73.793  1.00  0.00    -0.393 Cl 
HETATM   23  C   UNL     1     -10.510   6.604  71.187  1.00  0.00    -0.247 A  
HETATM   24  C   UNL     1     -10.697   6.890  69.843  1.00  0.00    -0.246 A  
HETATM   25  N   UNL     1     -10.750   5.877  68.962  1.00  0.00    -0.294 NA 
HETATM   26  C   UNL     1     -10.874   6.176  67.652  1.00  0.00    -0.332 A  
HETATM   27  C   UNL     1     -10.860   7.461  67.155  1.00  0.00    -0.340 A  
ENDBRANCH  15  17
ENDBRANCH  13  15
ENDBRANCH   6   7
ENDBRANCH   3   6
ENDBRANCH   2   3
TORSDOF 6
ENDMDL
MODEL      279
REMARK 921   NORMALIZED FREE ENERGY PREDICTED BY IDOCK:   -3.64 KCAL/MOL
REMARK 922        TOTAL FREE ENERGY PREDICTED BY IDOCK:   -5.93 KCAL/MOL
REMARK 923 INTER-LIGAND FREE ENERGY PREDICTED BY IDOCK:   -5.22 KCAL/MOL
REMARK 924 INTRA-LIGAND FREE ENERGY PREDICTED BY IDOCK:   -0.71 KCAL/MOL
REMARK 927      BINDING AFFINITY PREDICTED BY RF-SCORE:    0.00 PKD
ROOT
HETATM    1  C   UNL     1      -8.842   4.331  66.094  1.00  0.00    -0.116 C  
HETATM    2  C   UNL     1      -8.241   4.823  67.406  1.00  0.00    -0.105 C  
ENDROOT
BRANCH   2   3
HETATM    3  N   UNL     1      -8.369   6.283  67.610  1.00  0.00    -0.116 NA 
BRANCH   3   4
HETATM    4  C   UNL     1      -7.268   7.050  67.000  1.00  0.00    -0.081 C  
HETATM    5  C   UNL     1      -6.491   7.991  67.920  1.00  0.00    -0.053 C  
ENDBRANCH   3   4
BRANCH   3   6
HETATM    6  C   UNL     1      -9.692   6.790  67.164  1.00  0.00    -0.151 C  
BRANCH   6   7
HETATM    7  C   UNL     1     -10.112   8.045  67.903  1.00  0.00    -0.243 A  
HETATM    8  C   UNL     1     -10.197   8.102  69.300  1.00  0.00    -0.214 A  
HETATM    9  C   UNL     1     -10.825   9.166  69.927  1.00  0.00    -0.242 A  
HETATM   10  O   UNL     1      -9.769   7.073  70.090  1.00  0.00    -0.174 OA 
HETATM   11  C   UNL     1     -11.385  10.189  69.156  1.00  0.00    -0.198 A  
HETATM   12  H   UNL     1      -9.827   7.111  71.037  1.00  0.00     0.000 HD 
HETATM   13  C   UNL     1     -11.252  10.205  67.760  1.00  0.00    -0.133 A  
HETATM   14  C   UNL     1     -10.562   9.147  67.156  1.00  0.00    -0.286 A  
BRANCH  13  15
HETATM   15  N   UNL     1     -11.729  11.245  66.922  1.00  0.00    -0.403 NA 
HETATM   16  H   UNL     1     -12.611  11.069  66.441  1.00  0.00     0.000 HD 
BRANCH  15  17
HETATM   17  C   UNL     1     -11.115  12.509  66.676  1.00  0.00    -0.283 A  
HETATM   18  C   UNL     1     -10.994  13.503  67.675  1.00  0.00    -0.280 A  
HETATM   19  C   UNL     1     -11.183  13.242  69.051  1.00  0.00    -0.320 A  
HETATM   20  C   UNL     1     -11.213  14.277  69.978  1.00  0.00    -0.154 A  
HETATM   21  C   UNL     1     -11.033  15.578  69.535  1.00  0.00    -0.273 A  
HETATM   22 CL   UNL     1     -11.187  16.882  70.646  1.00  0.00     0.191 Cl 
HETATM   23  C   UNL     1     -10.744  15.835  68.195  1.00  0.00    -0.285 A  
HETATM   24  C   UNL     1     -10.680  14.812  67.262  1.00  0.00    -0.294 A  
HETATM   25  N   UNL     1     -10.361  15.110  65.990  1.00  0.00    -0.293 NA 
HETATM   26  C   UNL     1     -10.361  14.111  65.082  1.00  0.00    -0.405 A  
HETATM   27  C   UNL     1     -10.754  12.820  65.362  1.00  0.00    -0.309 A  
ENDBRANCH  15  17
ENDBRANCH  13  15
ENDBRANCH   6   7
ENDBRANCH   3   6
ENDBRANCH   2   3
TORSDOF 6
ENDMDL
MODEL      280
REMARK 921   NORMALIZED FREE ENERGY PREDICTED BY IDOCK:   -3.58 KCAL/MOL
REMARK 922        TOTAL FREE ENERGY PREDICTED BY IDOCK:   -5.85 KCAL/MOL
REMARK 923 INTER-LIGAND FREE ENERGY PREDICTED BY IDOCK:   -4.78 KCAL/MOL
REMARK 924 INTRA-LIGAND FREE ENERGY PREDICTED BY IDOCK:   -1.07 KCAL/MOL
REMARK 927      BINDING AFFINITY PREDICTED BY RF-SCORE:    0.00 PKD
ROOT
HETATM    1  C   UNL     1     -12.267  13.996  66.584  1.00  0.00    -0.463 C  
HETATM    2  C   UNL     1     -11.107  13.516  65.717  1.00  0.00    -0.286 C  
ENDROOT
BRANCH   2   3
HETATM    3  N   UNL     1     -10.466  12.277  66.212  1.00  0.00    -0.233 NA 
BRANCH   3   4
HETATM    4  C   UNL     1     -10.553  12.127  67.675  1.00  0.00    -0.210 C  
HETATM    5  C   UNL     1     -10.774  10.713  68.211  1.00  0.00    -0.260 C  
ENDBRANCH   3   4
BRANCH   3   6
HETATM    6  C   UNL     1     -10.981  11.072  65.514  1.00  0.00    -0.016 C  
BRANCH   6   7
HETATM    7  C   UNL     1      -9.933  10.417  64.636  1.00  0.00    -0.408 A  
HETATM    8  C   UNL     1      -9.857  10.649  63.257  1.00  0.00    -0.312 A  
HETATM    9  C   UNL     1      -9.067   9.849  62.448  1.00  0.00    -0.308 A  
HETATM   10  O   UNL     1     -10.634  11.589  62.640  1.00  0.00    -0.491 OA 
HETATM   11  C   UNL     1      -8.343   8.795  63.015  1.00  0.00    -0.175 A  
HETATM   12  H   UNL     1     -10.583  11.746  61.705  1.00  0.00     0.000 HD 
HETATM   13  C   UNL     1      -8.333   8.581  64.401  1.00  0.00    -0.116 A  
HETATM   14  C   UNL     1      -9.095   9.441  65.201  1.00  0.00    -0.280 A  
BRANCH  13  15
HETATM   15  N   UNL     1      -7.566   7.581  65.051  1.00  0.00    -0.091 NA 
HETATM   16  H   UNL     1      -7.334   6.758  64.496  1.00  0.00     0.000 HD 
BRANCH  15  17
HETATM   17  C   UNL     1      -7.083   7.597  66.393  1.00  0.00    -0.071 A  
HETATM   18  C   UNL     1      -7.618   6.765  67.404  1.00  0.00    -0.105 A  
HETATM   19  C   UNL     1      -8.448   5.653  67.131  1.00  0.00    -0.110 A  
HETATM   20  C   UNL     1      -9.080   4.964  68.158  1.00  0.00    -0.134 A  
HETATM   21  C   UNL     1      -8.870   5.370  69.466  1.00  0.00    -0.105 A  
HETATM   22 CL   UNL     1      -9.737   4.607  70.741  1.00  0.00    -0.254 Cl 
HETATM   23  C   UNL     1      -7.975   6.399  69.751  1.00  0.00    -0.119 A  
HETATM   24  C   UNL     1      -7.311   7.079  68.742  1.00  0.00    -0.093 A  
HETATM   25  N   UNL     1      -6.430   8.039  69.073  1.00  0.00    -0.039 NA 
HETATM   26  C   UNL     1      -5.837   8.731  68.077  1.00  0.00    -0.046 A  
HETATM   27  C   UNL     1      -6.147   8.573  66.744  1.00  0.00    -0.054 A  
ENDBRANCH  15  17
ENDBRANCH  13  15
ENDBRANCH   6   7
ENDBRANCH   3   6
ENDBRANCH   2   3
TORSDOF 6
ENDMDL
MODEL      281
REMARK 921   NORMALIZED FREE ENERGY PREDICTED BY IDOCK:   -3.57 KCAL/MOL
REMARK 922        TOTAL FREE ENERGY PREDICTED BY IDOCK:   -5.83 KCAL/MOL
REMARK 923 INTER-LIGAND FREE ENERGY PREDICTED BY IDOCK:   -4.94 KCAL/MOL
REMARK 924 INTRA-LIGAND FREE ENERGY PREDICTED BY IDOCK:   -0.89 KCAL/MOL
REMARK 927      BINDING AFFINITY PREDICTED BY RF-SCORE:    0.00 PKD
ROOT
HETATM    1  C   UNL     1      -6.064   9.173  65.575  1.00  0.00    -0.059 C  
HETATM    2  C   UNL     1      -6.917  10.022  64.638  1.00  0.00    -0.137 C  
ENDROOT
BRANCH   2   3
HETATM    3  N   UNL     1      -8.091  10.639  65.296  1.00  0.00    -0.128 NA 
BRANCH   3   4
HETATM    4  C   UNL     1      -9.374  10.086  64.825  1.00  0.00    -0.271 C  
HETATM    5  C   UNL     1     -10.240  11.000  63.959  1.00  0.00    -0.420 C  
ENDBRANCH   3   4
BRANCH   3   6
HETATM    6  C   UNL     1      -7.989  10.580  66.777  1.00  0.00    -0.121 C  
BRANCH   6   7
HETATM    7  C   UNL     1      -9.346  10.563  67.451  1.00  0.00    -0.158 A  
HETATM    8  C   UNL     1     -10.098  11.725  67.658  1.00  0.00    -0.193 A  
HETATM    9  C   UNL     1     -11.200  11.716  68.498  1.00  0.00    -0.312 A  
HETATM   10  O   UNL     1      -9.720  12.930  67.135  1.00  0.00    -0.212 OA 
HETATM   11  C   UNL     1     -11.560  10.533  69.151  1.00  0.00    -0.295 A  
HETATM   12  H   UNL     1     -10.230  13.719  67.275  1.00  0.00     0.000 HD 
HETATM   13  C   UNL     1     -10.878   9.331  68.909  1.00  0.00    -0.099 A  
HETATM   14  C   UNL     1      -9.804   9.357  68.011  1.00  0.00    -0.191 A  
BRANCH  13  15
HETATM   15  N   UNL     1     -11.232   8.081  69.478  1.00  0.00    -0.441 NA 
HETATM   16  H   UNL     1     -11.858   7.495  68.926  1.00  0.00     0.000 HD 
BRANCH  15  17
HETATM   17  C   UNL     1     -10.811   7.551  70.734  1.00  0.00    -0.242 A  
HETATM   18  C   UNL     1      -9.920   6.458  70.838  1.00  0.00    -0.211 A  
HETATM   19  C   UNL     1      -9.142   5.989  69.754  1.00  0.00    -0.145 A  
HETATM   20  C   UNL     1      -8.405   4.816  69.858  1.00  0.00    -0.072 A  
HETATM   21  C   UNL     1      -8.426   4.115  71.053  1.00  0.00    -0.083 A  
HETATM   22 CL   UNL     1      -7.619   2.600  71.163  1.00  0.00    -0.036 Cl 
HETATM   23  C   UNL     1      -9.108   4.622  72.158  1.00  0.00    -0.151 A  
HETATM   24  C   UNL     1      -9.825   5.807  72.083  1.00  0.00    -0.156 A  
HETATM   25  N   UNL     1     -10.433   6.271  73.187  1.00  0.00    -0.224 NA 
HETATM   26  C   UNL     1     -11.175   7.394  73.083  1.00  0.00    -0.247 A  
HETATM   27  C   UNL     1     -11.417   8.044  71.892  1.00  0.00    -0.341 A  
ENDBRANCH  15  17
ENDBRANCH  13  15
ENDBRANCH   6   7
ENDBRANCH   3   6
ENDBRANCH   2   3
TORSDOF 6
ENDMDL
MODEL      282
REMARK 921   NORMALIZED FREE ENERGY PREDICTED BY IDOCK:   -3.56 KCAL/MOL
REMARK 922        TOTAL FREE ENERGY PREDICTED BY IDOCK:   -5.82 KCAL/MOL
REMARK 923 INTER-LIGAND FREE ENERGY PREDICTED BY IDOCK:   -5.64 KCAL/MOL
REMARK 924 INTRA-LIGAND FREE ENERGY PREDICTED BY IDOCK:   -0.19 KCAL/MOL
REMARK 927      BINDING AFFINITY PREDICTED BY RF-SCORE:    0.00 PKD
ROOT
HETATM    1  C   UNL     1     -10.252  16.661  67.024  1.00  0.00    -0.290 C  
HETATM    2  C   UNL     1     -11.113  15.493  67.494  1.00  0.00    -0.305 C  
ENDROOT
BRANCH   2   3
HETATM    3  N   UNL     1     -10.509  14.166  67.235  1.00  0.00    -0.271 NA 
BRANCH   3   4
HETATM    4  C   UNL     1      -9.539  13.762  68.269  1.00  0.00    -0.219 C  
HETATM    5  C   UNL     1      -8.115  13.465  67.799  1.00  0.00    -0.173 C  
ENDBRANCH   3   4
BRANCH   3   6
HETATM    6  C   UNL     1     -11.542  13.120  67.026  1.00  0.00    -0.359 C  
BRANCH   6   7
HETATM    7  C   UNL     1     -11.897  12.391  68.306  1.00  0.00    -0.364 A  
HETATM    8  C   UNL     1     -12.406  13.051  69.431  1.00  0.00     0.027 A  
HETATM    9  C   UNL     1     -12.475  12.410  70.657  1.00  0.00    -0.320 A  
HETATM   10  O   UNL     1     -12.749  14.373  69.396  1.00  0.00    -0.530 OA 
HETATM   11  C   UNL     1     -12.025  11.090  70.772  1.00  0.00    -0.436 A  
HETATM   12  H   UNL     1     -13.094  14.821  70.159  1.00  0.00     0.000 HD 
HETATM   13  C   UNL     1     -11.581  10.372  69.653  1.00  0.00    -0.239 A  
HETATM   14  C   UNL     1     -11.576  11.026  68.415  1.00  0.00    -0.372 A  
BRANCH  13  15
HETATM   15  N   UNL     1     -11.181   9.012  69.681  1.00  0.00    -0.434 NA 
HETATM   16  H   UNL     1     -11.493   8.466  70.484  1.00  0.00     0.000 HD 
BRANCH  15  17
HETATM   17  C   UNL     1     -10.391   8.322  68.715  1.00  0.00    -0.205 A  
HETATM   18  C   UNL     1      -9.078   8.725  68.377  1.00  0.00    -0.141 A  
HETATM   19  C   UNL     1      -8.325   9.636  69.154  1.00  0.00    -0.130 A  
HETATM   20  C   UNL     1      -7.107  10.126  68.700  1.00  0.00    -0.074 A  
HETATM   21  C   UNL     1      -6.625   9.693  67.475  1.00  0.00    -0.070 A  
HETATM   22 CL   UNL     1      -5.181  10.379  66.841  1.00  0.00    -0.040 Cl 
HETATM   23  C   UNL     1      -7.311   8.720  66.749  1.00  0.00    -0.082 A  
HETATM   24  C   UNL     1      -8.512   8.197  67.200  1.00  0.00    -0.124 A  
HETATM   25  N   UNL     1      -9.114   7.233  66.482  1.00  0.00    -0.150 NA 
HETATM   26  C   UNL     1     -10.312   6.776  66.904  1.00  0.00    -0.254 A  
HETATM   27  C   UNL     1     -10.996   7.300  67.979  1.00  0.00    -0.081 A  
ENDBRANCH  15  17
ENDBRANCH  13  15
ENDBRANCH   6   7
ENDBRANCH   3   6
ENDBRANCH   2   3
TORSDOF 6
ENDMDL
MODEL      283
REMARK 921   NORMALIZED FREE ENERGY PREDICTED BY IDOCK:   -3.53 KCAL/MOL
REMARK 922        TOTAL FREE ENERGY PREDICTED BY IDOCK:   -5.78 KCAL/MOL
REMARK 923 INTER-LIGAND FREE ENERGY PREDICTED BY IDOCK:   -4.95 KCAL/MOL
REMARK 924 INTRA-LIGAND FREE ENERGY PREDICTED BY IDOCK:   -0.83 KCAL/MOL
REMARK 927      BINDING AFFINITY PREDICTED BY RF-SCORE:    0.00 PKD
ROOT
HETATM    1  C   UNL     1     -10.718   7.359  66.845  1.00  0.00    -0.324 C  
HETATM    2  C   UNL     1     -10.447   8.827  67.157  1.00  0.00    -0.283 C  
ENDROOT
BRANCH   2   3
HETATM    3  N   UNL     1      -9.702   9.535  66.091  1.00  0.00    -0.237 NA 
BRANCH   3   4
HETATM    4  C   UNL     1     -10.183  10.910  65.867  1.00  0.00    -0.257 C  
HETATM    5  C   UNL     1     -11.071  11.515  66.954  1.00  0.00    -0.366 C  
ENDBRANCH   3   4
BRANCH   3   6
HETATM    6  C   UNL     1      -8.237   9.508  66.329  1.00  0.00    -0.115 C  
BRANCH   6   7
HETATM    7  C   UNL     1      -7.882   9.711  67.788  1.00  0.00    -0.094 A  
HETATM    8  C   UNL     1      -7.353  10.913  68.273  1.00  0.00    -0.087 A  
HETATM    9  C   UNL     1      -6.802  10.983  69.542  1.00  0.00    -0.133 A  
HETATM   10  O   UNL     1      -7.256  12.027  67.487  1.00  0.00    -0.107 OA 
HETATM   11  C   UNL     1      -6.769   9.838  70.345  1.00  0.00    -0.123 A  
HETATM   12  H   UNL     1      -6.897  12.842  67.815  1.00  0.00     0.000 HD 
HETATM   13  C   UNL     1      -7.359   8.637  69.924  1.00  0.00    -0.052 A  
HETATM   14  C   UNL     1      -7.960   8.610  68.660  1.00  0.00    -0.115 A  
BRANCH  13  15
HETATM   15  N   UNL     1      -7.428   7.460  70.712  1.00  0.00    -0.077 NA 
HETATM   16  H   UNL     1      -6.826   6.688  70.425  1.00  0.00     0.000 HD 
BRANCH  15  17
HETATM   17  C   UNL     1      -8.243   7.233  71.860  1.00  0.00    -0.103 A  
HETATM   18  C   UNL     1      -9.640   7.026  71.773  1.00  0.00    -0.161 A  
HETATM   19  C   UNL     1     -10.302   6.727  70.561  1.00  0.00    -0.226 A  
HETATM   20  C   UNL     1     -11.689   6.691  70.494  1.00  0.00    -0.453 A  
HETATM   21  C   UNL     1     -12.422   6.935  71.645  1.00  0.00    -0.375 A  
HETATM   22 CL   UNL     1     -14.138   7.015  71.557  1.00  0.00    -0.440 Cl 
HETATM   23  C   UNL     1     -11.777   7.131  72.865  1.00  0.00    -0.013 A  
HETATM   24  C   UNL     1     -10.394   7.140  72.957  1.00  0.00    -0.271 A  
HETATM   25  N   UNL     1      -9.822   7.295  74.163  1.00  0.00    -0.219 NA 
HETATM   26  C   UNL     1      -8.476   7.360  74.228  1.00  0.00    -0.212 A  
HETATM   27  C   UNL     1      -7.655   7.366  73.121  1.00  0.00    -0.107 A  
ENDBRANCH  15  17
ENDBRANCH  13  15
ENDBRANCH   6   7
ENDBRANCH   3   6
ENDBRANCH   2   3
TORSDOF 6
ENDMDL
MODEL      284
REMARK 921   NORMALIZED FREE ENERGY PREDICTED BY IDOCK:   -3.50 KCAL/MOL
REMARK 922        TOTAL FREE ENERGY PREDICTED BY IDOCK:   -5.74 KCAL/MOL
REMARK 923 INTER-LIGAND FREE ENERGY PREDICTED BY IDOCK:   -4.76 KCAL/MOL
REMARK 924 INTRA-LIGAND FREE ENERGY PREDICTED BY IDOCK:   -0.98 KCAL/MOL
REMARK 927      BINDING AFFINITY PREDICTED BY RF-SCORE:    0.00 PKD
ROOT
HETATM    1  C   UNL     1      -5.583   9.701  71.526  1.00  0.00    -0.067 C  
HETATM    2  C   UNL     1      -5.516   9.085  70.132  1.00  0.00    -0.027 C  
ENDROOT
BRANCH   2   3
HETATM    3  N   UNL     1      -6.839   8.714  69.581  1.00  0.00    -0.046 NA 
BRANCH   3   4
HETATM    4  C   UNL     1      -6.897   7.319  69.109  1.00  0.00    -0.061 C  
HETATM    5  C   UNL     1      -5.710   6.820  68.285  1.00  0.00    -0.017 C  
ENDBRANCH   3   4
BRANCH   3   6
HETATM    6  C   UNL     1      -7.938   9.009  70.535  1.00  0.00    -0.139 C  
BRANCH   6   7
HETATM    7  C   UNL     1      -9.065   9.796  69.897  1.00  0.00    -0.257 A  
HETATM    8  C   UNL     1     -10.408   9.600  70.242  1.00  0.00    -0.280 A  
HETATM    9  C   UNL     1     -11.422  10.140  69.468  1.00  0.00    -0.227 A  
HETATM   10  O   UNL     1     -10.774   8.788  71.278  1.00  0.00    -0.229 OA 
HETATM   11  C   UNL     1     -11.101  10.882  68.328  1.00  0.00    -0.324 A  
HETATM   12  H   UNL     1     -11.685   8.655  71.511  1.00  0.00     0.000 HD 
HETATM   13  C   UNL     1      -9.768  11.164  67.994  1.00  0.00    -0.176 A  
HETATM   14  C   UNL     1      -8.763  10.655  68.826  1.00  0.00    -0.157 A  
BRANCH  13  15
HETATM   15  N   UNL     1      -9.371  11.970  66.897  1.00  0.00    -0.194 NA 
HETATM   16  H   UNL     1      -8.746  11.533  66.219  1.00  0.00     0.000 HD 
BRANCH  15  17
HETATM   17  C   UNL     1      -9.746  13.321  66.634  1.00  0.00    -0.270 A  
HETATM   18  C   UNL     1      -8.932  14.420  66.993  1.00  0.00    -0.257 A  
HETATM   19  C   UNL     1      -7.572  14.288  67.359  1.00  0.00    -0.185 A  
HETATM   20  C   UNL     1      -6.858  15.369  67.858  1.00  0.00    -0.166 A  
HETATM   21  C   UNL     1      -7.493  16.596  67.975  1.00  0.00    -0.164 A  
HETATM   22 CL   UNL     1      -6.664  17.915  68.703  1.00  0.00    -0.229 Cl 
HETATM   23  C   UNL     1      -8.802  16.760  67.523  1.00  0.00    -0.205 A  
HETATM   24  C   UNL     1      -9.521  15.699  66.993  1.00  0.00    -0.224 A  
HETATM   25  N   UNL     1     -10.765  15.919  66.536  1.00  0.00    -0.293 NA 
HETATM   26  C   UNL     1     -11.473  14.865  66.079  1.00  0.00    -0.275 A  
HETATM   27  C   UNL     1     -11.028  13.562  66.134  1.00  0.00    -0.289 A  
ENDBRANCH  15  17
ENDBRANCH  13  15
ENDBRANCH   6   7
ENDBRANCH   3   6
ENDBRANCH   2   3
TORSDOF 6
ENDMDL
MODEL      285
REMARK 921   NORMALIZED FREE ENERGY PREDICTED BY IDOCK:   -3.48 KCAL/MOL
REMARK 922        TOTAL FREE ENERGY PREDICTED BY IDOCK:   -5.72 KCAL/MOL
REMARK 923 INTER-LIGAND FREE ENERGY PREDICTED BY IDOCK:   -4.64 KCAL/MOL
REMARK 924 INTRA-LIGAND FREE ENERGY PREDICTED BY IDOCK:   -1.08 KCAL/MOL
REMARK 927      BINDING AFFINITY PREDICTED BY RF-SCORE:    0.00 PKD
ROOT
HETATM    1  C   UNL     1     -10.846  11.615  65.641  1.00  0.00    -0.330 C  
HETATM    2  C   UNL     1      -9.704  10.732  65.147  1.00  0.00    -0.265 C  
ENDROOT
BRANCH   2   3
HETATM    3  N   UNL     1      -8.945  10.075  66.235  1.00  0.00    -0.146 NA 
BRANCH   3   4
HETATM    4  C   UNL     1      -8.917   8.606  66.114  1.00  0.00    -0.180 C  
HETATM    5  C   UNL     1      -9.777   7.817  67.101  1.00  0.00    -0.243 C  
ENDBRANCH   3   4
BRANCH   3   6
HETATM    6  C   UNL     1      -7.575  10.632  66.367  1.00  0.00    -0.138 C  
BRANCH   6   7
HETATM    7  C   UNL     1      -7.314  11.211  67.743  1.00  0.00    -0.093 A  
HETATM    8  C   UNL     1      -6.814  12.506  67.931  1.00  0.00    -0.105 A  
HETATM    9  C   UNL     1      -6.346  12.910  69.170  1.00  0.00    -0.105 A  
HETATM   10  O   UNL     1      -6.665  13.378  66.890  1.00  0.00    -0.375 OA 
HETATM   11  C   UNL     1      -6.368  12.013  70.243  1.00  0.00     0.107 A  
HETATM   12  H   UNL     1      -6.325  14.256  67.018  1.00  0.00     0.000 HD 
HETATM   13  C   UNL     1      -6.933  10.735  70.112  1.00  0.00     0.002 A  
HETATM   14  C   UNL     1      -7.451  10.373  68.863  1.00  0.00    -0.099 A  
BRANCH  13  15
HETATM   15  N   UNL     1      -7.055   9.802  71.173  1.00  0.00    -0.316 NA 
HETATM   16  H   UNL     1      -6.725  10.111  72.087  1.00  0.00     0.000 HD 
BRANCH  15  17
HETATM   17  C   UNL     1      -7.588   8.480  71.106  1.00  0.00    -0.096 A  
HETATM   18  C   UNL     1      -8.978   8.220  71.107  1.00  0.00    -0.192 A  
HETATM   19  C   UNL     1      -9.952   9.218  70.874  1.00  0.00    -0.367 A  
HETATM   20  C   UNL     1     -11.304   8.951  71.045  1.00  0.00    -0.350 A  
HETATM   21  C   UNL     1     -11.693   7.677  71.430  1.00  0.00    -0.283 A  
HETATM   22 CL   UNL     1     -13.350   7.359  71.763  1.00  0.00    -0.390 Cl 
HETATM   23  C   UNL     1     -10.748   6.661  71.564  1.00  0.00    -0.263 A  
HETATM   24  C   UNL     1      -9.397   6.900  71.368  1.00  0.00    -0.156 A  
HETATM   25  N   UNL     1      -8.532   5.877  71.472  1.00  0.00    -0.127 NA 
HETATM   26  C   UNL     1      -7.214   6.139  71.337  1.00  0.00    -0.079 A  
HETATM   27  C   UNL     1      -6.697   7.407  71.186  1.00  0.00    -0.047 A  
ENDBRANCH  15  17
ENDBRANCH  13  15
ENDBRANCH   6   7
ENDBRANCH   3   6
ENDBRANCH   2   3
TORSDOF 6
ENDMDL
MODEL      286
REMARK 921   NORMALIZED FREE ENERGY PREDICTED BY IDOCK:   -3.42 KCAL/MOL
REMARK 922        TOTAL FREE ENERGY PREDICTED BY IDOCK:   -5.64 KCAL/MOL
REMARK 923 INTER-LIGAND FREE ENERGY PREDICTED BY IDOCK:   -5.14 KCAL/MOL
REMARK 924 INTRA-LIGAND FREE ENERGY PREDICTED BY IDOCK:   -0.49 KCAL/MOL
REMARK 927      BINDING AFFINITY PREDICTED BY RF-SCORE:    0.00 PKD
ROOT
HETATM    1  C   UNL     1      -6.355   6.419  67.135  1.00  0.00    -0.037 C  
HETATM    2  C   UNL     1      -7.576   7.002  67.840  1.00  0.00    -0.111 C  
ENDROOT
BRANCH   2   3
HETATM    3  N   UNL     1      -8.819   6.230  67.614  1.00  0.00    -0.112 NA 
BRANCH   3   4
HETATM    4  C   UNL     1      -9.399   5.693  68.859  1.00  0.00    -0.120 C  
HETATM    5  C   UNL     1     -10.828   6.121  69.193  1.00  0.00    -0.418 C  
ENDBRANCH   3   4
BRANCH   3   6
HETATM    6  C   UNL     1      -9.821   7.010  66.844  1.00  0.00    -0.199 C  
BRANCH   6   7
HETATM    7  C   UNL     1      -9.267   8.328  66.339  1.00  0.00    -0.247 A  
HETATM    8  C   UNL     1      -8.658   8.455  65.085  1.00  0.00    -0.132 A  
HETATM    9  C   UNL     1      -7.938   9.594  64.762  1.00  0.00    -0.129 A  
HETATM   10  O   UNL     1      -8.651   7.432  64.180  1.00  0.00    -0.352 OA 
HETATM   11  C   UNL     1      -7.815  10.623  65.701  1.00  0.00    -0.123 A  
HETATM   12  H   UNL     1      -8.237   7.519  63.329  1.00  0.00     0.000 HD 
HETATM   13  C   UNL     1      -8.475  10.565  66.936  1.00  0.00    -0.125 A  
HETATM   14  C   UNL     1      -9.244   9.427  67.214  1.00  0.00    -0.151 A  
BRANCH  13  15
HETATM   15  N   UNL     1      -8.456  11.600  67.904  1.00  0.00    -0.141 NA 
HETATM   16  H   UNL     1      -8.501  11.307  68.881  1.00  0.00     0.000 HD 
BRANCH  15  17
HETATM   17  C   UNL     1      -8.379  13.005  67.668  1.00  0.00    -0.181 A  
HETATM   18  C   UNL     1      -9.382  13.714  66.966  1.00  0.00    -0.249 A  
HETATM   19  C   UNL     1     -10.664  13.180  66.701  1.00  0.00    -0.286 A  
HETATM   20  C   UNL     1     -11.558  13.845  65.871  1.00  0.00    -0.348 A  
HETATM   21  C   UNL     1     -11.182  15.059  65.317  1.00  0.00    -0.367 A  
HETATM   22 CL   UNL     1     -12.224  15.837  64.192  1.00  0.00    -0.095 Cl 
HETATM   23  C   UNL     1      -9.960  15.640  65.652  1.00  0.00    -0.388 A  
HETATM   24  C   UNL     1      -9.068  15.006  66.503  1.00  0.00    -0.286 A  
HETATM   25  N   UNL     1      -7.920  15.628  66.825  1.00  0.00    -0.235 NA 
HETATM   26  C   UNL     1      -7.037  14.972  67.606  1.00  0.00    -0.183 A  
HETATM   27  C   UNL     1      -7.202  13.668  68.022  1.00  0.00    -0.130 A  
ENDBRANCH  15  17
ENDBRANCH  13  15
ENDBRANCH   6   7
ENDBRANCH   3   6
ENDBRANCH   2   3
TORSDOF 6
ENDMDL
MODEL      287
REMARK 921   NORMALIZED FREE ENERGY PREDICTED BY IDOCK:   -3.40 KCAL/MOL
REMARK 922        TOTAL FREE ENERGY PREDICTED BY IDOCK:   -5.60 KCAL/MOL
REMARK 923 INTER-LIGAND FREE ENERGY PREDICTED BY IDOCK:   -4.87 KCAL/MOL
REMARK 924 INTRA-LIGAND FREE ENERGY PREDICTED BY IDOCK:   -0.73 KCAL/MOL
REMARK 927      BINDING AFFINITY PREDICTED BY RF-SCORE:    0.00 PKD
ROOT
HETATM    1  C   UNL     1     -11.205  13.607  67.997  1.00  0.00    -0.295 C  
HETATM    2  C   UNL     1     -11.963  13.059  66.792  1.00  0.00    -0.369 C  
ENDROOT
BRANCH   2   3
HETATM    3  N   UNL     1     -11.158  12.151  65.944  1.00  0.00    -0.306 NA 
BRANCH   3   4
HETATM    4  C   UNL     1     -10.964  12.660  64.574  1.00  0.00    -0.332 C  
HETATM    5  C   UNL     1     -11.987  13.677  64.066  1.00  0.00    -0.478 C  
ENDBRANCH   3   4
BRANCH   3   6
HETATM    6  C   UNL     1      -9.862  11.805  66.580  1.00  0.00    -0.202 C  
BRANCH   6   7
HETATM    7  C   UNL     1      -9.453  10.368  66.322  1.00  0.00    -0.215 A  
HETATM    8  C   UNL     1      -8.557  10.013  65.307  1.00  0.00    -0.154 A  
HETATM    9  C   UNL     1      -8.404   8.689  64.929  1.00  0.00    -0.174 A  
HETATM   10  O   UNL     1      -7.884  10.954  64.578  1.00  0.00    -0.354 OA 
HETATM   11  C   UNL     1      -9.160   7.698  65.564  1.00  0.00     0.119 A  
HETATM   12  H   UNL     1      -7.276  10.713  63.890  1.00  0.00     0.000 HD 
HETATM   13  C   UNL     1     -10.010   8.006  66.636  1.00  0.00    -0.256 A  
HETATM   14  C   UNL     1     -10.101   9.345  67.036  1.00  0.00    -0.304 A  
BRANCH  13  15
HETATM   15  N   UNL     1     -10.748   7.046  67.374  1.00  0.00    -0.346 NA 
HETATM   16  H   UNL     1     -11.743   6.976  67.156  1.00  0.00     0.000 HD 
BRANCH  15  17
HETATM   17  C   UNL     1     -10.259   6.168  68.385  1.00  0.00    -0.175 A  
HETATM   18  C   UNL     1      -9.547   6.632  69.516  1.00  0.00    -0.150 A  
HETATM   19  C   UNL     1      -9.515   7.990  69.905  1.00  0.00    -0.160 A  
HETATM   20  C   UNL     1      -8.676   8.423  70.924  1.00  0.00    -0.178 A  
HETATM   21  C   UNL     1      -7.878   7.494  71.575  1.00  0.00    -0.086 A  
HETATM   22 CL   UNL     1      -6.745   8.027  72.755  1.00  0.00    -0.081 Cl 
HETATM   23  C   UNL     1      -7.978   6.138  71.267  1.00  0.00    -0.113 A  
HETATM   24  C   UNL     1      -8.832   5.684  70.274  1.00  0.00    -0.139 A  
HETATM   25  N   UNL     1      -8.918   4.363  70.042  1.00  0.00    -0.086 NA 
HETATM   26  C   UNL     1      -9.709   3.942  69.033  1.00  0.00    -0.059 A  
HETATM   27  C   UNL     1     -10.366   4.792  68.169  1.00  0.00     0.026 A  
ENDBRANCH  15  17
ENDBRANCH  13  15
ENDBRANCH   6   7
ENDBRANCH   3   6
ENDBRANCH   2   3
TORSDOF 6
ENDMDL
MODEL      288
REMARK 921   NORMALIZED FREE ENERGY PREDICTED BY IDOCK:   -3.39 KCAL/MOL
REMARK 922        TOTAL FREE ENERGY PREDICTED BY IDOCK:   -5.59 KCAL/MOL
REMARK 923 INTER-LIGAND FREE ENERGY PREDICTED BY IDOCK:   -4.79 KCAL/MOL
REMARK 924 INTRA-LIGAND FREE ENERGY PREDICTED BY IDOCK:   -0.80 KCAL/MOL
REMARK 927      BINDING AFFINITY PREDICTED BY RF-SCORE:    0.00 PKD
ROOT
HETATM    1  C   UNL     1      -9.092   4.675  63.928  1.00  0.00    -0.078 C  
HETATM    2  C   UNL     1      -8.122   5.544  64.723  1.00  0.00    -0.126 C  
ENDROOT
BRANCH   2   3
HETATM    3  N   UNL     1      -8.604   5.887  66.080  1.00  0.00    -0.136 NA 
BRANCH   3   4
HETATM    4  C   UNL     1      -9.936   5.329  66.377  1.00  0.00    -0.203 C  
HETATM    5  C   UNL     1     -10.965   6.286  66.979  1.00  0.00    -0.442 C  
ENDBRANCH   3   4
BRANCH   3   6
HETATM    6  C   UNL     1      -7.618   5.518  67.127  1.00  0.00    -0.092 C  
BRANCH   6   7
HETATM    7  C   UNL     1      -8.066   4.328  67.952  1.00  0.00    -0.094 A  
HETATM    8  C   UNL     1      -8.026   3.017  67.463  1.00  0.00    -0.076 A  
HETATM    9  C   UNL     1      -8.676   1.992  68.133  1.00  0.00    -0.121 A  
HETATM   10  O   UNL     1      -7.449   2.712  66.263  1.00  0.00    -0.066 OA 
HETATM   11  C   UNL     1      -9.383   2.274  69.306  1.00  0.00    -0.174 A  
HETATM   12  H   UNL     1      -7.422   1.823  65.931  1.00  0.00     0.000 HD 
HETATM   13  C   UNL     1      -9.380   3.559  69.867  1.00  0.00    -0.177 A  
HETATM   14  C   UNL     1      -8.668   4.563  69.200  1.00  0.00    -0.113 A  
BRANCH  13  15
HETATM   15  N   UNL     1     -10.013   3.901  71.090  1.00  0.00    -0.150 NA 
HETATM   16  H   UNL     1     -10.769   3.288  71.394  1.00  0.00     0.000 HD 
BRANCH  15  17
HETATM   17  C   UNL     1      -9.710   5.003  71.943  1.00  0.00    -0.160 A  
HETATM   18  C   UNL     1     -10.416   6.227  71.883  1.00  0.00    -0.244 A  
HETATM   19  C   UNL     1     -11.650   6.375  71.210  1.00  0.00    -0.370 A  
HETATM   20  C   UNL     1     -12.226   7.628  71.040  1.00  0.00    -0.261 A  
HETATM   21  C   UNL     1     -11.581   8.739  71.561  1.00  0.00    -0.303 A  
HETATM   22 CL   UNL     1     -12.214  10.309  71.257  1.00  0.00    -0.472 Cl 
HETATM   23  C   UNL     1     -10.416   8.591  72.313  1.00  0.00    -0.402 A  
HETATM   24  C   UNL     1      -9.843   7.346  72.519  1.00  0.00    -0.169 A  
HETATM   25  N   UNL     1      -8.742   7.254  73.284  1.00  0.00    -0.132 NA 
HETATM   26  C   UNL     1      -8.162   6.043  73.426  1.00  0.00    -0.114 A  
HETATM   27  C   UNL     1      -8.582   4.911  72.763  1.00  0.00    -0.115 A  
ENDBRANCH  15  17
ENDBRANCH  13  15
ENDBRANCH   6   7
ENDBRANCH   3   6
ENDBRANCH   2   3
TORSDOF 6
ENDMDL
MODEL      289
REMARK 921   NORMALIZED FREE ENERGY PREDICTED BY IDOCK:   -3.37 KCAL/MOL
REMARK 922        TOTAL FREE ENERGY PREDICTED BY IDOCK:   -5.56 KCAL/MOL
REMARK 923 INTER-LIGAND FREE ENERGY PREDICTED BY IDOCK:   -4.53 KCAL/MOL
REMARK 924 INTRA-LIGAND FREE ENERGY PREDICTED BY IDOCK:   -1.03 KCAL/MOL
REMARK 927      BINDING AFFINITY PREDICTED BY RF-SCORE:    0.00 PKD
ROOT
HETATM    1  C   UNL     1      -6.551  10.445  66.078  1.00  0.00    -0.120 C  
HETATM    2  C   UNL     1      -7.942  10.687  66.657  1.00  0.00    -0.134 C  
ENDROOT
BRANCH   2   3
HETATM    3  N   UNL     1      -8.058  10.344  68.092  1.00  0.00    -0.109 NA 
BRANCH   3   4
HETATM    4  C   UNL     1      -6.822  10.607  68.850  1.00  0.00    -0.066 C  
HETATM    5  C   UNL     1      -6.572  12.052  69.281  1.00  0.00    -0.109 C  
ENDBRANCH   3   4
BRANCH   3   6
HETATM    6  C   UNL     1      -9.230  11.002  68.724  1.00  0.00    -0.162 C  
BRANCH   6   7
HETATM    7  C   UNL     1     -10.168  10.010  69.382  1.00  0.00    -0.239 A  
HETATM    8  C   UNL     1     -11.251  10.410  70.173  1.00  0.00    -0.321 A  
HETATM    9  C   UNL     1     -11.926   9.494  70.964  1.00  0.00    -0.407 A  
HETATM   10  O   UNL     1     -11.614  11.723  70.287  1.00  0.00    -0.483 OA 
HETATM   11  C   UNL     1     -11.517   8.157  70.974  1.00  0.00    -0.301 A  
HETATM   12  H   UNL     1     -12.348  11.994  70.824  1.00  0.00     0.000 HD 
HETATM   13  C   UNL     1     -10.488   7.704  70.136  1.00  0.00    -0.227 A  
HETATM   14  C   UNL     1      -9.860   8.640  69.305  1.00  0.00    -0.188 A  
BRANCH  13  15
HETATM   15  N   UNL     1     -10.070   6.353  70.040  1.00  0.00    -0.169 NA 
HETATM   16  H   UNL     1     -10.546   5.688  70.651  1.00  0.00     0.000 HD 
BRANCH  15  17
HETATM   17  C   UNL     1      -9.060   5.817  69.186  1.00  0.00    -0.117 A  
HETATM   18  C   UNL     1      -9.325   5.409  67.858  1.00  0.00    -0.123 A  
HETATM   19  C   UNL     1     -10.505   5.760  67.162  1.00  0.00    -0.337 A  
HETATM   20  C   UNL     1     -10.796   5.206  65.923  1.00  0.00    -0.070 A  
HETATM   21  C   UNL     1      -9.898   4.310  65.362  1.00  0.00    -0.211 A  
HETATM   22 CL   UNL     1     -10.296   3.521  63.886  1.00  0.00    -0.224 Cl 
HETATM   23  C   UNL     1      -8.686   4.035  65.993  1.00  0.00    -0.116 A  
HETATM   24  C   UNL     1      -8.365   4.603  67.217  1.00  0.00    -0.105 A  
HETATM   25  N   UNL     1      -7.167   4.335  67.765  1.00  0.00    -0.064 NA 
HETATM   26  C   UNL     1      -6.893   4.848  68.983  1.00  0.00    -0.051 A  
HETATM   27  C   UNL     1      -7.803   5.558  69.737  1.00  0.00    -0.082 A  
ENDBRANCH  15  17
ENDBRANCH  13  15
ENDBRANCH   6   7
ENDBRANCH   3   6
ENDBRANCH   2   3
TORSDOF 6
ENDMDL
MODEL      290
REMARK 921   NORMALIZED FREE ENERGY PREDICTED BY IDOCK:   -3.34 KCAL/MOL
REMARK 922        TOTAL FREE ENERGY PREDICTED BY IDOCK:   -5.52 KCAL/MOL
REMARK 923 INTER-LIGAND FREE ENERGY PREDICTED BY IDOCK:   -5.37 KCAL/MOL
REMARK 924 INTRA-LIGAND FREE ENERGY PREDICTED BY IDOCK:   -0.15 KCAL/MOL
REMARK 927      BINDING AFFINITY PREDICTED BY RF-SCORE:    0.00 PKD
ROOT
HETATM    1  C   UNL     1     -13.948  15.939  72.453  1.00  0.00    -0.368 C  
HETATM    2  C   UNL     1     -14.157  14.544  71.873  1.00  0.00    -0.508 C  
ENDROOT
BRANCH   2   3
HETATM    3  N   UNL     1     -12.930  13.717  71.853  1.00  0.00    -0.348 NA 
BRANCH   3   4
HETATM    4  C   UNL     1     -13.136  12.393  71.238  1.00  0.00    -0.126 C  
HETATM    5  C   UNL     1     -13.741  11.307  72.127  1.00  0.00     0.085 C  
ENDBRANCH   3   4
BRANCH   3   6
HETATM    6  C   UNL     1     -11.790  14.433  71.225  1.00  0.00    -0.220 C  
BRANCH   6   7
HETATM    7  C   UNL     1     -11.673  14.148  69.741  1.00  0.00    -0.370 A  
HETATM    8  C   UNL     1     -12.004  15.096  68.766  1.00  0.00    -0.250 A  
HETATM    9  C   UNL     1     -12.135  14.727  67.437  1.00  0.00    -0.122 A  
HETATM   10  O   UNL     1     -12.319  16.386  69.091  1.00  0.00    -0.232 OA 
HETATM   11  C   UNL     1     -11.939  13.392  67.068  1.00  0.00    -0.429 A  
HETATM   12  H   UNL     1     -12.544  17.028  68.429  1.00  0.00     0.000 HD 
HETATM   13  C   UNL     1     -11.530  12.431  68.004  1.00  0.00    -0.322 A  
HETATM   14  C   UNL     1     -11.350  12.843  69.330  1.00  0.00    -0.303 A  
BRANCH  13  15
HETATM   15  N   UNL     1     -11.243  11.079  67.689  1.00  0.00    -0.332 NA 
HETATM   16  H   UNL     1     -11.992  10.406  67.857  1.00  0.00     0.000 HD 
BRANCH  15  17
HETATM   17  C   UNL     1     -10.026  10.552  67.163  1.00  0.00    -0.193 A  
HETATM   18  C   UNL     1      -8.950  10.151  67.990  1.00  0.00    -0.125 A  
HETATM   19  C   UNL     1      -9.081   9.950  69.384  1.00  0.00    -0.216 A  
HETATM   20  C   UNL     1      -7.966   9.715  70.179  1.00  0.00    -0.189 A  
HETATM   21  C   UNL     1      -6.716   9.659  69.582  1.00  0.00    -0.054 A  
HETATM   22 CL   UNL     1      -5.314   9.490  70.563  1.00  0.00    -0.031 Cl 
HETATM   23  C   UNL     1      -6.590   9.756  68.197  1.00  0.00    -0.060 A  
HETATM   24  C   UNL     1      -7.694   9.960  67.384  1.00  0.00    -0.091 A  
HETATM   25  N   UNL     1      -7.522  10.007  66.052  1.00  0.00    -0.107 NA 
HETATM   26  C   UNL     1      -8.597  10.266  65.278  1.00  0.00    -0.165 A  
HETATM   27  C   UNL     1      -9.845  10.571  65.778  1.00  0.00    -0.295 A  
ENDBRANCH  15  17
ENDBRANCH  13  15
ENDBRANCH   6   7
ENDBRANCH   3   6
ENDBRANCH   2   3
TORSDOF 6
ENDMDL
MODEL      291
REMARK 921   NORMALIZED FREE ENERGY PREDICTED BY IDOCK:   -3.34 KCAL/MOL
REMARK 922        TOTAL FREE ENERGY PREDICTED BY IDOCK:   -5.52 KCAL/MOL
REMARK 923 INTER-LIGAND FREE ENERGY PREDICTED BY IDOCK:   -4.76 KCAL/MOL
REMARK 924 INTRA-LIGAND FREE ENERGY PREDICTED BY IDOCK:   -0.76 KCAL/MOL
REMARK 927      BINDING AFFINITY PREDICTED BY RF-SCORE:    0.00 PKD
ROOT
HETATM    1  C   UNL     1     -10.403   7.575  66.870  1.00  0.00    -0.379 C  
HETATM    2  C   UNL     1     -10.454   9.078  67.129  1.00  0.00    -0.263 C  
ENDROOT
BRANCH   2   3
HETATM    3  N   UNL     1      -9.729   9.882  66.119  1.00  0.00    -0.218 NA 
BRANCH   3   4
HETATM    4  C   UNL     1     -10.221  11.268  66.023  1.00  0.00    -0.247 C  
HETATM    5  C   UNL     1     -11.118  11.760  67.158  1.00  0.00    -0.350 C  
ENDBRANCH   3   4
BRANCH   3   6
HETATM    6  C   UNL     1      -8.260   9.843  66.334  1.00  0.00    -0.117 C  
BRANCH   6   7
HETATM    7  C   UNL     1      -7.857  10.395  67.687  1.00  0.00    -0.105 A  
HETATM    8  C   UNL     1      -7.189  11.616  67.832  1.00  0.00    -0.083 A  
HETATM    9  C   UNL     1      -6.609  11.966  69.041  1.00  0.00    -0.091 A  
HETATM   10  O   UNL     1      -6.984  12.456  66.773  1.00  0.00    -0.372 OA 
HETATM   11  C   UNL     1      -6.688  11.086  70.125  1.00  0.00    -0.031 A  
HETATM   12  H   UNL     1      -6.531  13.284  66.872  1.00  0.00     0.000 HD 
HETATM   13  C   UNL     1      -7.415   9.890  70.040  1.00  0.00    -0.168 A  
HETATM   14  C   UNL     1      -8.039   9.588  68.824  1.00  0.00    -0.096 A  
BRANCH  13  15
HETATM   15  N   UNL     1      -7.599   8.987  71.118  1.00  0.00    -0.200 NA 
HETATM   16  H   UNL     1      -6.789   8.829  71.719  1.00  0.00     0.000 HD 
BRANCH  15  17
HETATM   17  C   UNL     1      -8.787   8.274  71.457  1.00  0.00    -0.168 A  
HETATM   18  C   UNL     1      -8.934   6.886  71.223  1.00  0.00    -0.142 A  
HETATM   19  C   UNL     1      -7.847   6.034  70.924  1.00  0.00    -0.107 A  
HETATM   20  C   UNL     1      -8.058   4.714  70.544  1.00  0.00    -0.068 A  
HETATM   21  C   UNL     1      -9.357   4.233  70.481  1.00  0.00    -0.145 A  
HETATM   22 CL   UNL     1      -9.645   2.642  69.898  1.00  0.00    -0.137 Cl 
HETATM   23  C   UNL     1     -10.427   5.037  70.872  1.00  0.00    -0.212 A  
HETATM   24  C   UNL     1     -10.234   6.347  71.283  1.00  0.00    -0.200 A  
HETATM   25  N   UNL     1     -11.295   7.066  71.686  1.00  0.00    -0.248 NA 
HETATM   26  C   UNL     1     -11.099   8.358  72.026  1.00  0.00    -0.327 A  
HETATM   27  C   UNL     1      -9.890   9.007  71.902  1.00  0.00    -0.283 A  
ENDBRANCH  15  17
ENDBRANCH  13  15
ENDBRANCH   6   7
ENDBRANCH   3   6
ENDBRANCH   2   3
TORSDOF 6
ENDMDL
MODEL      292
REMARK 921   NORMALIZED FREE ENERGY PREDICTED BY IDOCK:   -3.33 KCAL/MOL
REMARK 922        TOTAL FREE ENERGY PREDICTED BY IDOCK:   -5.51 KCAL/MOL
REMARK 923 INTER-LIGAND FREE ENERGY PREDICTED BY IDOCK:   -5.40 KCAL/MOL
REMARK 924 INTRA-LIGAND FREE ENERGY PREDICTED BY IDOCK:   -0.11 KCAL/MOL
REMARK 927      BINDING AFFINITY PREDICTED BY RF-SCORE:    0.00 PKD
ROOT
HETATM    1  C   UNL     1     -12.535  14.497  67.446  1.00  0.00     0.235 C  
HETATM    2  C   UNL     1     -12.292  13.200  66.680  1.00  0.00    -0.141 C  
ENDROOT
BRANCH   2   3
HETATM    3  N   UNL     1     -11.083  13.230  65.826  1.00  0.00    -0.279 NA 
BRANCH   3   4
HETATM    4  C   UNL     1     -11.389  13.461  64.402  1.00  0.00    -0.391 C  
HETATM    5  C   UNL     1     -11.638  12.222  63.542  1.00  0.00    -0.570 C  
ENDBRANCH   3   4
BRANCH   3   6
HETATM    6  C   UNL     1     -10.077  14.200  66.326  1.00  0.00    -0.300 C  
BRANCH   6   7
HETATM    7  C   UNL     1      -8.998  13.539  67.161  1.00  0.00    -0.230 A  
HETATM    8  C   UNL     1      -7.660  13.947  67.120  1.00  0.00     0.070 A  
HETATM    9  C   UNL     1      -6.665  13.167  67.688  1.00  0.00    -0.163 A  
HETATM   10  O   UNL     1      -7.267  15.060  66.432  1.00  0.00     0.093 OA 
HETATM   11  C   UNL     1      -7.002  11.957  68.303  1.00  0.00    -0.077 A  
HETATM   12  H   UNL     1      -6.358  15.336  66.403  1.00  0.00     0.000 HD 
HETATM   13  C   UNL     1      -8.339  11.554  68.431  1.00  0.00    -0.154 A  
HETATM   14  C   UNL     1      -9.329  12.389  67.899  1.00  0.00    -0.195 A  
BRANCH  13  15
HETATM   15  N   UNL     1      -8.760  10.379  69.105  1.00  0.00    -0.164 NA 
HETATM   16  H   UNL     1      -8.186   9.547  68.963  1.00  0.00     0.000 HD 
BRANCH  15  17
HETATM   17  C   UNL     1      -9.893  10.229  69.959  1.00  0.00    -0.030 A  
HETATM   18  C   UNL     1      -9.884   9.384  71.093  1.00  0.00    -0.287 A  
HETATM   19  C   UNL     1      -8.698   8.856  71.654  1.00  0.00    -0.186 A  
HETATM   20  C   UNL     1      -8.748   7.904  72.665  1.00  0.00    -0.223 A  
HETATM   21  C   UNL     1      -9.984   7.490  73.135  1.00  0.00    -0.289 A  
HETATM   22 CL   UNL     1     -10.070   6.226  74.299  1.00  0.00    -0.318 Cl 
HETATM   23  C   UNL     1     -11.155   8.078  72.658  1.00  0.00    -0.453 A  
HETATM   24  C   UNL     1     -11.124   9.051  71.671  1.00  0.00    -0.363 A  
HETATM   25  N   UNL     1     -12.278   9.613  71.275  1.00  0.00    -0.339 NA 
HETATM   26  C   UNL     1     -12.237  10.516  70.272  1.00  0.00    -0.311 A  
HETATM   27  C   UNL     1     -11.093  10.830  69.571  1.00  0.00    -0.334 A  
ENDBRANCH  15  17
ENDBRANCH  13  15
ENDBRANCH   6   7
ENDBRANCH   3   6
ENDBRANCH   2   3
TORSDOF 6
ENDMDL
MODEL      293
REMARK 921   NORMALIZED FREE ENERGY PREDICTED BY IDOCK:   -3.32 KCAL/MOL
REMARK 922        TOTAL FREE ENERGY PREDICTED BY IDOCK:   -5.50 KCAL/MOL
REMARK 923 INTER-LIGAND FREE ENERGY PREDICTED BY IDOCK:   -5.18 KCAL/MOL
REMARK 924 INTRA-LIGAND FREE ENERGY PREDICTED BY IDOCK:   -0.33 KCAL/MOL
REMARK 927      BINDING AFFINITY PREDICTED BY RF-SCORE:    0.00 PKD
ROOT
HETATM    1  C   UNL     1     -10.802   6.206  67.366  1.00  0.00    -0.431 C  
HETATM    2  C   UNL     1     -11.024   7.208  68.495  1.00  0.00    -0.027 C  
ENDROOT
BRANCH   2   3
HETATM    3  N   UNL     1      -9.774   7.648  69.155  1.00  0.00    -0.162 NA 
BRANCH   3   4
HETATM    4  C   UNL     1      -9.666   7.190  70.552  1.00  0.00    -0.176 C  
HETATM    5  C   UNL     1     -10.618   7.830  71.562  1.00  0.00    -0.247 C  
ENDBRANCH   3   4
BRANCH   3   6
HETATM    6  C   UNL     1      -8.572   7.272  68.369  1.00  0.00    -0.124 C  
BRANCH   6   7
HETATM    7  C   UNL     1      -7.993   8.441  67.597  1.00  0.00    -0.110 A  
HETATM    8  C   UNL     1      -6.948   8.292  66.678  1.00  0.00    -0.069 A  
HETATM    9  C   UNL     1      -6.273   9.399  66.188  1.00  0.00    -0.067 A  
HETATM   10  O   UNL     1      -6.479   7.061  66.314  1.00  0.00    -0.048 OA 
HETATM   11  C   UNL     1      -6.638  10.677  66.622  1.00  0.00    -0.101 A  
HETATM   12  H   UNL     1      -5.770   6.960  65.690  1.00  0.00     0.000 HD 
HETATM   13  C   UNL     1      -7.729  10.871  67.481  1.00  0.00    -0.109 A  
HETATM   14  C   UNL     1      -8.429   9.739  67.916  1.00  0.00    -0.125 A  
BRANCH  13  15
HETATM   15  N   UNL     1      -8.200  12.140  67.903  1.00  0.00    -0.145 NA 
HETATM   16  H   UNL     1      -7.506  12.768  68.310  1.00  0.00     0.000 HD 
BRANCH  15  17
HETATM   17  C   UNL     1      -9.534  12.639  67.823  1.00  0.00    -0.198 A  
HETATM   18  C   UNL     1     -10.389  12.354  66.733  1.00  0.00    -0.239 A  
HETATM   19  C   UNL     1     -10.127  11.331  65.793  1.00  0.00    -0.294 A  
HETATM   20  C   UNL     1     -10.906  11.193  64.651  1.00  0.00    -0.295 A  
HETATM   21  C   UNL     1     -11.966  12.064  64.454  1.00  0.00    -0.300 A  
HETATM   22 CL   UNL     1     -12.867  11.987  62.991  1.00  0.00    -0.272 Cl 
HETATM   23  C   UNL     1     -12.294  13.009  65.424  1.00  0.00    -0.538 A  
HETATM   24  C   UNL     1     -11.546  13.142  66.584  1.00  0.00    -0.356 A  
HETATM   25  N   UNL     1     -11.928  14.044  67.505  1.00  0.00    -0.405 NA 
HETATM   26  C   UNL     1     -11.156  14.202  68.601  1.00  0.00    -0.262 A  
HETATM   27  C   UNL     1      -9.952  13.557  68.790  1.00  0.00    -0.078 A  
ENDBRANCH  15  17
ENDBRANCH  13  15
ENDBRANCH   6   7
ENDBRANCH   3   6
ENDBRANCH   2   3
TORSDOF 6
ENDMDL
MODEL      294
REMARK 921   NORMALIZED FREE ENERGY PREDICTED BY IDOCK:   -3.31 KCAL/MOL
REMARK 922        TOTAL FREE ENERGY PREDICTED BY IDOCK:   -5.49 KCAL/MOL
REMARK 923 INTER-LIGAND FREE ENERGY PREDICTED BY IDOCK:   -4.33 KCAL/MOL
REMARK 924 INTRA-LIGAND FREE ENERGY PREDICTED BY IDOCK:   -1.16 KCAL/MOL
REMARK 927      BINDING AFFINITY PREDICTED BY RF-SCORE:    0.00 PKD
ROOT
HETATM    1  C   UNL     1      -8.833   3.600  64.273  1.00  0.00    -0.106 C  
HETATM    2  C   UNL     1      -9.918   3.792  65.327  1.00  0.00    -0.108 C  
ENDROOT
BRANCH   2   3
HETATM    3  N   UNL     1      -9.528   4.705  66.425  1.00  0.00    -0.151 NA 
BRANCH   3   4
HETATM    4  C   UNL     1      -8.845   4.015  67.534  1.00  0.00    -0.115 C  
HETATM    5  C   UNL     1      -9.486   2.724  68.040  1.00  0.00    -0.212 C  
ENDBRANCH   3   4
BRANCH   3   6
HETATM    6  C   UNL     1      -8.728   5.854  65.930  1.00  0.00    -0.150 C  
BRANCH   6   7
HETATM    7  C   UNL     1      -9.051   7.143  66.658  1.00  0.00    -0.175 A  
HETATM    8  C   UNL     1     -10.364   7.537  66.942  1.00  0.00    -0.309 A  
HETATM    9  C   UNL     1     -10.639   8.826  67.371  1.00  0.00    -0.304 A  
HETATM   10  O   UNL     1     -11.430   6.715  66.706  1.00  0.00    -0.776 OA 
HETATM   11  C   UNL     1      -9.594   9.743  67.515  1.00  0.00    -0.178 A  
HETATM   12  H   UNL     1     -12.321   6.983  66.898  1.00  0.00     0.000 HD 
HETATM   13  C   UNL     1      -8.259   9.363  67.316  1.00  0.00    -0.117 A  
HETATM   14  C   UNL     1      -8.004   8.039  66.938  1.00  0.00    -0.104 A  
BRANCH  13  15
HETATM   15  N   UNL     1      -7.145  10.218  67.514  1.00  0.00    -0.085 NA 
HETATM   16  H   UNL     1      -6.532  10.357  66.710  1.00  0.00     0.000 HD 
BRANCH  15  17
HETATM   17  C   UNL     1      -6.784  10.906  68.711  1.00  0.00    -0.062 A  
HETATM   18  C   UNL     1      -7.031  12.286  68.899  1.00  0.00    -0.098 A  
HETATM   19  C   UNL     1      -7.906  13.033  68.076  1.00  0.00    -0.146 A  
HETATM   20  C   UNL     1      -7.994  14.414  68.196  1.00  0.00    -0.136 A  
HETATM   21  C   UNL     1      -7.222  15.055  69.154  1.00  0.00    -0.159 A  
HETATM   22 CL   UNL     1      -7.226  16.772  69.237  1.00  0.00    -0.219 Cl 
HETATM   23  C   UNL     1      -6.435  14.316  70.036  1.00  0.00    -0.126 A  
HETATM   24  C   UNL     1      -6.357  12.935  69.951  1.00  0.00    -0.029 A  
HETATM   25  N   UNL     1      -5.613  12.268  70.850  1.00  0.00    -0.306 NA 
HETATM   26  C   UNL     1      -5.501  10.929  70.718  1.00  0.00    -0.118 A  
HETATM   27  C   UNL     1      -6.032  10.216  69.665  1.00  0.00    -0.044 A  
ENDBRANCH  15  17
ENDBRANCH  13  15
ENDBRANCH   6   7
ENDBRANCH   3   6
ENDBRANCH   2   3
TORSDOF 6
ENDMDL
MODEL      295
REMARK 921   NORMALIZED FREE ENERGY PREDICTED BY IDOCK:   -3.30 KCAL/MOL
REMARK 922        TOTAL FREE ENERGY PREDICTED BY IDOCK:   -5.47 KCAL/MOL
REMARK 923 INTER-LIGAND FREE ENERGY PREDICTED BY IDOCK:   -4.19 KCAL/MOL
REMARK 924 INTRA-LIGAND FREE ENERGY PREDICTED BY IDOCK:   -1.28 KCAL/MOL
REMARK 927      BINDING AFFINITY PREDICTED BY RF-SCORE:    0.00 PKD
ROOT
HETATM    1  C   UNL     1      -5.825   8.590  68.032  1.00  0.00    -0.042 C  
HETATM    2  C   UNL     1      -6.531   9.230  66.840  1.00  0.00    -0.067 C  
ENDROOT
BRANCH   2   3
HETATM    3  N   UNL     1      -7.996   9.016  66.831  1.00  0.00    -0.104 NA 
BRANCH   3   4
HETATM    4  C   UNL     1      -8.763  10.275  66.853  1.00  0.00    -0.126 C  
HETATM    5  C   UNL     1      -9.639  10.569  65.636  1.00  0.00    -0.278 C  
ENDBRANCH   3   4
BRANCH   3   6
HETATM    6  C   UNL     1      -8.420   8.145  65.705  1.00  0.00    -0.149 C  
BRANCH   6   7
HETATM    7  C   UNL     1      -8.816   6.756  66.164  1.00  0.00    -0.161 A  
HETATM    8  C   UNL     1      -8.868   5.662  65.292  1.00  0.00    -0.076 A  
HETATM    9  C   UNL     1      -9.476   4.478  65.676  1.00  0.00    -0.174 A  
HETATM   10  O   UNL     1      -8.426   5.749  64.001  1.00  0.00    -0.286 OA 
HETATM   11  C   UNL     1     -10.050   4.378  66.948  1.00  0.00    -0.159 A  
HETATM   12  H   UNL     1      -8.461   5.007  63.410  1.00  0.00     0.000 HD 
HETATM   13  C   UNL     1      -9.950   5.425  67.876  1.00  0.00    -0.160 A  
HETATM   14  C   UNL     1      -9.280   6.589  67.481  1.00  0.00    -0.113 A  
BRANCH  13  15
HETATM   15  N   UNL     1     -10.443   5.366  69.204  1.00  0.00    -0.230 NA 
HETATM   16  H   UNL     1     -10.551   4.434  69.606  1.00  0.00     0.000 HD 
BRANCH  15  17
HETATM   17  C   UNL     1     -10.805   6.462  70.043  1.00  0.00    -0.307 A  
HETATM   18  C   UNL     1      -9.932   6.990  71.024  1.00  0.00    -0.196 A  
HETATM   19  C   UNL     1      -8.550   6.698  71.065  1.00  0.00    -0.137 A  
HETATM   20  C   UNL     1      -7.765   7.106  72.136  1.00  0.00    -0.090 A  
HETATM   21  C   UNL     1      -8.355   7.828  73.163  1.00  0.00    -0.157 A  
HETATM   22 CL   UNL     1      -7.429   8.238  74.553  1.00  0.00    -0.255 Cl 
HETATM   23  C   UNL     1      -9.694   8.207  73.081  1.00  0.00    -0.294 A  
HETATM   24  C   UNL     1     -10.485   7.834  72.005  1.00  0.00    -0.224 A  
HETATM   25  N   UNL     1     -11.760   8.258  71.957  1.00  0.00    -0.321 NA 
HETATM   26  C   UNL     1     -12.533   7.839  70.933  1.00  0.00    -0.059 A  
HETATM   27  C   UNL     1     -12.120   6.930  69.983  1.00  0.00    -0.023 A  
ENDBRANCH  15  17
ENDBRANCH  13  15
ENDBRANCH   6   7
ENDBRANCH   3   6
ENDBRANCH   2   3
TORSDOF 6
ENDMDL
MODEL      296
REMARK 921   NORMALIZED FREE ENERGY PREDICTED BY IDOCK:   -3.28 KCAL/MOL
REMARK 922        TOTAL FREE ENERGY PREDICTED BY IDOCK:   -5.45 KCAL/MOL
REMARK 923 INTER-LIGAND FREE ENERGY PREDICTED BY IDOCK:   -4.31 KCAL/MOL
REMARK 924 INTRA-LIGAND FREE ENERGY PREDICTED BY IDOCK:   -1.14 KCAL/MOL
REMARK 927      BINDING AFFINITY PREDICTED BY RF-SCORE:    0.00 PKD
ROOT
HETATM    1  C   UNL     1      -6.644  13.637  69.645  1.00  0.00    -0.040 C  
HETATM    2  C   UNL     1      -7.847  14.180  68.881  1.00  0.00    -0.076 C  
ENDROOT
BRANCH   2   3
HETATM    3  N   UNL     1      -8.620  13.138  68.168  1.00  0.00    -0.176 NA 
BRANCH   3   4
HETATM    4  C   UNL     1     -10.073  13.386  68.183  1.00  0.00    -0.244 C  
HETATM    5  C   UNL     1     -10.974  12.181  68.458  1.00  0.00    -0.276 C  
ENDBRANCH   3   4
BRANCH   3   6
HETATM    6  C   UNL     1      -8.122  12.931  66.784  1.00  0.00     0.154 C  
BRANCH   6   7
HETATM    7  C   UNL     1      -8.392  11.530  66.274  1.00  0.00    -0.076 A  
HETATM    8  C   UNL     1      -9.213  11.277  65.168  1.00  0.00    -0.149 A  
HETATM    9  C   UNL     1      -9.645   9.991  64.888  1.00  0.00    -0.375 A  
HETATM   10  O   UNL     1      -9.708  12.287  64.393  1.00  0.00    -0.485 OA 
HETATM   11  C   UNL     1      -9.262   8.936  65.722  1.00  0.00    -0.283 A  
HETATM   12  H   UNL     1     -10.265  12.116  63.643  1.00  0.00     0.000 HD 
HETATM   13  C   UNL     1      -8.379   9.138  66.792  1.00  0.00    -0.123 A  
HETATM   14  C   UNL     1      -7.911  10.438  67.019  1.00  0.00    -0.116 A  
BRANCH  13  15
HETATM   15  N   UNL     1      -7.891   8.106  67.633  1.00  0.00    -0.112 NA 
HETATM   16  H   UNL     1      -7.043   8.315  68.160  1.00  0.00     0.000 HD 
BRANCH  15  17
HETATM   17  C   UNL     1      -8.452   6.809  67.826  1.00  0.00    -0.122 A  
HETATM   18  C   UNL     1      -9.362   6.522  68.870  1.00  0.00    -0.131 A  
HETATM   19  C   UNL     1     -10.024   7.524  69.616  1.00  0.00    -0.184 A  
HETATM   20  C   UNL     1     -10.783   7.200  70.733  1.00  0.00    -0.251 A  
HETATM   21  C   UNL     1     -10.901   5.868  71.101  1.00  0.00    -0.269 A  
HETATM   22 CL   UNL     1     -11.734   5.457  72.548  1.00  0.00    -0.247 Cl 
HETATM   23  C   UNL     1     -10.336   4.866  70.314  1.00  0.00    -0.252 A  
HETATM   24  C   UNL     1      -9.601   5.168  69.177  1.00  0.00    -0.146 A  
HETATM   25  N   UNL     1      -9.109   4.163  68.433  1.00  0.00    -0.123 NA 
HETATM   26  C   UNL     1      -8.347   4.474  67.363  1.00  0.00    -0.104 A  
HETATM   27  C   UNL     1      -7.969   5.759  67.041  1.00  0.00    -0.102 A  
ENDBRANCH  15  17
ENDBRANCH  13  15
ENDBRANCH   6   7
ENDBRANCH   3   6
ENDBRANCH   2   3
TORSDOF 6
ENDMDL
MODEL      297
REMARK 921   NORMALIZED FREE ENERGY PREDICTED BY IDOCK:   -3.28 KCAL/MOL
REMARK 922        TOTAL FREE ENERGY PREDICTED BY IDOCK:   -5.44 KCAL/MOL
REMARK 923 INTER-LIGAND FREE ENERGY PREDICTED BY IDOCK:   -4.36 KCAL/MOL
REMARK 924 INTRA-LIGAND FREE ENERGY PREDICTED BY IDOCK:   -1.08 KCAL/MOL
REMARK 927      BINDING AFFINITY PREDICTED BY RF-SCORE:    0.00 PKD
ROOT
HETATM    1  C   UNL     1     -13.035  11.847  63.239  1.00  0.00    -0.166 C  
HETATM    2  C   UNL     1     -12.201  12.965  63.858  1.00  0.00    -0.449 C  
ENDROOT
BRANCH   2   3
HETATM    3  N   UNL     1     -10.776  12.611  64.045  1.00  0.00    -0.398 NA 
BRANCH   3   4
HETATM    4  C   UNL     1     -10.245  11.759  62.966  1.00  0.00    -0.210 C  
HETATM    5  C   UNL     1      -9.050  10.872  63.313  1.00  0.00    -0.252 C  
ENDBRANCH   3   4
BRANCH   3   6
HETATM    6  C   UNL     1      -9.930  13.815  64.249  1.00  0.00     0.692 C  
BRANCH   6   7
HETATM    7  C   UNL     1      -9.709  14.128  65.715  1.00  0.00    -0.246 A  
HETATM    8  C   UNL     1      -9.712  15.436  66.214  1.00  0.00    -0.299 A  
HETATM    9  C   UNL     1      -9.255  15.707  67.493  1.00  0.00    -0.203 A  
HETATM   10  O   UNL     1     -10.057  16.503  65.433  1.00  0.00    -0.570 OA 
HETATM   11  C   UNL     1      -8.779  14.662  68.292  1.00  0.00    -0.173 A  
HETATM   12  H   UNL     1     -10.060  17.391  65.771  1.00  0.00     0.000 HD 
HETATM   13  C   UNL     1      -8.832  13.330  67.856  1.00  0.00    -0.192 A  
HETATM   14  C   UNL     1      -9.353  13.079  66.581  1.00  0.00    -0.242 A  
BRANCH  13  15
HETATM   15  N   UNL     1      -8.436  12.216  68.638  1.00  0.00    -0.338 NA 
HETATM   16  H   UNL     1      -7.544  12.299  69.125  1.00  0.00     0.000 HD 
BRANCH  15  17
HETATM   17  C   UNL     1      -9.145  10.992  68.822  1.00  0.00    -0.157 A  
HETATM   18  C   UNL     1      -8.560   9.729  68.571  1.00  0.00    -0.120 A  
HETATM   19  C   UNL     1      -7.168   9.540  68.412  1.00  0.00    -0.075 A  
HETATM   20  C   UNL     1      -6.654   8.314  68.007  1.00  0.00    -0.057 A  
HETATM   21  C   UNL     1      -7.529   7.263  67.778  1.00  0.00    -0.102 A  
HETATM   22 CL   UNL     1      -6.926   5.776  67.161  1.00  0.00    -0.064 Cl 
HETATM   23  C   UNL     1      -8.892   7.412  68.030  1.00  0.00    -0.126 A  
HETATM   24  C   UNL     1      -9.420   8.618  68.463  1.00  0.00    -0.142 A  
HETATM   25  N   UNL     1     -10.735   8.697  68.728  1.00  0.00    -0.127 NA 
HETATM   26  C   UNL     1     -11.242   9.894  69.092  1.00  0.00    -0.107 A  
HETATM   27  C   UNL     1     -10.508  11.059  69.123  1.00  0.00    -0.238 A  
ENDBRANCH  15  17
ENDBRANCH  13  15
ENDBRANCH   6   7
ENDBRANCH   3   6
ENDBRANCH   2   3
TORSDOF 6
ENDMDL
MODEL      298
REMARK 921   NORMALIZED FREE ENERGY PREDICTED BY IDOCK:   -3.23 KCAL/MOL
REMARK 922        TOTAL FREE ENERGY PREDICTED BY IDOCK:   -5.38 KCAL/MOL
REMARK 923 INTER-LIGAND FREE ENERGY PREDICTED BY IDOCK:   -4.14 KCAL/MOL
REMARK 924 INTRA-LIGAND FREE ENERGY PREDICTED BY IDOCK:   -1.24 KCAL/MOL
REMARK 927      BINDING AFFINITY PREDICTED BY RF-SCORE:    0.00 PKD
ROOT
HETATM    1  C   UNL     1     -10.810   3.204  73.322  1.00  0.00    -0.283 C  
HETATM    2  C   UNL     1      -9.873   3.655  72.207  1.00  0.00    -0.165 C  
ENDROOT
BRANCH   2   3
HETATM    3  N   UNL     1      -9.711   5.124  72.122  1.00  0.00    -0.158 NA 
BRANCH   3   4
HETATM    4  C   UNL     1     -10.986   5.854  72.244  1.00  0.00    -0.265 C  
HETATM    5  C   UNL     1     -11.335   6.824  71.116  1.00  0.00    -0.342 C  
ENDBRANCH   3   4
BRANCH   3   6
HETATM    6  C   UNL     1      -8.706   5.626  73.094  1.00  0.00    -0.120 C  
BRANCH   6   7
HETATM    7  C   UNL     1      -7.683   6.540  72.450  1.00  0.00    -0.096 A  
HETATM    8  C   UNL     1      -6.856   7.387  73.197  1.00  0.00    -0.065 A  
HETATM    9  C   UNL     1      -6.123   8.387  72.579  1.00  0.00    -0.072 A  
HETATM   10  O   UNL     1      -6.820   7.338  74.562  1.00  0.00    -0.095 OA 
HETATM   11  C   UNL     1      -6.216   8.555  71.193  1.00  0.00    -0.041 A  
HETATM   12  H   UNL     1      -6.259   7.912  75.069  1.00  0.00     0.000 HD 
HETATM   13  C   UNL     1      -6.974   7.678  70.403  1.00  0.00    -0.047 A  
HETATM   14  C   UNL     1      -7.658   6.641  71.048  1.00  0.00    -0.085 A  
BRANCH  13  15
HETATM   15  N   UNL     1      -7.055   7.744  68.989  1.00  0.00    -0.072 NA 
HETATM   16  H   UNL     1      -6.169   7.754  68.485  1.00  0.00     0.000 HD 
BRANCH  15  17
HETATM   17  C   UNL     1      -8.237   7.796  68.191  1.00  0.00    -0.124 A  
HETATM   18  C   UNL     1      -8.985   8.984  68.018  1.00  0.00    -0.133 A  
HETATM   19  C   UNL     1      -8.490  10.265  68.352  1.00  0.00    -0.124 A  
HETATM   20  C   UNL     1      -9.314  11.383  68.316  1.00  0.00    -0.187 A  
HETATM   21  C   UNL     1     -10.636  11.228  67.926  1.00  0.00    -0.194 A  
HETATM   22 CL   UNL     1     -11.703  12.575  67.991  1.00  0.00    -0.398 Cl 
HETATM   23  C   UNL     1     -11.105   9.988  67.498  1.00  0.00    -0.190 A  
HETATM   24  C   UNL     1     -10.289   8.867  67.498  1.00  0.00    -0.263 A  
HETATM   25  N   UNL     1     -10.780   7.703  67.039  1.00  0.00    -0.339 NA 
HETATM   26  C   UNL     1      -9.991   6.609  67.101  1.00  0.00    -0.160 A  
HETATM   27  C   UNL     1      -8.744   6.596  67.687  1.00  0.00    -0.118 A  
ENDBRANCH  15  17
ENDBRANCH  13  15
ENDBRANCH   6   7
ENDBRANCH   3   6
ENDBRANCH   2   3
TORSDOF 6
ENDMDL
MODEL      299
REMARK 921   NORMALIZED FREE ENERGY PREDICTED BY IDOCK:   -3.23 KCAL/MOL
REMARK 922        TOTAL FREE ENERGY PREDICTED BY IDOCK:   -5.38 KCAL/MOL
REMARK 923 INTER-LIGAND FREE ENERGY PREDICTED BY IDOCK:   -5.00 KCAL/MOL
REMARK 924 INTRA-LIGAND FREE ENERGY PREDICTED BY IDOCK:   -0.38 KCAL/MOL
REMARK 927      BINDING AFFINITY PREDICTED BY RF-SCORE:    0.00 PKD
ROOT
HETATM    1  C   UNL     1      -7.328   4.593  67.264  1.00  0.00    -0.074 C  
HETATM    2  C   UNL     1      -7.563   5.886  68.039  1.00  0.00    -0.089 C  
ENDROOT
BRANCH   2   3
HETATM    3  N   UNL     1      -8.774   6.623  67.615  1.00  0.00    -0.119 NA 
BRANCH   3   4
HETATM    4  C   UNL     1      -9.570   7.128  68.748  1.00  0.00    -0.144 C  
HETATM    5  C   UNL     1     -10.606   6.174  69.341  1.00  0.00    -0.349 C  
ENDBRANCH   3   4
BRANCH   3   6
HETATM    6  C   UNL     1      -8.452   7.709  66.655  1.00  0.00    -0.130 C  
BRANCH   6   7
HETATM    7  C   UNL     1      -8.430   9.076  67.310  1.00  0.00    -0.114 A  
HETATM    8  C   UNL     1      -7.432   9.459  68.215  1.00  0.00    -0.078 A  
HETATM    9  C   UNL     1      -7.578  10.600  68.987  1.00  0.00    -0.122 A  
HETATM   10  O   UNL     1      -6.337   8.677  68.455  1.00  0.00    -0.053 OA 
HETATM   11  C   UNL     1      -8.738  11.373  68.865  1.00  0.00    -0.012 A  
HETATM   12  H   UNL     1      -5.661   8.937  69.069  1.00  0.00     0.000 HD 
HETATM   13  C   UNL     1      -9.722  11.064  67.915  1.00  0.00    -0.172 A  
HETATM   14  C   UNL     1      -9.522   9.937  67.108  1.00  0.00    -0.190 A  
BRANCH  13  15
HETATM   15  N   UNL     1     -10.885  11.841  67.685  1.00  0.00    -0.206 NA 
HETATM   16  H   UNL     1     -11.559  11.884  68.450  1.00  0.00     0.000 HD 
BRANCH  15  17
HETATM   17  C   UNL     1     -11.220  12.571  66.506  1.00  0.00    -0.307 A  
HETATM   18  C   UNL     1     -10.751  13.883  66.264  1.00  0.00    -0.285 A  
HETATM   19  C   UNL     1      -9.692  14.472  66.993  1.00  0.00    -0.247 A  
HETATM   20  C   UNL     1      -9.373  15.814  66.832  1.00  0.00    -0.246 A  
HETATM   21  C   UNL     1     -10.099  16.572  65.926  1.00  0.00    -0.337 A  
HETATM   22 CL   UNL     1      -9.800  18.261  65.800  1.00  0.00     0.014 Cl 
HETATM   23  C   UNL     1     -11.076  15.976  65.130  1.00  0.00    -0.291 A  
HETATM   24  C   UNL     1     -11.388  14.631  65.255  1.00  0.00    -0.354 A  
HETATM   25  N   UNL     1     -12.312  14.098  64.437  1.00  0.00    -0.636 NA 
HETATM   26  C   UNL     1     -12.645  12.801  64.611  1.00  0.00    -0.419 A  
HETATM   27  C   UNL     1     -12.160  12.016  65.634  1.00  0.00    -0.037 A  
ENDBRANCH  15  17
ENDBRANCH  13  15
ENDBRANCH   6   7
ENDBRANCH   3   6
ENDBRANCH   2   3
TORSDOF 6
ENDMDL
MODEL      300
REMARK 921   NORMALIZED FREE ENERGY PREDICTED BY IDOCK:   -3.22 KCAL/MOL
REMARK 922        TOTAL FREE ENERGY PREDICTED BY IDOCK:   -5.36 KCAL/MOL
REMARK 923 INTER-LIGAND FREE ENERGY PREDICTED BY IDOCK:   -4.15 KCAL/MOL
REMARK 924 INTRA-LIGAND FREE ENERGY PREDICTED BY IDOCK:   -1.21 KCAL/MOL
REMARK 927      BINDING AFFINITY PREDICTED BY RF-SCORE:    0.00 PKD
ROOT
HETATM    1  C   UNL     1     -12.917  14.641  72.081  1.00  0.00    -0.421 C  
HETATM    2  C   UNL     1     -13.259  14.877  70.613  1.00  0.00    -0.274 C  
ENDROOT
BRANCH   2   3
HETATM    3  N   UNL     1     -12.562  13.958  69.684  1.00  0.00    -0.139 NA 
BRANCH   3   4
HETATM    4  C   UNL     1     -12.133  14.615  68.437  1.00  0.00    -0.188 C  
HETATM    5  C   UNL     1     -11.457  15.979  68.574  1.00  0.00    -0.357 C  
ENDBRANCH   3   4
BRANCH   3   6
HETATM    6  C   UNL     1     -11.430  13.259  70.344  1.00  0.00     0.238 C  
BRANCH   6   7
HETATM    7  C   UNL     1     -11.334  11.801  69.939  1.00  0.00    -0.201 A  
HETATM    8  C   UNL     1     -12.169  10.815  70.477  1.00  0.00    -0.366 A  
HETATM    9  C   UNL     1     -11.890   9.471  70.288  1.00  0.00    -0.109 A  
HETATM   10  O   UNL     1     -13.218  11.127  71.296  1.00  0.00    -0.305 OA 
HETATM   11  C   UNL     1     -10.758   9.097  69.556  1.00  0.00    -0.226 A  
HETATM   12  H   UNL     1     -13.784  10.458  71.661  1.00  0.00     0.000 HD 
HETATM   13  C   UNL     1      -9.942  10.056  68.937  1.00  0.00    -0.192 A  
HETATM   14  C   UNL     1     -10.280  11.405  69.097  1.00  0.00    -0.084 A  
BRANCH  13  15
HETATM   15  N   UNL     1      -8.824   9.748  68.121  1.00  0.00    -0.119 NA 
HETATM   16  H   UNL     1      -7.905   9.921  68.530  1.00  0.00     0.000 HD 
BRANCH  15  17
HETATM   17  C   UNL     1      -8.838   9.225  66.794  1.00  0.00    -0.127 A  
HETATM   18  C   UNL     1      -8.677   7.847  66.518  1.00  0.00    -0.162 A  
HETATM   19  C   UNL     1      -8.789   6.843  67.506  1.00  0.00    -0.118 A  
HETATM   20  C   UNL     1      -8.466   5.522  67.223  1.00  0.00    -0.110 A  
HETATM   21  C   UNL     1      -8.047   5.194  65.943  1.00  0.00    -0.109 A  
HETATM   22 CL   UNL     1      -7.526   3.590  65.605  1.00  0.00    -0.076 Cl 
HETATM   23  C   UNL     1      -8.030   6.158  64.937  1.00  0.00    -0.123 A  
HETATM   24  C   UNL     1      -8.379   7.475  65.192  1.00  0.00    -0.085 A  
HETATM   25  N   UNL     1      -8.383   8.357  64.178  1.00  0.00    -0.123 NA 
HETATM   26  C   UNL     1      -8.668   9.647  64.455  1.00  0.00    -0.202 A  
HETATM   27  C   UNL     1      -8.869  10.130  65.730  1.00  0.00    -0.177 A  
ENDBRANCH  15  17
ENDBRANCH  13  15
ENDBRANCH   6   7
ENDBRANCH   3   6
ENDBRANCH   2   3
TORSDOF 6
ENDMDL
MODEL      301
REMARK 921   NORMALIZED FREE ENERGY PREDICTED BY IDOCK:   -3.15 KCAL/MOL
REMARK 922        TOTAL FREE ENERGY PREDICTED BY IDOCK:   -5.27 KCAL/MOL
REMARK 923 INTER-LIGAND FREE ENERGY PREDICTED BY IDOCK:   -4.08 KCAL/MOL
REMARK 924 INTRA-LIGAND FREE ENERGY PREDICTED BY IDOCK:   -1.18 KCAL/MOL
REMARK 927      BINDING AFFINITY PREDICTED BY RF-SCORE:    0.00 PKD
ROOT
HETATM    1  C   UNL     1      -7.964  14.690  67.803  1.00  0.00    -0.166 C  
HETATM    2  C   UNL     1      -9.030  14.723  66.712  1.00  0.00    -0.266 C  
ENDROOT
BRANCH   2   3
HETATM    3  N   UNL     1     -10.207  13.873  67.003  1.00  0.00    -0.252 NA 
BRANCH   3   4
HETATM    4  C   UNL     1     -11.478  14.619  66.978  1.00  0.00    -0.368 C  
HETATM    5  C   UNL     1     -12.445  14.296  65.839  1.00  0.00    -0.404 C  
ENDBRANCH   3   4
BRANCH   3   6
HETATM    6  C   UNL     1     -10.262  12.683  66.117  1.00  0.00    -0.258 C  
BRANCH   6   7
HETATM    7  C   UNL     1     -10.065  11.386  66.875  1.00  0.00    -0.245 A  
HETATM    8  C   UNL     1     -10.961  10.944  67.856  1.00  0.00    -0.271 A  
HETATM    9  C   UNL     1     -10.625   9.902  68.704  1.00  0.00    -0.244 A  
HETATM   10  O   UNL     1     -12.145  11.585  68.091  1.00  0.00    -0.604 OA 
HETATM   11  C   UNL     1      -9.373   9.289  68.582  1.00  0.00    -0.139 A  
HETATM   12  H   UNL     1     -12.753  11.286  68.756  1.00  0.00     0.000 HD 
HETATM   13  C   UNL     1      -8.481   9.651  67.563  1.00  0.00    -0.125 A  
HETATM   14  C   UNL     1      -8.871  10.669  66.683  1.00  0.00    -0.149 A  
BRANCH  13  15
HETATM   15  N   UNL     1      -7.230   9.024  67.334  1.00  0.00    -0.083 NA 
HETATM   16  H   UNL     1      -6.808   9.179  66.418  1.00  0.00     0.000 HD 
BRANCH  15  17
HETATM   17  C   UNL     1      -6.495   8.203  68.239  1.00  0.00    -0.055 A  
HETATM   18  C   UNL     1      -6.611   6.793  68.253  1.00  0.00    -0.062 A  
HETATM   19  C   UNL     1      -7.213   6.057  67.207  1.00  0.00    -0.076 A  
HETATM   20  C   UNL     1      -7.450   4.695  67.336  1.00  0.00    -0.078 A  
HETATM   21  C   UNL     1      -7.068   4.056  68.505  1.00  0.00    -0.055 A  
HETATM   22 CL   UNL     1      -7.462   2.397  68.734  1.00  0.00    -0.047 Cl 
HETATM   23  C   UNL     1      -6.384   4.752  69.500  1.00  0.00    -0.027 A  
HETATM   24  C   UNL     1      -6.111   6.106  69.376  1.00  0.00    -0.029 A  
HETATM   25  N   UNL     1      -5.415   6.722  70.346  1.00  0.00    -0.022 NA 
HETATM   26  C   UNL     1      -5.208   8.051  70.239  1.00  0.00    -0.023 A  
HETATM   27  C   UNL     1      -5.745   8.831  69.237  1.00  0.00    -0.035 A  
ENDBRANCH  15  17
ENDBRANCH  13  15
ENDBRANCH   6   7
ENDBRANCH   3   6
ENDBRANCH   2   3
TORSDOF 6
ENDMDL
MODEL      302
REMARK 921   NORMALIZED FREE ENERGY PREDICTED BY IDOCK:   -3.03 KCAL/MOL
REMARK 922        TOTAL FREE ENERGY PREDICTED BY IDOCK:   -5.11 KCAL/MOL
REMARK 923 INTER-LIGAND FREE ENERGY PREDICTED BY IDOCK:   -5.04 KCAL/MOL
REMARK 924 INTRA-LIGAND FREE ENERGY PREDICTED BY IDOCK:   -0.07 KCAL/MOL
REMARK 927      BINDING AFFINITY PREDICTED BY RF-SCORE:    0.00 PKD
ROOT
HETATM    1  C   UNL     1      -6.253  10.554  64.194  1.00  0.00     0.009 C  
HETATM    2  C   UNL     1      -7.075  10.875  62.950  1.00  0.00     0.239 C  
ENDROOT
BRANCH   2   3
HETATM    3  N   UNL     1      -8.504  10.510  63.068  1.00  0.00    -0.173 NA 
BRANCH   3   4
HETATM    4  C   UNL     1      -8.774   9.107  62.703  1.00  0.00    -0.199 C  
HETATM    5  C   UNL     1      -8.436   8.046  63.750  1.00  0.00     0.152 C  
ENDBRANCH   3   4
BRANCH   3   6
HETATM    6  C   UNL     1      -9.047  10.832  64.412  1.00  0.00    -0.196 C  
BRANCH   6   7
HETATM    7  C   UNL     1     -10.071  11.949  64.372  1.00  0.00    -0.310 A  
HETATM    8  C   UNL     1     -11.161  11.938  63.494  1.00  0.00    -0.418 A  
HETATM    9  C   UNL     1     -11.924  13.079  63.298  1.00  0.00    -0.493 A  
HETATM   10  O   UNL     1     -11.450  10.852  62.717  1.00  0.00    -0.349 OA 
HETATM   11  C   UNL     1     -11.596  14.254  63.982  1.00  0.00    -0.100 A  
HETATM   12  H   UNL     1     -12.189  10.845  62.121  1.00  0.00     0.000 HD 
HETATM   13  C   UNL     1     -10.560  14.282  64.927  1.00  0.00    -0.431 A  
HETATM   14  C   UNL     1      -9.843  13.100  65.147  1.00  0.00    -0.076 A  
BRANCH  13  15
HETATM   15  N   UNL     1     -10.220  15.415  65.709  1.00  0.00    -0.325 NA 
HETATM   16  H   UNL     1     -10.521  16.320  65.347  1.00  0.00     0.000 HD 
BRANCH  15  17
HETATM   17  C   UNL     1      -9.507  15.432  66.944  1.00  0.00    -0.230 A  
HETATM   18  C   UNL     1      -8.800  16.570  67.399  1.00  0.00    -0.201 A  
HETATM   19  C   UNL     1      -8.976  17.859  66.847  1.00  0.00    -0.265 A  
HETATM   20  C   UNL     1      -8.147  18.913  67.213  1.00  0.00    -0.277 A  
HETATM   21  C   UNL     1      -7.151  18.687  68.150  1.00  0.00    -0.249 A  
HETATM   22 CL   UNL     1      -6.039  19.944  68.527  1.00  0.00    -0.281 Cl 
HETATM   23  C   UNL     1      -7.036  17.445  68.774  1.00  0.00    -0.236 A  
HETATM   24  C   UNL     1      -7.873  16.391  68.443  1.00  0.00    -0.176 A  
HETATM   25  N   UNL     1      -7.745  15.226  69.102  1.00  0.00    -0.183 NA 
HETATM   26  C   UNL     1      -8.528  14.192  68.728  1.00  0.00    -0.069 A  
HETATM   27  C   UNL     1      -9.388  14.233  67.652  1.00  0.00    -0.201 A  
ENDBRANCH  15  17
ENDBRANCH  13  15
ENDBRANCH   6   7
ENDBRANCH   3   6
ENDBRANCH   2   3
TORSDOF 6
ENDMDL
MODEL      303
REMARK 921   NORMALIZED FREE ENERGY PREDICTED BY IDOCK:   -3.00 KCAL/MOL
REMARK 922        TOTAL FREE ENERGY PREDICTED BY IDOCK:   -5.06 KCAL/MOL
REMARK 923 INTER-LIGAND FREE ENERGY PREDICTED BY IDOCK:   -3.86 KCAL/MOL
REMARK 924 INTRA-LIGAND FREE ENERGY PREDICTED BY IDOCK:   -1.21 KCAL/MOL
REMARK 927      BINDING AFFINITY PREDICTED BY RF-SCORE:    0.00 PKD
ROOT
HETATM    1  C   UNL     1     -10.809   7.173  71.105  1.00  0.00    -0.261 C  
HETATM    2  C   UNL     1     -11.041   6.507  72.458  1.00  0.00    -0.260 C  
ENDROOT
BRANCH   2   3
HETATM    3  N   UNL     1      -9.799   6.279  73.230  1.00  0.00    -0.162 NA 
BRANCH   3   4
HETATM    4  C   UNL     1      -9.587   7.280  74.291  1.00  0.00    -0.095 C  
HETATM    5  C   UNL     1      -8.311   8.118  74.202  1.00  0.00    -0.286 C  
ENDBRANCH   3   4
BRANCH   3   6
HETATM    6  C   UNL     1      -9.729   4.897  73.769  1.00  0.00    -0.135 C  
BRANCH   6   7
HETATM    7  C   UNL     1      -9.792   3.845  72.680  1.00  0.00    -0.208 A  
HETATM    8  C   UNL     1     -10.423   2.609  72.864  1.00  0.00    -0.148 A  
HETATM    9  C   UNL     1     -10.242   1.580  71.954  1.00  0.00    -0.207 A  
HETATM   10  O   UNL     1     -11.146   2.330  73.989  1.00  0.00    -0.176 OA 
HETATM   11  C   UNL     1      -9.414   1.777  70.844  1.00  0.00    -0.194 A  
HETATM   12  H   UNL     1     -11.574   1.491  74.114  1.00  0.00     0.000 HD 
HETATM   13  C   UNL     1      -8.828   3.024  70.586  1.00  0.00    -0.084 A  
HETATM   14  C   UNL     1      -9.074   4.064  71.491  1.00  0.00    -0.174 A  
BRANCH  13  15
HETATM   15  N   UNL     1      -8.039   3.317  69.445  1.00  0.00    -0.049 NA 
HETATM   16  H   UNL     1      -7.076   2.980  69.462  1.00  0.00     0.000 HD 
BRANCH  15  17
HETATM   17  C   UNL     1      -8.439   4.029  68.275  1.00  0.00    -0.093 A  
HETATM   18  C   UNL     1      -8.267   5.426  68.139  1.00  0.00    -0.099 A  
HETATM   19  C   UNL     1      -7.432   6.188  68.988  1.00  0.00    -0.087 A  
HETATM   20  C   UNL     1      -7.419   7.576  68.920  1.00  0.00    -0.096 A  
HETATM   21  C   UNL     1      -8.226   8.209  67.987  1.00  0.00    -0.129 A  
HETATM   22 CL   UNL     1      -8.316   9.926  67.968  1.00  0.00    -0.113 Cl 
HETATM   23  C   UNL     1      -8.975   7.462  67.079  1.00  0.00    -0.142 A  
HETATM   24  C   UNL     1      -8.977   6.076  67.111  1.00  0.00    -0.114 A  
HETATM   25  N   UNL     1      -9.686   5.404  66.188  1.00  0.00    -0.158 NA 
HETATM   26  C   UNL     1      -9.725   4.057  66.270  1.00  0.00    -0.187 A  
HETATM   27  C   UNL     1      -9.154   3.335  67.295  1.00  0.00    -0.201 A  
ENDBRANCH  15  17
ENDBRANCH  13  15
ENDBRANCH   6   7
ENDBRANCH   3   6
ENDBRANCH   2   3
TORSDOF 6
ENDMDL
MODEL      304
REMARK 921   NORMALIZED FREE ENERGY PREDICTED BY IDOCK:   -2.99 KCAL/MOL
REMARK 922        TOTAL FREE ENERGY PREDICTED BY IDOCK:   -5.06 KCAL/MOL
REMARK 923 INTER-LIGAND FREE ENERGY PREDICTED BY IDOCK:   -4.58 KCAL/MOL
REMARK 924 INTRA-LIGAND FREE ENERGY PREDICTED BY IDOCK:   -0.48 KCAL/MOL
REMARK 927      BINDING AFFINITY PREDICTED BY RF-SCORE:    0.00 PKD
ROOT
HETATM    1  C   UNL     1      -6.581   7.559  67.867  1.00  0.00    -0.058 C  
HETATM    2  C   UNL     1      -7.774   8.392  68.326  1.00  0.00    -0.106 C  
ENDROOT
BRANCH   2   3
HETATM    3  N   UNL     1      -9.058   7.656  68.303  1.00  0.00    -0.137 NA 
BRANCH   3   4
HETATM    4  C   UNL     1      -9.447   7.131  69.624  1.00  0.00    -0.152 C  
HETATM    5  C   UNL     1     -10.908   7.312  70.035  1.00  0.00    -0.271 C  
ENDBRANCH   3   4
BRANCH   3   6
HETATM    6  C   UNL     1     -10.148   8.465  67.701  1.00  0.00    -0.209 C  
BRANCH   6   7
HETATM    7  C   UNL     1      -9.625   9.657  66.924  1.00  0.00    -0.217 A  
HETATM    8  C   UNL     1      -9.074   9.535  65.642  1.00  0.00    -0.201 A  
HETATM    9  C   UNL     1      -8.375  10.585  65.070  1.00  0.00    -0.140 A  
HETATM   10  O   UNL     1      -9.105   8.355  64.954  1.00  0.00    -0.407 OA 
HETATM   11  C   UNL     1      -8.214  11.777  65.784  1.00  0.00     0.458 A  
HETATM   12  H   UNL     1      -8.731   8.272  64.085  1.00  0.00     0.000 HD 
HETATM   13  C   UNL     1      -8.816  11.963  67.036  1.00  0.00    -0.190 A  
HETATM   14  C   UNL     1      -9.565  10.906  67.566  1.00  0.00    -0.171 A  
BRANCH  13  15
HETATM   15  N   UNL     1      -8.756  13.168  67.782  1.00  0.00    -0.175 NA 
HETATM   16  H   UNL     1      -8.506  13.077  68.767  1.00  0.00     0.000 HD 
BRANCH  15  17
HETATM   17  C   UNL     1      -9.004  14.491  67.311  1.00  0.00    -0.210 A  
HETATM   18  C   UNL     1      -8.290  15.615  67.788  1.00  0.00    -0.157 A  
HETATM   19  C   UNL     1      -7.090  15.511  68.528  1.00  0.00    -0.115 A  
HETATM   20  C   UNL     1      -6.511  16.630  69.113  1.00  0.00    -0.200 A  
HETATM   21  C   UNL     1      -7.118  17.864  68.944  1.00  0.00    -0.264 A  
HETATM   22 CL   UNL     1      -6.486  19.241  69.759  1.00  0.00    -0.295 Cl 
HETATM   23  C   UNL     1      -8.245  17.992  68.133  1.00  0.00    -0.275 A  
HETATM   24  C   UNL     1      -8.819  16.891  67.516  1.00  0.00    -0.209 A  
HETATM   25  N   UNL     1      -9.882  17.075  66.713  1.00  0.00    -0.266 NA 
HETATM   26  C   UNL     1     -10.465  15.987  66.168  1.00  0.00    -0.326 A  
HETATM   27  C   UNL     1     -10.090  14.692  66.455  1.00  0.00    -0.286 A  
ENDBRANCH  15  17
ENDBRANCH  13  15
ENDBRANCH   6   7
ENDBRANCH   3   6
ENDBRANCH   2   3
TORSDOF 6
ENDMDL
MODEL      305
REMARK 921   NORMALIZED FREE ENERGY PREDICTED BY IDOCK:   -2.93 KCAL/MOL
REMARK 922        TOTAL FREE ENERGY PREDICTED BY IDOCK:   -4.98 KCAL/MOL
REMARK 923 INTER-LIGAND FREE ENERGY PREDICTED BY IDOCK:   -4.52 KCAL/MOL
REMARK 924 INTRA-LIGAND FREE ENERGY PREDICTED BY IDOCK:   -0.46 KCAL/MOL
REMARK 927      BINDING AFFINITY PREDICTED BY RF-SCORE:    0.00 PKD
ROOT
HETATM    1  C   UNL     1     -11.106  13.547  64.416  1.00  0.00    -0.397 C  
HETATM    2  C   UNL     1     -11.169  14.549  65.564  1.00  0.00    -0.335 C  
ENDROOT
BRANCH   2   3
HETATM    3  N   UNL     1     -11.651  13.967  66.837  1.00  0.00    -0.365 NA 
BRANCH   3   4
HETATM    4  C   UNL     1     -11.507  12.501  66.893  1.00  0.00    -0.353 C  
HETATM    5  C   UNL     1     -11.866  11.824  68.215  1.00  0.00    -0.340 C  
ENDBRANCH   3   4
BRANCH   3   6
HETATM    6  C   UNL     1     -11.021  14.617  68.015  1.00  0.00    -0.267 C  
BRANCH   6   7
HETATM    7  C   UNL     1      -9.508  14.548  67.975  1.00  0.00    -0.209 A  
HETATM    8  C   UNL     1      -8.704  15.693  67.933  1.00  0.00    -0.166 A  
HETATM    9  C   UNL     1      -7.353  15.599  67.638  1.00  0.00    -0.190 A  
HETATM   10  O   UNL     1      -9.229  16.947  68.068  1.00  0.00    -0.226 OA 
HETATM   11  C   UNL     1      -6.790  14.347  67.374  1.00  0.00    -0.052 A  
HETATM   12  H   UNL     1      -8.684  17.724  68.039  1.00  0.00     0.000 HD 
HETATM   13  C   UNL     1      -7.546  13.170  67.483  1.00  0.00    -0.163 A  
HETATM   14  C   UNL     1      -8.895  13.290  67.839  1.00  0.00    -0.192 A  
BRANCH  13  15
HETATM   15  N   UNL     1      -7.025  11.864  67.302  1.00  0.00    -0.134 NA 
HETATM   16  H   UNL     1      -6.238  11.605  67.898  1.00  0.00     0.000 HD 
BRANCH  15  17
HETATM   17  C   UNL     1      -7.476  10.872  66.382  1.00  0.00    -0.145 A  
HETATM   18  C   UNL     1      -8.263   9.766  66.781  1.00  0.00    -0.120 A  
HETATM   19  C   UNL     1      -8.919   9.696  68.032  1.00  0.00    -0.122 A  
HETATM   20  C   UNL     1      -9.546   8.528  68.446  1.00  0.00    -0.157 A  
HETATM   21  C   UNL     1      -9.539   7.428  67.602  1.00  0.00    -0.138 A  
HETATM   22 CL   UNL     1     -10.203   5.937  68.144  1.00  0.00    -0.198 Cl 
HETATM   23  C   UNL     1      -8.983   7.520  66.327  1.00  0.00    -0.199 A  
HETATM   24  C   UNL     1      -8.379   8.687  65.884  1.00  0.00    -0.136 A  
HETATM   25  N   UNL     1      -7.893   8.735  64.632  1.00  0.00    -0.119 NA 
HETATM   26  C   UNL     1      -7.257   9.858  64.237  1.00  0.00    -0.134 A  
HETATM   27  C   UNL     1      -6.998  10.925  65.070  1.00  0.00     0.337 A  
ENDBRANCH  15  17
ENDBRANCH  13  15
ENDBRANCH   6   7
ENDBRANCH   3   6
ENDBRANCH   2   3
TORSDOF 6
ENDMDL
MODEL      306
REMARK 921   NORMALIZED FREE ENERGY PREDICTED BY IDOCK:   -2.93 KCAL/MOL
REMARK 922        TOTAL FREE ENERGY PREDICTED BY IDOCK:   -4.98 KCAL/MOL
REMARK 923 INTER-LIGAND FREE ENERGY PREDICTED BY IDOCK:   -6.09 KCAL/MOL
REMARK 924 INTRA-LIGAND FREE ENERGY PREDICTED BY IDOCK:    1.12 KCAL/MOL
REMARK 927      BINDING AFFINITY PREDICTED BY RF-SCORE:    0.00 PKD
ROOT
HETATM    1  C   UNL     1      -9.031   4.975  65.991  1.00  0.00    -0.136 C  
HETATM    2  C   UNL     1      -9.218   6.486  65.894  1.00  0.00     0.012 C  
ENDROOT
BRANCH   2   3
HETATM    3  N   UNL     1      -8.253   7.259  66.707  1.00  0.00    -0.118 NA 
BRANCH   3   4
HETATM    4  C   UNL     1      -8.411   8.717  66.559  1.00  0.00    -0.108 C  
HETATM    5  C   UNL     1      -8.749   9.235  65.162  1.00  0.00    -0.216 C  
ENDBRANCH   3   4
BRANCH   3   6
HETATM    6  C   UNL     1      -8.285   6.854  68.136  1.00  0.00    -0.119 C  
BRANCH   6   7
HETATM    7  C   UNL     1      -9.019   7.855  69.006  1.00  0.00    -0.145 A  
HETATM    8  C   UNL     1      -8.973   7.811  70.405  1.00  0.00    -0.147 A  
HETATM    9  C   UNL     1      -9.851   8.566  71.165  1.00  0.00    -0.263 A  
HETATM   10  O   UNL     1      -8.149   6.949  71.071  1.00  0.00    -0.104 OA 
HETATM   11  C   UNL     1     -10.796   9.377  70.528  1.00  0.00    -0.336 A  
HETATM   12  H   UNL     1      -8.118   6.918  72.020  1.00  0.00     0.000 HD 
HETATM   13  C   UNL     1     -10.820   9.506  69.132  1.00  0.00    -0.173 A  
HETATM   14  C   UNL     1      -9.884   8.775  68.390  1.00  0.00    -0.189 A  
BRANCH  13  15
HETATM   15  N   UNL     1     -11.700  10.363  68.423  1.00  0.00    -0.717 NA 
HETATM   16  H   UNL     1     -12.257   9.930  67.686  1.00  0.00     0.000 HD 
BRANCH  15  17
HETATM   17  C   UNL     1     -11.893  11.762  68.623  1.00  0.00    -0.310 A  
HETATM   18  C   UNL     1     -11.695  12.712  67.594  1.00  0.00    -0.420 A  
HETATM   19  C   UNL     1     -11.586  12.362  66.228  1.00  0.00    -0.449 A  
HETATM   20  C   UNL     1     -11.231  13.306  65.274  1.00  0.00    -0.315 A  
HETATM   21  C   UNL     1     -11.003  14.613  65.676  1.00  0.00    -0.335 A  
HETATM   22 CL   UNL     1     -10.445  15.769  64.531  1.00  0.00     0.147 Cl 
HETATM   23  C   UNL     1     -11.206  14.989  67.003  1.00  0.00    -0.328 A  
HETATM   24  C   UNL     1     -11.590  14.067  67.964  1.00  0.00    -0.337 A  
HETATM   25  N   UNL     1     -11.809  14.489  69.221  1.00  0.00    -0.308 NA 
HETATM   26  C   UNL     1     -12.125  13.570  70.158  1.00  0.00    -0.354 A  
HETATM   27  C   UNL     1     -12.148  12.212  69.921  1.00  0.00    -0.324 A  
ENDBRANCH  15  17
ENDBRANCH  13  15
ENDBRANCH   6   7
ENDBRANCH   3   6
ENDBRANCH   2   3
TORSDOF 6
ENDMDL
MODEL      307
REMARK 921   NORMALIZED FREE ENERGY PREDICTED BY IDOCK:   -2.89 KCAL/MOL
REMARK 922        TOTAL FREE ENERGY PREDICTED BY IDOCK:   -4.91 KCAL/MOL
REMARK 923 INTER-LIGAND FREE ENERGY PREDICTED BY IDOCK:   -4.79 KCAL/MOL
REMARK 924 INTRA-LIGAND FREE ENERGY PREDICTED BY IDOCK:   -0.12 KCAL/MOL
REMARK 927      BINDING AFFINITY PREDICTED BY RF-SCORE:    0.00 PKD
ROOT
HETATM    1  C   UNL     1      -6.690  16.197  69.424  1.00  0.00    -0.205 C  
HETATM    2  C   UNL     1      -7.797  15.735  68.482  1.00  0.00    -0.139 C  
ENDROOT
BRANCH   2   3
HETATM    3  N   UNL     1      -8.131  14.298  68.614  1.00  0.00    -0.145 NA 
BRANCH   3   4
HETATM    4  C   UNL     1      -9.102  13.836  67.606  1.00  0.00    -0.196 C  
HETATM    5  C   UNL     1      -9.204  14.657  66.321  1.00  0.00    -0.257 C  
ENDBRANCH   3   4
BRANCH   3   6
HETATM    6  C   UNL     1      -6.914  13.447  68.623  1.00  0.00    -0.101 C  
BRANCH   6   7
HETATM    7  C   UNL     1      -7.125  12.126  67.910  1.00  0.00    -0.101 A  
HETATM    8  C   UNL     1      -6.291  11.690  66.873  1.00  0.00    -0.142 A  
HETATM    9  C   UNL     1      -6.656  10.618  66.075  1.00  0.00    -0.128 A  
HETATM   10  O   UNL     1      -5.150  12.362  66.535  1.00  0.00    -0.349 OA 
HETATM   11  C   UNL     1      -7.873   9.969  66.305  1.00  0.00    -0.111 A  
HETATM   12  H   UNL     1      -4.585  12.067  65.832  1.00  0.00     0.000 HD 
HETATM   13  C   UNL     1      -8.697  10.327  67.382  1.00  0.00    -0.128 A  
HETATM   14  C   UNL     1      -8.277  11.377  68.207  1.00  0.00    -0.150 A  
BRANCH  13  15
HETATM   15  N   UNL     1      -9.907   9.667  67.719  1.00  0.00    -0.153 NA 
HETATM   16  H   UNL     1     -10.529   9.441  66.943  1.00  0.00     0.000 HD 
BRANCH  15  17
HETATM   17  C   UNL     1     -10.350   9.284  69.019  1.00  0.00    -0.214 A  
HETATM   18  C   UNL     1     -11.254  10.066  69.776  1.00  0.00    -0.307 A  
HETATM   19  C   UNL     1     -12.022  11.115  69.219  1.00  0.00    -0.421 A  
HETATM   20  C   UNL     1     -12.772  11.958  70.029  1.00  0.00     0.176 A  
HETATM   21  C   UNL     1     -12.776  11.745  71.398  1.00  0.00    -0.308 A  
HETATM   22 CL   UNL     1     -13.600  12.849  72.428  1.00  0.00    -0.659 Cl 
HETATM   23  C   UNL     1     -12.103  10.653  71.945  1.00  0.00     0.303 A  
HETATM   24  C   UNL     1     -11.374   9.782  71.150  1.00  0.00    -0.389 A  
HETATM   25  N   UNL     1     -10.776   8.723  71.722  1.00  0.00    -0.317 NA 
HETATM   26  C   UNL     1     -10.021   7.919  70.944  1.00  0.00    -0.182 A  
HETATM   27  C   UNL     1      -9.755   8.169  69.615  1.00  0.00    -0.170 A  
ENDBRANCH  15  17
ENDBRANCH  13  15
ENDBRANCH   6   7
ENDBRANCH   3   6
ENDBRANCH   2   3
TORSDOF 6
ENDMDL
MODEL      308
REMARK 921   NORMALIZED FREE ENERGY PREDICTED BY IDOCK:   -2.81 KCAL/MOL
REMARK 922        TOTAL FREE ENERGY PREDICTED BY IDOCK:   -4.81 KCAL/MOL
REMARK 923 INTER-LIGAND FREE ENERGY PREDICTED BY IDOCK:   -3.69 KCAL/MOL
REMARK 924 INTRA-LIGAND FREE ENERGY PREDICTED BY IDOCK:   -1.12 KCAL/MOL
REMARK 927      BINDING AFFINITY PREDICTED BY RF-SCORE:    0.00 PKD
ROOT
HETATM    1  C   UNL     1     -12.274  13.705  70.072  1.00  0.00    -0.395 C  
HETATM    2  C   UNL     1     -12.117  13.676  68.555  1.00  0.00    -0.286 C  
ENDROOT
BRANCH   2   3
HETATM    3  N   UNL     1     -10.773  13.252  68.102  1.00  0.00    -0.242 NA 
BRANCH   3   4
HETATM    4  C   UNL     1      -9.876  14.387  67.819  1.00  0.00    -0.221 C  
HETATM    5  C   UNL     1      -8.504  14.364  68.492  1.00  0.00    -0.170 C  
ENDBRANCH   3   4
BRANCH   3   6
HETATM    6  C   UNL     1     -10.149  12.293  69.048  1.00  0.00     0.139 C  
BRANCH   6   7
HETATM    7  C   UNL     1     -10.176  10.868  68.531  1.00  0.00    -0.197 A  
HETATM    8  C   UNL     1     -11.069   9.908  69.022  1.00  0.00    -0.146 A  
HETATM    9  C   UNL     1     -10.900   8.566  68.722  1.00  0.00     0.004 A  
HETATM   10  O   UNL     1     -12.067  10.232  69.896  1.00  0.00    -0.434 OA 
HETATM   11  C   UNL     1      -9.821   8.167  67.925  1.00  0.00    -0.206 A  
HETATM   12  H   UNL     1     -12.673   9.581  70.229  1.00  0.00     0.000 HD 
HETATM   13  C   UNL     1      -8.952   9.107  67.352  1.00  0.00    -0.117 A  
HETATM   14  C   UNL     1      -9.181  10.461  67.625  1.00  0.00    -0.157 A  
BRANCH  13  15
HETATM   15  N   UNL     1      -7.885   8.782  66.478  1.00  0.00    -0.102 NA 
HETATM   16  H   UNL     1      -6.948   8.804  66.880  1.00  0.00     0.000 HD 
BRANCH  15  17
HETATM   17  C   UNL     1      -7.973   8.426  65.099  1.00  0.00    -0.136 A  
HETATM   18  C   UNL     1      -8.044   7.083  64.663  1.00  0.00    -0.083 A  
HETATM   19  C   UNL     1      -8.336   6.004  65.529  1.00  0.00    -0.146 A  
HETATM   20  C   UNL     1      -8.237   4.689  65.091  1.00  0.00    -0.118 A  
HETATM   21  C   UNL     1      -7.866   4.446  63.778  1.00  0.00    -0.087 A  
HETATM   22 CL   UNL     1      -7.620   2.827  63.250  1.00  0.00    -0.061 Cl 
HETATM   23  C   UNL     1      -7.675   5.504  62.890  1.00  0.00    -0.080 A  
HETATM   24  C   UNL     1      -7.799   6.822  63.301  1.00  0.00    -0.102 A  
HETATM   25  N   UNL     1      -7.643   7.804  62.396  1.00  0.00    -0.105 NA 
HETATM   26  C   UNL     1      -7.708   9.082  62.824  1.00  0.00    -0.114 A  
HETATM   27  C   UNL     1      -7.838   9.441  64.148  1.00  0.00    -0.124 A  
ENDBRANCH  15  17
ENDBRANCH  13  15
ENDBRANCH   6   7
ENDBRANCH   3   6
ENDBRANCH   2   3
TORSDOF 6
ENDMDL
MODEL      309
REMARK 921   NORMALIZED FREE ENERGY PREDICTED BY IDOCK:   -2.79 KCAL/MOL
REMARK 922        TOTAL FREE ENERGY PREDICTED BY IDOCK:   -4.79 KCAL/MOL
REMARK 923 INTER-LIGAND FREE ENERGY PREDICTED BY IDOCK:   -4.05 KCAL/MOL
REMARK 924 INTRA-LIGAND FREE ENERGY PREDICTED BY IDOCK:   -0.73 KCAL/MOL
REMARK 927      BINDING AFFINITY PREDICTED BY RF-SCORE:    0.00 PKD
ROOT
HETATM    1  C   UNL     1     -10.710   7.740  66.945  1.00  0.00    -0.244 C  
HETATM    2  C   UNL     1      -9.287   8.285  66.884  1.00  0.00    -0.176 C  
ENDROOT
BRANCH   2   3
HETATM    3  N   UNL     1      -8.534   7.852  65.685  1.00  0.00    -0.145 NA 
BRANCH   3   4
HETATM    4  C   UNL     1      -8.223   8.962  64.766  1.00  0.00    -0.163 C  
HETATM    5  C   UNL     1      -7.539  10.186  65.373  1.00  0.00    -0.144 C  
ENDBRANCH   3   4
BRANCH   3   6
HETATM    6  C   UNL     1      -7.312   7.089  66.045  1.00  0.00    -0.075 C  
BRANCH   6   7
HETATM    7  C   UNL     1      -7.184   6.871  67.540  1.00  0.00    -0.090 A  
HETATM    8  C   UNL     1      -6.325   7.633  68.341  1.00  0.00    -0.041 A  
HETATM    9  C   UNL     1      -6.038   7.244  69.639  1.00  0.00    -0.030 A  
HETATM   10  O   UNL     1      -5.654   8.716  67.848  1.00  0.00    -0.035 OA 
HETATM   11  C   UNL     1      -6.609   6.075  70.152  1.00  0.00    -0.040 A  
HETATM   12  H   UNL     1      -5.071   9.233  68.391  1.00  0.00     0.000 HD 
HETATM   13  C   UNL     1      -7.534   5.329  69.408  1.00  0.00    -0.065 A  
HETATM   14  C   UNL     1      -7.850   5.776  68.119  1.00  0.00    -0.104 A  
BRANCH  13  15
HETATM   15  N   UNL     1      -8.206   4.177  69.889  1.00  0.00    -0.057 NA 
HETATM   16  H   UNL     1      -8.050   3.312  69.370  1.00  0.00     0.000 HD 
BRANCH  15  17
HETATM   17  C   UNL     1      -9.075   4.090  71.017  1.00  0.00    -0.116 A  
HETATM   18  C   UNL     1     -10.214   4.915  71.165  1.00  0.00    -0.261 A  
HETATM   19  C   UNL     1     -10.763   5.671  70.104  1.00  0.00    -0.376 A  
HETATM   20  C   UNL     1     -11.781   6.589  70.332  1.00  0.00    -0.439 A  
HETATM   21  C   UNL     1     -12.270   6.741  71.621  1.00  0.00    -0.365 A  
HETATM   22 CL   UNL     1     -13.443   7.956  71.946  1.00  0.00    -0.347 Cl 
HETATM   23  C   UNL     1     -11.805   5.928  72.653  1.00  0.00    -0.192 A  
HETATM   24  C   UNL     1     -10.811   4.985  72.438  1.00  0.00    -0.169 A  
HETATM   25  N   UNL     1     -10.426   4.201  73.459  1.00  0.00    -0.165 NA 
HETATM   26  C   UNL     1      -9.417   3.329  73.249  1.00  0.00    -0.100 A  
HETATM   27  C   UNL     1      -8.699   3.257  72.074  1.00  0.00    -0.114 A  
ENDBRANCH  15  17
ENDBRANCH  13  15
ENDBRANCH   6   7
ENDBRANCH   3   6
ENDBRANCH   2   3
TORSDOF 6
ENDMDL
MODEL      310
REMARK 921   NORMALIZED FREE ENERGY PREDICTED BY IDOCK:   -2.77 KCAL/MOL
REMARK 922        TOTAL FREE ENERGY PREDICTED BY IDOCK:   -4.76 KCAL/MOL
REMARK 923 INTER-LIGAND FREE ENERGY PREDICTED BY IDOCK:   -3.40 KCAL/MOL
REMARK 924 INTRA-LIGAND FREE ENERGY PREDICTED BY IDOCK:   -1.36 KCAL/MOL
REMARK 927      BINDING AFFINITY PREDICTED BY RF-SCORE:    0.00 PKD
ROOT
HETATM    1  C   UNL     1      -8.536   8.035  63.705  1.00  0.00     0.148 C  
HETATM    2  C   UNL     1      -7.579   8.804  64.610  1.00  0.00    -0.109 C  
ENDROOT
BRANCH   2   3
HETATM    3  N   UNL     1      -6.299   8.103  64.858  1.00  0.00    -0.049 NA 
BRANCH   3   4
HETATM    4  C   UNL     1      -5.128   8.994  64.774  1.00  0.00    -0.037 C  
HETATM    5  C   UNL     1      -5.408  10.484  64.579  1.00  0.00    -0.146 C  
ENDBRANCH   3   4
BRANCH   3   6
HETATM    6  C   UNL     1      -6.318   7.355  66.140  1.00  0.00    -0.042 C  
BRANCH   6   7
HETATM    7  C   UNL     1      -6.875   5.953  65.986  1.00  0.00    -0.061 A  
HETATM    8  C   UNL     1      -6.591   5.150  64.875  1.00  0.00    -0.043 A  
HETATM    9  C   UNL     1      -7.312   3.991  64.637  1.00  0.00    -0.071 A  
HETATM   10  O   UNL     1      -5.679   5.525  63.929  1.00  0.00    -0.016 OA 
HETATM   11  C   UNL     1      -8.338   3.624  65.514  1.00  0.00    -0.105 A  
HETATM   12  H   UNL     1      -5.487   4.980  63.175  1.00  0.00     0.000 HD 
HETATM   13  C   UNL     1      -8.600   4.362  66.678  1.00  0.00    -0.111 A  
HETATM   14  C   UNL     1      -7.818   5.497  66.923  1.00  0.00    -0.101 A  
BRANCH  13  15
HETATM   15  N   UNL     1      -9.573   4.009  67.647  1.00  0.00    -0.179 NA 
HETATM   16  H   UNL     1     -10.458   3.650  67.289  1.00  0.00     0.000 HD 
BRANCH  15  17
HETATM   17  C   UNL     1      -9.454   4.100  69.066  1.00  0.00    -0.174 A  
HETATM   18  C   UNL     1     -10.056   5.138  69.815  1.00  0.00    -0.336 A  
HETATM   19  C   UNL     1     -11.057   5.989  69.291  1.00  0.00    -0.424 A  
HETATM   20  C   UNL     1     -11.502   7.093  70.006  1.00  0.00    -0.200 A  
HETATM   21  C   UNL     1     -10.965   7.341  71.260  1.00  0.00    -0.243 A  
HETATM   22 CL   UNL     1     -11.414   8.768  72.108  1.00  0.00    -0.434 Cl 
HETATM   23  C   UNL     1     -10.053   6.452  71.826  1.00  0.00    -0.206 A  
HETATM   24  C   UNL     1      -9.619   5.328  71.140  1.00  0.00    -0.163 A  
HETATM   25  N   UNL     1      -8.768   4.483  71.746  1.00  0.00    -0.115 NA 
HETATM   26  C   UNL     1      -8.310   3.425  71.044  1.00  0.00    -0.066 A  
HETATM   27  C   UNL     1      -8.593   3.209  69.712  1.00  0.00    -0.113 A  
ENDBRANCH  15  17
ENDBRANCH  13  15
ENDBRANCH   6   7
ENDBRANCH   3   6
ENDBRANCH   2   3
TORSDOF 6
ENDMDL
MODEL      311
REMARK 921   NORMALIZED FREE ENERGY PREDICTED BY IDOCK:   -2.73 KCAL/MOL
REMARK 922        TOTAL FREE ENERGY PREDICTED BY IDOCK:   -4.70 KCAL/MOL
REMARK 923 INTER-LIGAND FREE ENERGY PREDICTED BY IDOCK:   -4.55 KCAL/MOL
REMARK 924 INTRA-LIGAND FREE ENERGY PREDICTED BY IDOCK:   -0.16 KCAL/MOL
REMARK 927      BINDING AFFINITY PREDICTED BY RF-SCORE:    0.00 PKD
ROOT
HETATM    1  C   UNL     1      -7.873  19.672  68.607  1.00  0.00    -0.349 C  
HETATM    2  C   UNL     1      -8.092  18.756  67.407  1.00  0.00    -0.251 C  
ENDROOT
BRANCH   2   3
HETATM    3  N   UNL     1      -9.105  17.702  67.639  1.00  0.00    -0.239 NA 
BRANCH   3   4
HETATM    4  C   UNL     1      -9.258  16.786  66.494  1.00  0.00    -0.268 C  
HETATM    5  C   UNL     1     -10.391  17.090  65.515  1.00  0.00    -0.161 C  
ENDBRANCH   3   4
BRANCH   3   6
HETATM    6  C   UNL     1      -8.849  16.956  68.897  1.00  0.00    -0.216 C  
BRANCH   6   7
HETATM    7  C   UNL     1      -7.868  15.817  68.707  1.00  0.00    -0.180 A  
HETATM    8  C   UNL     1      -6.493  15.964  68.925  1.00  0.00    -0.122 A  
HETATM    9  C   UNL     1      -5.601  14.994  68.498  1.00  0.00    -0.099 A  
HETATM   10  O   UNL     1      -5.967  17.106  69.461  1.00  0.00    -0.208 OA 
HETATM   11  C   UNL     1      -6.080  13.858  67.837  1.00  0.00    -0.153 A  
HETATM   12  H   UNL     1      -5.034  17.206  69.608  1.00  0.00     0.000 HD 
HETATM   13  C   UNL     1      -7.455  13.639  67.670  1.00  0.00    -0.183 A  
HETATM   14  C   UNL     1      -8.337  14.609  68.162  1.00  0.00    -0.144 A  
BRANCH  13  15
HETATM   15  N   UNL     1      -8.014  12.479  67.076  1.00  0.00    -0.344 NA 
HETATM   16  H   UNL     1      -7.662  12.230  66.152  1.00  0.00     0.000 HD 
BRANCH  15  17
HETATM   17  C   UNL     1      -9.013  11.621  67.625  1.00  0.00    -0.166 A  
HETATM   18  C   UNL     1      -8.710  10.349  68.165  1.00  0.00    -0.125 A  
HETATM   19  C   UNL     1      -7.396   9.938  68.484  1.00  0.00    -0.078 A  
HETATM   20  C   UNL     1      -7.127   8.628  68.859  1.00  0.00    -0.066 A  
HETATM   21  C   UNL     1      -8.176   7.724  68.935  1.00  0.00    -0.127 A  
HETATM   22 CL   UNL     1      -7.849   6.071  69.278  1.00  0.00    -0.101 Cl 
HETATM   23  C   UNL     1      -9.488   8.145  68.721  1.00  0.00    -0.148 A  
HETATM   24  C   UNL     1      -9.779   9.456  68.376  1.00  0.00    -0.149 A  
HETATM   25  N   UNL     1     -11.063   9.819  68.217  1.00  0.00    -0.161 NA 
HETATM   26  C   UNL     1     -11.325  11.083  67.825  1.00  0.00    -0.292 A  
HETATM   27  C   UNL     1     -10.351  11.999  67.491  1.00  0.00    -0.217 A  
ENDBRANCH  15  17
ENDBRANCH  13  15
ENDBRANCH   6   7
ENDBRANCH   3   6
ENDBRANCH   2   3
TORSDOF 6
ENDMDL
MODEL      312
REMARK 921   NORMALIZED FREE ENERGY PREDICTED BY IDOCK:   -2.72 KCAL/MOL
REMARK 922        TOTAL FREE ENERGY PREDICTED BY IDOCK:   -4.68 KCAL/MOL
REMARK 923 INTER-LIGAND FREE ENERGY PREDICTED BY IDOCK:   -4.45 KCAL/MOL
REMARK 924 INTRA-LIGAND FREE ENERGY PREDICTED BY IDOCK:   -0.23 KCAL/MOL
REMARK 927      BINDING AFFINITY PREDICTED BY RF-SCORE:    0.00 PKD
ROOT
HETATM    1  C   UNL     1      -8.601   5.387  64.346  1.00  0.00    -0.060 C  
HETATM    2  C   UNL     1      -8.062   5.836  65.700  1.00  0.00    -0.119 C  
ENDROOT
BRANCH   2   3
HETATM    3  N   UNL     1      -8.651   5.110  66.847  1.00  0.00    -0.106 NA 
BRANCH   3   4
HETATM    4  C   UNL     1      -7.740   5.016  68.002  1.00  0.00    -0.083 C  
HETATM    5  C   UNL     1      -7.517   3.625  68.593  1.00  0.00    -0.054 C  
ENDBRANCH   3   4
BRANCH   3   6
HETATM    6  C   UNL     1      -9.967   5.674  67.242  1.00  0.00    -0.159 C  
BRANCH   6   7
HETATM    7  C   UNL     1      -9.863   6.612  68.428  1.00  0.00    -0.138 A  
HETATM    8  C   UNL     1     -10.212   6.224  69.727  1.00  0.00    -0.187 A  
HETATM    9  C   UNL     1     -10.354   7.165  70.733  1.00  0.00    -0.219 A  
HETATM   10  O   UNL     1     -10.532   4.930  70.030  1.00  0.00    -0.244 OA 
HETATM   11  C   UNL     1     -10.152   8.519  70.445  1.00  0.00    -0.208 A  
HETATM   12  H   UNL     1     -10.768   4.666  70.911  1.00  0.00     0.000 HD 
HETATM   13  C   UNL     1      -9.727   8.938  69.176  1.00  0.00    -0.168 A  
HETATM   14  C   UNL     1      -9.536   7.959  68.193  1.00  0.00    -0.154 A  
BRANCH  13  15
HETATM   15  N   UNL     1      -9.434  10.283  68.834  1.00  0.00    -0.178 NA 
HETATM   16  H   UNL     1      -8.499  10.462  68.466  1.00  0.00     0.000 HD 
BRANCH  15  17
HETATM   17  C   UNL     1     -10.297  11.413  68.946  1.00  0.00    -0.184 A  
HETATM   18  C   UNL     1      -9.899  12.715  68.562  1.00  0.00    -0.152 A  
HETATM   19  C   UNL     1      -8.756  12.972  67.771  1.00  0.00    -0.188 A  
HETATM   20  C   UNL     1      -8.314  14.271  67.554  1.00  0.00    -0.198 A  
HETATM   21  C   UNL     1      -9.024  15.322  68.112  1.00  0.00    -0.173 A  
HETATM   22 CL   UNL     1      -8.426  16.927  67.957  1.00  0.00    -0.207 Cl 
HETATM   23  C   UNL     1     -10.208  15.084  68.808  1.00  0.00    -0.235 A  
HETATM   24  C   UNL     1     -10.682  13.797  69.008  1.00  0.00    -0.182 A  
HETATM   25  N   UNL     1     -11.849  13.625  69.653  1.00  0.00    -0.317 NA 
HETATM   26  C   UNL     1     -12.266  12.364  69.891  1.00  0.00    -0.157 A  
HETATM   27  C   UNL     1     -11.524  11.242  69.591  1.00  0.00    -0.380 A  
ENDBRANCH  15  17
ENDBRANCH  13  15
ENDBRANCH   6   7
ENDBRANCH   3   6
ENDBRANCH   2   3
TORSDOF 6
ENDMDL
MODEL      313
REMARK 921   NORMALIZED FREE ENERGY PREDICTED BY IDOCK:   -2.65 KCAL/MOL
REMARK 922        TOTAL FREE ENERGY PREDICTED BY IDOCK:   -4.60 KCAL/MOL
REMARK 923 INTER-LIGAND FREE ENERGY PREDICTED BY IDOCK:   -3.68 KCAL/MOL
REMARK 924 INTRA-LIGAND FREE ENERGY PREDICTED BY IDOCK:   -0.91 KCAL/MOL
REMARK 927      BINDING AFFINITY PREDICTED BY RF-SCORE:    0.00 PKD
ROOT
HETATM    1  C   UNL     1      -8.924  16.492  66.076  1.00  0.00    -0.276 C  
HETATM    2  C   UNL     1      -9.770  15.258  66.371  1.00  0.00    -0.285 C  
ENDROOT
BRANCH   2   3
HETATM    3  N   UNL     1     -10.021  15.038  67.814  1.00  0.00    -0.228 NA 
BRANCH   3   4
HETATM    4  C   UNL     1     -11.231  15.725  68.300  1.00  0.00    -0.356 C  
HETATM    5  C   UNL     1     -11.210  16.214  69.748  1.00  0.00    -0.343 C  
ENDBRANCH   3   4
BRANCH   3   6
HETATM    6  C   UNL     1     -10.045  13.593  68.157  1.00  0.00    -0.245 C  
BRANCH   6   7
HETATM    7  C   UNL     1      -8.686  12.939  68.006  1.00  0.00    -0.191 A  
HETATM    8  C   UNL     1      -7.493  13.606  68.308  1.00  0.00    -0.124 A  
HETATM    9  C   UNL     1      -6.271  13.081  67.920  1.00  0.00    -0.134 A  
HETATM   10  O   UNL     1      -7.486  14.841  68.893  1.00  0.00    -0.121 OA 
HETATM   11  C   UNL     1      -6.231  11.875  67.213  1.00  0.00    -0.140 A  
HETATM   12  H   UNL     1      -6.677  15.294  69.097  1.00  0.00     0.000 HD 
HETATM   13  C   UNL     1      -7.399  11.140  66.960  1.00  0.00    -0.128 A  
HETATM   14  C   UNL     1      -8.615  11.665  67.415  1.00  0.00    -0.149 A  
BRANCH  13  15
HETATM   15  N   UNL     1      -7.426   9.877  66.315  1.00  0.00    -0.100 NA 
HETATM   16  H   UNL     1      -7.573   9.888  65.306  1.00  0.00     0.000 HD 
BRANCH  15  17
HETATM   17  C   UNL     1      -7.272   8.594  66.918  1.00  0.00    -0.075 A  
HETATM   18  C   UNL     1      -7.696   7.401  66.288  1.00  0.00    -0.093 A  
HETATM   19  C   UNL     1      -8.025   7.328  64.915  1.00  0.00    -0.127 A  
HETATM   20  C   UNL     1      -8.590   6.179  64.375  1.00  0.00     0.182 A  
HETATM   21  C   UNL     1      -8.810   5.088  65.202  1.00  0.00    -0.153 A  
HETATM   22 CL   UNL     1      -9.618   3.702  64.582  1.00  0.00    -0.162 Cl 
HETATM   23  C   UNL     1      -8.396   5.116  66.533  1.00  0.00    -0.108 A  
HETATM   24  C   UNL     1      -7.803   6.243  67.082  1.00  0.00    -0.105 A  
HETATM   25  N   UNL     1      -7.387   6.204  68.359  1.00  0.00    -0.084 NA 
HETATM   26  C   UNL     1      -6.866   7.327  68.895  1.00  0.00    -0.072 A  
HETATM   27  C   UNL     1      -6.815   8.537  68.238  1.00  0.00    -0.066 A  
ENDBRANCH  15  17
ENDBRANCH  13  15
ENDBRANCH   6   7
ENDBRANCH   3   6
ENDBRANCH   2   3
TORSDOF 6
ENDMDL
MODEL      314
REMARK 921   NORMALIZED FREE ENERGY PREDICTED BY IDOCK:   -2.62 KCAL/MOL
REMARK 922        TOTAL FREE ENERGY PREDICTED BY IDOCK:   -4.55 KCAL/MOL
REMARK 923 INTER-LIGAND FREE ENERGY PREDICTED BY IDOCK:   -4.61 KCAL/MOL
REMARK 924 INTRA-LIGAND FREE ENERGY PREDICTED BY IDOCK:    0.06 KCAL/MOL
REMARK 927      BINDING AFFINITY PREDICTED BY RF-SCORE:    0.00 PKD
ROOT
HETATM    1  C   UNL     1     -11.032  16.608  65.403  1.00  0.00    -0.096 C  
HETATM    2  C   UNL     1     -10.576  17.755  66.300  1.00  0.00    -0.220 C  
ENDROOT
BRANCH   2   3
HETATM    3  N   UNL     1     -10.675  17.456  67.747  1.00  0.00    -0.365 NA 
BRANCH   3   4
HETATM    4  C   UNL     1     -10.846  16.019  68.028  1.00  0.00    -0.335 C  
HETATM    5  C   UNL     1     -12.016  15.628  68.931  1.00  0.00    -0.298 C  
ENDBRANCH   3   4
BRANCH   3   6
HETATM    6  C   UNL     1      -9.534  18.023  68.508  1.00  0.00    -0.319 C  
BRANCH   6   7
HETATM    7  C   UNL     1      -8.238  17.281  68.250  1.00  0.00    -0.237 A  
HETATM    8  C   UNL     1      -7.543  17.380  67.038  1.00  0.00    -0.205 A  
HETATM    9  C   UNL     1      -6.515  16.501  66.738  1.00  0.00    -0.123 A  
HETATM   10  O   UNL     1      -7.915  18.264  66.065  1.00  0.00    -0.458 OA 
HETATM   11  C   UNL     1      -6.174  15.500  67.653  1.00  0.00    -0.174 A  
HETATM   12  H   UNL     1      -7.444  18.331  65.243  1.00  0.00     0.000 HD 
HETATM   13  C   UNL     1      -6.794  15.418  68.908  1.00  0.00    -0.124 A  
HETATM   14  C   UNL     1      -7.790  16.355  69.208  1.00  0.00    -0.153 A  
BRANCH  13  15
HETATM   15  N   UNL     1      -6.449  14.478  69.912  1.00  0.00    -0.153 NA 
HETATM   16  H   UNL     1      -6.235  14.859  70.834  1.00  0.00     0.000 HD 
BRANCH  15  17
HETATM   17  C   UNL     1      -6.367  13.060  69.779  1.00  0.00    -0.063 A  
HETATM   18  C   UNL     1      -7.380  12.295  69.154  1.00  0.00     0.091 A  
HETATM   19  C   UNL     1      -8.396  12.865  68.353  1.00  0.00    -0.116 A  
HETATM   20  C   UNL     1      -9.459  12.098  67.894  1.00  0.00    -0.195 A  
HETATM   21  C   UNL     1      -9.502  10.750  68.216  1.00  0.00    -0.164 A  
HETATM   22 CL   UNL     1     -10.869   9.811  67.761  1.00  0.00    -0.330 Cl 
HETATM   23  C   UNL     1      -8.454  10.159  68.919  1.00  0.00    -0.139 A  
HETATM   24  C   UNL     1      -7.369  10.902  69.360  1.00  0.00    -0.116 A  
HETATM   25  N   UNL     1      -6.367  10.275  70.000  1.00  0.00    -0.086 NA 
HETATM   26  C   UNL     1      -5.347  11.022  70.474  1.00  0.00    -0.100 A  
HETATM   27  C   UNL     1      -5.315  12.399  70.418  1.00  0.00    -0.131 A  
ENDBRANCH  15  17
ENDBRANCH  13  15
ENDBRANCH   6   7
ENDBRANCH   3   6
ENDBRANCH   2   3
TORSDOF 6
ENDMDL
MODEL      315
REMARK 921   NORMALIZED FREE ENERGY PREDICTED BY IDOCK:   -2.52 KCAL/MOL
REMARK 922        TOTAL FREE ENERGY PREDICTED BY IDOCK:   -4.42 KCAL/MOL
REMARK 923 INTER-LIGAND FREE ENERGY PREDICTED BY IDOCK:   -3.46 KCAL/MOL
REMARK 924 INTRA-LIGAND FREE ENERGY PREDICTED BY IDOCK:   -0.96 KCAL/MOL
REMARK 927      BINDING AFFINITY PREDICTED BY RF-SCORE:    0.00 PKD
ROOT
HETATM    1  C   UNL     1     -12.395  14.473  68.253  1.00  0.00     0.013 C  
HETATM    2  C   UNL     1     -12.156  13.012  67.886  1.00  0.00    -0.186 C  
ENDROOT
BRANCH   2   3
HETATM    3  N   UNL     1     -10.941  12.794  67.068  1.00  0.00    -0.257 NA 
BRANCH   3   4
HETATM    4  C   UNL     1     -11.063  13.327  65.699  1.00  0.00    -0.282 C  
HETATM    5  C   UNL     1     -11.831  12.471  64.693  1.00  0.00    -0.439 C  
ENDBRANCH   3   4
BRANCH   3   6
HETATM    6  C   UNL     1      -9.722  13.308  67.742  1.00  0.00    -0.217 C  
BRANCH   6   7
HETATM    7  C   UNL     1      -8.685  12.226  67.971  1.00  0.00    -0.181 A  
HETATM    8  C   UNL     1      -7.319  12.436  67.750  1.00  0.00    -0.123 A  
HETATM    9  C   UNL     1      -6.436  11.369  67.717  1.00  0.00    -0.065 A  
HETATM   10  O   UNL     1      -6.818  13.672  67.451  1.00  0.00    -0.243 OA 
HETATM   11  C   UNL     1      -6.917  10.068  67.900  1.00  0.00    -0.084 A  
HETATM   12  H   UNL     1      -5.892  13.814  67.301  1.00  0.00     0.000 HD 
HETATM   13  C   UNL     1      -8.265   9.826  68.200  1.00  0.00    -0.109 A  
HETATM   14  C   UNL     1      -9.125  10.928  68.284  1.00  0.00    -0.158 A  
BRANCH  13  15
HETATM   15  N   UNL     1      -8.808   8.544  68.469  1.00  0.00    -0.139 NA 
HETATM   16  H   UNL     1      -9.562   8.235  67.856  1.00  0.00     0.000 HD 
BRANCH  15  17
HETATM   17  C   UNL     1      -8.418   7.639  69.501  1.00  0.00    -0.132 A  
HETATM   18  C   UNL     1      -7.956   6.330  69.229  1.00  0.00    -0.109 A  
HETATM   19  C   UNL     1      -7.554   5.904  67.942  1.00  0.00    -0.086 A  
HETATM   20  C   UNL     1      -7.262   4.569  67.690  1.00  0.00    -0.065 A  
HETATM   21  C   UNL     1      -7.350   3.656  68.728  1.00  0.00    -0.053 A  
HETATM   22 CL   UNL     1      -7.110   1.983  68.410  1.00  0.00    -0.043 Cl 
HETATM   23  C   UNL     1      -7.647   4.083  70.022  1.00  0.00    -0.049 A  
HETATM   24  C   UNL     1      -7.912   5.416  70.299  1.00  0.00    -0.092 A  
HETATM   25  N   UNL     1      -8.154   5.781  71.569  1.00  0.00    -0.117 NA 
HETATM   26  C   UNL     1      -8.468   7.071  71.814  1.00  0.00    -0.114 A  
HETATM   27  C   UNL     1      -8.641   8.017  70.827  1.00  0.00    -0.129 A  
ENDBRANCH  15  17
ENDBRANCH  13  15
ENDBRANCH   6   7
ENDBRANCH   3   6
ENDBRANCH   2   3
TORSDOF 6
ENDMDL
MODEL      316
REMARK 921   NORMALIZED FREE ENERGY PREDICTED BY IDOCK:   -2.51 KCAL/MOL
REMARK 922        TOTAL FREE ENERGY PREDICTED BY IDOCK:   -4.41 KCAL/MOL
REMARK 923 INTER-LIGAND FREE ENERGY PREDICTED BY IDOCK:   -4.81 KCAL/MOL
REMARK 924 INTRA-LIGAND FREE ENERGY PREDICTED BY IDOCK:    0.40 KCAL/MOL
REMARK 927      BINDING AFFINITY PREDICTED BY RF-SCORE:    0.00 PKD
ROOT
HETATM    1  C   UNL     1     -11.838  13.847  69.253  1.00  0.00    -0.394 C  
HETATM    2  C   UNL     1     -11.205  12.603  68.639  1.00  0.00    -0.282 C  
ENDROOT
BRANCH   2   3
HETATM    3  N   UNL     1      -9.728  12.570  68.746  1.00  0.00    -0.027 NA 
BRANCH   3   4
HETATM    4  C   UNL     1      -9.177  11.204  68.708  1.00  0.00    -0.145 C  
HETATM    5  C   UNL     1      -9.623  10.250  69.815  1.00  0.00    -0.146 C  
ENDBRANCH   3   4
BRANCH   3   6
HETATM    6  C   UNL     1      -9.082  13.443  67.733  1.00  0.00    -0.202 C  
BRANCH   6   7
HETATM    7  C   UNL     1      -9.485  13.085  66.317  1.00  0.00    -0.199 A  
HETATM    8  C   UNL     1     -10.076  14.009  65.447  1.00  0.00    -0.319 A  
HETATM    9  C   UNL     1     -10.664  13.592  64.264  1.00  0.00    -0.324 A  
HETATM   10  O   UNL     1     -10.196  15.331  65.774  1.00  0.00    -0.298 OA 
HETATM   11  C   UNL     1     -10.673  12.231  63.940  1.00  0.00    -0.463 A  
HETATM   12  H   UNL     1     -10.598  15.957  65.184  1.00  0.00     0.000 HD 
HETATM   13  C   UNL     1     -10.023  11.286  64.747  1.00  0.00    -0.277 A  
HETATM   14  C   UNL     1      -9.387  11.743  65.908  1.00  0.00    -0.214 A  
BRANCH  13  15
HETATM   15  N   UNL     1      -9.928   9.904  64.444  1.00  0.00    -0.429 NA 
HETATM   16  H   UNL     1     -10.372   9.600  63.577  1.00  0.00     0.000 HD 
BRANCH  15  17
HETATM   17  C   UNL     1      -9.281   8.892  65.212  1.00  0.00    -0.091 A  
HETATM   18  C   UNL     1      -8.437   7.917  64.629  1.00  0.00     0.029 A  
HETATM   19  C   UNL     1      -7.921   8.027  63.318  1.00  0.00    -0.143 A  
HETATM   20  C   UNL     1      -7.231   6.973  62.731  1.00  0.00    -0.067 A  
HETATM   21  C   UNL     1      -7.035   5.811  63.460  1.00  0.00    -0.042 A  
HETATM   22 CL   UNL     1      -6.291   4.454  62.711  1.00  0.00    -0.021 Cl 
HETATM   23  C   UNL     1      -7.452   5.732  64.788  1.00  0.00    -0.076 A  
HETATM   24  C   UNL     1      -8.115   6.784  65.401  1.00  0.00    -0.129 A  
HETATM   25  N   UNL     1      -8.461   6.671  66.695  1.00  0.00    -0.116 NA 
HETATM   26  C   UNL     1      -9.158   7.680  67.260  1.00  0.00    -0.127 A  
HETATM   27  C   UNL     1      -9.612   8.780  66.565  1.00  0.00    -0.302 A  
ENDBRANCH  15  17
ENDBRANCH  13  15
ENDBRANCH   6   7
ENDBRANCH   3   6
ENDBRANCH   2   3
TORSDOF 6
ENDMDL
MODEL      317
REMARK 921   NORMALIZED FREE ENERGY PREDICTED BY IDOCK:   -2.47 KCAL/MOL
REMARK 922        TOTAL FREE ENERGY PREDICTED BY IDOCK:   -4.35 KCAL/MOL
REMARK 923 INTER-LIGAND FREE ENERGY PREDICTED BY IDOCK:   -3.44 KCAL/MOL
REMARK 924 INTRA-LIGAND FREE ENERGY PREDICTED BY IDOCK:   -0.91 KCAL/MOL
REMARK 927      BINDING AFFINITY PREDICTED BY RF-SCORE:    0.00 PKD
ROOT
HETATM    1  C   UNL     1     -10.882  18.584  66.833  1.00  0.00    -0.208 C  
HETATM    2  C   UNL     1      -9.756  17.575  67.038  1.00  0.00    -0.284 C  
ENDROOT
BRANCH   2   3
HETATM    3  N   UNL     1     -10.159  16.173  66.790  1.00  0.00    -0.263 NA 
BRANCH   3   4
HETATM    4  C   UNL     1     -10.124  15.807  65.362  1.00  0.00    -0.302 C  
HETATM    5  C   UNL     1      -9.363  14.533  64.997  1.00  0.00     1.030 C  
ENDBRANCH   3   4
BRANCH   3   6
HETATM    6  C   UNL     1      -9.374  15.218  67.612  1.00  0.00    -0.199 C  
BRANCH   6   7
HETATM    7  C   UNL     1     -10.182  14.003  68.020  1.00  0.00    -0.238 A  
HETATM    8  C   UNL     1     -11.481  14.102  68.535  1.00  0.00    -0.300 A  
HETATM    9  C   UNL     1     -12.089  13.011  69.135  1.00  0.00    -0.234 A  
HETATM   10  O   UNL     1     -12.154  15.291  68.568  1.00  0.00    -0.555 OA 
HETATM   11  C   UNL     1     -11.395  11.801  69.233  1.00  0.00    -0.348 A  
HETATM   12  H   UNL     1     -13.034  15.358  68.917  1.00  0.00     0.000 HD 
HETATM   13  C   UNL     1     -10.125  11.642  68.661  1.00  0.00    -0.198 A  
HETATM   14  C   UNL     1      -9.557  12.743  68.009  1.00  0.00    -0.217 A  
BRANCH  13  15
HETATM   15  N   UNL     1      -9.395  10.426  68.657  1.00  0.00    -0.159 NA 
HETATM   16  H   UNL     1      -9.883   9.605  69.017  1.00  0.00     0.000 HD 
BRANCH  15  17
HETATM   17  C   UNL     1      -8.057  10.220  68.208  1.00  0.00    -0.107 A  
HETATM   18  C   UNL     1      -7.752   9.822  66.885  1.00  0.00    -0.098 A  
HETATM   19  C   UNL     1      -8.685   9.882  65.825  1.00  0.00    -0.157 A  
HETATM   20  C   UNL     1      -8.393   9.332  64.583  1.00  0.00    -0.167 A  
HETATM   21  C   UNL     1      -7.157   8.735  64.388  1.00  0.00    -0.089 A  
HETATM   22 CL   UNL     1      -6.822   7.943  62.899  1.00  0.00    -0.083 Cl 
HETATM   23  C   UNL     1      -6.193   8.762  65.396  1.00  0.00    -0.059 A  
HETATM   24  C   UNL     1      -6.456   9.333  66.631  1.00  0.00    -0.067 A  
HETATM   25  N   UNL     1      -5.479   9.366  67.554  1.00  0.00    -0.037 NA 
HETATM   26  C   UNL     1      -5.769   9.872  68.772  1.00  0.00    -0.035 A  
HETATM   27  C   UNL     1      -7.030  10.277  69.153  1.00  0.00    -0.066 A  
ENDBRANCH  15  17
ENDBRANCH  13  15
ENDBRANCH   6   7
ENDBRANCH   3   6
ENDBRANCH   2   3
TORSDOF 6
ENDMDL
MODEL      318
REMARK 921   NORMALIZED FREE ENERGY PREDICTED BY IDOCK:   -2.46 KCAL/MOL
REMARK 922        TOTAL FREE ENERGY PREDICTED BY IDOCK:   -4.34 KCAL/MOL
REMARK 923 INTER-LIGAND FREE ENERGY PREDICTED BY IDOCK:   -3.74 KCAL/MOL
REMARK 924 INTRA-LIGAND FREE ENERGY PREDICTED BY IDOCK:   -0.60 KCAL/MOL
REMARK 927      BINDING AFFINITY PREDICTED BY RF-SCORE:    0.00 PKD
ROOT
HETATM    1  C   UNL     1      -7.204  17.367  66.071  1.00  0.00    -0.269 C  
HETATM    2  C   UNL     1      -6.740  16.239  66.987  1.00  0.00    -0.182 C  
ENDROOT
BRANCH   2   3
HETATM    3  N   UNL     1      -7.617  16.026  68.161  1.00  0.00    -0.133 NA 
BRANCH   3   4
HETATM    4  C   UNL     1      -7.082  16.627  69.397  1.00  0.00    -0.162 C  
HETATM    5  C   UNL     1      -6.317  17.941  69.248  1.00  0.00    -0.244 C  
ENDBRANCH   3   4
BRANCH   3   6
HETATM    6  C   UNL     1      -9.008  16.474  67.901  1.00  0.00    -0.205 C  
BRANCH   6   7
HETATM    7  C   UNL     1      -9.967  15.315  67.719  1.00  0.00    -0.224 A  
HETATM    8  C   UNL     1     -11.357  15.482  67.719  1.00  0.00    -0.286 A  
HETATM    9  C   UNL     1     -12.201  14.387  67.811  1.00  0.00    -0.190 A  
HETATM   10  O   UNL     1     -11.934  16.721  67.740  1.00  0.00     0.620 OA 
HETATM   11  C   UNL     1     -11.657  13.102  67.912  1.00  0.00    -0.375 A  
HETATM   12  H   UNL     1     -12.877  16.834  67.740  1.00  0.00     0.000 HD 
HETATM   13  C   UNL     1     -10.273  12.890  67.838  1.00  0.00    -0.233 A  
HETATM   14  C   UNL     1      -9.446  14.009  67.686  1.00  0.00    -0.210 A  
BRANCH  13  15
HETATM   15  N   UNL     1      -9.657  11.613  67.859  1.00  0.00    -0.175 NA 
HETATM   16  H   UNL     1      -9.412  11.245  68.779  1.00  0.00     0.000 HD 
BRANCH  15  17
HETATM   17  C   UNL     1      -9.341  10.785  66.741  1.00  0.00    -0.161 A  
HETATM   18  C   UNL     1      -9.088   9.399  66.869  1.00  0.00    -0.160 A  
HETATM   19  C   UNL     1      -9.410   8.658  68.029  1.00  0.00    -0.147 A  
HETATM   20  C   UNL     1      -8.997   7.339  68.172  1.00  0.00    -0.132 A  
HETATM   21  C   UNL     1      -8.277   6.747  67.146  1.00  0.00    -0.121 A  
HETATM   22 CL   UNL     1      -7.654   5.158  67.354  1.00  0.00    -0.087 Cl 
HETATM   23  C   UNL     1      -8.043   7.437  65.958  1.00  0.00    -0.124 A  
HETATM   24  C   UNL     1      -8.473   8.744  65.784  1.00  0.00    -0.148 A  
HETATM   25  N   UNL     1      -8.255   9.350  64.605  1.00  0.00    -0.138 NA 
HETATM   26  C   UNL     1      -8.627  10.641  64.473  1.00  0.00    -0.110 A  
HETATM   27  C   UNL     1      -9.138  11.400  65.504  1.00  0.00    -0.149 A  
ENDBRANCH  15  17
ENDBRANCH  13  15
ENDBRANCH   6   7
ENDBRANCH   3   6
ENDBRANCH   2   3
TORSDOF 6
ENDMDL
MODEL      319
REMARK 921   NORMALIZED FREE ENERGY PREDICTED BY IDOCK:   -2.42 KCAL/MOL
REMARK 922        TOTAL FREE ENERGY PREDICTED BY IDOCK:   -4.29 KCAL/MOL
REMARK 923 INTER-LIGAND FREE ENERGY PREDICTED BY IDOCK:   -3.88 KCAL/MOL
REMARK 924 INTRA-LIGAND FREE ENERGY PREDICTED BY IDOCK:   -0.40 KCAL/MOL
REMARK 927      BINDING AFFINITY PREDICTED BY RF-SCORE:    0.00 PKD
ROOT
HETATM    1  C   UNL     1      -8.416  19.066  66.043  1.00  0.00    -0.101 C  
HETATM    2  C   UNL     1      -7.586  17.799  65.858  1.00  0.00    -0.135 C  
ENDROOT
BRANCH   2   3
HETATM    3  N   UNL     1      -7.570  16.918  67.047  1.00  0.00    -0.177 NA 
BRANCH   3   4
HETATM    4  C   UNL     1      -6.328  17.031  67.833  1.00  0.00    -0.137 C  
HETATM    5  C   UNL     1      -6.481  17.308  69.328  1.00  0.00    -0.243 C  
ENDBRANCH   3   4
BRANCH   3   6
HETATM    6  C   UNL     1      -8.769  17.120  67.900  1.00  0.00    -0.222 C  
BRANCH   6   7
HETATM    7  C   UNL     1      -9.711  15.933  67.866  1.00  0.00    -0.216 A  
HETATM    8  C   UNL     1     -10.987  15.970  68.443  1.00  0.00    -0.331 A  
HETATM    9  C   UNL     1     -11.715  14.805  68.624  1.00  0.00    -0.356 A  
HETATM   10  O   UNL     1     -11.516  17.124  68.949  1.00  0.00    -0.060 OA 
HETATM   11  C   UNL     1     -11.167  13.580  68.230  1.00  0.00    -0.305 A  
HETATM   12  H   UNL     1     -12.381  17.148  69.340  1.00  0.00     0.000 HD 
HETATM   13  C   UNL     1      -9.926  13.513  67.579  1.00  0.00    -0.230 A  
HETATM   14  C   UNL     1      -9.237  14.712  67.357  1.00  0.00    -0.201 A  
BRANCH  13  15
HETATM   15  N   UNL     1      -9.344  12.317  67.088  1.00  0.00    -0.191 NA 
HETATM   16  H   UNL     1      -9.974  11.668  66.617  1.00  0.00     0.000 HD 
BRANCH  15  17
HETATM   17  C   UNL     1      -7.977  11.919  67.178  1.00  0.00    -0.172 A  
HETATM   18  C   UNL     1      -7.552  10.594  66.926  1.00  0.00    -0.115 A  
HETATM   19  C   UNL     1      -8.364   9.631  66.284  1.00  0.00    -0.117 A  
HETATM   20  C   UNL     1      -7.968   8.302  66.203  1.00  0.00    -0.100 A  
HETATM   21  C   UNL     1      -6.748   7.931  66.747  1.00  0.00    -0.063 A  
HETATM   22 CL   UNL     1      -6.295   6.273  66.764  1.00  0.00    -0.040 Cl 
HETATM   23  C   UNL     1      -5.896   8.892  67.291  1.00  0.00    -0.046 A  
HETATM   24  C   UNL     1      -6.261  10.228  67.353  1.00  0.00    -0.058 A  
HETATM   25  N   UNL     1      -5.388  11.119  67.854  1.00  0.00    -0.043 NA 
HETATM   26  C   UNL     1      -5.780  12.406  67.962  1.00  0.00    -0.073 A  
HETATM   27  C   UNL     1      -7.054  12.845  67.672  1.00  0.00    -0.151 A  
ENDBRANCH  15  17
ENDBRANCH  13  15
ENDBRANCH   6   7
ENDBRANCH   3   6
ENDBRANCH   2   3
TORSDOF 6
ENDMDL
MODEL      320
REMARK 921   NORMALIZED FREE ENERGY PREDICTED BY IDOCK:   -2.39 KCAL/MOL
REMARK 922        TOTAL FREE ENERGY PREDICTED BY IDOCK:   -4.24 KCAL/MOL
REMARK 923 INTER-LIGAND FREE ENERGY PREDICTED BY IDOCK:   -3.39 KCAL/MOL
REMARK 924 INTRA-LIGAND FREE ENERGY PREDICTED BY IDOCK:   -0.86 KCAL/MOL
REMARK 927      BINDING AFFINITY PREDICTED BY RF-SCORE:    0.00 PKD
ROOT
HETATM    1  C   UNL     1      -9.075   9.638  68.627  1.00  0.00    -0.132 C  
HETATM    2  C   UNL     1      -7.563   9.654  68.429  1.00  0.00    -0.081 C  
ENDROOT
BRANCH   2   3
HETATM    3  N   UNL     1      -7.103   8.832  67.287  1.00  0.00    -0.078 NA 
BRANCH   3   4
HETATM    4  C   UNL     1      -6.079   9.506  66.467  1.00  0.00    -0.060 C  
HETATM    5  C   UNL     1      -6.582  10.358  65.302  1.00  0.00    -0.100 C  
ENDBRANCH   3   4
BRANCH   3   6
HETATM    6  C   UNL     1      -6.647   7.488  67.722  1.00  0.00    -0.061 C  
BRANCH   6   7
HETATM    7  C   UNL     1      -7.400   6.369  67.030  1.00  0.00    -0.083 A  
HETATM    8  C   UNL     1      -7.531   6.300  65.637  1.00  0.00    -0.082 A  
HETATM    9  C   UNL     1      -8.432   5.423  65.054  1.00  0.00    -0.150 A  
HETATM   10  O   UNL     1      -6.869   7.160  64.808  1.00  0.00    -0.048 OA 
HETATM   11  C   UNL     1      -9.222   4.603  65.867  1.00  0.00    -0.144 A  
HETATM   12  H   UNL     1      -6.958   7.114  63.864  1.00  0.00     0.000 HD 
HETATM   13  C   UNL     1      -9.063   4.588  67.260  1.00  0.00    -0.127 A  
HETATM   14  C   UNL     1      -8.105   5.443  67.819  1.00  0.00    -0.100 A  
BRANCH  13  15
HETATM   15  N   UNL     1      -9.775   3.732  68.138  1.00  0.00    -0.106 NA 
HETATM   16  H   UNL     1     -10.592   3.262  67.746  1.00  0.00     0.000 HD 
BRANCH  15  17
HETATM   17  C   UNL     1      -9.480   3.455  69.505  1.00  0.00    -0.149 A  
HETATM   18  C   UNL     1      -9.793   4.356  70.550  1.00  0.00    -0.285 A  
HETATM   19  C   UNL     1     -10.677   5.448  70.388  1.00  0.00    -0.276 A  
HETATM   20  C   UNL     1     -10.830   6.397  71.391  1.00  0.00    -0.301 A  
HETATM   21  C   UNL     1     -10.115   6.249  72.570  1.00  0.00    -0.177 A  
HETATM   22 CL   UNL     1     -10.198   7.475  73.773  1.00  0.00    -0.331 Cl 
HETATM   23  C   UNL     1      -9.320   5.122  72.777  1.00  0.00    -0.149 A  
HETATM   24  C   UNL     1      -9.179   4.149  71.800  1.00  0.00    -0.127 A  
HETATM   25  N   UNL     1      -8.431   3.064  72.065  1.00  0.00    -0.069 NA 
HETATM   26  C   UNL     1      -8.256   2.154  71.083  1.00  0.00    -0.050 A  
HETATM   27  C   UNL     1      -8.725   2.315  69.797  1.00  0.00    -0.120 A  
ENDBRANCH  15  17
ENDBRANCH  13  15
ENDBRANCH   6   7
ENDBRANCH   3   6
ENDBRANCH   2   3
TORSDOF 6
ENDMDL
MODEL      321
REMARK 921   NORMALIZED FREE ENERGY PREDICTED BY IDOCK:   -2.38 KCAL/MOL
REMARK 922        TOTAL FREE ENERGY PREDICTED BY IDOCK:   -4.23 KCAL/MOL
REMARK 923 INTER-LIGAND FREE ENERGY PREDICTED BY IDOCK:   -4.75 KCAL/MOL
REMARK 924 INTRA-LIGAND FREE ENERGY PREDICTED BY IDOCK:    0.52 KCAL/MOL
REMARK 927      BINDING AFFINITY PREDICTED BY RF-SCORE:    0.00 PKD
ROOT
HETATM    1  C   UNL     1      -7.543  16.197  67.141  1.00  0.00    -0.237 C  
HETATM    2  C   UNL     1      -8.232  14.908  67.578  1.00  0.00    -0.182 C  
ENDROOT
BRANCH   2   3
HETATM    3  N   UNL     1      -7.301  13.775  67.783  1.00  0.00    -0.147 NA 
BRANCH   3   4
HETATM    4  C   UNL     1      -7.128  13.420  69.203  1.00  0.00    -0.007 C  
HETATM    5  C   UNL     1      -6.033  12.406  69.531  1.00  0.00    -0.110 C  
ENDBRANCH   3   4
BRANCH   3   6
HETATM    6  C   UNL     1      -7.685  12.592  66.973  1.00  0.00    -0.040 C  
BRANCH   6   7
HETATM    7  C   UNL     1      -8.890  11.867  67.539  1.00  0.00    -0.169 A  
HETATM    8  C   UNL     1     -10.162  11.958  66.960  1.00  0.00    -0.210 A  
HETATM    9  C   UNL     1     -11.281  11.503  67.638  1.00  0.00    -0.343 A  
HETATM   10  O   UNL     1     -10.367  12.592  65.767  1.00  0.00    -0.268 OA 
HETATM   11  C   UNL     1     -11.139  10.953  68.916  1.00  0.00    -0.307 A  
HETATM   12  H   UNL     1     -11.229  12.654  65.375  1.00  0.00     0.000 HD 
HETATM   13  C   UNL     1      -9.874  10.774  69.494  1.00  0.00    -0.016 A  
HETATM   14  C   UNL     1      -8.754  11.190  68.763  1.00  0.00    -0.130 A  
BRANCH  13  15
HETATM   15  N   UNL     1      -9.648  10.158  70.752  1.00  0.00    -0.152 NA 
HETATM   16  H   UNL     1      -9.157  10.719  71.448  1.00  0.00     0.000 HD 
BRANCH  15  17
HETATM   17  C   UNL     1     -10.031   8.843  71.152  1.00  0.00    -0.272 A  
HETATM   18  C   UNL     1      -9.941   7.728  70.288  1.00  0.00    -0.189 A  
HETATM   19  C   UNL     1      -9.201   7.742  69.083  1.00  0.00    -0.144 A  
HETATM   20  C   UNL     1      -9.271   6.682  68.188  1.00  0.00    -0.117 A  
HETATM   21  C   UNL     1     -10.067   5.591  68.503  1.00  0.00    -0.180 A  
HETATM   22 CL   UNL     1     -10.263   4.324  67.356  1.00  0.00    -0.021 Cl 
HETATM   23  C   UNL     1     -10.719   5.524  69.733  1.00  0.00    -0.355 A  
HETATM   24  C   UNL     1     -10.636   6.559  70.652  1.00  0.00    -0.233 A  
HETATM   25  N   UNL     1     -11.253   6.427  71.839  1.00  0.00    -0.266 NA 
HETATM   26  C   UNL     1     -11.212   7.467  72.698  1.00  0.00    -0.348 A  
HETATM   27  C   UNL     1     -10.650   8.689  72.396  1.00  0.00    -0.310 A  
ENDBRANCH  15  17
ENDBRANCH  13  15
ENDBRANCH   6   7
ENDBRANCH   3   6
ENDBRANCH   2   3
TORSDOF 6
ENDMDL
MODEL      322
REMARK 921   NORMALIZED FREE ENERGY PREDICTED BY IDOCK:   -2.34 KCAL/MOL
REMARK 922        TOTAL FREE ENERGY PREDICTED BY IDOCK:   -4.18 KCAL/MOL
REMARK 923 INTER-LIGAND FREE ENERGY PREDICTED BY IDOCK:   -4.47 KCAL/MOL
REMARK 924 INTRA-LIGAND FREE ENERGY PREDICTED BY IDOCK:    0.29 KCAL/MOL
REMARK 927      BINDING AFFINITY PREDICTED BY RF-SCORE:    0.00 PKD
ROOT
HETATM    1  C   UNL     1      -6.244  18.971  70.029  1.00  0.00    -0.179 C  
HETATM    2  C   UNL     1      -7.526  18.348  69.486  1.00  0.00     0.254 C  
ENDROOT
BRANCH   2   3
HETATM    3  N   UNL     1      -7.384  17.786  68.124  1.00  0.00    -0.230 NA 
BRANCH   3   4
HETATM    4  C   UNL     1      -5.991  17.782  67.643  1.00  0.00    -0.147 C  
HETATM    5  C   UNL     1      -5.156  16.541  67.961  1.00  0.00    -0.114 C  
ENDBRANCH   3   4
BRANCH   3   6
HETATM    6  C   UNL     1      -7.997  16.438  68.016  1.00  0.00    -0.156 C  
BRANCH   6   7
HETATM    7  C   UNL     1      -9.128  16.394  67.008  1.00  0.00    -0.232 A  
HETATM    8  C   UNL     1     -10.278  17.184  67.133  1.00  0.00    -0.316 A  
HETATM    9  C   UNL     1     -11.394  16.937  66.351  1.00  0.00     0.796 A  
HETATM   10  O   UNL     1     -10.388  18.148  68.095  1.00  0.00    -0.364 OA 
HETATM   11  C   UNL     1     -11.374  15.883  65.432  1.00  0.00     0.020 A  
HETATM   12  H   UNL     1     -11.167  18.684  68.180  1.00  0.00     0.000 HD 
HETATM   13  C   UNL     1     -10.216  15.120  65.224  1.00  0.00    -0.368 A  
HETATM   14  C   UNL     1      -9.083  15.428  65.987  1.00  0.00    -0.284 A  
BRANCH  13  15
HETATM   15  N   UNL     1     -10.101  14.087  64.260  1.00  0.00    -0.632 NA 
HETATM   16  H   UNL     1      -9.943  14.383  63.296  1.00  0.00     0.000 HD 
BRANCH  15  17
HETATM   17  C   UNL     1     -10.179  12.680  64.485  1.00  0.00    -0.305 A  
HETATM   18  C   UNL     1      -9.946  12.098  65.753  1.00  0.00    -0.271 A  
HETATM   19  C   UNL     1      -9.913  12.846  66.952  1.00  0.00    -0.238 A  
HETATM   20  C   UNL     1      -9.522  12.261  68.149  1.00  0.00    -0.213 A  
HETATM   21  C   UNL     1      -9.180  10.917  68.158  1.00  0.00    -0.158 A  
HETATM   22 CL   UNL     1      -8.577  10.204  69.602  1.00  0.00    -0.188 Cl 
HETATM   23  C   UNL     1      -9.306  10.149  67.002  1.00  0.00    -0.178 A  
HETATM   24  C   UNL     1      -9.724  10.709  65.804  1.00  0.00    -0.221 A  
HETATM   25  N   UNL     1      -9.866   9.916  64.729  1.00  0.00    -0.259 NA 
HETATM   26  C   UNL     1     -10.217  10.486  63.557  1.00  0.00    -0.003 A  
HETATM   27  C   UNL     1     -10.353  11.846  63.377  1.00  0.00    -0.481 A  
ENDBRANCH  15  17
ENDBRANCH  13  15
ENDBRANCH   6   7
ENDBRANCH   3   6
ENDBRANCH   2   3
TORSDOF 6
ENDMDL
MODEL      323
REMARK 921   NORMALIZED FREE ENERGY PREDICTED BY IDOCK:   -2.24 KCAL/MOL
REMARK 922        TOTAL FREE ENERGY PREDICTED BY IDOCK:   -4.04 KCAL/MOL
REMARK 923 INTER-LIGAND FREE ENERGY PREDICTED BY IDOCK:   -4.88 KCAL/MOL
REMARK 924 INTRA-LIGAND FREE ENERGY PREDICTED BY IDOCK:    0.84 KCAL/MOL
REMARK 927      BINDING AFFINITY PREDICTED BY RF-SCORE:    0.00 PKD
ROOT
HETATM    1  C   UNL     1     -10.717  19.052  67.259  1.00  0.00    -0.556 C  
HETATM    2  C   UNL     1      -9.913  18.103  68.143  1.00  0.00    -0.359 C  
ENDROOT
BRANCH   2   3
HETATM    3  N   UNL     1     -10.417  16.711  68.134  1.00  0.00    -0.305 NA 
BRANCH   3   4
HETATM    4  C   UNL     1     -10.032  15.965  66.923  1.00  0.00    -0.249 C  
HETATM    5  C   UNL     1      -8.798  15.069  67.029  1.00  0.00    -0.257 C  
ENDBRANCH   3   4
BRANCH   3   6
HETATM    6  C   UNL     1     -10.033  15.977  69.366  1.00  0.00    -0.262 C  
BRANCH   6   7
HETATM    7  C   UNL     1     -11.018  14.880  69.719  1.00  0.00    -0.280 A  
HETATM    8  C   UNL     1     -11.648  14.809  70.968  1.00  0.00    -0.265 A  
HETATM    9  C   UNL     1     -12.334  13.668  71.350  1.00  0.00    -0.301 A  
HETATM   10  O   UNL     1     -11.523  15.805  71.895  1.00  0.00    -0.407 OA 
HETATM   11  C   UNL     1     -12.391  12.573  70.481  1.00  0.00    -0.345 A  
HETATM   12  H   UNL     1     -11.950  15.757  72.742  1.00  0.00     0.000 HD 
HETATM   13  C   UNL     1     -11.839  12.636  69.194  1.00  0.00    -0.297 A  
HETATM   14  C   UNL     1     -11.201  13.823  68.812  1.00  0.00    -0.303 A  
BRANCH  13  15
HETATM   15  N   UNL     1     -11.922  11.594  68.235  1.00  0.00    -0.560 NA 
HETATM   16  H   UNL     1     -12.797  11.529  67.714  1.00  0.00     0.000 HD 
BRANCH  15  17
HETATM   17  C   UNL     1     -10.922  10.628  67.917  1.00  0.00    -0.295 A  
HETATM   18  C   UNL     1      -9.542  10.870  68.110  1.00  0.00    -0.169 A  
HETATM   19  C   UNL     1      -9.047  11.936  68.896  1.00  0.00     0.150 A  
HETATM   20  C   UNL     1      -7.690  12.232  68.926  1.00  0.00     0.059 A  
HETATM   21  C   UNL     1      -6.817  11.449  68.186  1.00  0.00    -0.064 A  
HETATM   22 CL   UNL     1      -5.152  11.872  68.114  1.00  0.00    -0.045 Cl 
HETATM   23  C   UNL     1      -7.284  10.335  67.490  1.00  0.00    -0.088 A  
HETATM   24  C   UNL     1      -8.630  10.007  67.473  1.00  0.00    -0.122 A  
HETATM   25  N   UNL     1      -9.023   8.901  66.818  1.00  0.00    -0.126 NA 
HETATM   26  C   UNL     1     -10.343   8.627  66.761  1.00  0.00    -0.266 A  
HETATM   27  C   UNL     1     -11.320   9.461  67.259  1.00  0.00     0.828 A  
ENDBRANCH  15  17
ENDBRANCH  13  15
ENDBRANCH   6   7
ENDBRANCH   3   6
ENDBRANCH   2   3
TORSDOF 6
ENDMDL
MODEL      324
REMARK 921   NORMALIZED FREE ENERGY PREDICTED BY IDOCK:   -2.01 KCAL/MOL
REMARK 922        TOTAL FREE ENERGY PREDICTED BY IDOCK:   -3.73 KCAL/MOL
REMARK 923 INTER-LIGAND FREE ENERGY PREDICTED BY IDOCK:   -3.08 KCAL/MOL
REMARK 924 INTRA-LIGAND FREE ENERGY PREDICTED BY IDOCK:   -0.65 KCAL/MOL
REMARK 927      BINDING AFFINITY PREDICTED BY RF-SCORE:    0.00 PKD
ROOT
HETATM    1  C   UNL     1     -11.670  14.510  73.241  1.00  0.00     0.266 C  
HETATM    2  C   UNL     1     -11.332  14.334  71.764  1.00  0.00     1.072 C  
ENDROOT
BRANCH   2   3
HETATM    3  N   UNL     1     -11.771  15.463  70.913  1.00  0.00    -0.318 NA 
BRANCH   3   4
HETATM    4  C   UNL     1     -10.650  16.287  70.424  1.00  0.00     0.022 C  
HETATM    5  C   UNL     1     -10.900  17.791  70.310  1.00  0.00     1.507 C  
ENDBRANCH   3   4
BRANCH   3   6
HETATM    6  C   UNL     1     -12.635  15.009  69.794  1.00  0.00    -0.110 C  
BRANCH   6   7
HETATM    7  C   UNL     1     -11.836  14.445  68.636  1.00  0.00    -0.366 A  
HETATM    8  C   UNL     1     -11.562  13.078  68.506  1.00  0.00    -0.328 A  
HETATM    9  C   UNL     1     -10.623  12.629  67.592  1.00  0.00    -0.232 A  
HETATM   10  O   UNL     1     -12.119  12.150  69.339  1.00  0.00    -0.268 OA 
HETATM   11  C   UNL     1      -9.937  13.552  66.796  1.00  0.00    -0.269 A  
HETATM   12  H   UNL     1     -11.933  11.223  69.251  1.00  0.00     0.000 HD 
HETATM   13  C   UNL     1     -10.239  14.921  66.843  1.00  0.00    -0.254 A  
HETATM   14  C   UNL     1     -11.234  15.341  67.735  1.00  0.00    -0.327 A  
BRANCH  13  15
HETATM   15  N   UNL     1      -9.638  15.903  66.016  1.00  0.00    -0.326 NA 
HETATM   16  H   UNL     1      -9.176  15.562  65.172  1.00  0.00     0.000 HD 
BRANCH  15  17
HETATM   17  C   UNL     1      -9.605  17.313  66.229  1.00  0.00    -0.248 A  
HETATM   18  C   UNL     1      -8.644  17.934  67.059  1.00  0.00    -0.248 A  
HETATM   19  C   UNL     1      -7.471  17.284  67.504  1.00  0.00    -0.186 A  
HETATM   20  C   UNL     1      -6.638  17.875  68.446  1.00  0.00    -0.205 A  
HETATM   21  C   UNL     1      -6.964  19.131  68.934  1.00  0.00    -0.336 A  
HETATM   22 CL   UNL     1      -6.015  19.828  70.188  1.00  0.00    -0.322 Cl 
HETATM   23  C   UNL     1      -8.063  19.822  68.427  1.00  0.00    -0.305 A  
HETATM   24  C   UNL     1      -8.888  19.261  67.465  1.00  0.00    -0.299 A  
HETATM   25  N   UNL     1      -9.913  19.985  66.981  1.00  0.00    -0.416 NA 
HETATM   26  C   UNL     1     -10.741  19.403  66.089  1.00  0.00    -0.411 A  
HETATM   27  C   UNL     1     -10.651  18.081  65.709  1.00  0.00    -0.174 A  
ENDBRANCH  15  17
ENDBRANCH  13  15
ENDBRANCH   6   7
ENDBRANCH   3   6
ENDBRANCH   2   3
TORSDOF 6
ENDMDL
MODEL      325
REMARK 921   NORMALIZED FREE ENERGY PREDICTED BY IDOCK:   -1.90 KCAL/MOL
REMARK 922        TOTAL FREE ENERGY PREDICTED BY IDOCK:   -3.57 KCAL/MOL
REMARK 923 INTER-LIGAND FREE ENERGY PREDICTED BY IDOCK:   -3.21 KCAL/MOL
REMARK 924 INTRA-LIGAND FREE ENERGY PREDICTED BY IDOCK:   -0.37 KCAL/MOL
REMARK 927      BINDING AFFINITY PREDICTED BY RF-SCORE:    0.00 PKD
ROOT
HETATM    1  C   UNL     1      -8.715   5.682  63.267  1.00  0.00     0.179 C  
HETATM    2  C   UNL     1      -7.308   6.028  63.743  1.00  0.00    -0.066 C  
ENDROOT
BRANCH   2   3
HETATM    3  N   UNL     1      -7.211   6.249  65.204  1.00  0.00    -0.067 NA 
BRANCH   3   4
HETATM    4  C   UNL     1      -6.000   5.656  65.798  1.00  0.00    -0.025 C  
HETATM    5  C   UNL     1      -5.829   5.808  67.309  1.00  0.00    -0.017 C  
ENDBRANCH   3   4
BRANCH   3   6
HETATM    6  C   UNL     1      -7.336   7.687  65.554  1.00  0.00    -0.074 C  
BRANCH   6   7
HETATM    7  C   UNL     1      -8.241   7.917  66.748  1.00  0.00    -0.116 A  
HETATM    8  C   UNL     1      -9.399   7.162  66.970  1.00  0.00    -0.151 A  
HETATM    9  C   UNL     1     -10.333   7.560  67.913  1.00  0.00    -0.266 A  
HETATM   10  O   UNL     1      -9.710   6.076  66.200  1.00  0.00    -0.306 OA 
HETATM   11  C   UNL     1     -10.118   8.732  68.645  1.00  0.00    -0.207 A  
HETATM   12  H   UNL     1     -10.495   5.565  66.351  1.00  0.00     0.000 HD 
HETATM   13  C   UNL     1      -8.935   9.471  68.506  1.00  0.00    -0.128 A  
HETATM   14  C   UNL     1      -7.982   9.014  67.587  1.00  0.00    -0.101 A  
BRANCH  13  15
HETATM   15  N   UNL     1      -8.617  10.625  69.266  1.00  0.00    -0.315 NA 
HETATM   16  H   UNL     1      -9.072  10.706  70.176  1.00  0.00     0.000 HD 
BRANCH  15  17
HETATM   17  C   UNL     1      -7.734  11.685  68.904  1.00  0.00    -0.065 A  
HETATM   18  C   UNL     1      -8.200  12.958  68.498  1.00  0.00    -0.065 A  
HETATM   19  C   UNL     1      -9.530  13.393  68.696  1.00  0.00    -0.039 A  
HETATM   20  C   UNL     1      -9.984  14.582  68.139  1.00  0.00    -0.220 A  
HETATM   21  C   UNL     1      -9.103  15.353  67.396  1.00  0.00    -0.197 A  
HETATM   22 CL   UNL     1      -9.676  16.765  66.599  1.00  0.00    -0.265 Cl 
HETATM   23  C   UNL     1      -7.764  14.983  67.280  1.00  0.00    -0.233 A  
HETATM   24  C   UNL     1      -7.286  13.815  67.855  1.00  0.00    -0.153 A  
HETATM   25  N   UNL     1      -5.979  13.523  67.746  1.00  0.00    -0.204 NA 
HETATM   26  C   UNL     1      -5.540  12.354  68.259  1.00  0.00    -0.057 A  
HETATM   27  C   UNL     1      -6.369  11.402  68.812  1.00  0.00    -0.053 A  
ENDBRANCH  15  17
ENDBRANCH  13  15
ENDBRANCH   6   7
ENDBRANCH   3   6
ENDBRANCH   2   3
TORSDOF 6
ENDMDL
MODEL      326
REMARK 921   NORMALIZED FREE ENERGY PREDICTED BY IDOCK:   -1.73 KCAL/MOL
REMARK 922        TOTAL FREE ENERGY PREDICTED BY IDOCK:   -3.34 KCAL/MOL
REMARK 923 INTER-LIGAND FREE ENERGY PREDICTED BY IDOCK:   -3.05 KCAL/MOL
REMARK 924 INTRA-LIGAND FREE ENERGY PREDICTED BY IDOCK:   -0.29 KCAL/MOL
REMARK 927      BINDING AFFINITY PREDICTED BY RF-SCORE:    0.00 PKD
ROOT
HETATM    1  C   UNL     1      -5.318  16.956  70.495  1.00  0.00    -0.213 C  
HETATM    2  C   UNL     1      -5.982  16.347  69.264  1.00  0.00    -0.154 C  
ENDROOT
BRANCH   2   3
HETATM    3  N   UNL     1      -7.027  15.348  69.583  1.00  0.00    -0.188 NA 
BRANCH   3   4
HETATM    4  C   UNL     1      -7.974  15.130  68.475  1.00  0.00    -0.142 C  
HETATM    5  C   UNL     1      -9.345  15.793  68.601  1.00  0.00    -0.206 C  
ENDBRANCH   3   4
BRANCH   3   6
HETATM    6  C   UNL     1      -6.441  14.067  70.054  1.00  0.00    -0.080 C  
BRANCH   6   7
HETATM    7  C   UNL     1      -6.702  12.923  69.094  1.00  0.00    -0.086 A  
HETATM    8  C   UNL     1      -6.103  12.851  67.831  1.00  0.00    -0.125 A  
HETATM    9  C   UNL     1      -6.554  11.944  66.885  1.00  0.00    -0.083 A  
HETATM   10  O   UNL     1      -5.137  13.734  67.440  1.00  0.00    -0.329 OA 
HETATM   11  C   UNL     1      -7.622  11.096  67.196  1.00  0.00    -0.125 A  
HETATM   12  H   UNL     1      -4.731  13.686  66.582  1.00  0.00     0.000 HD 
HETATM   13  C   UNL     1      -8.195  11.086  68.476  1.00  0.00    -0.146 A  
HETATM   14  C   UNL     1      -7.682  11.973  69.430  1.00  0.00     0.459 A  
BRANCH  13  15
HETATM   15  N   UNL     1      -9.229  10.205  68.883  1.00  0.00    -0.163 NA 
HETATM   16  H   UNL     1      -9.917  10.585  69.534  1.00  0.00     0.000 HD 
BRANCH  15  17
HETATM   17  C   UNL     1      -9.416   8.848  68.486  1.00  0.00    -0.147 A  
HETATM   18  C   UNL     1      -8.922   7.759  69.242  1.00  0.00    -0.139 A  
HETATM   19  C   UNL     1      -8.474   7.885  70.577  1.00  0.00    -0.126 A  
HETATM   20  C   UNL     1      -7.848   6.827  71.224  1.00  0.00    -0.101 A  
HETATM   21  C   UNL     1      -7.684   5.629  70.545  1.00  0.00    -0.094 A  
HETATM   22 CL   UNL     1      -6.806   4.348  71.284  1.00  0.00    -0.034 Cl 
HETATM   23  C   UNL     1      -8.212   5.464  69.266  1.00  0.00    -0.093 A  
HETATM   24  C   UNL     1      -8.867   6.499  68.616  1.00  0.00    -0.121 A  
HETATM   25  N   UNL     1      -9.391   6.275  67.398  1.00  0.00    -0.115 NA 
HETATM   26  C   UNL     1      -9.973   7.309  66.754  1.00  0.00    -0.217 A  
HETATM   27  C   UNL     1      -9.984   8.601  67.234  1.00  0.00    -0.282 A  
ENDBRANCH  15  17
ENDBRANCH  13  15
ENDBRANCH   6   7
ENDBRANCH   3   6
ENDBRANCH   2   3
TORSDOF 6
ENDMDL
MODEL      327
REMARK 921   NORMALIZED FREE ENERGY PREDICTED BY IDOCK:   -1.56 KCAL/MOL
REMARK 922        TOTAL FREE ENERGY PREDICTED BY IDOCK:   -3.11 KCAL/MOL
REMARK 923 INTER-LIGAND FREE ENERGY PREDICTED BY IDOCK:   -4.45 KCAL/MOL
REMARK 924 INTRA-LIGAND FREE ENERGY PREDICTED BY IDOCK:    1.34 KCAL/MOL
REMARK 927      BINDING AFFINITY PREDICTED BY RF-SCORE:    0.00 PKD
ROOT
HETATM    1  C   UNL     1      -6.591   8.403  65.412  1.00  0.00    -0.056 C  
HETATM    2  C   UNL     1      -7.351   9.352  66.333  1.00  0.00    -0.093 C  
ENDROOT
BRANCH   2   3
HETATM    3  N   UNL     1      -7.864   8.707  67.563  1.00  0.00    -0.101 NA 
BRANCH   3   4
HETATM    4  C   UNL     1      -7.893   7.236  67.473  1.00  0.00    -0.112 C  
HETATM    5  C   UNL     1      -8.730   6.631  66.347  1.00  0.00    -0.144 C  
ENDBRANCH   3   4
BRANCH   3   6
HETATM    6  C   UNL     1      -7.130   9.160  68.772  1.00  0.00    -0.073 C  
BRANCH   6   7
HETATM    7  C   UNL     1      -7.992   9.131  70.018  1.00  0.00    -0.113 A  
HETATM    8  C   UNL     1      -7.697   8.314  71.117  1.00  0.00    -0.094 A  
HETATM    9  C   UNL     1      -8.631   8.115  72.121  1.00  0.00    -0.226 A  
HETATM   10  O   UNL     1      -6.535   7.599  71.191  1.00  0.00    -0.038 OA 
HETATM   11  C   UNL     1      -9.883   8.732  72.032  1.00  0.00    -0.376 A  
HETATM   12  H   UNL     1      -6.335   7.045  71.936  1.00  0.00     0.000 HD 
HETATM   13  C   UNL     1     -10.186   9.617  70.987  1.00  0.00    -0.182 A  
HETATM   14  C   UNL     1      -9.203   9.845  70.016  1.00  0.00    -0.224 A  
BRANCH  13  15
HETATM   15  N   UNL     1     -11.405  10.333  70.873  1.00  0.00    -0.336 NA 
HETATM   16  H   UNL     1     -12.211   9.933  71.353  1.00  0.00     0.000 HD 
BRANCH  15  17
HETATM   17  C   UNL     1     -11.631  11.549  70.162  1.00  0.00    -0.249 A  
HETATM   18  C   UNL     1     -11.185  11.749  68.835  1.00  0.00    -0.311 A  
HETATM   19  C   UNL     1     -10.756  10.694  67.997  1.00  0.00    -0.275 A  
HETATM   20  C   UNL     1     -10.176  10.953  66.762  1.00  0.00    -0.277 A  
HETATM   21  C   UNL     1     -10.041  12.269  66.347  1.00  0.00    -0.226 A  
HETATM   22 CL   UNL     1      -9.218  12.616  64.878  1.00  0.00     0.523 Cl 
HETATM   23  C   UNL     1     -10.554  13.309  67.121  1.00  0.00    -0.259 A  
HETATM   24  C   UNL     1     -11.163  13.068  68.343  1.00  0.00    -0.269 A  
HETATM   25  N   UNL     1     -11.674  14.103  69.032  1.00  0.00    -0.302 NA 
HETATM   26  C   UNL     1     -12.210  13.859  70.246  1.00  0.00    -0.358 A  
HETATM   27  C   UNL     1     -12.186  12.625  70.860  1.00  0.00    -0.280 A  
ENDBRANCH  15  17
ENDBRANCH  13  15
ENDBRANCH   6   7
ENDBRANCH   3   6
ENDBRANCH   2   3
TORSDOF 6
ENDMDL
MODEL      328
REMARK 921   NORMALIZED FREE ENERGY PREDICTED BY IDOCK:   -1.42 KCAL/MOL
REMARK 922        TOTAL FREE ENERGY PREDICTED BY IDOCK:   -2.93 KCAL/MOL
REMARK 923 INTER-LIGAND FREE ENERGY PREDICTED BY IDOCK:   -4.06 KCAL/MOL
REMARK 924 INTRA-LIGAND FREE ENERGY PREDICTED BY IDOCK:    1.14 KCAL/MOL
REMARK 927      BINDING AFFINITY PREDICTED BY RF-SCORE:    0.00 PKD
ROOT
HETATM    1  C   UNL     1      -9.871  18.187  70.011  1.00  0.00     1.134 C  
HETATM    2  C   UNL     1     -10.325  18.468  68.582  1.00  0.00    -0.232 C  
ENDROOT
BRANCH   2   3
HETATM    3  N   UNL     1     -10.040  17.364  67.638  1.00  0.00    -0.314 NA 
BRANCH   3   4
HETATM    4  C   UNL     1      -9.296  16.253  68.257  1.00  0.00    -0.204 C  
HETATM    5  C   UNL     1      -7.799  16.176  67.959  1.00  0.00    -0.150 C  
ENDBRANCH   3   4
BRANCH   3   6
HETATM    6  C   UNL     1     -11.272  16.880  66.965  1.00  0.00     0.357 C  
BRANCH   6   7
HETATM    7  C   UNL     1     -11.047  15.593  66.198  1.00  0.00    -0.127 A  
HETATM    8  C   UNL     1     -11.076  15.536  64.799  1.00  0.00    -0.407 A  
HETATM    9  C   UNL     1     -11.126  14.318  64.141  1.00  0.00     0.064 A  
HETATM   10  O   UNL     1     -11.168  16.665  64.034  1.00  0.00    -1.449 OA 
HETATM   11  C   UNL     1     -11.154  13.133  64.884  1.00  0.00    -0.335 A  
HETATM   12  H   UNL     1     -11.188  16.626  63.086  1.00  0.00     0.000 HD 
HETATM   13  C   UNL     1     -11.048  13.147  66.282  1.00  0.00    -0.287 A  
HETATM   14  C   UNL     1     -10.940  14.390  66.918  1.00  0.00    -0.308 A  
BRANCH  13  15
HETATM   15  N   UNL     1     -10.995  11.985  67.093  1.00  0.00    -0.255 NA 
HETATM   16  H   UNL     1     -11.779  11.843  67.730  1.00  0.00     0.000 HD 
BRANCH  15  17
HETATM   17  C   UNL     1      -9.971  10.992  67.118  1.00  0.00    -0.187 A  
HETATM   18  C   UNL     1      -9.524  10.331  65.950  1.00  0.00    -0.241 A  
HETATM   19  C   UNL     1      -9.817  10.786  64.645  1.00  0.00    -0.366 A  
HETATM   20  C   UNL     1      -9.496  10.020  63.531  1.00  0.00    -0.241 A  
HETATM   21  C   UNL     1      -8.861   8.802  63.717  1.00  0.00     0.178 A  
HETATM   22 CL   UNL     1      -8.564   7.784  62.362  1.00  0.00     0.002 Cl 
HETATM   23  C   UNL     1      -8.478   8.392  64.993  1.00  0.00    -0.160 A  
HETATM   24  C   UNL     1      -8.763   9.158  66.113  1.00  0.00    -0.148 A  
HETATM   25  N   UNL     1      -8.337   8.735  67.316  1.00  0.00    -0.104 NA 
HETATM   26  C   UNL     1      -8.674   9.462  68.403  1.00  0.00    -0.124 A  
HETATM   27  C   UNL     1      -9.502  10.563  68.362  1.00  0.00    -0.158 A  
ENDBRANCH  15  17
ENDBRANCH  13  15
ENDBRANCH   6   7
ENDBRANCH   3   6
ENDBRANCH   2   3
TORSDOF 6
ENDMDL
MODEL      329
REMARK 921   NORMALIZED FREE ENERGY PREDICTED BY IDOCK:   -1.20 KCAL/MOL
REMARK 922        TOTAL FREE ENERGY PREDICTED BY IDOCK:   -2.64 KCAL/MOL
REMARK 923 INTER-LIGAND FREE ENERGY PREDICTED BY IDOCK:   -3.10 KCAL/MOL
REMARK 924 INTRA-LIGAND FREE ENERGY PREDICTED BY IDOCK:    0.46 KCAL/MOL
REMARK 927      BINDING AFFINITY PREDICTED BY RF-SCORE:    0.00 PKD
ROOT
HETATM    1  C   UNL     1      -6.679   7.433  64.977  1.00  0.00    -0.044 C  
HETATM    2  C   UNL     1      -7.370   8.170  66.120  1.00  0.00    -0.070 C  
ENDROOT
BRANCH   2   3
HETATM    3  N   UNL     1      -7.738   7.295  67.257  1.00  0.00    -0.107 NA 
BRANCH   3   4
HETATM    4  C   UNL     1      -7.784   5.867  66.895  1.00  0.00    -0.100 C  
HETATM    5  C   UNL     1      -8.699   5.480  65.733  1.00  0.00    -0.151 C  
ENDBRANCH   3   4
BRANCH   3   6
HETATM    6  C   UNL     1      -6.866   7.526  68.436  1.00  0.00    -0.063 C  
BRANCH   6   7
HETATM    7  C   UNL     1      -7.549   7.171  69.742  1.00  0.00    -0.103 A  
HETATM    8  C   UNL     1      -7.050   6.193  70.610  1.00  0.00    -0.068 A  
HETATM    9  C   UNL     1      -7.824   5.712  71.654  1.00  0.00    -0.109 A  
HETATM   10  O   UNL     1      -5.838   5.597  70.403  1.00  0.00    -0.022 OA 
HETATM   11  C   UNL     1      -9.120   6.206  71.837  1.00  0.00    -0.140 A  
HETATM   12  H   UNL     1      -5.499   4.934  70.992  1.00  0.00     0.000 HD 
HETATM   13  C   UNL     1      -9.625   7.240  71.036  1.00  0.00    -0.158 A  
HETATM   14  C   UNL     1      -8.800   7.748  70.025  1.00  0.00    -0.142 A  
BRANCH  13  15
HETATM   15  N   UNL     1     -10.899   7.838  71.210  1.00  0.00    -0.229 NA 
HETATM   16  H   UNL     1     -11.562   7.328  71.794  1.00  0.00     0.000 HD 
BRANCH  15  17
HETATM   17  C   UNL     1     -11.357   9.073  70.663  1.00  0.00    -0.265 A  
HETATM   18  C   UNL     1     -11.300   9.359  69.279  1.00  0.00     0.118 A  
HETATM   19  C   UNL     1     -11.074   8.370  68.294  1.00  0.00     0.327 A  
HETATM   20  C   UNL     1     -10.865   8.719  66.966  1.00  0.00    -0.031 A  
HETATM   21  C   UNL     1     -10.900  10.059  66.611  1.00  0.00     0.012 A  
HETATM   22 CL   UNL     1     -10.524  10.520  64.997  1.00  0.00    -0.307 Cl 
HETATM   23  C   UNL     1     -11.221  11.032  67.556  1.00  0.00    -0.372 A  
HETATM   24  C   UNL     1     -11.463  10.700  68.880  1.00  0.00    -0.265 A  
HETATM   25  N   UNL     1     -11.807  11.672  69.743  1.00  0.00    -0.334 NA 
HETATM   26  C   UNL     1     -11.981  11.341  71.040  1.00  0.00    -0.112 A  
HETATM   27  C   UNL     1     -11.742  10.083  71.548  1.00  0.00    -0.359 A  
ENDBRANCH  15  17
ENDBRANCH  13  15
ENDBRANCH   6   7
ENDBRANCH   3   6
ENDBRANCH   2   3
TORSDOF 6
ENDMDL
MODEL      330
REMARK 921   NORMALIZED FREE ENERGY PREDICTED BY IDOCK:   -1.03 KCAL/MOL
REMARK 922        TOTAL FREE ENERGY PREDICTED BY IDOCK:   -2.40 KCAL/MOL
REMARK 923 INTER-LIGAND FREE ENERGY PREDICTED BY IDOCK:   -2.85 KCAL/MOL
REMARK 924 INTRA-LIGAND FREE ENERGY PREDICTED BY IDOCK:    0.45 KCAL/MOL
REMARK 927      BINDING AFFINITY PREDICTED BY RF-SCORE:    0.00 PKD
ROOT
HETATM    1  C   UNL     1      -7.523   9.207  74.229  1.00  0.00     0.535 C  
HETATM    2  C   UNL     1      -7.488   7.685  74.134  1.00  0.00    -0.132 C  
ENDROOT
BRANCH   2   3
HETATM    3  N   UNL     1      -7.684   7.169  72.760  1.00  0.00    -0.083 NA 
BRANCH   3   4
HETATM    4  C   UNL     1      -6.657   6.191  72.359  1.00  0.00    -0.067 C  
HETATM    5  C   UNL     1      -5.283   6.748  71.988  1.00  0.00    -0.032 C  
ENDBRANCH   3   4
BRANCH   3   6
HETATM    6  C   UNL     1      -9.053   6.627  72.565  1.00  0.00    -0.134 C  
BRANCH   6   7
HETATM    7  C   UNL     1      -9.296   6.165  71.141  1.00  0.00    -0.175 A  
HETATM    8  C   UNL     1     -10.122   5.077  70.835  1.00  0.00    -0.232 A  
HETATM    9  C   UNL     1     -10.119   4.523  69.565  1.00  0.00    -0.139 A  
HETATM   10  O   UNL     1     -10.874   4.452  71.789  1.00  0.00     0.109 OA 
HETATM   11  C   UNL     1      -9.277   5.053  68.582  1.00  0.00    -0.158 A  
HETATM   12  H   UNL     1     -11.434   3.714  71.581  1.00  0.00     0.000 HD 
HETATM   13  C   UNL     1      -8.494   6.189  68.830  1.00  0.00    -0.118 A  
HETATM   14  C   UNL     1      -8.559   6.765  70.104  1.00  0.00    -0.140 A  
BRANCH  13  15
HETATM   15  N   UNL     1      -7.675   6.823  67.861  1.00  0.00    -0.110 NA 
HETATM   16  H   UNL     1      -6.742   6.430  67.731  1.00  0.00     0.000 HD 
BRANCH  15  17
HETATM   17  C   UNL     1      -8.007   7.948  67.049  1.00  0.00    -0.112 A  
HETATM   18  C   UNL     1      -8.742   9.051  67.542  1.00  0.00    -0.121 A  
HETATM   19  C   UNL     1      -8.953   9.286  68.920  1.00  0.00    -0.136 A  
HETATM   20  C   UNL     1      -9.814  10.288  69.351  1.00  0.00    -0.247 A  
HETATM   21  C   UNL     1     -10.455  11.074  68.406  1.00  0.00    -0.180 A  
HETATM   22 CL   UNL     1     -11.615  12.236  68.914  1.00  0.00    -0.337 Cl 
HETATM   23  C   UNL     1     -10.175  10.916  67.049  1.00  0.00    -0.256 A  
HETATM   24  C   UNL     1      -9.296   9.942  66.602  1.00  0.00    -0.157 A  
HETATM   25  N   UNL     1      -9.032   9.857  65.286  1.00  0.00    -0.176 NA 
HETATM   26  C   UNL     1      -8.220   8.866  64.861  1.00  0.00    -0.160 A  
HETATM   27  C   UNL     1      -7.714   7.884  65.684  1.00  0.00    -0.096 A  
ENDBRANCH  15  17
ENDBRANCH  13  15
ENDBRANCH   6   7
ENDBRANCH   3   6
ENDBRANCH   2   3
TORSDOF 6
ENDMDL
MODEL      331
REMARK 921   NORMALIZED FREE ENERGY PREDICTED BY IDOCK:    0.38 KCAL/MOL
REMARK 922        TOTAL FREE ENERGY PREDICTED BY IDOCK:   -0.49 KCAL/MOL
REMARK 923 INTER-LIGAND FREE ENERGY PREDICTED BY IDOCK:   -0.13 KCAL/MOL
REMARK 924 INTRA-LIGAND FREE ENERGY PREDICTED BY IDOCK:   -0.37 KCAL/MOL
REMARK 927      BINDING AFFINITY PREDICTED BY RF-SCORE:    0.00 PKD
ROOT
HETATM    1  C   UNL     1      -9.385   7.513  62.330  1.00  0.00     1.588 C  
HETATM    2  C   UNL     1      -8.527   8.540  63.063  1.00  0.00    -0.072 C  
ENDROOT
BRANCH   2   3
HETATM    3  N   UNL     1      -7.219   8.012  63.511  1.00  0.00    -0.082 NA 
BRANCH   3   4
HETATM    4  C   UNL     1      -6.078   8.809  63.025  1.00  0.00    -0.090 C  
HETATM    5  C   UNL     1      -5.470   9.810  64.007  1.00  0.00    -0.081 C  
ENDBRANCH   3   4
BRANCH   3   6
HETATM    6  C   UNL     1      -7.168   7.839  64.985  1.00  0.00    -0.065 C  
BRANCH   6   7
HETATM    7  C   UNL     1      -7.240   6.383  65.401  1.00  0.00    -0.070 A  
HETATM    8  C   UNL     1      -6.770   5.345  64.587  1.00  0.00    -0.047 A  
HETATM    9  C   UNL     1      -7.081   4.025  64.874  1.00  0.00    -0.066 A  
HETATM   10  O   UNL     1      -6.089   5.590  63.428  1.00  0.00    -0.021 OA 
HETATM   11  C   UNL     1      -7.876   3.729  65.985  1.00  0.00    -0.090 A  
HETATM   12  H   UNL     1      -5.771   4.886  62.876  1.00  0.00     0.000 HD 
HETATM   13  C   UNL     1      -8.300   4.735  66.867  1.00  0.00    -0.106 A  
HETATM   14  C   UNL     1      -7.923   6.054  66.584  1.00  0.00    -0.102 A  
BRANCH  13  15
HETATM   15  N   UNL     1      -9.045   4.501  68.050  1.00  0.00    -0.117 NA 
HETATM   16  H   UNL     1      -9.999   4.161  67.924  1.00  0.00     0.000 HD 
BRANCH  15  17
HETATM   17  C   UNL     1      -8.612   4.686  69.397  1.00  0.00    -0.082 A  
HETATM   18  C   UNL     1      -8.270   5.955  69.918  1.00  0.00    -0.117 A  
HETATM   19  C   UNL     1      -8.604   7.170  69.275  1.00  0.00    -0.137 A  
HETATM   20  C   UNL     1      -8.110   8.383  69.739  1.00  0.00    -0.117 A  
HETATM   21  C   UNL     1      -7.295   8.390  70.860  1.00  0.00    -0.064 A  
HETATM   22 CL   UNL     1      -6.576   9.865  71.377  1.00  0.00     0.195 Cl 
HETATM   23  C   UNL     1      -7.044   7.211  71.559  1.00  0.00    -0.069 A  
HETATM   24  C   UNL     1      -7.553   5.995  71.129  1.00  0.00    -0.100 A  
HETATM   25  N   UNL     1      -7.313   4.893  71.861  1.00  0.00    -0.077 NA 
HETATM   26  C   UNL     1      -7.766   3.708  71.398  1.00  0.00    -0.056 A  
HETATM   27  C   UNL     1      -8.383   3.549  70.176  1.00  0.00    -0.083 A  
ENDBRANCH  15  17
ENDBRANCH  13  15
ENDBRANCH   6   7
ENDBRANCH   3   6
ENDBRANCH   2   3
TORSDOF 6
ENDMDL
MODEL      332
REMARK 921   NORMALIZED FREE ENERGY PREDICTED BY IDOCK:    0.80 KCAL/MOL
REMARK 922        TOTAL FREE ENERGY PREDICTED BY IDOCK:    0.06 KCAL/MOL
REMARK 923 INTER-LIGAND FREE ENERGY PREDICTED BY IDOCK:   -2.64 KCAL/MOL
REMARK 924 INTRA-LIGAND FREE ENERGY PREDICTED BY IDOCK:    2.70 KCAL/MOL
REMARK 927      BINDING AFFINITY PREDICTED BY RF-SCORE:    0.00 PKD
ROOT
HETATM    1  C   UNL     1      -7.126  16.870  67.442  1.00  0.00    -0.185 C  
HETATM    2  C   UNL     1      -7.243  15.592  68.266  1.00  0.00    -0.116 C  
ENDROOT
BRANCH   2   3
HETATM    3  N   UNL     1      -5.942  14.947  68.555  1.00  0.00    -0.089 NA 
BRANCH   3   4
HETATM    4  C   UNL     1      -5.829  14.473  69.946  1.00  0.00    -0.122 C  
HETATM    5  C   UNL     1      -5.758  12.960  70.154  1.00  0.00    -0.148 C  
ENDBRANCH   3   4
BRANCH   3   6
HETATM    6  C   UNL     1      -5.635  13.864  67.588  1.00  0.00     0.026 C  
BRANCH   6   7
HETATM    7  C   UNL     1      -6.662  12.750  67.619  1.00  0.00    -0.147 A  
HETATM    8  C   UNL     1      -6.528  11.582  66.859  1.00  0.00    -0.144 A  
HETATM    9  C   UNL     1      -7.594  10.709  66.709  1.00  0.00    -0.120 A  
HETATM   10  O   UNL     1      -5.392  11.310  66.150  1.00  0.00    -0.137 OA 
HETATM   11  C   UNL     1      -8.818  11.002  67.319  1.00  0.00    -0.135 A  
HETATM   12  H   UNL     1      -5.301  10.518  65.634  1.00  0.00     0.000 HD 
HETATM   13  C   UNL     1      -8.967  12.122  68.151  1.00  0.00    -0.195 A  
HETATM   14  C   UNL     1      -7.857  12.956  68.331  1.00  0.00    -0.133 A  
BRANCH  13  15
HETATM   15  N   UNL     1     -10.154  12.441  68.859  1.00  0.00    -0.428 NA 
HETATM   16  H   UNL     1     -10.456  13.414  68.818  1.00  0.00     0.000 HD 
BRANCH  15  17
HETATM   17  C   UNL     1     -10.972  11.555  69.621  1.00  0.00    -0.064 A  
HETATM   18  C   UNL     1     -10.445  10.438  70.312  1.00  0.00    -0.110 A  
HETATM   19  C   UNL     1      -9.065  10.266  70.564  1.00  0.00     0.823 A  
HETATM   20  C   UNL     1      -8.578   9.081  71.101  1.00  0.00    -0.250 A  
HETATM   21  C   UNL     1      -9.473   8.068  71.410  1.00  0.00    -0.154 A  
HETATM   22 CL   UNL     1      -8.880   6.551  71.962  1.00  0.00    -0.133 Cl 
HETATM   23  C   UNL     1     -10.845   8.267  71.260  1.00  0.00    -0.285 A  
HETATM   24  C   UNL     1     -11.351   9.454  70.754  1.00  0.00    -0.300 A  
HETATM   25  N   UNL     1     -12.683   9.610  70.665  1.00  0.00    -0.107 NA 
HETATM   26  C   UNL     1     -13.158  10.747  70.115  1.00  0.00     0.138 A  
HETATM   27  C   UNL     1     -12.357  11.721  69.559  1.00  0.00    -0.120 A  
ENDBRANCH  15  17
ENDBRANCH  13  15
ENDBRANCH   6   7
ENDBRANCH   3   6
ENDBRANCH   2   3
TORSDOF 6
ENDMDL
MODEL      333
REMARK 921   NORMALIZED FREE ENERGY PREDICTED BY IDOCK:    1.89 KCAL/MOL
REMARK 922        TOTAL FREE ENERGY PREDICTED BY IDOCK:    1.55 KCAL/MOL
REMARK 923 INTER-LIGAND FREE ENERGY PREDICTED BY IDOCK:    1.64 KCAL/MOL
REMARK 924 INTRA-LIGAND FREE ENERGY PREDICTED BY IDOCK:   -0.09 KCAL/MOL
REMARK 927      BINDING AFFINITY PREDICTED BY RF-SCORE:    0.00 PKD
ROOT
HETATM    1  C   UNL     1      -7.146  17.069  65.426  1.00  0.00     1.764 C  
HETATM    2  C   UNL     1      -6.735  15.783  66.136  1.00  0.00     2.433 C  
ENDROOT
BRANCH   2   3
HETATM    3  N   UNL     1      -7.422  15.572  67.430  1.00  0.00    -0.186 NA 
BRANCH   3   4
HETATM    4  C   UNL     1      -6.709  16.180  68.568  1.00  0.00    -0.126 C  
HETATM    5  C   UNL     1      -5.970  17.490  68.297  1.00  0.00    -0.162 C  
ENDBRANCH   3   4
BRANCH   3   6
HETATM    6  C   UNL     1      -8.839  16.013  67.382  1.00  0.00    -0.184 C  
BRANCH   6   7
HETATM    7  C   UNL     1      -9.805  14.906  67.753  1.00  0.00    -0.217 A  
HETATM    8  C   UNL     1     -11.194  15.082  67.735  1.00  0.00    -0.321 A  
HETATM    9  C   UNL     1     -12.033  14.148  68.321  1.00  0.00    -0.367 A  
HETATM   10  O   UNL     1     -11.769  16.220  67.244  1.00  0.00     0.324 OA 
HETATM   11  C   UNL     1     -11.486  13.022  68.943  1.00  0.00    -0.345 A  
HETATM   12  H   UNL     1     -12.711  16.339  67.231  1.00  0.00     0.000 HD 
HETATM   13  C   UNL     1     -10.106  12.772  68.914  1.00  0.00     0.068 A  
HETATM   14  C   UNL     1      -9.286  13.703  68.265  1.00  0.00    -0.198 A  
BRANCH  13  15
HETATM   15  N   UNL     1      -9.489  11.617  69.458  1.00  0.00     0.108 NA 
HETATM   16  H   UNL     1      -9.328  11.623  70.466  1.00  0.00     0.000 HD 
BRANCH  15  17
HETATM   17  C   UNL     1      -9.070  10.448  68.757  1.00  0.00    -0.165 A  
HETATM   18  C   UNL     1      -8.125  10.490  67.705  1.00  0.00    -0.107 A  
HETATM   19  C   UNL     1      -7.300  11.609  67.452  1.00  0.00    -0.128 A  
HETATM   20  C   UNL     1      -6.505  11.668  66.314  1.00  0.00     0.230 A  
HETATM   21  C   UNL     1      -6.516  10.599  65.432  1.00  0.00    -0.034 A  
HETATM   22 CL   UNL     1      -5.634  10.703  63.960  1.00  0.00    -0.116 Cl 
HETATM   23  C   UNL     1      -7.249   9.450  65.725  1.00  0.00    -0.095 A  
HETATM   24  C   UNL     1      -8.024   9.360  66.871  1.00  0.00    -0.109 A  
HETATM   25  N   UNL     1      -8.681   8.215  67.125  1.00  0.00    -0.126 NA 
HETATM   26  C   UNL     1      -9.478   8.165  68.213  1.00  0.00    -0.141 A  
HETATM   27  C   UNL     1      -9.727   9.246  69.031  1.00  0.00    -0.162 A  
ENDBRANCH  15  17
ENDBRANCH  13  15
ENDBRANCH   6   7
ENDBRANCH   3   6
ENDBRANCH   2   3
TORSDOF 6
ENDMDL
MODEL      334
REMARK 921   NORMALIZED FREE ENERGY PREDICTED BY IDOCK:    3.53 KCAL/MOL
REMARK 922        TOTAL FREE ENERGY PREDICTED BY IDOCK:    3.76 KCAL/MOL
REMARK 923 INTER-LIGAND FREE ENERGY PREDICTED BY IDOCK:    3.69 KCAL/MOL
REMARK 924 INTRA-LIGAND FREE ENERGY PREDICTED BY IDOCK:    0.07 KCAL/MOL
REMARK 927      BINDING AFFINITY PREDICTED BY RF-SCORE:    0.00 PKD
ROOT
HETATM    1  C   UNL     1     -11.953   7.635  66.671  1.00  0.00     4.874 C  
HETATM    2  C   UNL     1     -11.499   8.994  67.197  1.00  0.00     1.783 C  
ENDROOT
BRANCH   2   3
HETATM    3  N   UNL     1     -10.262   8.936  68.008  1.00  0.00    -0.203 NA 
BRANCH   3   4
HETATM    4  C   UNL     1     -10.499   8.478  69.389  1.00  0.00    -0.218 C  
HETATM    5  C   UNL     1     -10.816   9.555  70.427  1.00  0.00    -0.338 C  
ENDBRANCH   3   4
BRANCH   3   6
HETATM    6  C   UNL     1      -9.204   8.132  67.346  1.00  0.00    -0.137 C  
BRANCH   6   7
HETATM    7  C   UNL     1      -7.945   8.933  67.084  1.00  0.00    -0.096 A  
HETATM    8  C   UNL     1      -7.314   8.954  65.835  1.00  0.00    -0.093 A  
HETATM    9  C   UNL     1      -6.039   9.478  65.695  1.00  0.00    -0.064 A  
HETATM   10  O   UNL     1      -7.873   8.367  64.735  1.00  0.00    -0.112 OA 
HETATM   11  C   UNL     1      -5.374   9.985  66.816  1.00  0.00    -0.041 A  
HETATM   12  H   UNL     1      -7.445   8.381  63.888  1.00  0.00     0.000 HD 
HETATM   13  C   UNL     1      -6.003  10.052  68.068  1.00  0.00    -0.038 A  
HETATM   14  C   UNL     1      -7.313   9.568  68.168  1.00  0.00    -0.078 A  
BRANCH  13  15
HETATM   15  N   UNL     1      -5.418  10.618  69.229  1.00  0.00    -0.038 NA 
HETATM   16  H   UNL     1      -4.642  10.101  69.642  1.00  0.00     0.000 HD 
BRANCH  15  17
HETATM   17  C   UNL     1      -5.793  11.829  69.883  1.00  0.00    -0.135 A  
HETATM   18  C   UNL     1      -6.613  12.804  69.269  1.00  0.00    -0.086 A  
HETATM   19  C   UNL     1      -7.373  12.551  68.104  1.00  0.00    -0.110 A  
HETATM   20  C   UNL     1      -8.035  13.580  67.445  1.00  0.00    -0.165 A  
HETATM   21  C   UNL     1      -7.959  14.864  67.961  1.00  0.00    -0.129 A  
HETATM   22 CL   UNL     1      -8.670  16.170  67.096  1.00  0.00    -0.204 Cl 
HETATM   23  C   UNL     1      -7.297  15.104  69.164  1.00  0.00    -0.167 A  
HETATM   24  C   UNL     1      -6.656  14.085  69.851  1.00  0.00    -0.057 A  
HETATM   25  N   UNL     1      -6.065  14.363  71.026  1.00  0.00    -0.166 NA 
HETATM   26  C   UNL     1      -5.395  13.374  71.653  1.00  0.00    -0.168 A  
HETATM   27  C   UNL     1      -5.206  12.118  71.118  1.00  0.00    -0.123 A  
ENDBRANCH  15  17
ENDBRANCH  13  15
ENDBRANCH   6   7
ENDBRANCH   3   6
ENDBRANCH   2   3
TORSDOF 6
ENDMDL
MODEL      335
REMARK 921   NORMALIZED FREE ENERGY PREDICTED BY IDOCK:   11.70 KCAL/MOL
REMARK 922        TOTAL FREE ENERGY PREDICTED BY IDOCK:   14.79 KCAL/MOL
REMARK 923 INTER-LIGAND FREE ENERGY PREDICTED BY IDOCK:   14.39 KCAL/MOL
REMARK 924 INTRA-LIGAND FREE ENERGY PREDICTED BY IDOCK:    0.40 KCAL/MOL
REMARK 927      BINDING AFFINITY PREDICTED BY RF-SCORE:    0.00 PKD
ROOT
HETATM    1  C   UNL     1     -11.909  17.730  70.741  1.00  0.00     5.139 C  
HETATM    2  C   UNL     1     -11.287  18.031  69.381  1.00  0.00     2.345 C  
ENDROOT
BRANCH   2   3
HETATM    3  N   UNL     1     -10.234  19.071  69.424  1.00  0.00    -0.008 NA 
BRANCH   3   4
HETATM    4  C   UNL     1      -9.114  18.721  70.317  1.00  0.00     2.128 C  
HETATM    5  C   UNL     1      -8.802  19.702  71.447  1.00  0.00     3.263 C  
ENDBRANCH   3   4
BRANCH   3   6
HETATM    6  C   UNL     1      -9.751  19.425  68.066  1.00  0.00    -0.356 C  
BRANCH   6   7
HETATM    7  C   UNL     1     -10.098  18.371  67.033  1.00  0.00    -0.382 A  
HETATM    8  C   UNL     1     -11.226  18.468  66.209  1.00  0.00     0.769 A  
HETATM    9  C   UNL     1     -11.655  17.379  65.468  1.00  0.00     1.738 A  
HETATM   10  O   UNL     1     -12.007  19.589  66.186  1.00  0.00     1.599 OA 
HETATM   11  C   UNL     1     -10.957  16.170  65.548  1.00  0.00    -0.183 A  
HETATM   12  H   UNL     1     -12.772  19.654  65.627  1.00  0.00     0.000 HD 
HETATM   13  C   UNL     1      -9.780  16.058  66.302  1.00  0.00    -0.306 A  
HETATM   14  C   UNL     1      -9.336  17.190  66.996  1.00  0.00    -0.250 A  
BRANCH  13  15
HETATM   15  N   UNL     1      -8.982  14.887  66.371  1.00  0.00    -0.431 NA 
HETATM   16  H   UNL     1      -9.015  14.269  65.560  1.00  0.00     0.000 HD 
BRANCH  15  17
HETATM   17  C   UNL     1      -8.139  14.476  67.446  1.00  0.00    -0.200 A  
HETATM   18  C   UNL     1      -7.644  13.156  67.563  1.00  0.00    -0.166 A  
HETATM   19  C   UNL     1      -7.679  12.222  66.503  1.00  0.00     0.308 A  
HETATM   20  C   UNL     1      -7.332  10.893  66.710  1.00  0.00    -0.134 A  
HETATM   21  C   UNL     1      -6.927  10.495  67.975  1.00  0.00    -0.074 A  
HETATM   22 CL   UNL     1      -6.609   8.833  68.281  1.00  0.00    -0.060 Cl 
HETATM   23  C   UNL     1      -6.792  11.430  69.000  1.00  0.00    -0.102 A  
HETATM   24  C   UNL     1      -7.106  12.766  68.804  1.00  0.00    -0.089 A  
HETATM   25  N   UNL     1      -6.922  13.633  69.814  1.00  0.00     0.134 NA 
HETATM   26  C   UNL     1      -7.287  14.919  69.626  1.00  0.00    -0.153 A  
HETATM   27  C   UNL     1      -7.919  15.378  68.491  1.00  0.00    -0.140 A  
ENDBRANCH  15  17
ENDBRANCH  13  15
ENDBRANCH   6   7
ENDBRANCH   3   6
ENDBRANCH   2   3
TORSDOF 6
ENDMDL
MODEL      336
REMARK 921   NORMALIZED FREE ENERGY PREDICTED BY IDOCK:   15.28 KCAL/MOL
REMARK 922        TOTAL FREE ENERGY PREDICTED BY IDOCK:   19.62 KCAL/MOL
REMARK 923 INTER-LIGAND FREE ENERGY PREDICTED BY IDOCK:   19.17 KCAL/MOL
REMARK 924 INTRA-LIGAND FREE ENERGY PREDICTED BY IDOCK:    0.45 KCAL/MOL
REMARK 927      BINDING AFFINITY PREDICTED BY RF-SCORE:    0.00 PKD
ROOT
HETATM    1  C   UNL     1     -12.233  17.782  70.977  1.00  0.00     7.547 C  
HETATM    2  C   UNL     1     -11.395  17.673  69.708  1.00  0.00     2.001 C  
ENDROOT
BRANCH   2   3
HETATM    3  N   UNL     1     -10.088  18.363  69.795  1.00  0.00     0.403 NA 
BRANCH   3   4
HETATM    4  C   UNL     1      -9.312  17.980  70.989  1.00  0.00     5.779 C  
HETATM    5  C   UNL     1      -8.965  19.098  71.972  1.00  0.00     6.572 C  
ENDBRANCH   3   4
BRANCH   3   6
HETATM    6  C   UNL     1      -9.290  18.193  68.555  1.00  0.00    -0.310 C  
BRANCH   6   7
HETATM    7  C   UNL     1      -9.663  16.938  67.791  1.00  0.00    -0.250 A  
HETATM    8  C   UNL     1     -10.529  16.957  66.691  1.00  0.00    -0.257 A  
HETATM    9  C   UNL     1     -11.051  15.780  66.181  1.00  0.00    -0.078 A  
HETATM   10  O   UNL     1     -10.978  18.129  66.148  1.00  0.00    -0.052 OA 
HETATM   11  C   UNL     1     -10.715  14.560  66.777  1.00  0.00    -0.291 A  
HETATM   12  H   UNL     1     -11.565  18.142  65.402  1.00  0.00     0.000 HD 
HETATM   13  C   UNL     1      -9.792  14.495  67.830  1.00  0.00    -0.222 A  
HETATM   14  C   UNL     1      -9.235  15.695  68.288  1.00  0.00    -0.188 A  
BRANCH  13  15
HETATM   15  N   UNL     1      -9.349  13.290  68.433  1.00  0.00    -0.305 NA 
HETATM   16  H   UNL     1      -8.614  13.379  69.135  1.00  0.00     0.000 HD 
BRANCH  15  17
HETATM   17  C   UNL     1      -9.815  11.968  68.169  1.00  0.00    -0.201 A  
HETATM   18  C   UNL     1      -9.164  10.817  68.673  1.00  0.00    -0.184 A  
HETATM   19  C   UNL     1      -8.199  10.865  69.704  1.00  0.00     0.258 A  
HETATM   20  C   UNL     1      -7.470   9.735  70.054  1.00  0.00    -0.158 A  
HETATM   21  C   UNL     1      -7.717   8.545  69.387  1.00  0.00    -0.092 A  
HETATM   22 CL   UNL     1      -6.744   7.167  69.720  1.00  0.00    -0.047 Cl 
HETATM   23  C   UNL     1      -8.737   8.465  68.440  1.00  0.00    -0.136 A  
HETATM   24  C   UNL     1      -9.495   9.574  68.099  1.00  0.00    -0.133 A  
HETATM   25  N   UNL     1     -10.491   9.434  67.208  1.00  0.00    -0.265 NA 
HETATM   26  C   UNL     1     -11.181  10.535  66.843  1.00  0.00     0.081 A  
HETATM   27  C   UNL     1     -10.868  11.810  67.264  1.00  0.00    -0.300 A  
ENDBRANCH  15  17
ENDBRANCH  13  15
ENDBRANCH   6   7
ENDBRANCH   3   6
ENDBRANCH   2   3
TORSDOF 6
ENDMDL
MODEL      337
REMARK 921   NORMALIZED FREE ENERGY PREDICTED BY IDOCK:   17.83 KCAL/MOL
REMARK 922        TOTAL FREE ENERGY PREDICTED BY IDOCK:   23.07 KCAL/MOL
REMARK 923 INTER-LIGAND FREE ENERGY PREDICTED BY IDOCK:   22.41 KCAL/MOL
REMARK 924 INTRA-LIGAND FREE ENERGY PREDICTED BY IDOCK:    0.66 KCAL/MOL
REMARK 927      BINDING AFFINITY PREDICTED BY RF-SCORE:    0.00 PKD
ROOT
HETATM    1  C   UNL     1     -11.126  14.575  73.405  1.00  0.00     1.880 C  
HETATM    2  C   UNL     1     -10.719  14.290  71.963  1.00  0.00     3.144 C  
ENDROOT
BRANCH   2   3
HETATM    3  N   UNL     1      -9.545  15.069  71.510  1.00  0.00     2.472 NA 
BRANCH   3   4
HETATM    4  C   UNL     1      -8.888  14.487  70.326  1.00  0.00     1.536 C  
HETATM    5  C   UNL     1      -7.387  14.218  70.434  1.00  0.00     0.789 C  
ENDBRANCH   3   4
BRANCH   3   6
HETATM    6  C   UNL     1      -9.881  16.499  71.292  1.00  0.00     3.721 C  
BRANCH   6   7
HETATM    7  C   UNL     1     -10.969  16.688  70.254  1.00  0.00    -0.066 A  
HETATM    8  C   UNL     1     -12.327  16.514  70.548  1.00  0.00     1.295 A  
HETATM    9  C   UNL     1     -13.266  16.438  69.532  1.00  0.00     3.186 A  
HETATM   10  O   UNL     1     -12.766  16.302  71.824  1.00  0.00    -0.512 OA 
HETATM   11  C   UNL     1     -12.852  16.531  68.200  1.00  0.00     3.181 A  
HETATM   12  H   UNL     1     -13.687  16.183  72.024  1.00  0.00     0.000 HD 
HETATM   13  C   UNL     1     -11.512  16.784  67.870  1.00  0.00     0.213 A  
HETATM   14  C   UNL     1     -10.593  16.913  68.918  1.00  0.00    -0.353 A  
BRANCH  13  15
HETATM   15  N   UNL     1     -11.034  16.962  66.547  1.00  0.00     0.056 NA 
HETATM   16  H   UNL     1     -11.730  16.909  65.803  1.00  0.00     0.000 HD 
BRANCH  15  17
HETATM   17  C   UNL     1      -9.689  17.209  66.139  1.00  0.00    -0.242 A  
HETATM   18  C   UNL     1      -8.646  16.279  66.357  1.00  0.00    -0.361 A  
HETATM   19  C   UNL     1      -8.874  14.930  66.712  1.00  0.00    -0.291 A  
HETATM   20  C   UNL     1      -7.822  14.098  67.073  1.00  0.00     0.070 A  
HETATM   21  C   UNL     1      -6.532  14.604  67.061  1.00  0.00     0.909 A  
HETATM   22 CL   UNL     1      -5.231  13.628  67.619  1.00  0.00    -0.021 Cl 
HETATM   23  C   UNL     1      -6.287  15.902  66.615  1.00  0.00     0.728 A  
HETATM   24  C   UNL     1      -7.321  16.738  66.222  1.00  0.00    -0.151 A  
HETATM   25  N   UNL     1      -7.027  17.967  65.765  1.00  0.00    -0.452 NA 
HETATM   26  C   UNL     1      -8.048  18.789  65.442  1.00  0.00     1.001 A  
HETATM   27  C   UNL     1      -9.376  18.474  65.637  1.00  0.00     0.675 A  
ENDBRANCH  15  17
ENDBRANCH  13  15
ENDBRANCH   6   7
ENDBRANCH   3   6
ENDBRANCH   2   3
TORSDOF 6
ENDMDL
