MODEL        1
REMARK 921   NORMALIZED FREE ENERGY PREDICTED BY IDOCK:   -6.76 KCAL/MOL
REMARK 922        TOTAL FREE ENERGY PREDICTED BY IDOCK:   -8.65 KCAL/MOL
REMARK 923 INTER-LIGAND FREE ENERGY PREDICTED BY IDOCK:   -8.34 KCAL/MOL
REMARK 924 INTRA-LIGAND FREE ENERGY PREDICTED BY IDOCK:   -0.30 KCAL/MOL
REMARK 927      BINDING AFFINITY PREDICTED BY RF-SCORE:    0.00 PKD
ROOT
HETATM    1  C   UNL     1     -11.679  14.410  70.014  1.00  0.00    -0.360 C  
HETATM    2  C   UNL     1     -11.877  15.926  70.083  1.00  0.00    -0.327 C  
HETATM    3  C   UNL     1     -11.904  13.866  68.582  1.00  0.00    -0.372 C  
HETATM    4  C   UNL     1     -12.650  13.710  71.013  1.00  0.00    -0.441 C  
ENDROOT
BRANCH   3   5
HETATM    5  N   UNL     1     -11.051  14.319  67.469  1.00  0.00    -0.289 NA 
HETATM    6  C   UNL     1     -12.739  12.404  64.531  1.00  0.00    -0.404 C  
HETATM    7  C   UNL     1     -11.785  14.098  66.182  1.00  0.00    -0.393 C  
HETATM    8  C   UNL     1      -9.771  13.571  67.355  1.00  0.00    -0.229 C  
HETATM    9  C   UNL     1      -9.932  12.088  66.927  1.00  0.00    -0.202 C  
HETATM   10  C   UNL     1     -11.964  12.599  65.825  1.00  0.00    -0.446 C  
HETATM   11  C   UNL     1      -8.574  11.438  66.696  1.00  0.00    -0.170 C  
HETATM   12  O   UNL     1     -10.679  11.970  65.700  1.00  0.00    -0.255 OA 
ENDBRANCH   3   5
BRANCH   4  13
HETATM   13  C   UNL     1     -12.526  12.204  70.998  1.00  0.00    -0.369 A  
HETATM   14  C   UNL     1     -11.307  10.205  70.334  1.00  0.00    -0.401 A  
HETATM   15  C   UNL     1     -11.983   9.424  71.289  1.00  0.00    -0.430 A  
HETATM   16  C   UNL     1     -12.991  10.056  72.036  1.00  0.00    -0.514 A  
HETATM   17  C   UNL     1     -13.252  11.426  71.901  1.00  0.00    -0.485 A  
HETATM   18  C   UNL     1     -11.586  11.570  70.176  1.00  0.00    -0.336 A  
BRANCH  15  19
HETATM   19  C   UNL     1     -11.594   7.950  71.513  1.00  0.00    -0.306 C  
HETATM   20  C   UNL     1     -10.905   7.694  72.873  1.00  0.00    -0.446 C  
HETATM   21  C   UNL     1     -12.878   7.081  71.505  1.00  0.00    -0.420 C  
BRANCH  19  22
HETATM   22  C   UNL     1     -10.662   7.430  70.370  1.00  0.00    -0.250 C  
HETATM   23  C   UNL     1     -11.254   6.337  69.485  1.00  0.00    -0.500 C  
ENDBRANCH  19  22
ENDBRANCH  15  19
ENDBRANCH   4  13
TORSDOF 4
ENDMDL
MODEL        2
REMARK 921   NORMALIZED FREE ENERGY PREDICTED BY IDOCK:   -6.67 KCAL/MOL
REMARK 922        TOTAL FREE ENERGY PREDICTED BY IDOCK:   -8.54 KCAL/MOL
REMARK 923 INTER-LIGAND FREE ENERGY PREDICTED BY IDOCK:   -8.22 KCAL/MOL
REMARK 924 INTRA-LIGAND FREE ENERGY PREDICTED BY IDOCK:   -0.32 KCAL/MOL
REMARK 927      BINDING AFFINITY PREDICTED BY RF-SCORE:    0.00 PKD
ROOT
HETATM    1  C   UNL     1     -11.967  14.091  70.324  1.00  0.00    -0.409 C  
HETATM    2  C   UNL     1     -12.394  15.543  70.543  1.00  0.00    -0.461 C  
HETATM    3  C   UNL     1     -12.075  13.677  68.836  1.00  0.00    -0.300 C  
HETATM    4  C   UNL     1     -12.842  13.150  71.208  1.00  0.00    -0.384 C  
ENDROOT
BRANCH   3   5
HETATM    5  N   UNL     1     -11.278  14.370  67.808  1.00  0.00    -0.287 NA 
HETATM    6  C   UNL     1     -12.503  12.472  64.640  1.00  0.00    -0.539 C  
HETATM    7  C   UNL     1     -11.917  14.146  66.473  1.00  0.00    -0.442 C  
HETATM    8  C   UNL     1      -9.883  13.866  67.695  1.00  0.00    -0.236 C  
HETATM    9  C   UNL     1      -9.768  12.423  67.137  1.00  0.00    -0.207 C  
HETATM   10  C   UNL     1     -11.819  12.677  65.982  1.00  0.00    -0.436 C  
HETATM   11  C   UNL     1      -8.309  12.039  66.919  1.00  0.00    -0.159 C  
HETATM   12  O   UNL     1     -10.441  12.292  65.868  1.00  0.00    -0.245 OA 
ENDBRANCH   3   5
BRANCH   4  13
HETATM   13  C   UNL     1     -12.489  11.690  71.042  1.00  0.00    -0.436 A  
HETATM   14  C   UNL     1     -10.961   9.979  70.232  1.00  0.00    -0.377 A  
HETATM   15  C   UNL     1     -11.539   9.006  71.066  1.00  0.00    -0.360 A  
HETATM   16  C   UNL     1     -12.655   9.396  71.826  1.00  0.00    -0.470 A  
HETATM   17  C   UNL     1     -13.117  10.718  71.823  1.00  0.00    -0.573 A  
HETATM   18  C   UNL     1     -11.438  11.296  70.204  1.00  0.00    -0.336 A  
BRANCH  15  19
HETATM   19  C   UNL     1     -10.938   7.590  71.153  1.00  0.00    -0.264 C  
HETATM   20  C   UNL     1     -11.401   6.653  70.014  1.00  0.00    -0.440 C  
HETATM   21  C   UNL     1      -9.395   7.687  71.035  1.00  0.00    -0.156 C  
BRANCH  19  22
HETATM   22  C   UNL     1     -11.268   6.917  72.525  1.00  0.00    -0.304 C  
HETATM   23  C   UNL     1     -10.218   7.100  73.617  1.00  0.00    -0.402 C  
ENDBRANCH  19  22
ENDBRANCH  15  19
ENDBRANCH   4  13
TORSDOF 4
ENDMDL
MODEL        3
REMARK 921   NORMALIZED FREE ENERGY PREDICTED BY IDOCK:   -6.47 KCAL/MOL
REMARK 922        TOTAL FREE ENERGY PREDICTED BY IDOCK:   -8.29 KCAL/MOL
REMARK 923 INTER-LIGAND FREE ENERGY PREDICTED BY IDOCK:   -7.60 KCAL/MOL
REMARK 924 INTRA-LIGAND FREE ENERGY PREDICTED BY IDOCK:   -0.68 KCAL/MOL
REMARK 927      BINDING AFFINITY PREDICTED BY RF-SCORE:    0.00 PKD
ROOT
HETATM    1  C   UNL     1     -11.764  13.396  66.197  1.00  0.00    -0.405 C  
HETATM    2  C   UNL     1     -11.946  14.012  64.809  1.00  0.00    -0.432 C  
HETATM    3  C   UNL     1     -10.640  14.099  66.996  1.00  0.00    -0.276 C  
HETATM    4  C   UNL     1     -11.452  11.874  66.056  1.00  0.00    -0.344 C  
ENDROOT
BRANCH   3   5
HETATM    5  N   UNL     1     -10.744  15.531  67.329  1.00  0.00    -0.304 NA 
HETATM    6  C   UNL     1      -7.402  15.996  69.268  1.00  0.00    -0.231 C  
HETATM    7  C   UNL     1      -9.376  16.048  67.654  1.00  0.00    -0.214 C  
HETATM    8  C   UNL     1     -11.591  15.807  68.519  1.00  0.00    -0.362 C  
HETATM    9  C   UNL     1     -10.993  15.307  69.860  1.00  0.00    -0.290 C  
HETATM   10  C   UNL     1      -8.802  15.479  68.979  1.00  0.00    -0.242 C  
HETATM   11  C   UNL     1     -11.849  15.754  71.039  1.00  0.00    -0.460 C  
HETATM   12  O   UNL     1      -9.664  15.825  70.073  1.00  0.00    -0.192 OA 
ENDBRANCH   3   5
BRANCH   4  13
HETATM   13  C   UNL     1     -11.247  11.189  67.388  1.00  0.00    -0.363 A  
HETATM   14  C   UNL     1     -11.883  10.899  69.719  1.00  0.00    -0.419 A  
HETATM   15  C   UNL     1     -11.223   9.659  69.789  1.00  0.00    -0.208 A  
HETATM   16  C   UNL     1     -10.510   9.248  68.650  1.00  0.00    -0.236 A  
HETATM   17  C   UNL     1     -10.530   9.994  67.465  1.00  0.00    -0.307 A  
HETATM   18  C   UNL     1     -11.881  11.663  68.543  1.00  0.00    -0.357 A  
BRANCH  15  19
HETATM   19  C   UNL     1     -11.319   8.791  71.058  1.00  0.00    -0.332 C  
HETATM   20  C   UNL     1     -11.568   7.294  70.764  1.00  0.00    -0.334 C  
HETATM   21  C   UNL     1      -9.972   8.865  71.824  1.00  0.00    -0.397 C  
BRANCH  19  22
HETATM   22  C   UNL     1     -12.439   9.310  72.017  1.00  0.00    -0.451 C  
HETATM   23  C   UNL     1     -13.750   8.532  71.980  1.00  0.00    -0.446 C  
ENDBRANCH  19  22
ENDBRANCH  15  19
ENDBRANCH   4  13
TORSDOF 4
ENDMDL
MODEL        4
REMARK 921   NORMALIZED FREE ENERGY PREDICTED BY IDOCK:   -6.41 KCAL/MOL
REMARK 922        TOTAL FREE ENERGY PREDICTED BY IDOCK:   -8.22 KCAL/MOL
REMARK 923 INTER-LIGAND FREE ENERGY PREDICTED BY IDOCK:   -8.09 KCAL/MOL
REMARK 924 INTRA-LIGAND FREE ENERGY PREDICTED BY IDOCK:   -0.13 KCAL/MOL
REMARK 927      BINDING AFFINITY PREDICTED BY RF-SCORE:    0.00 PKD
ROOT
HETATM    1  C   UNL     1     -10.767  10.125  67.565  1.00  0.00    -0.347 C  
HETATM    2  C   UNL     1     -10.218   8.814  67.001  1.00  0.00    -0.351 C  
HETATM    3  C   UNL     1      -9.695  11.241  67.576  1.00  0.00    -0.177 C  
HETATM    4  C   UNL     1     -11.310   9.888  69.007  1.00  0.00    -0.073 C  
ENDROOT
BRANCH   3   5
HETATM    5  N   UNL     1      -9.083  11.703  66.317  1.00  0.00    -0.215 NA 
HETATM    6  C   UNL     1      -8.421  15.426  67.237  1.00  0.00    -0.214 C  
HETATM    7  C   UNL     1      -8.318  12.961  66.588  1.00  0.00     0.145 C  
HETATM    8  C   UNL     1     -10.075  12.035  65.259  1.00  0.00    -0.260 C  
HETATM    9  C   UNL     1     -10.939  13.287  65.563  1.00  0.00    -0.282 C  
HETATM   10  C   UNL     1      -9.225  14.171  66.936  1.00  0.00    -0.257 C  
HETATM   11  C   UNL     1     -11.823  13.640  64.374  1.00  0.00    -0.460 C  
HETATM   12  O   UNL     1     -10.120  14.439  65.846  1.00  0.00    -0.296 OA 
ENDBRANCH   3   5
BRANCH   4  13
HETATM   13  C   UNL     1     -11.864  11.142  69.643  1.00  0.00    -0.419 A  
HETATM   14  C   UNL     1     -12.817  12.271  71.576  1.00  0.00    -0.384 A  
HETATM   15  C   UNL     1     -12.509  13.535  71.044  1.00  0.00    -0.451 A  
HETATM   16  C   UNL     1     -11.943  13.568  69.758  1.00  0.00    -0.405 A  
HETATM   17  C   UNL     1     -11.616  12.392  69.072  1.00  0.00    -0.362 A  
HETATM   18  C   UNL     1     -12.517  11.091  70.880  1.00  0.00    -0.509 A  
BRANCH  15  19
HETATM   19  C   UNL     1     -12.759  14.814  71.867  1.00  0.00    -0.396 C  
HETATM   20  C   UNL     1     -11.742  15.942  71.577  1.00  0.00    -0.545 C  
HETATM   21  C   UNL     1     -14.155  15.384  71.504  1.00  0.00    -0.596 C  
BRANCH  19  22
HETATM   22  C   UNL     1     -12.753  14.511  73.400  1.00  0.00    -0.428 C  
HETATM   23  C   UNL     1     -12.485  15.708  74.307  1.00  0.00    -0.804 C  
ENDBRANCH  19  22
ENDBRANCH  15  19
ENDBRANCH   4  13
TORSDOF 4
ENDMDL
MODEL        5
REMARK 921   NORMALIZED FREE ENERGY PREDICTED BY IDOCK:   -6.38 KCAL/MOL
REMARK 922        TOTAL FREE ENERGY PREDICTED BY IDOCK:   -8.17 KCAL/MOL
REMARK 923 INTER-LIGAND FREE ENERGY PREDICTED BY IDOCK:   -7.33 KCAL/MOL
REMARK 924 INTRA-LIGAND FREE ENERGY PREDICTED BY IDOCK:   -0.85 KCAL/MOL
REMARK 927      BINDING AFFINITY PREDICTED BY RF-SCORE:    0.00 PKD
ROOT
HETATM    1  C   UNL     1     -10.988  15.394  69.805  1.00  0.00    -0.294 C  
HETATM    2  C   UNL     1     -11.751  16.138  70.903  1.00  0.00    -0.370 C  
HETATM    3  C   UNL     1     -10.614  16.330  68.630  1.00  0.00    -0.297 C  
HETATM    4  C   UNL     1     -11.847  14.200  69.288  1.00  0.00    -0.381 C  
ENDROOT
BRANCH   3   5
HETATM    5  N   UNL     1      -9.738  17.494  68.851  1.00  0.00    -0.286 NA 
HETATM    6  C   UNL     1     -10.709  19.643  65.755  1.00  0.00    -0.493 C  
HETATM    7  C   UNL     1     -10.270  18.652  68.064  1.00  0.00    -0.385 C  
HETATM    8  C   UNL     1      -8.338  17.284  68.393  1.00  0.00    -0.261 C  
HETATM    9  C   UNL     1      -8.179  17.170  66.854  1.00  0.00    -0.221 C  
HETATM   10  C   UNL     1     -10.133  18.468  66.529  1.00  0.00    -0.400 C  
HETATM   11  C   UNL     1      -6.708  17.101  66.463  1.00  0.00    -0.290 C  
HETATM   12  O   UNL     1      -8.750  18.309  66.179  1.00  0.00    -0.461 OA 
ENDBRANCH   3   5
BRANCH   4  13
HETATM   13  C   UNL     1     -11.167  13.417  68.189  1.00  0.00    -0.304 A  
HETATM   14  C   UNL     1      -9.292  12.068  67.425  1.00  0.00    -0.178 A  
HETATM   15  C   UNL     1     -10.033  11.578  66.334  1.00  0.00    -0.241 A  
HETATM   16  C   UNL     1     -11.326  12.096  66.155  1.00  0.00    -0.414 A  
HETATM   17  C   UNL     1     -11.889  12.993  67.072  1.00  0.00    -0.437 A  
HETATM   18  C   UNL     1      -9.842  12.987  68.329  1.00  0.00    -0.225 A  
BRANCH  15  19
HETATM   19  C   UNL     1      -9.443  10.496  65.409  1.00  0.00    -0.273 C  
HETATM   20  C   UNL     1      -7.916  10.624  65.206  1.00  0.00    -0.060 C  
HETATM   21  C   UNL     1      -9.681   9.102  66.046  1.00  0.00    -0.358 C  
BRANCH  19  22
HETATM   22  C   UNL     1     -10.142  10.504  64.011  1.00  0.00    -0.321 C  
HETATM   23  C   UNL     1      -9.521  11.432  62.971  1.00  0.00    -0.380 C  
ENDBRANCH  19  22
ENDBRANCH  15  19
ENDBRANCH   4  13
TORSDOF 4
ENDMDL
MODEL        6
REMARK 921   NORMALIZED FREE ENERGY PREDICTED BY IDOCK:   -6.36 KCAL/MOL
REMARK 922        TOTAL FREE ENERGY PREDICTED BY IDOCK:   -8.15 KCAL/MOL
REMARK 923 INTER-LIGAND FREE ENERGY PREDICTED BY IDOCK:   -8.09 KCAL/MOL
REMARK 924 INTRA-LIGAND FREE ENERGY PREDICTED BY IDOCK:   -0.05 KCAL/MOL
REMARK 927      BINDING AFFINITY PREDICTED BY RF-SCORE:    0.00 PKD
ROOT
HETATM    1  C   UNL     1     -11.184  14.026  68.790  1.00  0.00    -0.298 C  
HETATM    2  C   UNL     1     -11.444  15.439  68.263  1.00  0.00    -0.362 C  
HETATM    3  C   UNL     1     -11.129  12.986  67.645  1.00  0.00    -0.267 C  
HETATM    4  C   UNL     1     -12.294  13.638  69.815  1.00  0.00    -0.285 C  
ENDROOT
BRANCH   3   5
HETATM    5  N   UNL     1     -10.107  13.092  66.588  1.00  0.00    -0.258 NA 
HETATM    6  C   UNL     1     -12.342  12.513  63.455  1.00  0.00    -0.623 C  
HETATM    7  C   UNL     1     -10.791  13.377  65.286  1.00  0.00    -0.309 C  
HETATM    8  C   UNL     1      -9.326  11.843  66.387  1.00  0.00    -0.226 C  
HETATM    9  C   UNL     1     -10.143  10.665  65.794  1.00  0.00    -0.266 C  
HETATM   10  C   UNL     1     -11.636  12.185  64.761  1.00  0.00    -0.321 C  
HETATM   11  C   UNL     1      -9.240   9.477  65.487  1.00  0.00    -0.292 C  
HETATM   12  O   UNL     1     -10.793  11.040  64.563  1.00  0.00    -0.313 OA 
ENDBRANCH   3   5
BRANCH   4  13
HETATM   13  C   UNL     1     -12.116  12.246  70.377  1.00  0.00    -0.385 A  
HETATM   14  C   UNL     1     -12.948  10.412  71.741  1.00  0.00    -0.580 A  
HETATM   15  C   UNL     1     -12.075   9.499  71.122  1.00  0.00    -0.429 A  
HETATM   16  C   UNL     1     -11.171  10.016  70.179  1.00  0.00    -0.367 A  
HETATM   17  C   UNL     1     -11.197  11.366  69.804  1.00  0.00    -0.266 A  
HETATM   18  C   UNL     1     -12.957  11.769  71.389  1.00  0.00    -0.408 A  
BRANCH  15  19
HETATM   19  C   UNL     1     -12.149   7.996  71.455  1.00  0.00    -0.332 C  
HETATM   20  C   UNL     1     -13.593   7.447  71.509  1.00  0.00    -0.454 C  
HETATM   21  C   UNL     1     -11.421   7.196  70.343  1.00  0.00    -0.317 C  
BRANCH  19  22
HETATM   22  C   UNL     1     -11.437   7.680  72.810  1.00  0.00    -0.384 C  
HETATM   23  C   UNL     1      -9.920   7.845  72.811  1.00  0.00    -0.348 C  
ENDBRANCH  19  22
ENDBRANCH  15  19
ENDBRANCH   4  13
TORSDOF 4
ENDMDL
MODEL        7
REMARK 921   NORMALIZED FREE ENERGY PREDICTED BY IDOCK:   -6.31 KCAL/MOL
REMARK 922        TOTAL FREE ENERGY PREDICTED BY IDOCK:   -8.09 KCAL/MOL
REMARK 923 INTER-LIGAND FREE ENERGY PREDICTED BY IDOCK:   -7.44 KCAL/MOL
REMARK 924 INTRA-LIGAND FREE ENERGY PREDICTED BY IDOCK:   -0.65 KCAL/MOL
REMARK 927      BINDING AFFINITY PREDICTED BY RF-SCORE:    0.00 PKD
ROOT
HETATM    1  C   UNL     1     -12.481   9.448  71.341  1.00  0.00    -0.435 C  
HETATM    2  C   UNL     1     -13.142   8.801  72.558  1.00  0.00    -0.392 C  
HETATM    3  C   UNL     1     -10.940   9.298  71.376  1.00  0.00    -0.359 C  
HETATM    4  C   UNL     1     -12.872  10.955  71.271  1.00  0.00    -0.536 C  
ENDROOT
BRANCH   3   5
HETATM    5  N   UNL     1     -10.319   7.962  71.366  1.00  0.00    -0.196 NA 
HETATM    6  C   UNL     1      -7.069   8.766  69.381  1.00  0.00    -0.057 C  
HETATM    7  C   UNL     1      -8.856   8.115  71.080  1.00  0.00    -0.146 C  
HETATM    8  C   UNL     1     -10.859   7.060  70.314  1.00  0.00    -0.254 C  
HETATM    9  C   UNL     1     -10.506   7.485  68.864  1.00  0.00    -0.203 C  
HETATM   10  C   UNL     1      -8.558   8.589  69.633  1.00  0.00    -0.131 C  
HETATM   11  C   UNL     1     -10.972   6.437  67.862  1.00  0.00    -0.416 C  
HETATM   12  O   UNL     1      -9.083   7.642  68.691  1.00  0.00    -0.136 OA 
ENDBRANCH   3   5
BRANCH   4  13
HETATM   13  C   UNL     1     -12.248  11.673  70.097  1.00  0.00    -0.367 A  
HETATM   14  C   UNL     1     -11.503  11.655  67.781  1.00  0.00    -0.373 A  
HETATM   15  C   UNL     1     -11.489  13.061  67.729  1.00  0.00    -0.359 A  
HETATM   16  C   UNL     1     -11.788  13.748  68.918  1.00  0.00    -0.396 A  
HETATM   17  C   UNL     1     -12.171  13.067  70.081  1.00  0.00    -0.342 A  
HETATM   18  C   UNL     1     -11.859  10.970  68.951  1.00  0.00    -0.378 A  
BRANCH  15  19
HETATM   19  C   UNL     1     -11.190  13.794  66.407  1.00  0.00    -0.321 C  
HETATM   20  C   UNL     1     -10.718  15.253  66.605  1.00  0.00    -0.309 C  
HETATM   21  C   UNL     1     -10.038  13.060  65.672  1.00  0.00    -0.276 C  
BRANCH  19  22
HETATM   22  C   UNL     1     -12.435  13.790  65.463  1.00  0.00    -0.548 C  
HETATM   23  C   UNL     1     -12.485  12.655  64.444  1.00  0.00    -0.509 C  
ENDBRANCH  19  22
ENDBRANCH  15  19
ENDBRANCH   4  13
TORSDOF 4
ENDMDL
MODEL        8
REMARK 921   NORMALIZED FREE ENERGY PREDICTED BY IDOCK:   -6.29 KCAL/MOL
REMARK 922        TOTAL FREE ENERGY PREDICTED BY IDOCK:   -8.06 KCAL/MOL
REMARK 923 INTER-LIGAND FREE ENERGY PREDICTED BY IDOCK:   -7.36 KCAL/MOL
REMARK 924 INTRA-LIGAND FREE ENERGY PREDICTED BY IDOCK:   -0.70 KCAL/MOL
REMARK 927      BINDING AFFINITY PREDICTED BY RF-SCORE:    0.00 PKD
ROOT
HETATM    1  C   UNL     1     -12.383   9.639  71.162  1.00  0.00    -0.427 C  
HETATM    2  C   UNL     1     -12.981   9.033  72.433  1.00  0.00    -0.471 C  
HETATM    3  C   UNL     1     -10.854   9.411  71.080  1.00  0.00    -0.336 C  
HETATM    4  C   UNL     1     -12.702  11.164  71.111  1.00  0.00    -0.510 C  
ENDROOT
BRANCH   3   5
HETATM    5  N   UNL     1     -10.304   8.044  71.033  1.00  0.00    -0.201 NA 
HETATM    6  C   UNL     1      -6.931   8.757  69.228  1.00  0.00    -0.058 C  
HETATM    7  C   UNL     1      -8.824   8.129  70.817  1.00  0.00    -0.141 C  
HETATM    8  C   UNL     1     -10.844   7.221  69.919  1.00  0.00    -0.247 C  
HETATM    9  C   UNL     1     -10.404   7.690  68.507  1.00  0.00    -0.198 C  
HETATM   10  C   UNL     1      -8.437   8.651  69.408  1.00  0.00    -0.126 C  
HETATM   11  C   UNL     1     -10.880   6.715  67.437  1.00  0.00    -0.434 C  
HETATM   12  O   UNL     1      -8.969   7.776  68.401  1.00  0.00    -0.133 OA 
ENDBRANCH   3   5
BRANCH   4  13
HETATM   13  C   UNL     1     -12.134  11.844  69.885  1.00  0.00    -0.344 A  
HETATM   14  C   UNL     1     -11.597  11.786  67.513  1.00  0.00    -0.361 A  
HETATM   15  C   UNL     1     -11.492  13.188  67.459  1.00  0.00    -0.371 A  
HETATM   16  C   UNL     1     -11.639  13.888  68.668  1.00  0.00    -0.363 A  
HETATM   17  C   UNL     1     -11.964  13.229  69.861  1.00  0.00    -0.400 A  
HETATM   18  C   UNL     1     -11.895  11.121  68.711  1.00  0.00    -0.388 A  
BRANCH  15  19
HETATM   19  C   UNL     1     -11.260  13.905  66.115  1.00  0.00    -0.303 C  
HETATM   20  C   UNL     1     -10.325  13.131  65.157  1.00  0.00    -0.326 C  
HETATM   21  C   UNL     1     -12.616  14.048  65.377  1.00  0.00    -0.529 C  
BRANCH  19  22
HETATM   22  C   UNL     1     -10.683  15.341  66.332  1.00  0.00    -0.318 C  
HETATM   23  C   UNL     1      -9.175  15.479  66.150  1.00  0.00    -0.379 C  
ENDBRANCH  19  22
ENDBRANCH  15  19
ENDBRANCH   4  13
TORSDOF 4
ENDMDL
MODEL        9
REMARK 921   NORMALIZED FREE ENERGY PREDICTED BY IDOCK:   -6.27 KCAL/MOL
REMARK 922        TOTAL FREE ENERGY PREDICTED BY IDOCK:   -8.04 KCAL/MOL
REMARK 923 INTER-LIGAND FREE ENERGY PREDICTED BY IDOCK:   -7.32 KCAL/MOL
REMARK 924 INTRA-LIGAND FREE ENERGY PREDICTED BY IDOCK:   -0.71 KCAL/MOL
REMARK 927      BINDING AFFINITY PREDICTED BY RF-SCORE:    0.00 PKD
ROOT
HETATM    1  C   UNL     1     -11.971  13.655  66.190  1.00  0.00    -0.453 C  
HETATM    2  C   UNL     1     -12.357  14.298  64.856  1.00  0.00    -0.435 C  
HETATM    3  C   UNL     1     -10.725  14.330  66.814  1.00  0.00    -0.287 C  
HETATM    4  C   UNL     1     -11.709  12.133  65.980  1.00  0.00    -0.388 C  
ENDROOT
BRANCH   3   5
HETATM    5  N   UNL     1     -10.753  15.757  67.180  1.00  0.00    -0.318 NA 
HETATM    6  C   UNL     1      -7.433  15.981  69.197  1.00  0.00    -0.216 C  
HETATM    7  C   UNL     1      -9.366  16.186  67.545  1.00  0.00    -0.217 C  
HETATM    8  C   UNL     1     -11.608  16.054  68.359  1.00  0.00    -0.279 C  
HETATM    9  C   UNL     1     -11.069  15.488  69.699  1.00  0.00    -0.279 C  
HETATM   10  C   UNL     1      -8.854  15.553  68.867  1.00  0.00    -0.217 C  
HETATM   11  C   UNL     1     -11.923  15.957  70.871  1.00  0.00    -0.432 C  
HETATM   12  O   UNL     1      -9.718  15.923  69.951  1.00  0.00    -0.207 OA 
ENDBRANCH   3   5
BRANCH   4  13
HETATM   13  C   UNL     1     -11.309  11.422  67.253  1.00  0.00    -0.347 A  
HETATM   14  C   UNL     1     -11.682  10.984  69.617  1.00  0.00    -0.401 A  
HETATM   15  C   UNL     1     -10.903   9.814  69.566  1.00  0.00    -0.264 A  
HETATM   16  C   UNL     1     -10.270   9.518  68.347  1.00  0.00    -0.221 A  
HETATM   17  C   UNL     1     -10.477  10.302  67.205  1.00  0.00    -0.307 A  
HETATM   18  C   UNL     1     -11.868  11.788  68.483  1.00  0.00    -0.365 A  
BRANCH  15  19
HETATM   19  C   UNL     1     -10.790   8.894  70.797  1.00  0.00    -0.294 C  
HETATM   20  C   UNL     1     -11.823   9.214  71.902  1.00  0.00    -0.439 C  
HETATM   21  C   UNL     1     -11.059   7.430  70.361  1.00  0.00    -0.284 C  
BRANCH  19  22
HETATM   22  C   UNL     1      -9.355   8.949  71.416  1.00  0.00    -0.338 C  
HETATM   23  C   UNL     1      -9.207   8.308  72.793  1.00  0.00    -0.336 C  
ENDBRANCH  19  22
ENDBRANCH  15  19
ENDBRANCH   4  13
TORSDOF 4
ENDMDL
MODEL       10
REMARK 921   NORMALIZED FREE ENERGY PREDICTED BY IDOCK:   -6.23 KCAL/MOL
REMARK 922        TOTAL FREE ENERGY PREDICTED BY IDOCK:   -7.99 KCAL/MOL
REMARK 923 INTER-LIGAND FREE ENERGY PREDICTED BY IDOCK:   -7.74 KCAL/MOL
REMARK 924 INTRA-LIGAND FREE ENERGY PREDICTED BY IDOCK:   -0.25 KCAL/MOL
REMARK 927      BINDING AFFINITY PREDICTED BY RF-SCORE:    0.00 PKD
ROOT
HETATM    1  C   UNL     1     -10.841   8.798  69.636  1.00  0.00    -0.175 C  
HETATM    2  C   UNL     1     -10.469   7.315  69.685  1.00  0.00    -0.239 C  
HETATM    3  C   UNL     1      -9.593   9.708  69.736  1.00  0.00    -0.219 C  
HETATM    4  C   UNL     1     -11.838   9.125  70.790  1.00  0.00    -0.280 C  
ENDROOT
BRANCH   3   5
HETATM    5  N   UNL     1      -8.537   9.643  68.710  1.00  0.00    -0.122 NA 
HETATM    6  C   UNL     1      -7.778  13.438  68.308  1.00  0.00    -0.141 C  
HETATM    7  C   UNL     1      -7.762  10.924  68.736  1.00  0.00    -0.129 C  
HETATM    8  C   UNL     1      -9.058   9.497  67.325  1.00  0.00    -0.130 C  
HETATM    9  C   UNL     1      -9.815  10.742  66.792  1.00  0.00    -0.193 C  
HETATM   10  C   UNL     1      -8.578  12.148  68.241  1.00  0.00    -0.175 C  
HETATM   11  C   UNL     1     -10.189  10.564  65.325  1.00  0.00    -0.352 C  
HETATM   12  O   UNL     1      -9.007  11.932  66.888  1.00  0.00    -0.183 OA 
ENDBRANCH   3   5
BRANCH   4  13
HETATM   13  C   UNL     1     -12.249  10.579  70.819  1.00  0.00    -0.468 A  
HETATM   14  C   UNL     1     -13.238  12.457  72.008  1.00  0.00    -0.514 A  
HETATM   15  C   UNL     1     -12.656  13.381  71.122  1.00  0.00    -0.430 A  
HETATM   16  C   UNL     1     -11.933  12.858  70.036  1.00  0.00    -0.380 A  
HETATM   17  C   UNL     1     -11.723  11.480  69.891  1.00  0.00    -0.420 A  
HETATM   18  C   UNL     1     -13.054  11.076  71.851  1.00  0.00    -0.525 A  
BRANCH  15  19
HETATM   19  C   UNL     1     -12.790  14.896  71.369  1.00  0.00    -0.416 C  
HETATM   20  C   UNL     1     -12.384  15.757  70.151  1.00  0.00    -0.309 C  
HETATM   21  C   UNL     1     -14.276  15.231  71.662  1.00  0.00    -0.654 C  
BRANCH  19  22
HETATM   22  C   UNL     1     -11.949  15.344  72.607  1.00  0.00    -0.553 C  
HETATM   23  C   UNL     1     -12.754  15.786  73.825  1.00  0.00    -0.736 C  
ENDBRANCH  19  22
ENDBRANCH  15  19
ENDBRANCH   4  13
TORSDOF 4
ENDMDL
MODEL       11
REMARK 921   NORMALIZED FREE ENERGY PREDICTED BY IDOCK:   -6.22 KCAL/MOL
REMARK 922        TOTAL FREE ENERGY PREDICTED BY IDOCK:   -7.98 KCAL/MOL
REMARK 923 INTER-LIGAND FREE ENERGY PREDICTED BY IDOCK:   -7.15 KCAL/MOL
REMARK 924 INTRA-LIGAND FREE ENERGY PREDICTED BY IDOCK:   -0.83 KCAL/MOL
REMARK 927      BINDING AFFINITY PREDICTED BY RF-SCORE:    0.00 PKD
ROOT
HETATM    1  C   UNL     1     -11.926  14.109  69.561  1.00  0.00    -0.389 C  
HETATM    2  C   UNL     1     -12.572  13.221  70.626  1.00  0.00    -0.305 C  
HETATM    3  C   UNL     1     -11.205  13.273  68.476  1.00  0.00    -0.271 C  
HETATM    4  C   UNL     1     -10.921  15.090  70.238  1.00  0.00    -0.238 C  
ENDROOT
BRANCH   3   5
HETATM    5  N   UNL     1     -11.961  12.324  67.639  1.00  0.00    -0.512 NA 
HETATM    6  C   UNL     1      -9.257   9.563  67.176  1.00  0.00    -0.158 C  
HETATM    7  C   UNL     1     -11.305  10.980  67.726  1.00  0.00    -0.292 C  
HETATM    8  C   UNL     1     -11.983  12.686  66.197  1.00  0.00    -0.395 C  
HETATM    9  C   UNL     1     -10.610  12.569  65.486  1.00  0.00    -0.275 C  
HETATM   10  C   UNL     1      -9.912  10.929  67.045  1.00  0.00    -0.192 C  
HETATM   11  C   UNL     1     -10.749  12.818  63.990  1.00  0.00    -0.457 C  
HETATM   12  O   UNL     1     -10.039  11.256  65.653  1.00  0.00    -0.226 OA 
ENDBRANCH   3   5
BRANCH   4  13
HETATM   13  C   UNL     1     -10.228  15.999  69.249  1.00  0.00    -0.249 A  
HETATM   14  C   UNL     1     -10.313  17.888  67.717  1.00  0.00    -0.393 A  
HETATM   15  C   UNL     1      -8.912  18.008  67.720  1.00  0.00    -0.255 A  
HETATM   16  C   UNL     1      -8.188  17.047  68.445  1.00  0.00    -0.250 A  
HETATM   17  C   UNL     1      -8.834  16.064  69.206  1.00  0.00    -0.227 A  
HETATM   18  C   UNL     1     -10.963  16.888  68.455  1.00  0.00    -0.296 A  
BRANCH  15  19
HETATM   19  C   UNL     1      -8.224  19.173  66.981  1.00  0.00    -0.285 C  
HETATM   20  C   UNL     1      -7.260  18.710  65.865  1.00  0.00    -0.267 C  
HETATM   21  C   UNL     1      -9.306  20.042  66.289  1.00  0.00    -0.456 C  
BRANCH  19  22
HETATM   22  C   UNL     1      -7.442  20.091  67.975  1.00  0.00    -0.324 C  
HETATM   23  C   UNL     1      -6.613  21.200  67.333  1.00  0.00    -0.437 C  
ENDBRANCH  19  22
ENDBRANCH  15  19
ENDBRANCH   4  13
TORSDOF 4
ENDMDL
MODEL       12
REMARK 921   NORMALIZED FREE ENERGY PREDICTED BY IDOCK:   -6.19 KCAL/MOL
REMARK 922        TOTAL FREE ENERGY PREDICTED BY IDOCK:   -7.95 KCAL/MOL
REMARK 923 INTER-LIGAND FREE ENERGY PREDICTED BY IDOCK:   -7.58 KCAL/MOL
REMARK 924 INTRA-LIGAND FREE ENERGY PREDICTED BY IDOCK:   -0.37 KCAL/MOL
REMARK 927      BINDING AFFINITY PREDICTED BY RF-SCORE:    0.00 PKD
ROOT
HETATM    1  C   UNL     1     -10.928  11.735  65.014  1.00  0.00    -0.357 C  
HETATM    2  C   UNL     1     -10.712  11.947  63.515  1.00  0.00    -0.504 C  
HETATM    3  C   UNL     1     -10.481  12.966  65.840  1.00  0.00    -0.279 C  
HETATM    4  C   UNL     1     -10.151  10.465  65.480  1.00  0.00    -0.352 C  
ENDROOT
BRANCH   3   5
HETATM    5  N   UNL     1     -11.127  14.275  65.638  1.00  0.00    -0.308 NA 
HETATM    6  C   UNL     1      -8.066  16.610  66.208  1.00  0.00    -0.361 C  
HETATM    7  C   UNL     1     -10.069  15.291  65.338  1.00  0.00    -0.362 C  
HETATM    8  C   UNL     1     -11.857  14.771  66.835  1.00  0.00    -0.262 C  
HETATM    9  C   UNL     1     -10.943  15.151  68.030  1.00  0.00    -0.295 C  
HETATM   10  C   UNL     1      -9.150  15.600  66.550  1.00  0.00    -0.303 C  
HETATM   11  C   UNL     1     -11.753  15.781  69.156  1.00  0.00    -0.398 C  
HETATM   12  O   UNL     1      -9.934  16.105  67.640  1.00  0.00    -0.235 OA 
ENDBRANCH   3   5
BRANCH   4  13
HETATM   13  C   UNL     1     -10.305  10.190  66.958  1.00  0.00    -0.303 A  
HETATM   14  C   UNL     1     -11.597  10.398  69.009  1.00  0.00    -0.220 A  
HETATM   15  C   UNL     1     -10.880   9.353  69.618  1.00  0.00    -0.245 A  
HETATM   16  C   UNL     1      -9.818   8.795  68.887  1.00  0.00    -0.183 A  
HETATM   17  C   UNL     1      -9.540   9.199  67.575  1.00  0.00    -0.186 A  
HETATM   18  C   UNL     1     -11.303  10.825  67.706  1.00  0.00    -0.354 A  
BRANCH  15  19
HETATM   19  C   UNL     1     -11.283   8.835  71.012  1.00  0.00    -0.329 C  
HETATM   20  C   UNL     1     -11.789   7.375  71.005  1.00  0.00    -0.336 C  
HETATM   21  C   UNL     1     -10.039   8.859  71.939  1.00  0.00    -0.393 C  
BRANCH  19  22
HETATM   22  C   UNL     1     -12.375   9.745  71.661  1.00  0.00    -0.495 C  
HETATM   23  C   UNL     1     -13.706   9.062  71.962  1.00  0.00    -0.516 C  
ENDBRANCH  19  22
ENDBRANCH  15  19
ENDBRANCH   4  13
TORSDOF 4
ENDMDL
MODEL       13
REMARK 921   NORMALIZED FREE ENERGY PREDICTED BY IDOCK:   -6.16 KCAL/MOL
REMARK 922        TOTAL FREE ENERGY PREDICTED BY IDOCK:   -7.90 KCAL/MOL
REMARK 923 INTER-LIGAND FREE ENERGY PREDICTED BY IDOCK:   -7.82 KCAL/MOL
REMARK 924 INTRA-LIGAND FREE ENERGY PREDICTED BY IDOCK:   -0.08 KCAL/MOL
REMARK 927      BINDING AFFINITY PREDICTED BY RF-SCORE:    0.00 PKD
ROOT
HETATM    1  C   UNL     1     -10.339  11.084  66.297  1.00  0.00    -0.304 C  
HETATM    2  C   UNL     1     -10.204  10.584  64.857  1.00  0.00    -0.371 C  
HETATM    3  C   UNL     1     -10.702   9.937  67.272  1.00  0.00    -0.238 C  
HETATM    4  C   UNL     1     -11.421  12.205  66.362  1.00  0.00    -0.430 C  
ENDROOT
BRANCH   3   5
HETATM    5  N   UNL     1      -9.792   8.791  67.449  1.00  0.00    -0.180 NA 
HETATM    6  C   UNL     1     -11.335   7.219  70.657  1.00  0.00    -0.311 C  
HETATM    7  C   UNL     1     -10.460   7.779  68.327  1.00  0.00    -0.168 C  
HETATM    8  C   UNL     1      -8.510   9.144  68.116  1.00  0.00    -0.125 C  
HETATM    9  C   UNL     1      -8.655   9.550  69.606  1.00  0.00    -0.183 C  
HETATM   10  C   UNL     1     -10.626   8.252  69.796  1.00  0.00    -0.228 C  
HETATM   11  C   UNL     1      -7.289   9.756  70.249  1.00  0.00    -0.165 C  
HETATM   12  O   UNL     1      -9.339   8.534  70.366  1.00  0.00    -0.156 OA 
ENDBRANCH   3   5
BRANCH   4  13
HETATM   13  C   UNL     1     -11.624  12.747  67.758  1.00  0.00    -0.405 A  
HETATM   14  C   UNL     1     -12.130  14.617  69.231  1.00  0.00    -0.307 A  
HETATM   15  C   UNL     1     -12.445  13.751  70.293  1.00  0.00    -0.357 A  
HETATM   16  C   UNL     1     -12.260  12.375  70.074  1.00  0.00    -0.264 A  
HETATM   17  C   UNL     1     -11.866  11.879  68.825  1.00  0.00    -0.371 A  
HETATM   18  C   UNL     1     -11.708  14.126  67.987  1.00  0.00    -0.394 A  
BRANCH  15  19
HETATM   19  C   UNL     1     -12.999  14.306  71.619  1.00  0.00    -0.420 C  
HETATM   20  C   UNL     1     -14.150  15.320  71.429  1.00  0.00    -0.595 C  
HETATM   21  C   UNL     1     -13.582  13.137  72.453  1.00  0.00    -0.667 C  
BRANCH  19  22
HETATM   22  C   UNL     1     -11.870  14.978  72.468  1.00  0.00    -0.420 C  
HETATM   23  C   UNL     1     -12.299  15.504  73.834  1.00  0.00    -0.757 C  
ENDBRANCH  19  22
ENDBRANCH  15  19
ENDBRANCH   4  13
TORSDOF 4
ENDMDL
MODEL       14
REMARK 921   NORMALIZED FREE ENERGY PREDICTED BY IDOCK:   -6.07 KCAL/MOL
REMARK 922        TOTAL FREE ENERGY PREDICTED BY IDOCK:   -7.80 KCAL/MOL
REMARK 923 INTER-LIGAND FREE ENERGY PREDICTED BY IDOCK:   -7.39 KCAL/MOL
REMARK 924 INTRA-LIGAND FREE ENERGY PREDICTED BY IDOCK:   -0.40 KCAL/MOL
REMARK 927      BINDING AFFINITY PREDICTED BY RF-SCORE:    0.00 PKD
ROOT
HETATM    1  C   UNL     1     -11.392  13.840  69.262  1.00  0.00    -0.325 C  
HETATM    2  C   UNL     1     -11.606  15.351  69.152  1.00  0.00    -0.354 C  
HETATM    3  C   UNL     1     -11.739  13.112  67.940  1.00  0.00    -0.357 C  
HETATM    4  C   UNL     1     -12.255  13.273  70.429  1.00  0.00    -0.404 C  
ENDROOT
BRANCH   3   5
HETATM    5  N   UNL     1     -11.000  13.419  66.702  1.00  0.00    -0.285 NA 
HETATM    6  C   UNL     1      -9.965   9.819  65.648  1.00  0.00    -0.352 C  
HETATM    7  C   UNL     1     -10.916  12.175  65.872  1.00  0.00    -0.292 C  
HETATM    8  C   UNL     1      -9.600  13.862  66.937  1.00  0.00    -0.269 C  
HETATM    9  C   UNL     1      -8.664  12.756  67.491  1.00  0.00    -0.185 C  
HETATM   10  C   UNL     1     -10.008  11.081  66.494  1.00  0.00    -0.212 C  
HETATM   11  C   UNL     1      -7.224  13.250  67.567  1.00  0.00    -0.157 C  
HETATM   12  O   UNL     1      -8.673  11.586  66.650  1.00  0.00    -0.172 OA 
ENDBRANCH   3   5
BRANCH   4  13
HETATM   13  C   UNL     1     -12.109  11.778  70.599  1.00  0.00    -0.407 A  
HETATM   14  C   UNL     1     -10.744   9.771  70.431  1.00  0.00    -0.368 A  
HETATM   15  C   UNL     1     -11.604   9.062  71.289  1.00  0.00    -0.387 A  
HETATM   16  C   UNL     1     -12.763   9.727  71.725  1.00  0.00    -0.519 A  
HETATM   17  C   UNL     1     -13.008  11.066  71.394  1.00  0.00    -0.517 A  
HETATM   18  C   UNL     1     -11.000  11.103  70.075  1.00  0.00    -0.079 A  
BRANCH  15  19
HETATM   19  C   UNL     1     -11.254   7.633  71.744  1.00  0.00    -0.285 C  
HETATM   20  C   UNL     1     -10.570   7.578  73.130  1.00  0.00    -0.442 C  
HETATM   21  C   UNL     1     -12.561   6.808  71.872  1.00  0.00    -0.328 C  
BRANCH  19  22
HETATM   22  C   UNL     1     -10.338   6.914  70.701  1.00  0.00    -0.220 C  
HETATM   23  C   UNL     1     -11.066   6.079  69.652  1.00  0.00    -0.474 C  
ENDBRANCH  19  22
ENDBRANCH  15  19
ENDBRANCH   4  13
TORSDOF 4
ENDMDL
MODEL       15
REMARK 921   NORMALIZED FREE ENERGY PREDICTED BY IDOCK:   -6.06 KCAL/MOL
REMARK 922        TOTAL FREE ENERGY PREDICTED BY IDOCK:   -7.78 KCAL/MOL
REMARK 923 INTER-LIGAND FREE ENERGY PREDICTED BY IDOCK:   -7.21 KCAL/MOL
REMARK 924 INTRA-LIGAND FREE ENERGY PREDICTED BY IDOCK:   -0.56 KCAL/MOL
REMARK 927      BINDING AFFINITY PREDICTED BY RF-SCORE:    0.00 PKD
ROOT
HETATM    1  C   UNL     1     -11.354  12.527  67.554  1.00  0.00    -0.368 C  
HETATM    2  C   UNL     1     -11.300  13.283  66.225  1.00  0.00    -0.336 C  
HETATM    3  C   UNL     1     -11.248  13.485  68.765  1.00  0.00    -0.274 C  
HETATM    4  C   UNL     1     -10.207  11.472  67.602  1.00  0.00    -0.205 C  
ENDROOT
BRANCH   3   5
HETATM    5  N   UNL     1     -12.266  14.527  68.985  1.00  0.00    -0.236 NA 
HETATM    6  C   UNL     1     -10.014  17.695  68.794  1.00  0.00    -0.358 C  
HETATM    7  C   UNL     1     -11.731  15.834  68.487  1.00  0.00    -0.319 C  
HETATM    8  C   UNL     1     -12.610  14.734  70.417  1.00  0.00    -0.346 C  
HETATM    9  C   UNL     1     -11.468  15.351  71.266  1.00  0.00    -0.389 C  
HETATM   10  C   UNL     1     -10.558  16.385  69.340  1.00  0.00    -0.317 C  
HETATM   11  C   UNL     1     -11.947  15.661  72.679  1.00  0.00    -0.578 C  
HETATM   12  O   UNL     1     -10.992  16.586  70.694  1.00  0.00    -0.232 OA 
ENDBRANCH   3   5
BRANCH   4  13
HETATM   13  C   UNL     1     -10.183  10.686  68.893  1.00  0.00    -0.216 A  
HETATM   14  C   UNL     1     -11.367   9.426  70.605  1.00  0.00    -0.352 A  
HETATM   15  C   UNL     1     -10.172   8.844  71.064  1.00  0.00    -0.322 A  
HETATM   16  C   UNL     1      -8.978   9.270  70.458  1.00  0.00    -0.296 A  
HETATM   17  C   UNL     1      -8.983  10.169  69.383  1.00  0.00    -0.205 A  
HETATM   18  C   UNL     1     -11.373  10.348  69.549  1.00  0.00    -0.325 A  
BRANCH  15  19
HETATM   19  C   UNL     1     -10.198   7.762  72.161  1.00  0.00    -0.269 C  
HETATM   20  C   UNL     1      -9.211   8.035  73.319  1.00  0.00    -0.347 C  
HETATM   21  C   UNL     1     -11.612   7.719  72.796  1.00  0.00    -0.368 C  
BRANCH  19  22
HETATM   22  C   UNL     1      -9.901   6.347  71.568  1.00  0.00    -0.186 C  
HETATM   23  C   UNL     1     -10.895   5.849  70.523  1.00  0.00    -0.366 C  
ENDBRANCH  19  22
ENDBRANCH  15  19
ENDBRANCH   4  13
TORSDOF 4
ENDMDL
MODEL       16
REMARK 921   NORMALIZED FREE ENERGY PREDICTED BY IDOCK:   -6.04 KCAL/MOL
REMARK 922        TOTAL FREE ENERGY PREDICTED BY IDOCK:   -7.76 KCAL/MOL
REMARK 923 INTER-LIGAND FREE ENERGY PREDICTED BY IDOCK:   -7.15 KCAL/MOL
REMARK 924 INTRA-LIGAND FREE ENERGY PREDICTED BY IDOCK:   -0.61 KCAL/MOL
REMARK 927      BINDING AFFINITY PREDICTED BY RF-SCORE:    0.00 PKD
ROOT
HETATM    1  C   UNL     1     -11.668   9.022  71.346  1.00  0.00    -0.392 C  
HETATM    2  C   UNL     1     -11.780   8.120  72.576  1.00  0.00    -0.457 C  
HETATM    3  C   UNL     1     -10.193   9.251  70.933  1.00  0.00    -0.301 C  
HETATM    4  C   UNL     1     -12.362  10.388  71.634  1.00  0.00    -0.402 C  
ENDROOT
BRANCH   3   5
HETATM    5  N   UNL     1      -9.344   8.114  70.535  1.00  0.00    -0.154 NA 
HETATM    6  C   UNL     1      -7.404   9.747  67.583  1.00  0.00    -0.090 C  
HETATM    7  C   UNL     1      -8.186   8.634  69.741  1.00  0.00    -0.121 C  
HETATM    8  C   UNL     1     -10.038   7.126  69.666  1.00  0.00    -0.192 C  
HETATM    9  C   UNL     1     -10.387   7.655  68.250  1.00  0.00    -0.198 C  
HETATM   10  C   UNL     1      -8.594   9.198  68.354  1.00  0.00    -0.129 C  
HETATM   11  C   UNL     1     -10.963   6.543  67.381  1.00  0.00    -0.458 C  
HETATM   12  O   UNL     1      -9.221   8.167  67.575  1.00  0.00    -0.135 OA 
ENDBRANCH   3   5
BRANCH   4  13
HETATM   13  C   UNL     1     -12.286  11.346  70.468  1.00  0.00    -0.478 A  
HETATM   14  C   UNL     1     -12.019  13.613  69.628  1.00  0.00    -0.402 A  
HETATM   15  C   UNL     1     -11.701  13.145  68.340  1.00  0.00    -0.386 A  
HETATM   16  C   UNL     1     -11.762  11.757  68.131  1.00  0.00    -0.377 A  
HETATM   17  C   UNL     1     -12.040  10.870  69.178  1.00  0.00    -0.292 A  
HETATM   18  C   UNL     1     -12.326  12.730  70.672  1.00  0.00    -0.381 A  
BRANCH  15  19
HETATM   19  C   UNL     1     -11.272  14.127  67.233  1.00  0.00    -0.330 C  
HETATM   20  C   UNL     1     -11.186  15.595  67.711  1.00  0.00    -0.297 C  
HETATM   21  C   UNL     1      -9.852  13.746  66.740  1.00  0.00    -0.275 C  
BRANCH  19  22
HETATM   22  C   UNL     1     -12.237  14.053  66.005  1.00  0.00    -0.484 C  
HETATM   23  C   UNL     1     -11.571  14.161  64.637  1.00  0.00    -0.414 C  
ENDBRANCH  19  22
ENDBRANCH  15  19
ENDBRANCH   4  13
TORSDOF 4
ENDMDL
MODEL       17
REMARK 921   NORMALIZED FREE ENERGY PREDICTED BY IDOCK:   -6.00 KCAL/MOL
REMARK 922        TOTAL FREE ENERGY PREDICTED BY IDOCK:   -7.71 KCAL/MOL
REMARK 923 INTER-LIGAND FREE ENERGY PREDICTED BY IDOCK:   -6.81 KCAL/MOL
REMARK 924 INTRA-LIGAND FREE ENERGY PREDICTED BY IDOCK:   -0.89 KCAL/MOL
REMARK 927      BINDING AFFINITY PREDICTED BY RF-SCORE:    0.00 PKD
ROOT
HETATM    1  C   UNL     1     -10.158  10.612  64.605  1.00  0.00    -0.417 C  
HETATM    2  C   UNL     1      -9.862  11.149  63.204  1.00  0.00    -0.403 C  
HETATM    3  C   UNL     1     -10.222  11.747  65.656  1.00  0.00    -0.246 C  
HETATM    4  C   UNL     1      -9.070   9.570  65.007  1.00  0.00    -0.281 C  
ENDROOT
BRANCH   3   5
HETATM    5  N   UNL     1     -11.229  12.817  65.539  1.00  0.00    -0.287 NA 
HETATM    6  C   UNL     1      -8.968  15.917  66.192  1.00  0.00    -0.376 C  
HETATM    7  C   UNL     1     -10.524  14.113  65.280  1.00  0.00    -0.384 C  
HETATM    8  C   UNL     1     -12.033  13.017  66.773  1.00  0.00    -0.369 C  
HETATM    9  C   UNL     1     -11.233  13.589  67.973  1.00  0.00    -0.271 C  
HETATM   10  C   UNL     1      -9.697  14.617  66.493  1.00  0.00    -0.280 C  
HETATM   11  C   UNL     1     -12.156  13.896  69.145  1.00  0.00    -0.377 C  
HETATM   12  O   UNL     1     -10.561  14.815  67.623  1.00  0.00    -0.256 OA 
ENDBRANCH   3   5
BRANCH   4  13
HETATM   13  C   UNL     1      -9.284   8.996  66.389  1.00  0.00    -0.239 A  
HETATM   14  C   UNL     1      -8.952   9.137  68.795  1.00  0.00    -0.136 A  
HETATM   15  C   UNL     1     -10.001   8.232  69.036  1.00  0.00    -0.193 A  
HETATM   16  C   UNL     1     -10.625   7.662  67.914  1.00  0.00    -0.233 A  
HETATM   17  C   UNL     1     -10.281   8.044  66.611  1.00  0.00    -0.315 A  
HETATM   18  C   UNL     1      -8.585   9.501  67.491  1.00  0.00    -0.126 A  
BRANCH  15  19
HETATM   19  C   UNL     1     -10.451   7.921  70.476  1.00  0.00    -0.214 C  
HETATM   20  C   UNL     1     -11.662   6.962  70.550  1.00  0.00    -0.401 C  
HETATM   21  C   UNL     1      -9.292   7.216  71.228  1.00  0.00    -0.155 C  
BRANCH  19  22
HETATM   22  C   UNL     1     -10.796   9.230  71.258  1.00  0.00    -0.417 C  
HETATM   23  C   UNL     1     -12.168   9.830  70.965  1.00  0.00    -0.436 C  
ENDBRANCH  19  22
ENDBRANCH  15  19
ENDBRANCH   4  13
TORSDOF 4
ENDMDL
MODEL       18
REMARK 921   NORMALIZED FREE ENERGY PREDICTED BY IDOCK:   -5.97 KCAL/MOL
REMARK 922        TOTAL FREE ENERGY PREDICTED BY IDOCK:   -7.68 KCAL/MOL
REMARK 923 INTER-LIGAND FREE ENERGY PREDICTED BY IDOCK:   -6.81 KCAL/MOL
REMARK 924 INTRA-LIGAND FREE ENERGY PREDICTED BY IDOCK:   -0.87 KCAL/MOL
REMARK 927      BINDING AFFINITY PREDICTED BY RF-SCORE:    0.00 PKD
ROOT
HETATM    1  C   UNL     1      -9.040  12.573  68.153  1.00  0.00    -0.204 C  
HETATM    2  C   UNL     1      -8.439  11.266  68.672  1.00  0.00    -0.143 C  
HETATM    3  C   UNL     1      -9.505  12.449  66.682  1.00  0.00    -0.232 C  
HETATM    4  C   UNL     1      -7.994  13.721  68.291  1.00  0.00    -0.146 C  
ENDROOT
BRANCH   3   5
HETATM    5  N   UNL     1     -10.552  11.482  66.308  1.00  0.00    -0.255 NA 
HETATM    6  C   UNL     1      -8.822   9.786  63.262  1.00  0.00    -0.260 C  
HETATM    7  C   UNL     1      -9.934  10.403  65.473  1.00  0.00    -0.282 C  
HETATM    8  C   UNL     1     -11.644  12.072  65.489  1.00  0.00    -0.293 C  
HETATM    9  C   UNL     1     -11.213  12.501  64.062  1.00  0.00    -0.403 C  
HETATM   10  C   UNL     1      -9.474  10.894  64.075  1.00  0.00    -0.262 C  
HETATM   11  C   UNL     1     -12.415  12.959  63.245  1.00  0.00    -0.315 C  
HETATM   12  O   UNL     1     -10.597  11.411  63.346  1.00  0.00    -0.379 OA 
ENDBRANCH   3   5
BRANCH   4  13
HETATM   13  C   UNL     1      -8.507  15.050  67.787  1.00  0.00    -0.161 A  
HETATM   14  C   UNL     1      -9.912  17.012  68.099  1.00  0.00    -0.287 A  
HETATM   15  C   UNL     1      -9.191  17.736  67.133  1.00  0.00    -0.253 A  
HETATM   16  C   UNL     1      -8.171  17.051  66.450  1.00  0.00    -0.326 A  
HETATM   17  C   UNL     1      -7.827  15.734  66.777  1.00  0.00    -0.248 A  
HETATM   18  C   UNL     1      -9.590  15.683  68.410  1.00  0.00    -0.199 A  
BRANCH  15  19
HETATM   19  C   UNL     1      -9.499  19.223  66.876  1.00  0.00    -0.386 C  
HETATM   20  C   UNL     1     -10.733  19.450  65.973  1.00  0.00    -0.512 C  
HETATM   21  C   UNL     1      -9.817  19.915  68.228  1.00  0.00    -0.514 C  
BRANCH  19  22
HETATM   22  C   UNL     1      -8.271  19.956  66.246  1.00  0.00    -0.357 C  
HETATM   23  C   UNL     1      -7.368  20.693  67.230  1.00  0.00    -0.394 C  
ENDBRANCH  19  22
ENDBRANCH  15  19
ENDBRANCH   4  13
TORSDOF 4
ENDMDL
MODEL       19
REMARK 921   NORMALIZED FREE ENERGY PREDICTED BY IDOCK:   -5.96 KCAL/MOL
REMARK 922        TOTAL FREE ENERGY PREDICTED BY IDOCK:   -7.66 KCAL/MOL
REMARK 923 INTER-LIGAND FREE ENERGY PREDICTED BY IDOCK:   -6.85 KCAL/MOL
REMARK 924 INTRA-LIGAND FREE ENERGY PREDICTED BY IDOCK:   -0.81 KCAL/MOL
REMARK 927      BINDING AFFINITY PREDICTED BY RF-SCORE:    0.00 PKD
ROOT
HETATM    1  C   UNL     1     -11.624   9.041  71.269  1.00  0.00    -0.387 C  
HETATM    2  C   UNL     1     -11.761   8.176  72.523  1.00  0.00    -0.457 C  
HETATM    3  C   UNL     1     -10.148   9.184  70.826  1.00  0.00    -0.268 C  
HETATM    4  C   UNL     1     -12.245  10.447  71.533  1.00  0.00    -0.418 C  
ENDROOT
BRANCH   3   5
HETATM    5  N   UNL     1      -9.364   7.996  70.444  1.00  0.00    -0.158 NA 
HETATM    6  C   UNL     1      -7.216   9.524  67.580  1.00  0.00    -0.082 C  
HETATM    7  C   UNL     1      -8.146   8.445  69.696  1.00  0.00    -0.115 C  
HETATM    8  C   UNL     1     -10.092   7.067  69.539  1.00  0.00    -0.173 C  
HETATM    9  C   UNL     1     -10.355   7.632  68.119  1.00  0.00    -0.204 C  
HETATM   10  C   UNL     1      -8.467   9.048  68.303  1.00  0.00    -0.129 C  
HETATM   11  C   UNL     1     -10.973   6.570  67.217  1.00  0.00    -0.475 C  
HETATM   12  O   UNL     1      -9.134   8.071  67.490  1.00  0.00    -0.136 OA 
ENDBRANCH   3   5
BRANCH   4  13
HETATM   13  C   UNL     1     -12.141  11.370  70.341  1.00  0.00    -0.473 A  
HETATM   14  C   UNL     1     -11.787  13.603  69.441  1.00  0.00    -0.392 A  
HETATM   15  C   UNL     1     -11.502  13.089  68.163  1.00  0.00    -0.356 A  
HETATM   16  C   UNL     1     -11.625  11.700  67.990  1.00  0.00    -0.383 A  
HETATM   17  C   UNL     1     -11.929  10.852  69.062  1.00  0.00    -0.322 A  
HETATM   18  C   UNL     1     -12.120  12.760  70.511  1.00  0.00    -0.369 A  
BRANCH  15  19
HETATM   19  C   UNL     1     -11.045  14.024  67.027  1.00  0.00    -0.312 C  
HETATM   20  C   UNL     1     -12.067  14.135  65.872  1.00  0.00    -0.441 C  
HETATM   21  C   UNL     1     -10.869  15.457  67.591  1.00  0.00    -0.304 C  
BRANCH  19  22
HETATM   22  C   UNL     1      -9.668  13.572  66.441  1.00  0.00    -0.296 C  
HETATM   23  C   UNL     1      -8.498  13.592  67.419  1.00  0.00    -0.203 C  
ENDBRANCH  19  22
ENDBRANCH  15  19
ENDBRANCH   4  13
TORSDOF 4
ENDMDL
MODEL       20
REMARK 921   NORMALIZED FREE ENERGY PREDICTED BY IDOCK:   -5.96 KCAL/MOL
REMARK 922        TOTAL FREE ENERGY PREDICTED BY IDOCK:   -7.66 KCAL/MOL
REMARK 923 INTER-LIGAND FREE ENERGY PREDICTED BY IDOCK:   -6.88 KCAL/MOL
REMARK 924 INTRA-LIGAND FREE ENERGY PREDICTED BY IDOCK:   -0.79 KCAL/MOL
REMARK 927      BINDING AFFINITY PREDICTED BY RF-SCORE:    0.00 PKD
ROOT
HETATM    1  C   UNL     1      -9.776  11.402  64.103  1.00  0.00    -0.267 C  
HETATM    2  C   UNL     1      -9.746  10.405  62.944  1.00  0.00    -0.266 C  
HETATM    3  C   UNL     1      -9.860  10.689  65.475  1.00  0.00    -0.258 C  
HETATM    4  C   UNL     1     -10.984  12.372  63.928  1.00  0.00    -0.467 C  
ENDROOT
BRANCH   3   5
HETATM    5  N   UNL     1      -8.788   9.775  65.908  1.00  0.00    -0.144 NA 
HETATM    6  C   UNL     1     -10.932   6.706  66.967  1.00  0.00    -0.463 C  
HETATM    7  C   UNL     1      -9.321   8.376  65.909  1.00  0.00    -0.136 C  
HETATM    8  C   UNL     1      -8.300  10.039  67.288  1.00  0.00    -0.121 C  
HETATM    9  C   UNL     1      -9.332   9.722  68.402  1.00  0.00    -0.133 C  
HETATM   10  C   UNL     1     -10.386   8.124  67.009  1.00  0.00    -0.333 C  
HETATM   11  C   UNL     1      -8.708   9.882  69.783  1.00  0.00    -0.229 C  
HETATM   12  O   UNL     1      -9.816   8.368  68.304  1.00  0.00    -0.159 OA 
ENDBRANCH   3   5
BRANCH   4  13
HETATM   13  C   UNL     1     -11.092  13.387  65.043  1.00  0.00    -0.332 A  
HETATM   14  C   UNL     1     -11.942  14.016  67.234  1.00  0.00    -0.448 A  
HETATM   15  C   UNL     1     -10.992  15.046  67.355  1.00  0.00    -0.315 A  
HETATM   16  C   UNL     1     -10.149  15.272  66.253  1.00  0.00    -0.297 A  
HETATM   17  C   UNL     1     -10.190  14.451  65.120  1.00  0.00    -0.420 A  
HETATM   18  C   UNL     1     -12.005  13.210  66.089  1.00  0.00    -0.478 A  
BRANCH  15  19
HETATM   19  C   UNL     1     -10.877  15.857  68.660  1.00  0.00    -0.291 C  
HETATM   20  C   UNL     1      -9.615  15.517  69.487  1.00  0.00    -0.278 C  
HETATM   21  C   UNL     1     -10.775  17.365  68.312  1.00  0.00    -0.327 C  
BRANCH  19  22
HETATM   22  C   UNL     1     -12.138  15.662  69.562  1.00  0.00    -0.307 C  
HETATM   23  C   UNL     1     -11.858  15.384  71.035  1.00  0.00    -0.406 C  
ENDBRANCH  19  22
ENDBRANCH  15  19
ENDBRANCH   4  13
TORSDOF 4
ENDMDL
MODEL       21
REMARK 921   NORMALIZED FREE ENERGY PREDICTED BY IDOCK:   -5.96 KCAL/MOL
REMARK 922        TOTAL FREE ENERGY PREDICTED BY IDOCK:   -7.66 KCAL/MOL
REMARK 923 INTER-LIGAND FREE ENERGY PREDICTED BY IDOCK:   -6.77 KCAL/MOL
REMARK 924 INTRA-LIGAND FREE ENERGY PREDICTED BY IDOCK:   -0.89 KCAL/MOL
REMARK 927      BINDING AFFINITY PREDICTED BY RF-SCORE:    0.00 PKD
ROOT
HETATM    1  C   UNL     1     -10.227  10.627  64.657  1.00  0.00    -0.404 C  
HETATM    2  C   UNL     1      -9.999  11.053  63.206  1.00  0.00    -0.414 C  
HETATM    3  C   UNL     1     -10.217  11.838  65.621  1.00  0.00    -0.246 C  
HETATM    4  C   UNL     1      -9.135   9.597  65.077  1.00  0.00    -0.284 C  
ENDROOT
BRANCH   3   5
HETATM    5  N   UNL     1     -11.213  12.916  65.477  1.00  0.00    -0.283 NA 
HETATM    6  C   UNL     1      -8.928  16.005  66.097  1.00  0.00    -0.381 C  
HETATM    7  C   UNL     1     -10.493  14.200  65.202  1.00  0.00    -0.402 C  
HETATM    8  C   UNL     1     -12.026  13.144  66.701  1.00  0.00    -0.389 C  
HETATM    9  C   UNL     1     -11.230  13.729  67.898  1.00  0.00    -0.274 C  
HETATM   10  C   UNL     1      -9.672  14.717  66.414  1.00  0.00    -0.291 C  
HETATM   11  C   UNL     1     -12.160  14.065  69.057  1.00  0.00    -0.358 C  
HETATM   12  O   UNL     1     -10.543  14.943  67.532  1.00  0.00    -0.258 OA 
ENDBRANCH   3   5
BRANCH   4  13
HETATM   13  C   UNL     1      -9.283   9.132  66.508  1.00  0.00    -0.221 A  
HETATM   14  C   UNL     1      -8.645   9.308  68.849  1.00  0.00    -0.130 A  
HETATM   15  C   UNL     1      -9.804   8.627  69.261  1.00  0.00    -0.188 A  
HETATM   16  C   UNL     1     -10.652   8.137  68.252  1.00  0.00    -0.153 A  
HETATM   17  C   UNL     1     -10.402   8.394  66.898  1.00  0.00    -0.378 A  
HETATM   18  C   UNL     1      -8.377   9.542  67.493  1.00  0.00    -0.125 A  
BRANCH  15  19
HETATM   19  C   UNL     1     -10.128   8.465  70.759  1.00  0.00    -0.226 C  
HETATM   20  C   UNL     1      -8.906   8.681  71.680  1.00  0.00    -0.292 C  
HETATM   21  C   UNL     1     -11.175   9.534  71.168  1.00  0.00    -0.446 C  
BRANCH  19  22
HETATM   22  C   UNL     1     -10.743   7.060  71.057  1.00  0.00    -0.256 C  
HETATM   23  C   UNL     1     -12.059   7.068  71.829  1.00  0.00    -0.371 C  
ENDBRANCH  19  22
ENDBRANCH  15  19
ENDBRANCH   4  13
TORSDOF 4
ENDMDL
MODEL       22
REMARK 921   NORMALIZED FREE ENERGY PREDICTED BY IDOCK:   -5.94 KCAL/MOL
REMARK 922        TOTAL FREE ENERGY PREDICTED BY IDOCK:   -7.63 KCAL/MOL
REMARK 923 INTER-LIGAND FREE ENERGY PREDICTED BY IDOCK:   -6.72 KCAL/MOL
REMARK 924 INTRA-LIGAND FREE ENERGY PREDICTED BY IDOCK:   -0.91 KCAL/MOL
REMARK 927      BINDING AFFINITY PREDICTED BY RF-SCORE:    0.00 PKD
ROOT
HETATM    1  C   UNL     1      -6.721  16.751  69.108  1.00  0.00    -0.223 C  
HETATM    2  C   UNL     1      -5.751  17.167  70.215  1.00  0.00    -0.177 C  
HETATM    3  C   UNL     1      -7.803  17.829  68.857  1.00  0.00    -0.184 C  
HETATM    4  C   UNL     1      -7.391  15.394  69.483  1.00  0.00    -0.209 C  
ENDROOT
BRANCH   3   5
HETATM    5  N   UNL     1      -7.422  19.181  68.412  1.00  0.00    -0.294 NA 
HETATM    6  C   UNL     1     -10.413  19.961  66.047  1.00  0.00    -0.580 C  
HETATM    7  C   UNL     1      -8.639  19.872  67.878  1.00  0.00    -0.290 C  
HETATM    8  C   UNL     1      -6.420  19.188  67.313  1.00  0.00    -0.188 C  
HETATM    9  C   UNL     1      -6.951  18.646  65.960  1.00  0.00    -0.269 C  
HETATM   10  C   UNL     1      -9.160  19.262  66.550  1.00  0.00    -0.350 C  
HETATM   11  C   UNL     1      -5.912  18.820  64.859  1.00  0.00    -0.297 C  
HETATM   12  O   UNL     1      -8.141  19.344  65.542  1.00  0.00    -0.344 OA 
ENDBRANCH   3   5
BRANCH   4  13
HETATM   13  C   UNL     1      -8.377  14.916  68.442  1.00  0.00    -0.153 A  
HETATM   14  C   UNL     1     -10.679  14.573  67.732  1.00  0.00    -0.256 A  
HETATM   15  C   UNL     1     -10.290  14.450  66.386  1.00  0.00    -0.289 A  
HETATM   16  C   UNL     1      -8.913  14.487  66.111  1.00  0.00     0.035 A  
HETATM   17  C   UNL     1      -7.971  14.727  67.119  1.00  0.00    -0.205 A  
HETATM   18  C   UNL     1      -9.737  14.784  68.748  1.00  0.00    -0.222 A  
BRANCH  15  19
HETATM   19  C   UNL     1     -11.349  14.315  65.274  1.00  0.00    -0.336 C  
HETATM   20  C   UNL     1     -12.778  14.068  65.810  1.00  0.00    -0.487 C  
HETATM   21  C   UNL     1     -11.409  15.639  64.470  1.00  0.00    -0.327 C  
BRANCH  19  22
HETATM   22  C   UNL     1     -10.979  13.170  64.276  1.00  0.00    -0.428 C  
HETATM   23  C   UNL     1     -12.159  12.389  63.704  1.00  0.00    -0.648 C  
ENDBRANCH  19  22
ENDBRANCH  15  19
ENDBRANCH   4  13
TORSDOF 4
ENDMDL
MODEL       23
REMARK 921   NORMALIZED FREE ENERGY PREDICTED BY IDOCK:   -5.91 KCAL/MOL
REMARK 922        TOTAL FREE ENERGY PREDICTED BY IDOCK:   -7.59 KCAL/MOL
REMARK 923 INTER-LIGAND FREE ENERGY PREDICTED BY IDOCK:   -6.68 KCAL/MOL
REMARK 924 INTRA-LIGAND FREE ENERGY PREDICTED BY IDOCK:   -0.92 KCAL/MOL
REMARK 927      BINDING AFFINITY PREDICTED BY RF-SCORE:    0.00 PKD
ROOT
HETATM    1  C   UNL     1     -11.809  14.202  69.498  1.00  0.00    -0.373 C  
HETATM    2  C   UNL     1     -12.587  13.225  70.382  1.00  0.00    -0.211 C  
HETATM    3  C   UNL     1     -11.181  13.494  68.272  1.00  0.00    -0.274 C  
HETATM    4  C   UNL     1     -10.699  14.900  70.342  1.00  0.00    -0.054 C  
ENDROOT
BRANCH   3   5
HETATM    5  N   UNL     1     -12.038  12.825  67.277  1.00  0.00    -0.417 NA 
HETATM    6  C   UNL     1      -9.296  11.234  65.019  1.00  0.00    -0.200 C  
HETATM    7  C   UNL     1     -11.235  11.764  66.590  1.00  0.00    -0.323 C  
HETATM    8  C   UNL     1     -12.534  13.733  66.209  1.00  0.00    -0.391 C  
HETATM    9  C   UNL     1     -11.432  14.251  65.248  1.00  0.00    -0.344 C  
HETATM   10  C   UNL     1     -10.114  12.332  65.679  1.00  0.00    -0.252 C  
HETATM   11  C   UNL     1     -12.042  15.055  64.105  1.00  0.00    -0.244 C  
HETATM   12  O   UNL     1     -10.689  13.165  64.660  1.00  0.00    -0.335 OA 
ENDBRANCH   3   5
BRANCH   4  13
HETATM   13  C   UNL     1      -9.874  15.877  69.537  1.00  0.00    -0.268 A  
HETATM   14  C   UNL     1      -9.633  18.064  68.498  1.00  0.00    -0.342 A  
HETATM   15  C   UNL     1      -8.237  17.917  68.411  1.00  0.00    -0.303 A  
HETATM   16  C   UNL     1      -7.695  16.690  68.830  1.00  0.00    -0.233 A  
HETATM   17  C   UNL     1      -8.498  15.689  69.393  1.00  0.00    -0.244 A  
HETATM   18  C   UNL     1     -10.443  17.053  69.035  1.00  0.00    -0.337 A  
BRANCH  15  19
HETATM   19  C   UNL     1      -7.357  19.077  67.908  1.00  0.00    -0.271 C  
HETATM   20  C   UNL     1      -8.163  20.224  67.255  1.00  0.00    -0.393 C  
HETATM   21  C   UNL     1      -6.609  19.704  69.114  1.00  0.00    -0.369 C  
BRANCH  19  22
HETATM   22  C   UNL     1      -6.281  18.573  66.893  1.00  0.00    -0.191 C  
HETATM   23  C   UNL     1      -6.445  19.071  65.460  1.00  0.00    -0.306 C  
ENDBRANCH  19  22
ENDBRANCH  15  19
ENDBRANCH   4  13
TORSDOF 4
ENDMDL
MODEL       24
REMARK 921   NORMALIZED FREE ENERGY PREDICTED BY IDOCK:   -5.90 KCAL/MOL
REMARK 922        TOTAL FREE ENERGY PREDICTED BY IDOCK:   -7.58 KCAL/MOL
REMARK 923 INTER-LIGAND FREE ENERGY PREDICTED BY IDOCK:   -7.08 KCAL/MOL
REMARK 924 INTRA-LIGAND FREE ENERGY PREDICTED BY IDOCK:   -0.51 KCAL/MOL
REMARK 927      BINDING AFFINITY PREDICTED BY RF-SCORE:    0.00 PKD
ROOT
HETATM    1  C   UNL     1     -12.919   9.654  71.437  1.00  0.00    -0.474 C  
HETATM    2  C   UNL     1     -13.683   8.954  72.562  1.00  0.00    -0.474 C  
HETATM    3  C   UNL     1     -11.409   9.313  71.468  1.00  0.00    -0.385 C  
HETATM    4  C   UNL     1     -13.123  11.196  71.546  1.00  0.00    -0.489 C  
ENDROOT
BRANCH   3   5
HETATM    5  N   UNL     1     -10.954   7.921  71.303  1.00  0.00    -0.235 NA 
HETATM    6  C   UNL     1      -7.843   7.967  73.640  1.00  0.00    -0.234 C  
HETATM    7  C   UNL     1     -10.066   7.566  72.455  1.00  0.00    -0.211 C  
HETATM    8  C   UNL     1     -10.152   7.697  70.071  1.00  0.00    -0.204 C  
HETATM    9  C   UNL     1      -8.764   8.389  70.077  1.00  0.00    -0.133 C  
HETATM   10  C   UNL     1      -8.711   8.322  72.443  1.00  0.00    -0.213 C  
HETATM   11  C   UNL     1      -7.954   7.994  68.849  1.00  0.00    -0.118 C  
HETATM   12  O   UNL     1      -7.993   8.018  71.238  1.00  0.00    -0.083 OA 
ENDBRANCH   3   5
BRANCH   4  13
HETATM   13  C   UNL     1     -12.388  11.965  70.472  1.00  0.00    -0.372 A  
HETATM   14  C   UNL     1     -11.657  12.164  68.160  1.00  0.00    -0.397 A  
HETATM   15  C   UNL     1     -11.410  13.540  68.311  1.00  0.00    -0.328 A  
HETATM   16  C   UNL     1     -11.591  14.086  69.593  1.00  0.00    -0.348 A  
HETATM   17  C   UNL     1     -12.081  13.315  70.655  1.00  0.00    -0.361 A  
HETATM   18  C   UNL     1     -12.121  11.382  69.228  1.00  0.00    -0.356 A  
BRANCH  15  19
HETATM   19  C   UNL     1     -10.993  14.398  67.102  1.00  0.00    -0.305 C  
HETATM   20  C   UNL     1      -9.682  13.926  66.432  1.00  0.00    -0.309 C  
HETATM   21  C   UNL     1     -12.094  14.307  66.013  1.00  0.00    -0.423 C  
BRANCH  19  22
HETATM   22  C   UNL     1     -10.843  15.903  67.499  1.00  0.00    -0.305 C  
HETATM   23  C   UNL     1     -10.063  16.769  66.515  1.00  0.00    -0.322 C  
ENDBRANCH  19  22
ENDBRANCH  15  19
ENDBRANCH   4  13
TORSDOF 4
ENDMDL
MODEL       25
REMARK 921   NORMALIZED FREE ENERGY PREDICTED BY IDOCK:   -5.86 KCAL/MOL
REMARK 922        TOTAL FREE ENERGY PREDICTED BY IDOCK:   -7.53 KCAL/MOL
REMARK 923 INTER-LIGAND FREE ENERGY PREDICTED BY IDOCK:   -7.23 KCAL/MOL
REMARK 924 INTRA-LIGAND FREE ENERGY PREDICTED BY IDOCK:   -0.30 KCAL/MOL
REMARK 927      BINDING AFFINITY PREDICTED BY RF-SCORE:    0.00 PKD
ROOT
HETATM    1  C   UNL     1     -10.977  11.746  65.093  1.00  0.00    -0.351 C  
HETATM    2  C   UNL     1     -10.836  11.979  63.588  1.00  0.00    -0.510 C  
HETATM    3  C   UNL     1     -10.497  12.969  65.912  1.00  0.00    -0.281 C  
HETATM    4  C   UNL     1     -10.170  10.476  65.503  1.00  0.00    -0.325 C  
ENDROOT
BRANCH   3   5
HETATM    5  N   UNL     1     -11.160  14.277  65.760  1.00  0.00    -0.304 NA 
HETATM    6  C   UNL     1      -8.140  16.628  66.460  1.00  0.00    -0.337 C  
HETATM    7  C   UNL     1     -10.114  15.320  65.514  1.00  0.00    -0.375 C  
HETATM    8  C   UNL     1     -11.909  14.710  66.969  1.00  0.00    -0.337 C  
HETATM    9  C   UNL     1     -11.012  15.052  68.188  1.00  0.00    -0.279 C  
HETATM   10  C   UNL     1      -9.211  15.589  66.747  1.00  0.00    -0.248 C  
HETATM   11  C   UNL     1     -11.842  15.621  69.332  1.00  0.00    -0.391 C  
HETATM   12  O   UNL     1     -10.014  16.036  67.850  1.00  0.00    -0.229 OA 
ENDBRANCH   3   5
BRANCH   4  13
HETATM   13  C   UNL     1     -10.248  10.181  66.983  1.00  0.00    -0.290 A  
HETATM   14  C   UNL     1     -11.435  10.362  69.099  1.00  0.00    -0.261 A  
HETATM   15  C   UNL     1     -10.690   9.307  69.657  1.00  0.00    -0.244 A  
HETATM   16  C   UNL     1      -9.666   8.758  68.865  1.00  0.00    -0.174 A  
HETATM   17  C   UNL     1      -9.455   9.180  67.546  1.00  0.00    -0.169 A  
HETATM   18  C   UNL     1     -11.207  10.806  67.789  1.00  0.00    -0.385 A  
BRANCH  15  19
HETATM   19  C   UNL     1     -11.021   8.771  71.062  1.00  0.00    -0.328 C  
HETATM   20  C   UNL     1      -9.826   8.829  72.042  1.00  0.00    -0.376 C  
HETATM   21  C   UNL     1     -12.139   9.646  71.687  1.00  0.00    -0.481 C  
BRANCH  19  22
HETATM   22  C   UNL     1     -11.550   7.301  70.998  1.00  0.00    -0.329 C  
HETATM   23  C   UNL     1     -11.862   6.654  72.344  1.00  0.00    -0.226 C  
ENDBRANCH  19  22
ENDBRANCH  15  19
ENDBRANCH   4  13
TORSDOF 4
ENDMDL
MODEL       26
REMARK 921   NORMALIZED FREE ENERGY PREDICTED BY IDOCK:   -5.84 KCAL/MOL
REMARK 922        TOTAL FREE ENERGY PREDICTED BY IDOCK:   -7.51 KCAL/MOL
REMARK 923 INTER-LIGAND FREE ENERGY PREDICTED BY IDOCK:   -7.51 KCAL/MOL
REMARK 924 INTRA-LIGAND FREE ENERGY PREDICTED BY IDOCK:    0.00 KCAL/MOL
REMARK 927      BINDING AFFINITY PREDICTED BY RF-SCORE:    0.00 PKD
ROOT
HETATM    1  C   UNL     1      -8.985  11.234  67.860  1.00  0.00    -0.146 C  
HETATM    2  C   UNL     1      -8.088  10.691  66.746  1.00  0.00    -0.131 C  
HETATM    3  C   UNL     1      -9.701  10.097  68.629  1.00  0.00    -0.163 C  
HETATM    4  C   UNL     1     -10.035  12.216  67.254  1.00  0.00    -0.211 C  
ENDROOT
BRANCH   3   5
HETATM    5  N   UNL     1      -8.920   9.082  69.357  1.00  0.00    -0.142 NA 
HETATM    6  C   UNL     1     -10.910   5.888  68.364  1.00  0.00    -0.322 C  
HETATM    7  C   UNL     1      -9.198   7.739  68.756  1.00  0.00    -0.139 C  
HETATM    8  C   UNL     1      -9.273   8.977  70.798  1.00  0.00    -0.245 C  
HETATM    9  C   UNL     1     -10.691   8.409  71.069  1.00  0.00    -0.223 C  
HETATM   10  C   UNL     1     -10.645   7.238  69.012  1.00  0.00    -0.201 C  
HETATM   11  C   UNL     1     -10.918   8.202  72.561  1.00  0.00    -0.439 C  
HETATM   12  O   UNL     1     -10.882   7.134  70.424  1.00  0.00    -0.232 OA 
ENDBRANCH   3   5
BRANCH   4  13
HETATM   13  C   UNL     1     -10.971  12.791  68.292  1.00  0.00    -0.278 A  
HETATM   14  C   UNL     1     -12.258  12.519  70.339  1.00  0.00    -0.368 A  
HETATM   15  C   UNL     1     -12.371  13.911  70.504  1.00  0.00    -0.439 A  
HETATM   16  C   UNL     1     -11.833  14.722  69.490  1.00  0.00    -0.366 A  
HETATM   17  C   UNL     1     -11.136  14.173  68.406  1.00  0.00    -0.273 A  
HETATM   18  C   UNL     1     -11.585  11.965  69.241  1.00  0.00    -0.376 A  
BRANCH  15  19
HETATM   19  C   UNL     1     -13.030  14.499  71.767  1.00  0.00    -0.413 C  
HETATM   20  C   UNL     1     -14.269  15.372  71.465  1.00  0.00    -0.584 C  
HETATM   21  C   UNL     1     -13.524  13.338  72.667  1.00  0.00    -0.490 C  
BRANCH  19  22
HETATM   22  C   UNL     1     -12.009  15.342  72.598  1.00  0.00    -0.553 C  
HETATM   23  C   UNL     1     -12.490  15.787  73.975  1.00  0.00    -0.775 C  
ENDBRANCH  19  22
ENDBRANCH  15  19
ENDBRANCH   4  13
TORSDOF 4
ENDMDL
MODEL       27
REMARK 921   NORMALIZED FREE ENERGY PREDICTED BY IDOCK:   -5.81 KCAL/MOL
REMARK 922        TOTAL FREE ENERGY PREDICTED BY IDOCK:   -7.48 KCAL/MOL
REMARK 923 INTER-LIGAND FREE ENERGY PREDICTED BY IDOCK:   -7.37 KCAL/MOL
REMARK 924 INTRA-LIGAND FREE ENERGY PREDICTED BY IDOCK:   -0.11 KCAL/MOL
REMARK 927      BINDING AFFINITY PREDICTED BY RF-SCORE:    0.00 PKD
ROOT
HETATM    1  C   UNL     1     -12.313  13.863  70.562  1.00  0.00    -0.439 C  
HETATM    2  C   UNL     1     -13.139  15.106  70.895  1.00  0.00    -0.498 C  
HETATM    3  C   UNL     1     -12.233  13.617  69.035  1.00  0.00    -0.208 C  
HETATM    4  C   UNL     1     -12.927  12.620  71.274  1.00  0.00    -0.306 C  
ENDROOT
BRANCH   3   5
HETATM    5  N   UNL     1     -11.617  14.620  68.148  1.00  0.00    -0.321 NA 
HETATM    6  C   UNL     1     -11.919  12.757  64.745  1.00  0.00    -0.455 C  
HETATM    7  C   UNL     1     -12.043  14.341  66.740  1.00  0.00    -0.417 C  
HETATM    8  C   UNL     1     -10.130  14.584  68.151  1.00  0.00    -0.227 C  
HETATM    9  C   UNL     1      -9.519  13.310  67.511  1.00  0.00    -0.220 C  
HETATM   10  C   UNL     1     -11.445  13.030  66.163  1.00  0.00    -0.340 C  
HETATM   11  C   UNL     1      -8.002  13.418  67.425  1.00  0.00    -0.170 C  
HETATM   12  O   UNL     1     -10.011  13.103  66.172  1.00  0.00    -0.281 OA 
ENDBRANCH   3   5
BRANCH   4  13
HETATM   13  C   UNL     1     -12.173  11.342  70.986  1.00  0.00    -0.417 A  
HETATM   14  C   UNL     1     -11.986   8.924  71.184  1.00  0.00    -0.344 A  
HETATM   15  C   UNL     1     -11.061   8.866  70.127  1.00  0.00    -0.217 A  
HETATM   16  C   UNL     1     -10.650  10.087  69.568  1.00  0.00    -0.267 A  
HETATM   17  C   UNL     1     -11.203  11.306  69.982  1.00  0.00    -0.213 A  
HETATM   18  C   UNL     1     -12.521  10.144  71.621  1.00  0.00    -0.506 A  
BRANCH  15  19
HETATM   19  C   UNL     1     -10.559   7.508  69.599  1.00  0.00    -0.243 C  
HETATM   20  C   UNL     1      -9.141   7.141  70.092  1.00  0.00    -0.152 C  
HETATM   21  C   UNL     1     -11.501   6.387  70.110  1.00  0.00    -0.484 C  
BRANCH  19  22
HETATM   22  C   UNL     1     -10.576   7.466  68.036  1.00  0.00    -0.235 C  
HETATM   23  C   UNL     1     -10.971   6.129  67.418  1.00  0.00    -0.409 C  
ENDBRANCH  19  22
ENDBRANCH  15  19
ENDBRANCH   4  13
TORSDOF 4
ENDMDL
MODEL       28
REMARK 921   NORMALIZED FREE ENERGY PREDICTED BY IDOCK:   -5.80 KCAL/MOL
REMARK 922        TOTAL FREE ENERGY PREDICTED BY IDOCK:   -7.47 KCAL/MOL
REMARK 923 INTER-LIGAND FREE ENERGY PREDICTED BY IDOCK:   -6.56 KCAL/MOL
REMARK 924 INTRA-LIGAND FREE ENERGY PREDICTED BY IDOCK:   -0.91 KCAL/MOL
REMARK 927      BINDING AFFINITY PREDICTED BY RF-SCORE:    0.00 PKD
ROOT
HETATM    1  C   UNL     1      -8.911  12.214  68.186  1.00  0.00    -0.187 C  
HETATM    2  C   UNL     1      -8.476  10.770  68.445  1.00  0.00    -0.137 C  
HETATM    3  C   UNL     1      -9.480  12.396  66.757  1.00  0.00    -0.228 C  
HETATM    4  C   UNL     1      -7.701  13.172  68.408  1.00  0.00    -0.138 C  
ENDROOT
BRANCH   3   5
HETATM    5  N   UNL     1     -10.679  11.653  66.331  1.00  0.00    -0.262 NA 
HETATM    6  C   UNL     1      -9.398  10.236  62.940  1.00  0.00    -0.336 C  
HETATM    7  C   UNL     1     -10.277  10.644  65.299  1.00  0.00    -0.282 C  
HETATM    8  C   UNL     1     -11.717  12.508  65.697  1.00  0.00    -0.423 C  
HETATM    9  C   UNL     1     -11.311  13.093  64.319  1.00  0.00    -0.388 C  
HETATM   10  C   UNL     1      -9.830  11.280  63.956  1.00  0.00    -0.291 C  
HETATM   11  C   UNL     1     -12.477  13.834  63.677  1.00  0.00    -0.150 C  
HETATM   12  O   UNL     1     -10.905  12.055  63.403  1.00  0.00    -0.407 OA 
ENDBRANCH   3   5
BRANCH   4  13
HETATM   13  C   UNL     1      -8.046  14.623  68.160  1.00  0.00    -0.137 A  
HETATM   14  C   UNL     1      -9.123  16.679  68.891  1.00  0.00    -0.238 A  
HETATM   15  C   UNL     1      -8.368  17.446  67.986  1.00  0.00    -0.231 A  
HETATM   16  C   UNL     1      -7.508  16.752  67.119  1.00  0.00    -0.216 A  
HETATM   17  C   UNL     1      -7.341  15.364  67.210  1.00  0.00    -0.239 A  
HETATM   18  C   UNL     1      -8.979  15.286  68.966  1.00  0.00    -0.225 A  
BRANCH  15  19
HETATM   19  C   UNL     1      -8.471  18.984  67.988  1.00  0.00    -0.336 C  
HETATM   20  C   UNL     1      -7.576  19.660  69.052  1.00  0.00    -0.320 C  
HETATM   21  C   UNL     1      -7.996  19.524  66.613  1.00  0.00    -0.311 C  
BRANCH  19  22
HETATM   22  C   UNL     1      -9.947  19.453  68.197  1.00  0.00    -0.510 C  
HETATM   23  C   UNL     1     -10.774  19.614  66.925  1.00  0.00    -0.570 C  
ENDBRANCH  19  22
ENDBRANCH  15  19
ENDBRANCH   4  13
TORSDOF 4
ENDMDL
MODEL       29
REMARK 921   NORMALIZED FREE ENERGY PREDICTED BY IDOCK:   -5.80 KCAL/MOL
REMARK 922        TOTAL FREE ENERGY PREDICTED BY IDOCK:   -7.46 KCAL/MOL
REMARK 923 INTER-LIGAND FREE ENERGY PREDICTED BY IDOCK:   -6.67 KCAL/MOL
REMARK 924 INTRA-LIGAND FREE ENERGY PREDICTED BY IDOCK:   -0.79 KCAL/MOL
REMARK 927      BINDING AFFINITY PREDICTED BY RF-SCORE:    0.00 PKD
ROOT
HETATM    1  C   UNL     1      -9.839   6.206  69.102  1.00  0.00    -0.176 C  
HETATM    2  C   UNL     1      -9.681   4.694  68.936  1.00  0.00    -0.236 C  
HETATM    3  C   UNL     1     -11.231   6.582  69.665  1.00  0.00    -0.384 C  
HETATM    4  C   UNL     1      -9.606   6.911  67.731  1.00  0.00    -0.134 C  
ENDROOT
BRANCH   3   5
HETATM    5  N   UNL     1     -11.656   6.100  70.992  1.00  0.00    -0.263 NA 
HETATM    6  C   UNL     1     -13.699   9.189  72.187  1.00  0.00    -0.531 C  
HETATM    7  C   UNL     1     -12.834   6.908  71.442  1.00  0.00    -0.311 C  
HETATM    8  C   UNL     1     -10.615   6.254  72.043  1.00  0.00    -0.217 C  
HETATM    9  C   UNL     1     -10.305   7.725  72.425  1.00  0.00    -0.253 C  
HETATM   10  C   UNL     1     -12.480   8.385  71.763  1.00  0.00    -0.335 C  
HETATM   11  C   UNL     1      -9.339   7.790  73.602  1.00  0.00    -0.336 C  
HETATM   12  O   UNL     1     -11.500   8.435  72.810  1.00  0.00    -0.350 OA 
ENDBRANCH   3   5
BRANCH   4  13
HETATM   13  C   UNL     1      -9.755   8.413  67.807  1.00  0.00    -0.199 A  
HETATM   14  C   UNL     1     -10.736  10.471  66.957  1.00  0.00    -0.310 A  
HETATM   15  C   UNL     1     -10.429  11.159  68.144  1.00  0.00    -0.215 A  
HETATM   16  C   UNL     1      -9.707  10.455  69.123  1.00  0.00    -0.234 A  
HETATM   17  C   UNL     1      -9.383   9.102  68.963  1.00  0.00    -0.151 A  
HETATM   18  C   UNL     1     -10.388   9.124  66.781  1.00  0.00    -0.308 A  
BRANCH  15  19
HETATM   19  C   UNL     1     -10.905  12.609  68.355  1.00  0.00    -0.268 C  
HETATM   20  C   UNL     1      -9.747  13.629  68.452  1.00  0.00    -0.217 C  
HETATM   21  C   UNL     1     -11.765  13.041  67.139  1.00  0.00    -0.439 C  
BRANCH  19  22
HETATM   22  C   UNL     1     -11.795  12.733  69.634  1.00  0.00    -0.384 C  
HETATM   23  C   UNL     1     -12.200  14.152  70.020  1.00  0.00    -0.418 C  
ENDBRANCH  19  22
ENDBRANCH  15  19
ENDBRANCH   4  13
TORSDOF 4
ENDMDL
MODEL       30
REMARK 921   NORMALIZED FREE ENERGY PREDICTED BY IDOCK:   -5.77 KCAL/MOL
REMARK 922        TOTAL FREE ENERGY PREDICTED BY IDOCK:   -7.42 KCAL/MOL
REMARK 923 INTER-LIGAND FREE ENERGY PREDICTED BY IDOCK:   -7.07 KCAL/MOL
REMARK 924 INTRA-LIGAND FREE ENERGY PREDICTED BY IDOCK:   -0.35 KCAL/MOL
REMARK 927      BINDING AFFINITY PREDICTED BY RF-SCORE:    0.00 PKD
ROOT
HETATM    1  C   UNL     1     -12.782   9.753  71.350  1.00  0.00    -0.483 C  
HETATM    2  C   UNL     1     -13.433   9.297  72.656  1.00  0.00    -0.371 C  
HETATM    3  C   UNL     1     -11.300   9.313  71.261  1.00  0.00    -0.353 C  
HETATM    4  C   UNL     1     -12.890  11.303  71.225  1.00  0.00    -0.491 C  
ENDROOT
BRANCH   3   5
HETATM    5  N   UNL     1     -10.943   7.883  71.278  1.00  0.00    -0.235 NA 
HETATM    6  C   UNL     1      -7.857   8.007  73.645  1.00  0.00    -0.234 C  
HETATM    7  C   UNL     1     -10.092   7.615  72.481  1.00  0.00    -0.229 C  
HETATM    8  C   UNL     1     -10.147   7.453  70.097  1.00  0.00    -0.197 C  
HETATM    9  C   UNL     1      -8.714   8.044  70.042  1.00  0.00    -0.135 C  
HETATM   10  C   UNL     1      -8.687   8.269  72.399  1.00  0.00    -0.213 C  
HETATM   11  C   UNL     1      -7.922   7.444  68.886  1.00  0.00    -0.126 C  
HETATM   12  O   UNL     1      -7.982   7.768  71.253  1.00  0.00    -0.090 OA 
ENDBRANCH   3   5
BRANCH   4  13
HETATM   13  C   UNL     1     -12.257  11.838  69.960  1.00  0.00    -0.317 A  
HETATM   14  C   UNL     1     -11.573  11.500  67.650  1.00  0.00    -0.320 A  
HETATM   15  C   UNL     1     -11.485  12.885  67.428  1.00  0.00    -0.388 A  
HETATM   16  C   UNL     1     -11.716  13.726  68.530  1.00  0.00    -0.391 A  
HETATM   17  C   UNL     1     -12.106  13.213  69.773  1.00  0.00    -0.336 A  
HETATM   18  C   UNL     1     -11.935  10.981  68.902  1.00  0.00    -0.332 A  
BRANCH  15  19
HETATM   19  C   UNL     1     -11.180  13.436  66.022  1.00  0.00    -0.310 C  
HETATM   20  C   UNL     1     -12.437  13.599  65.138  1.00  0.00    -0.488 C  
HETATM   21  C   UNL     1     -10.556  14.849  66.156  1.00  0.00    -0.322 C  
BRANCH  19  22
HETATM   22  C   UNL     1     -10.149  12.532  65.271  1.00  0.00    -0.275 C  
HETATM   23  C   UNL     1     -10.694  11.777  64.061  1.00  0.00    -0.434 C  
ENDBRANCH  19  22
ENDBRANCH  15  19
ENDBRANCH   4  13
TORSDOF 4
ENDMDL
MODEL       31
REMARK 921   NORMALIZED FREE ENERGY PREDICTED BY IDOCK:   -5.77 KCAL/MOL
REMARK 922        TOTAL FREE ENERGY PREDICTED BY IDOCK:   -7.42 KCAL/MOL
REMARK 923 INTER-LIGAND FREE ENERGY PREDICTED BY IDOCK:   -6.54 KCAL/MOL
REMARK 924 INTRA-LIGAND FREE ENERGY PREDICTED BY IDOCK:   -0.88 KCAL/MOL
REMARK 927      BINDING AFFINITY PREDICTED BY RF-SCORE:    0.00 PKD
ROOT
HETATM    1  C   UNL     1     -11.686  12.634  64.425  1.00  0.00    -0.431 C  
HETATM    2  C   UNL     1     -12.719  11.806  63.660  1.00  0.00    -0.407 C  
HETATM    3  C   UNL     1     -11.011  11.815  65.552  1.00  0.00    -0.290 C  
HETATM    4  C   UNL     1     -12.369  13.903  65.020  1.00  0.00    -0.452 C  
ENDROOT
BRANCH   3   5
HETATM    5  N   UNL     1     -10.231  10.606  65.233  1.00  0.00    -0.290 NA 
HETATM    6  C   UNL     1     -10.340   8.823  68.690  1.00  0.00    -0.230 C  
HETATM    7  C   UNL     1     -10.535   9.554  66.254  1.00  0.00    -0.067 C  
HETATM    8  C   UNL     1      -8.759  10.817  65.274  1.00  0.00    -0.173 C  
HETATM    9  C   UNL     1      -8.191  11.084  66.693  1.00  0.00    -0.154 C  
HETATM   10  C   UNL     1      -9.990   9.892  67.667  1.00  0.00    -0.171 C  
HETATM   11  C   UNL     1      -6.669  11.146  66.666  1.00  0.00    -0.137 C  
HETATM   12  O   UNL     1      -8.563  10.041  67.616  1.00  0.00    -0.118 OA 
ENDBRANCH   3   5
BRANCH   4  13
HETATM   13  C   UNL     1     -11.415  14.775  65.804  1.00  0.00    -0.322 A  
HETATM   14  C   UNL     1      -9.678  16.478  65.843  1.00  0.00    -0.303 A  
HETATM   15  C   UNL     1      -9.910  16.745  67.204  1.00  0.00    -0.259 A  
HETATM   16  C   UNL     1     -10.859  15.944  67.861  1.00  0.00    -0.327 A  
HETATM   17  C   UNL     1     -11.608  14.981  67.171  1.00  0.00    -0.271 A  
HETATM   18  C   UNL     1     -10.405  15.495  65.156  1.00  0.00    -0.388 A  
BRANCH  15  19
HETATM   19  C   UNL     1      -9.169  17.894  67.914  1.00  0.00    -0.263 C  
HETATM   20  C   UNL     1      -9.976  18.525  69.072  1.00  0.00    -0.323 C  
HETATM   21  C   UNL     1      -7.864  17.341  68.545  1.00  0.00    -0.266 C  
BRANCH  19  22
HETATM   22  C   UNL     1      -8.769  19.019  66.906  1.00  0.00    -0.316 C  
HETATM   23  C   UNL     1      -9.865  20.027  66.576  1.00  0.00    -0.581 C  
ENDBRANCH  19  22
ENDBRANCH  15  19
ENDBRANCH   4  13
TORSDOF 4
ENDMDL
MODEL       32
REMARK 921   NORMALIZED FREE ENERGY PREDICTED BY IDOCK:   -5.76 KCAL/MOL
REMARK 922        TOTAL FREE ENERGY PREDICTED BY IDOCK:   -7.41 KCAL/MOL
REMARK 923 INTER-LIGAND FREE ENERGY PREDICTED BY IDOCK:   -6.88 KCAL/MOL
REMARK 924 INTRA-LIGAND FREE ENERGY PREDICTED BY IDOCK:   -0.53 KCAL/MOL
REMARK 927      BINDING AFFINITY PREDICTED BY RF-SCORE:    0.00 PKD
ROOT
HETATM    1  C   UNL     1     -10.137  11.907  65.810  1.00  0.00    -0.272 C  
HETATM    2  C   UNL     1     -10.089  11.362  64.382  1.00  0.00    -0.341 C  
HETATM    3  C   UNL     1      -9.609  10.876  66.837  1.00  0.00    -0.178 C  
HETATM    4  C   UNL     1     -11.598  12.318  66.165  1.00  0.00    -0.450 C  
ENDROOT
BRANCH   3   5
HETATM    5  N   UNL     1      -8.220  10.389  66.760  1.00  0.00    -0.124 NA 
HETATM    6  C   UNL     1      -7.630   9.496  70.502  1.00  0.00    -0.165 C  
HETATM    7  C   UNL     1      -7.936   9.553  67.970  1.00  0.00    -0.091 C  
HETATM    8  C   UNL     1      -7.205  11.476  66.755  1.00  0.00    -0.111 C  
HETATM    9  C   UNL     1      -7.098  12.257  68.091  1.00  0.00    -0.091 C  
HETATM   10  C   UNL     1      -7.889  10.373  69.287  1.00  0.00    -0.147 C  
HETATM   11  C   UNL     1      -5.944  13.252  68.049  1.00  0.00    -0.122 C  
HETATM   12  O   UNL     1      -6.860  11.371  69.203  1.00  0.00    -0.092 OA 
ENDBRANCH   3   5
BRANCH   4  13
HETATM   13  C   UNL     1     -11.734  12.858  67.571  1.00  0.00    -0.422 A  
HETATM   14  C   UNL     1     -12.181  14.723  69.068  1.00  0.00    -0.180 A  
HETATM   15  C   UNL     1     -12.430  13.854  70.145  1.00  0.00    -0.355 A  
HETATM   16  C   UNL     1     -12.242  12.480  69.917  1.00  0.00    -0.233 A  
HETATM   17  C   UNL     1     -11.910  11.988  68.648  1.00  0.00    -0.366 A  
HETATM   18  C   UNL     1     -11.820  14.236  67.804  1.00  0.00    -0.414 A  
BRANCH  15  19
HETATM   19  C   UNL     1     -12.919  14.404  71.499  1.00  0.00    -0.406 C  
HETATM   20  C   UNL     1     -14.094  15.400  71.371  1.00  0.00    -0.539 C  
HETATM   21  C   UNL     1     -13.439  13.227  72.365  1.00  0.00    -0.670 C  
BRANCH  19  22
HETATM   22  C   UNL     1     -11.757  15.093  72.284  1.00  0.00    -0.496 C  
HETATM   23  C   UNL     1     -12.109  15.585  73.685  1.00  0.00    -0.623 C  
ENDBRANCH  19  22
ENDBRANCH  15  19
ENDBRANCH   4  13
TORSDOF 4
ENDMDL
MODEL       33
REMARK 921   NORMALIZED FREE ENERGY PREDICTED BY IDOCK:   -5.75 KCAL/MOL
REMARK 922        TOTAL FREE ENERGY PREDICTED BY IDOCK:   -7.40 KCAL/MOL
REMARK 923 INTER-LIGAND FREE ENERGY PREDICTED BY IDOCK:   -6.97 KCAL/MOL
REMARK 924 INTRA-LIGAND FREE ENERGY PREDICTED BY IDOCK:   -0.43 KCAL/MOL
REMARK 927      BINDING AFFINITY PREDICTED BY RF-SCORE:    0.00 PKD
ROOT
HETATM    1  C   UNL     1      -8.560   9.304  70.446  1.00  0.00    -0.250 C  
HETATM    2  C   UNL     1      -7.595   8.393  71.207  1.00  0.00    -0.100 C  
HETATM    3  C   UNL     1     -10.035   8.883  70.656  1.00  0.00    -0.216 C  
HETATM    4  C   UNL     1      -8.208   9.288  68.927  1.00  0.00    -0.111 C  
ENDROOT
BRANCH   3   5
HETATM    5  N   UNL     1     -10.630   8.894  72.005  1.00  0.00    -0.344 NA 
HETATM    6  C   UNL     1     -10.628   5.075  72.751  1.00  0.00    -0.274 C  
HETATM    7  C   UNL     1     -10.297   7.603  72.687  1.00  0.00    -0.275 C  
HETATM    8  C   UNL     1     -12.113   8.995  72.002  1.00  0.00    -0.370 C  
HETATM    9  C   UNL     1     -12.839   7.743  71.444  1.00  0.00    -0.298 C  
HETATM   10  C   UNL     1     -11.008   6.374  72.060  1.00  0.00    -0.250 C  
HETATM   11  C   UNL     1     -14.348   7.871  71.608  1.00  0.00    -0.595 C  
HETATM   12  O   UNL     1     -12.432   6.545  72.135  1.00  0.00    -0.285 OA 
ENDBRANCH   3   5
BRANCH   4  13
HETATM   13  C   UNL     1      -9.126  10.158  68.100  1.00  0.00    -0.128 A  
HETATM   14  C   UNL     1     -10.113  12.336  67.653  1.00  0.00    -0.204 A  
HETATM   15  C   UNL     1     -10.481  11.951  66.352  1.00  0.00    -0.258 A  
HETATM   16  C   UNL     1     -10.222  10.620  65.981  1.00  0.00    -0.309 A  
HETATM   17  C   UNL     1      -9.547   9.740  66.837  1.00  0.00    -0.228 A  
HETATM   18  C   UNL     1      -9.463  11.450  68.523  1.00  0.00    -0.183 A  
BRANCH  15  19
HETATM   19  C   UNL     1     -11.107  12.969  65.380  1.00  0.00    -0.300 C  
HETATM   20  C   UNL     1     -12.535  13.405  65.781  1.00  0.00    -0.496 C  
HETATM   21  C   UNL     1     -10.245  14.258  65.373  1.00  0.00    -0.395 C  
BRANCH  19  22
HETATM   22  C   UNL     1     -11.141  12.413  63.920  1.00  0.00    -0.475 C  
HETATM   23  C   UNL     1     -12.524  12.064  63.380  1.00  0.00    -0.625 C  
ENDBRANCH  19  22
ENDBRANCH  15  19
ENDBRANCH   4  13
TORSDOF 4
ENDMDL
MODEL       34
REMARK 921   NORMALIZED FREE ENERGY PREDICTED BY IDOCK:   -5.74 KCAL/MOL
REMARK 922        TOTAL FREE ENERGY PREDICTED BY IDOCK:   -7.38 KCAL/MOL
REMARK 923 INTER-LIGAND FREE ENERGY PREDICTED BY IDOCK:   -6.53 KCAL/MOL
REMARK 924 INTRA-LIGAND FREE ENERGY PREDICTED BY IDOCK:   -0.85 KCAL/MOL
REMARK 927      BINDING AFFINITY PREDICTED BY RF-SCORE:    0.00 PKD
ROOT
HETATM    1  C   UNL     1      -8.519  17.041  67.013  1.00  0.00    -0.234 C  
HETATM    2  C   UNL     1      -8.070  17.776  65.749  1.00  0.00     0.135 C  
HETATM    3  C   UNL     1      -7.835  15.659  67.148  1.00  0.00    -0.217 C  
HETATM    4  C   UNL     1     -10.069  16.873  66.998  1.00  0.00    -0.289 C  
ENDROOT
BRANCH   3   5
HETATM    5  N   UNL     1      -6.369  15.559  67.262  1.00  0.00    -0.320 NA 
HETATM    6  C   UNL     1      -6.108  12.709  69.899  1.00  0.00    -0.125 C  
HETATM    7  C   UNL     1      -6.022  14.226  67.851  1.00  0.00    -0.136 C  
HETATM    8  C   UNL     1      -5.769  16.582  68.159  1.00  0.00    -0.117 C  
HETATM    9  C   UNL     1      -6.124  16.405  69.659  1.00  0.00    -0.205 C  
HETATM   10  C   UNL     1      -6.444  14.081  69.337  1.00  0.00    -0.118 C  
HETATM   11  C   UNL     1      -5.359  17.401  70.521  1.00  0.00    -0.259 C  
HETATM   12  O   UNL     1      -5.789  15.084  70.129  1.00  0.00    -0.125 OA 
ENDBRANCH   3   5
BRANCH   4  13
HETATM   13  C   UNL     1     -10.595  16.143  68.213  1.00  0.00    -0.288 A  
HETATM   14  C   UNL     1     -11.170  16.145  70.577  1.00  0.00    -0.381 A  
HETATM   15  C   UNL     1     -11.964  14.993  70.429  1.00  0.00    -0.372 A  
HETATM   16  C   UNL     1     -11.986  14.390  69.160  1.00  0.00    -0.357 A  
HETATM   17  C   UNL     1     -11.322  14.960  68.067  1.00  0.00    -0.337 A  
HETATM   18  C   UNL     1     -10.480  16.702  69.491  1.00  0.00    -0.281 A  
BRANCH  15  19
HETATM   19  C   UNL     1     -12.790  14.454  71.612  1.00  0.00    -0.416 C  
HETATM   20  C   UNL     1     -14.263  14.922  71.599  1.00  0.00    -0.633 C  
HETATM   21  C   UNL     1     -12.825  12.905  71.541  1.00  0.00    -0.380 C  
BRANCH  19  22
HETATM   22  C   UNL     1     -12.147  14.851  72.980  1.00  0.00    -0.369 C  
HETATM   23  C   UNL     1     -12.870  15.950  73.754  1.00  0.00    -0.708 C  
ENDBRANCH  19  22
ENDBRANCH  15  19
ENDBRANCH   4  13
TORSDOF 4
ENDMDL
MODEL       35
REMARK 921   NORMALIZED FREE ENERGY PREDICTED BY IDOCK:   -5.73 KCAL/MOL
REMARK 922        TOTAL FREE ENERGY PREDICTED BY IDOCK:   -7.38 KCAL/MOL
REMARK 923 INTER-LIGAND FREE ENERGY PREDICTED BY IDOCK:   -6.57 KCAL/MOL
REMARK 924 INTRA-LIGAND FREE ENERGY PREDICTED BY IDOCK:   -0.81 KCAL/MOL
REMARK 927      BINDING AFFINITY PREDICTED BY RF-SCORE:    0.00 PKD
ROOT
HETATM    1  C   UNL     1     -10.457  12.251  64.076  1.00  0.00    -0.427 C  
HETATM    2  C   UNL     1     -10.758  11.248  62.961  1.00  0.00    -0.042 C  
HETATM    3  C   UNL     1     -10.109  11.544  65.408  1.00  0.00    -0.260 C  
HETATM    4  C   UNL     1     -11.682  13.196  64.274  1.00  0.00    -0.447 C  
ENDROOT
BRANCH   3   5
HETATM    5  N   UNL     1      -8.937  10.654  65.497  1.00  0.00    -0.184 NA 
HETATM    6  C   UNL     1     -10.596   7.551  67.159  1.00  0.00    -0.415 C  
HETATM    7  C   UNL     1      -9.416   9.244  65.661  1.00  0.00    -0.256 C  
HETATM    8  C   UNL     1      -8.060  10.937  66.665  1.00  0.00    -0.147 C  
HETATM    9  C   UNL     1      -8.699  10.608  68.039  1.00  0.00    -0.126 C  
HETATM   10  C   UNL     1     -10.092   8.979  67.032  1.00  0.00    -0.250 C  
HETATM   11  C   UNL     1      -7.690  10.790  69.166  1.00  0.00    -0.138 C  
HETATM   12  O   UNL     1      -9.162   9.244  68.094  1.00  0.00    -0.131 OA 
ENDBRANCH   3   5
BRANCH   4  13
HETATM   13  C   UNL     1     -11.469  14.214  65.370  1.00  0.00    -0.325 A  
HETATM   14  C   UNL     1     -11.625  14.835  67.718  1.00  0.00    -0.378 A  
HETATM   15  C   UNL     1     -10.711  15.889  67.544  1.00  0.00    -0.318 A  
HETATM   16  C   UNL     1     -10.250  16.129  66.239  1.00  0.00    -0.333 A  
HETATM   17  C   UNL     1     -10.615  15.300  65.170  1.00  0.00    -0.453 A  
HETATM   18  C   UNL     1     -12.015  14.020  66.645  1.00  0.00    -0.473 A  
BRANCH  15  19
HETATM   19  C   UNL     1     -10.223  16.710  68.754  1.00  0.00    -0.288 C  
HETATM   20  C   UNL     1     -10.284  18.238  68.526  1.00  0.00    -0.402 C  
HETATM   21  C   UNL     1     -11.139  16.413  69.969  1.00  0.00    -0.300 C  
BRANCH  19  22
HETATM   22  C   UNL     1      -8.763  16.318  69.153  1.00  0.00    -0.212 C  
HETATM   23  C   UNL     1      -7.670  17.259  68.657  1.00  0.00    -0.265 C  
ENDBRANCH  19  22
ENDBRANCH  15  19
ENDBRANCH   4  13
TORSDOF 4
ENDMDL
MODEL       36
REMARK 921   NORMALIZED FREE ENERGY PREDICTED BY IDOCK:   -5.73 KCAL/MOL
REMARK 922        TOTAL FREE ENERGY PREDICTED BY IDOCK:   -7.37 KCAL/MOL
REMARK 923 INTER-LIGAND FREE ENERGY PREDICTED BY IDOCK:   -6.65 KCAL/MOL
REMARK 924 INTRA-LIGAND FREE ENERGY PREDICTED BY IDOCK:   -0.72 KCAL/MOL
REMARK 927      BINDING AFFINITY PREDICTED BY RF-SCORE:    0.00 PKD
ROOT
HETATM    1  C   UNL     1     -11.841  12.519  70.296  1.00  0.00    -0.305 C  
HETATM    2  C   UNL     1     -12.451  13.910  70.476  1.00  0.00    -0.422 C  
HETATM    3  C   UNL     1     -11.896  12.052  68.820  1.00  0.00    -0.302 C  
HETATM    4  C   UNL     1     -12.587  11.498  71.209  1.00  0.00    -0.452 C  
ENDROOT
BRANCH   3   5
HETATM    5  N   UNL     1     -11.195  12.812  67.770  1.00  0.00    -0.259 NA 
HETATM    6  C   UNL     1      -9.934   9.867  65.561  1.00  0.00    -0.363 C  
HETATM    7  C   UNL     1     -11.038  11.935  66.566  1.00  0.00    -0.306 C  
HETATM    8  C   UNL     1      -9.825  13.242  68.158  1.00  0.00    -0.231 C  
HETATM    9  C   UNL     1      -8.810  12.079  68.311  1.00  0.00    -0.182 C  
HETATM   10  C   UNL     1     -10.051  10.758  66.787  1.00  0.00    -0.222 C  
HETATM   11  C   UNL     1      -7.406  12.613  68.568  1.00  0.00    -0.115 C  
HETATM   12  O   UNL     1      -8.751  11.268  67.121  1.00  0.00    -0.144 OA 
ENDBRANCH   3   5
BRANCH   4  13
HETATM   13  C   UNL     1     -12.050  10.091  71.082  1.00  0.00    -0.475 A  
HETATM   14  C   UNL     1     -10.154   8.572  70.948  1.00  0.00    -0.246 A  
HETATM   15  C   UNL     1     -10.959   7.469  71.282  1.00  0.00    -0.262 A  
HETATM   16  C   UNL     1     -12.336   7.704  71.434  1.00  0.00    -0.358 A  
HETATM   17  C   UNL     1     -12.873   8.995  71.346  1.00  0.00    -0.355 A  
HETATM   18  C   UNL     1     -10.692   9.862  70.830  1.00  0.00    -0.305 A  
BRANCH  15  19
HETATM   19  C   UNL     1     -10.332   6.079  71.500  1.00  0.00    -0.261 C  
HETATM   20  C   UNL     1     -10.385   5.175  70.247  1.00  0.00    -0.331 C  
HETATM   21  C   UNL     1      -8.830   6.250  71.849  1.00  0.00    -0.139 C  
BRANCH  19  22
HETATM   22  C   UNL     1     -11.013   5.331  72.692  1.00  0.00    -0.316 C  
HETATM   23  C   UNL     1     -10.319   5.476  74.043  1.00  0.00    -0.297 C  
ENDBRANCH  19  22
ENDBRANCH  15  19
ENDBRANCH   4  13
TORSDOF 4
ENDMDL
MODEL       37
REMARK 921   NORMALIZED FREE ENERGY PREDICTED BY IDOCK:   -5.72 KCAL/MOL
REMARK 922        TOTAL FREE ENERGY PREDICTED BY IDOCK:   -7.36 KCAL/MOL
REMARK 923 INTER-LIGAND FREE ENERGY PREDICTED BY IDOCK:   -7.32 KCAL/MOL
REMARK 924 INTRA-LIGAND FREE ENERGY PREDICTED BY IDOCK:   -0.05 KCAL/MOL
REMARK 927      BINDING AFFINITY PREDICTED BY RF-SCORE:    0.00 PKD
ROOT
HETATM    1  C   UNL     1      -9.938   6.357  68.305  1.00  0.00    -0.147 C  
HETATM    2  C   UNL     1      -9.804   4.836  68.215  1.00  0.00    -0.181 C  
HETATM    3  C   UNL     1     -11.188   6.778  69.115  1.00  0.00    -0.177 C  
HETATM    4  C   UNL     1      -9.999   6.962  66.869  1.00  0.00    -0.264 C  
ENDROOT
BRANCH   3   5
HETATM    5  N   UNL     1     -11.326   6.393  70.530  1.00  0.00    -0.352 NA 
HETATM    6  C   UNL     1     -13.233   9.508  71.874  1.00  0.00    -0.524 C  
HETATM    7  C   UNL     1     -12.429   7.200  71.143  1.00  0.00    -0.359 C  
HETATM    8  C   UNL     1     -10.110   6.661  71.343  1.00  0.00    -0.190 C  
HETATM    9  C   UNL     1      -9.796   8.166  71.548  1.00  0.00    -0.179 C  
HETATM   10  C   UNL     1     -12.085   8.707  71.279  1.00  0.00    -0.290 C  
HETATM   11  C   UNL     1      -8.625   8.353  72.504  1.00  0.00    -0.253 C  
HETATM   12  O   UNL     1     -10.923   8.870  72.107  1.00  0.00    -0.362 OA 
ENDBRANCH   3   5
BRANCH   4  13
HETATM   13  C   UNL     1     -10.143   8.467  66.869  1.00  0.00    -0.364 A  
HETATM   14  C   UNL     1     -10.127  10.577  65.659  1.00  0.00    -0.333 A  
HETATM   15  C   UNL     1     -10.819  11.227  66.696  1.00  0.00    -0.325 A  
HETATM   16  C   UNL     1     -11.092  10.477  67.852  1.00  0.00    -0.367 A  
HETATM   17  C   UNL     1     -10.769   9.116  67.935  1.00  0.00    -0.224 A  
HETATM   18  C   UNL     1      -9.776   9.222  65.750  1.00  0.00    -0.339 A  
BRANCH  15  19
HETATM   19  C   UNL     1     -11.280  12.689  66.535  1.00  0.00    -0.342 C  
HETATM   20  C   UNL     1     -11.784  13.324  67.851  1.00  0.00    -0.395 C  
HETATM   21  C   UNL     1     -10.077  13.549  66.069  1.00  0.00    -0.316 C  
BRANCH  19  22
HETATM   22  C   UNL     1     -12.400  12.814  65.452  1.00  0.00    -0.528 C  
HETATM   23  C   UNL     1     -11.946  13.335  64.092  1.00  0.00    -0.505 C  
ENDBRANCH  19  22
ENDBRANCH  15  19
ENDBRANCH   4  13
TORSDOF 4
ENDMDL
MODEL       38
REMARK 921   NORMALIZED FREE ENERGY PREDICTED BY IDOCK:   -5.68 KCAL/MOL
REMARK 922        TOTAL FREE ENERGY PREDICTED BY IDOCK:   -7.31 KCAL/MOL
REMARK 923 INTER-LIGAND FREE ENERGY PREDICTED BY IDOCK:   -6.52 KCAL/MOL
REMARK 924 INTRA-LIGAND FREE ENERGY PREDICTED BY IDOCK:   -0.78 KCAL/MOL
REMARK 927      BINDING AFFINITY PREDICTED BY RF-SCORE:    0.00 PKD
ROOT
HETATM    1  C   UNL     1     -11.235  14.828  65.326  1.00  0.00    -0.366 C  
HETATM    2  C   UNL     1     -11.645  15.919  64.335  1.00  0.00    -0.234 C  
HETATM    3  C   UNL     1      -9.949  15.207  66.099  1.00  0.00    -0.295 C  
HETATM    4  C   UNL     1     -11.027  13.483  64.566  1.00  0.00    -0.405 C  
ENDROOT
BRANCH   3   5
HETATM    5  N   UNL     1      -9.920  16.404  66.960  1.00  0.00    -0.255 NA 
HETATM    6  C   UNL     1      -7.280  15.261  69.581  1.00  0.00    -0.187 C  
HETATM    7  C   UNL     1      -8.648  16.395  67.752  1.00  0.00    -0.168 C  
HETATM    8  C   UNL     1     -11.029  16.454  67.949  1.00  0.00    -0.298 C  
HETATM    9  C   UNL     1     -10.946  15.375  69.060  1.00  0.00    -0.252 C  
HETATM   10  C   UNL     1      -8.593  15.266  68.815  1.00  0.00    -0.190 C  
HETATM   11  C   UNL     1     -12.033  15.586  70.106  1.00  0.00    -0.389 C  
HETATM   12  O   UNL     1      -9.677  15.418  69.744  1.00  0.00    -0.272 OA 
ENDBRANCH   3   5
BRANCH   4  13
HETATM   13  C   UNL     1     -10.608  12.351  65.476  1.00  0.00    -0.307 A  
HETATM   14  C   UNL     1     -10.970  11.031  67.487  1.00  0.00    -0.338 A  
HETATM   15  C   UNL     1     -10.156   9.991  67.003  1.00  0.00    -0.274 A  
HETATM   16  C   UNL     1      -9.513  10.201  65.772  1.00  0.00    -0.262 A  
HETATM   17  C   UNL     1      -9.742  11.357  65.014  1.00  0.00    -0.286 A  
HETATM   18  C   UNL     1     -11.179  12.202  66.745  1.00  0.00    -0.375 A  
BRANCH  15  19
HETATM   19  C   UNL     1     -10.017   8.674  67.790  1.00  0.00    -0.240 C  
HETATM   20  C   UNL     1      -8.549   8.254  68.034  1.00  0.00    -0.132 C  
HETATM   21  C   UNL     1     -10.657   8.852  69.192  1.00  0.00    -0.211 C  
BRANCH  19  22
HETATM   22  C   UNL     1     -10.764   7.503  67.073  1.00  0.00    -0.367 C  
HETATM   23  C   UNL     1     -11.007   6.259  67.921  1.00  0.00    -0.421 C  
ENDBRANCH  19  22
ENDBRANCH  15  19
ENDBRANCH   4  13
TORSDOF 4
ENDMDL
MODEL       39
REMARK 921   NORMALIZED FREE ENERGY PREDICTED BY IDOCK:   -5.59 KCAL/MOL
REMARK 922        TOTAL FREE ENERGY PREDICTED BY IDOCK:   -7.20 KCAL/MOL
REMARK 923 INTER-LIGAND FREE ENERGY PREDICTED BY IDOCK:   -6.35 KCAL/MOL
REMARK 924 INTRA-LIGAND FREE ENERGY PREDICTED BY IDOCK:   -0.85 KCAL/MOL
REMARK 927      BINDING AFFINITY PREDICTED BY RF-SCORE:    0.00 PKD
ROOT
HETATM    1  C   UNL     1     -10.342  10.983  64.747  1.00  0.00    -0.389 C  
HETATM    2  C   UNL     1     -10.084  11.544  63.347  1.00  0.00    -0.454 C  
HETATM    3  C   UNL     1     -10.267  12.085  65.832  1.00  0.00    -0.232 C  
HETATM    4  C   UNL     1      -9.311   9.855  65.056  1.00  0.00    -0.323 C  
ENDROOT
BRANCH   3   5
HETATM    5  N   UNL     1     -11.199  13.227  65.802  1.00  0.00    -0.292 NA 
HETATM    6  C   UNL     1      -8.671  16.148  66.272  1.00  0.00    -0.373 C  
HETATM    7  C   UNL     1     -10.425  14.470  65.489  1.00  0.00    -0.356 C  
HETATM    8  C   UNL     1     -11.881  13.474  67.100  1.00  0.00    -0.387 C  
HETATM    9  C   UNL     1     -10.944  13.976  68.230  1.00  0.00    -0.255 C  
HETATM   10  C   UNL     1      -9.465  14.902  66.630  1.00  0.00    -0.265 C  
HETATM   11  C   UNL     1     -11.741  14.339  69.477  1.00  0.00    -0.366 C  
HETATM   12  O   UNL     1     -10.215  15.153  67.828  1.00  0.00    -0.233 OA 
ENDBRANCH   3   5
BRANCH   4  13
HETATM   13  C   UNL     1      -9.491   9.253  66.431  1.00  0.00    -0.277 A  
HETATM   14  C   UNL     1     -10.649   7.706  67.909  1.00  0.00    -0.233 A  
HETATM   15  C   UNL     1      -9.611   7.765  68.856  1.00  0.00    -0.154 A  
HETATM   16  C   UNL     1      -8.552   8.650  68.590  1.00  0.00    -0.131 A  
HETATM   17  C   UNL     1      -8.487   9.375  67.393  1.00  0.00    -0.125 A  
HETATM   18  C   UNL     1     -10.602   8.451  66.723  1.00  0.00    -0.227 A  
BRANCH  15  19
HETATM   19  C   UNL     1      -9.638   6.865  70.106  1.00  0.00    -0.162 C  
HETATM   20  C   UNL     1      -8.568   5.749  70.085  1.00  0.00    -0.128 C  
HETATM   21  C   UNL     1      -9.338   7.730  71.358  1.00  0.00    -0.165 C  
BRANCH  19  22
HETATM   22  C   UNL     1     -11.044   6.213  70.305  1.00  0.00    -0.436 C  
HETATM   23  C   UNL     1     -11.884   6.793  71.439  1.00  0.00    -0.385 C  
ENDBRANCH  19  22
ENDBRANCH  15  19
ENDBRANCH   4  13
TORSDOF 4
ENDMDL
MODEL       40
REMARK 921   NORMALIZED FREE ENERGY PREDICTED BY IDOCK:   -5.58 KCAL/MOL
REMARK 922        TOTAL FREE ENERGY PREDICTED BY IDOCK:   -7.18 KCAL/MOL
REMARK 923 INTER-LIGAND FREE ENERGY PREDICTED BY IDOCK:   -6.41 KCAL/MOL
REMARK 924 INTRA-LIGAND FREE ENERGY PREDICTED BY IDOCK:   -0.77 KCAL/MOL
REMARK 927      BINDING AFFINITY PREDICTED BY RF-SCORE:    0.00 PKD
ROOT
HETATM    1  C   UNL     1     -10.623  13.230  66.163  1.00  0.00    -0.293 C  
HETATM    2  C   UNL     1     -10.294  14.231  65.053  1.00  0.00    -0.448 C  
HETATM    3  C   UNL     1     -10.679  13.910  67.553  1.00  0.00    -0.267 C  
HETATM    4  C   UNL     1      -9.564  12.086  66.166  1.00  0.00    -0.252 C  
ENDROOT
BRANCH   3   5
HETATM    5  N   UNL     1     -11.660  14.975  67.825  1.00  0.00    -0.336 NA 
HETATM    6  C   UNL     1      -9.243  17.987  68.300  1.00  0.00    -0.298 C  
HETATM    7  C   UNL     1     -11.012  16.301  67.571  1.00  0.00    -0.207 C  
HETATM    8  C   UNL     1     -12.135  15.003  69.234  1.00  0.00    -0.247 C  
HETATM    9  C   UNL     1     -11.054  15.423  70.265  1.00  0.00    -0.311 C  
HETATM   10  C   UNL     1      -9.904  16.652  68.599  1.00  0.00    -0.252 C  
HETATM   11  C   UNL     1     -11.657  15.564  71.657  1.00  0.00    -0.502 C  
HETATM   12  O   UNL     1     -10.461  16.691  69.922  1.00  0.00    -0.230 OA 
ENDBRANCH   3   5
BRANCH   4  13
HETATM   13  C   UNL     1      -9.811  11.057  67.245  1.00  0.00    -0.204 A  
HETATM   14  C   UNL     1      -9.369  10.216  69.485  1.00  0.00    -0.230 A  
HETATM   15  C   UNL     1     -10.536   9.431  69.467  1.00  0.00    -0.229 A  
HETATM   16  C   UNL     1     -11.284   9.423  68.278  1.00  0.00     0.129 A  
HETATM   17  C   UNL     1     -10.935  10.230  67.188  1.00  0.00    -0.233 A  
HETATM   18  C   UNL     1      -9.000  11.003  68.385  1.00  0.00    -0.158 A  
BRANCH  15  19
HETATM   19  C   UNL     1     -10.973   8.649  70.721  1.00  0.00    -0.286 C  
HETATM   20  C   UNL     1     -11.041   7.121  70.502  1.00  0.00    -0.299 C  
HETATM   21  C   UNL     1      -9.934   8.880  71.849  1.00  0.00    -0.384 C  
BRANCH  19  22
HETATM   22  C   UNL     1     -12.360   9.146  71.244  1.00  0.00    -0.382 C  
HETATM   23  C   UNL     1     -12.494  10.656  71.421  1.00  0.00    -0.496 C  
ENDBRANCH  19  22
ENDBRANCH  15  19
ENDBRANCH   4  13
TORSDOF 4
ENDMDL
MODEL       41
REMARK 921   NORMALIZED FREE ENERGY PREDICTED BY IDOCK:   -5.53 KCAL/MOL
REMARK 922        TOTAL FREE ENERGY PREDICTED BY IDOCK:   -7.12 KCAL/MOL
REMARK 923 INTER-LIGAND FREE ENERGY PREDICTED BY IDOCK:   -6.25 KCAL/MOL
REMARK 924 INTRA-LIGAND FREE ENERGY PREDICTED BY IDOCK:   -0.87 KCAL/MOL
REMARK 927      BINDING AFFINITY PREDICTED BY RF-SCORE:    0.00 PKD
ROOT
HETATM    1  C   UNL     1      -7.710  12.727  68.078  1.00  0.00    -0.137 C  
HETATM    2  C   UNL     1      -6.767  11.526  68.163  1.00  0.00    -0.062 C  
HETATM    3  C   UNL     1      -8.717  12.587  66.910  1.00  0.00    -0.182 C  
HETATM    4  C   UNL     1      -6.877  14.035  67.914  1.00  0.00    -0.172 C  
ENDROOT
BRANCH   3   5
HETATM    5  N   UNL     1      -9.674  11.467  66.879  1.00  0.00    -0.185 NA 
HETATM    6  C   UNL     1     -12.749  13.276  65.324  1.00  0.00    -0.474 C  
HETATM    7  C   UNL     1     -10.758  11.788  65.897  1.00  0.00    -0.282 C  
HETATM    8  C   UNL     1     -10.348  11.223  68.182  1.00  0.00    -0.186 C  
HETATM    9  C   UNL     1     -11.327  12.345  68.616  1.00  0.00    -0.288 C  
HETATM   10  C   UNL     1     -11.678  12.951  66.354  1.00  0.00    -0.395 C  
HETATM   11  C   UNL     1     -12.079  11.953  69.882  1.00  0.00    -0.344 C  
HETATM   12  O   UNL     1     -12.312  12.611  67.597  1.00  0.00    -0.279 OA 
ENDBRANCH   3   5
BRANCH   4  13
HETATM   13  C   UNL     1      -7.738  15.273  67.810  1.00  0.00    -0.164 A  
HETATM   14  C   UNL     1      -8.945  17.087  68.893  1.00  0.00    -0.210 A  
HETATM   15  C   UNL     1      -8.983  17.831  67.701  1.00  0.00    -0.249 A  
HETATM   16  C   UNL     1      -8.451  17.225  66.551  1.00  0.00    -0.306 A  
HETATM   17  C   UNL     1      -7.829  15.971  66.605  1.00  0.00    -0.266 A  
HETATM   18  C   UNL     1      -8.349  15.819  68.945  1.00  0.00    -0.213 A  
BRANCH  15  19
HETATM   19  C   UNL     1      -9.556  19.262  67.688  1.00  0.00    -0.392 C  
HETATM   20  C   UNL     1     -11.024  19.333  67.210  1.00  0.00    -0.443 C  
HETATM   21  C   UNL     1      -9.542  19.825  69.133  1.00  0.00    -0.263 C  
BRANCH  19  22
HETATM   22  C   UNL     1      -8.689  20.212  66.800  1.00  0.00    -0.390 C  
HETATM   23  C   UNL     1      -7.293  20.521  67.334  1.00  0.00    -0.371 C  
ENDBRANCH  19  22
ENDBRANCH  15  19
ENDBRANCH   4  13
TORSDOF 4
ENDMDL
MODEL       42
REMARK 921   NORMALIZED FREE ENERGY PREDICTED BY IDOCK:   -5.52 KCAL/MOL
REMARK 922        TOTAL FREE ENERGY PREDICTED BY IDOCK:   -7.11 KCAL/MOL
REMARK 923 INTER-LIGAND FREE ENERGY PREDICTED BY IDOCK:   -6.15 KCAL/MOL
REMARK 924 INTRA-LIGAND FREE ENERGY PREDICTED BY IDOCK:   -0.97 KCAL/MOL
REMARK 927      BINDING AFFINITY PREDICTED BY RF-SCORE:    0.00 PKD
ROOT
HETATM    1  C   UNL     1     -11.514  12.648  69.319  1.00  0.00    -0.354 C  
HETATM    2  C   UNL     1     -12.525  13.246  70.299  1.00  0.00    -0.255 C  
HETATM    3  C   UNL     1     -12.006  12.743  67.855  1.00  0.00    -0.266 C  
HETATM    4  C   UNL     1     -11.236  11.161  69.697  1.00  0.00    -0.333 C  
ENDROOT
BRANCH   3   5
HETATM    5  N   UNL     1     -12.264  14.056  67.237  1.00  0.00    -0.365 NA 
HETATM    6  C   UNL     1     -11.931  13.090  63.482  1.00  0.00    -0.615 C  
HETATM    7  C   UNL     1     -12.658  13.845  65.807  1.00  0.00    -0.494 C  
HETATM    8  C   UNL     1     -11.076  14.950  67.217  1.00  0.00    -0.336 C  
HETATM    9  C   UNL     1      -9.936  14.478  66.277  1.00  0.00    -0.305 C  
HETATM   10  C   UNL     1     -11.496  13.325  64.919  1.00  0.00    -0.318 C  
HETATM   11  C   UNL     1      -8.824  15.518  66.206  1.00  0.00    -0.338 C  
HETATM   12  O   UNL     1     -10.413  14.267  64.933  1.00  0.00    -0.407 OA 
ENDBRANCH   3   5
BRANCH   4  13
HETATM   13  C   UNL     1     -10.250  10.491  68.767  1.00  0.00    -0.205 A  
HETATM   14  C   UNL     1      -9.803   8.943  66.944  1.00  0.00    -0.288 A  
HETATM   15  C   UNL     1      -8.542   9.518  66.707  1.00  0.00    -0.133 A  
HETATM   16  C   UNL     1      -8.130  10.539  67.580  1.00  0.00    -0.107 A  
HETATM   17  C   UNL     1      -8.973  11.025  68.588  1.00  0.00    -0.167 A  
HETATM   18  C   UNL     1     -10.639   9.408  67.970  1.00  0.00    -0.278 A  
BRANCH  15  19
HETATM   19  C   UNL     1      -7.682   9.057  65.515  1.00  0.00    -0.091 C  
HETATM   20  C   UNL     1      -6.441   9.946  65.270  1.00  0.00    -0.101 C  
HETATM   21  C   UNL     1      -7.146   7.630  65.800  1.00  0.00    -0.061 C  
BRANCH  19  22
HETATM   22  C   UNL     1      -8.524   8.994  64.199  1.00  0.00    -0.183 C  
HETATM   23  C   UNL     1      -7.850   8.300  63.019  1.00  0.00    -0.148 C  
ENDBRANCH  19  22
ENDBRANCH  15  19
ENDBRANCH   4  13
TORSDOF 4
ENDMDL
MODEL       43
REMARK 921   NORMALIZED FREE ENERGY PREDICTED BY IDOCK:   -5.52 KCAL/MOL
REMARK 922        TOTAL FREE ENERGY PREDICTED BY IDOCK:   -7.11 KCAL/MOL
REMARK 923 INTER-LIGAND FREE ENERGY PREDICTED BY IDOCK:   -6.36 KCAL/MOL
REMARK 924 INTRA-LIGAND FREE ENERGY PREDICTED BY IDOCK:   -0.75 KCAL/MOL
REMARK 927      BINDING AFFINITY PREDICTED BY RF-SCORE:    0.00 PKD
ROOT
HETATM    1  C   UNL     1     -12.784  13.196  70.882  1.00  0.00    -0.313 C  
HETATM    2  C   UNL     1     -13.462  12.670  72.149  1.00  0.00    -0.561 C  
HETATM    3  C   UNL     1     -11.800  12.162  70.284  1.00  0.00    -0.254 C  
HETATM    4  C   UNL     1     -12.035  14.526  71.204  1.00  0.00    -0.401 C  
ENDROOT
BRANCH   3   5
HETATM    5  N   UNL     1     -12.284  10.848  69.826  1.00  0.00    -0.334 NA 
HETATM    6  C   UNL     1     -10.382   8.543  72.320  1.00  0.00    -0.402 C  
HETATM    7  C   UNL     1     -12.069   9.848  70.921  1.00  0.00    -0.341 C  
HETATM    8  C   UNL     1     -11.562  10.326  68.636  1.00  0.00    -0.025 C  
HETATM    9  C   UNL     1     -10.083   9.942  68.903  1.00  0.00    -0.184 C  
HETATM   10  C   UNL     1     -10.572   9.536  71.184  1.00  0.00    -0.318 C  
HETATM   11  C   UNL     1      -9.461   9.287  67.676  1.00  0.00    -0.156 C  
HETATM   12  O   UNL     1      -9.969   9.006  69.993  1.00  0.00    -0.174 OA 
ENDBRANCH   3   5
BRANCH   4  13
HETATM   13  C   UNL     1     -11.326  15.108  70.003  1.00  0.00    -0.304 A  
HETATM   14  C   UNL     1     -11.428  16.167  67.814  1.00  0.00    -0.033 A  
HETATM   15  C   UNL     1     -10.095  16.603  67.916  1.00  0.00    -0.270 A  
HETATM   16  C   UNL     1      -9.375  16.203  69.053  1.00  0.00    -0.248 A  
HETATM   17  C   UNL     1      -9.982  15.476  70.086  1.00  0.00    -0.081 A  
HETATM   18  C   UNL     1     -12.031  15.414  68.833  1.00  0.00    -0.298 A  
BRANCH  15  19
HETATM   19  C   UNL     1      -9.483  17.510  66.830  1.00  0.00    -0.278 C  
HETATM   20  C   UNL     1      -8.114  17.013  66.312  1.00  0.00    -0.332 C  
HETATM   21  C   UNL     1     -10.429  17.537  65.602  1.00  0.00    -0.156 C  
BRANCH  19  22
HETATM   22  C   UNL     1      -9.326  18.979  67.341  1.00  0.00    -0.345 C  
HETATM   23  C   UNL     1     -10.626  19.695  67.696  1.00  0.00    -0.556 C  
ENDBRANCH  19  22
ENDBRANCH  15  19
ENDBRANCH   4  13
TORSDOF 4
ENDMDL
MODEL       44
REMARK 921   NORMALIZED FREE ENERGY PREDICTED BY IDOCK:   -5.51 KCAL/MOL
REMARK 922        TOTAL FREE ENERGY PREDICTED BY IDOCK:   -7.10 KCAL/MOL
REMARK 923 INTER-LIGAND FREE ENERGY PREDICTED BY IDOCK:   -6.57 KCAL/MOL
REMARK 924 INTRA-LIGAND FREE ENERGY PREDICTED BY IDOCK:   -0.53 KCAL/MOL
REMARK 927      BINDING AFFINITY PREDICTED BY RF-SCORE:    0.00 PKD
ROOT
HETATM    1  C   UNL     1     -12.136  11.958  69.453  1.00  0.00    -0.277 C  
HETATM    2  C   UNL     1     -12.523  10.648  70.142  1.00  0.00    -0.342 C  
HETATM    3  C   UNL     1     -10.749  11.862  68.773  1.00  0.00    -0.224 C  
HETATM    4  C   UNL     1     -12.144  13.118  70.494  1.00  0.00    -0.385 C  
ENDROOT
BRANCH   3   5
HETATM    5  N   UNL     1     -10.512  10.887  67.693  1.00  0.00    -0.197 NA 
HETATM    6  C   UNL     1      -6.730  11.535  67.044  1.00  0.00    -0.143 C  
HETATM    7  C   UNL     1      -9.042  10.615  67.605  1.00  0.00    -0.142 C  
HETATM    8  C   UNL     1     -10.929  11.372  66.350  1.00  0.00    -0.260 C  
HETATM    9  C   UNL     1     -10.070  12.538  65.795  1.00  0.00    -0.262 C  
HETATM   10  C   UNL     1      -8.221  11.829  67.093  1.00  0.00    -0.169 C  
HETATM   11  C   UNL     1     -10.470  12.876  64.364  1.00  0.00    -0.419 C  
HETATM   12  O   UNL     1      -8.668  12.201  65.780  1.00  0.00     0.139 OA 
ENDBRANCH   3   5
BRANCH   4  13
HETATM   13  C   UNL     1     -11.760  14.451  69.894  1.00  0.00    -0.363 A  
HETATM   14  C   UNL     1     -10.712  16.635  70.128  1.00  0.00    -0.090 A  
HETATM   15  C   UNL     1     -10.625  16.790  68.733  1.00  0.00    -0.348 A  
HETATM   16  C   UNL     1     -11.193  15.779  67.939  1.00  0.00    -0.313 A  
HETATM   17  C   UNL     1     -11.742  14.623  68.508  1.00  0.00    -0.348 A  
HETATM   18  C   UNL     1     -11.288  15.492  70.702  1.00  0.00    -0.367 A  
BRANCH  15  19
HETATM   19  C   UNL     1      -9.902  18.007  68.124  1.00  0.00    -0.341 C  
HETATM   20  C   UNL     1     -10.145  19.321  68.902  1.00  0.00    -0.434 C  
HETATM   21  C   UNL     1      -8.372  17.757  68.159  1.00  0.00    -0.264 C  
BRANCH  19  22
HETATM   22  C   UNL     1     -10.313  18.221  66.631  1.00  0.00    -0.400 C  
HETATM   23  C   UNL     1     -10.505  19.673  66.203  1.00  0.00    -0.624 C  
ENDBRANCH  19  22
ENDBRANCH  15  19
ENDBRANCH   4  13
TORSDOF 4
ENDMDL
MODEL       45
REMARK 921   NORMALIZED FREE ENERGY PREDICTED BY IDOCK:   -5.48 KCAL/MOL
REMARK 922        TOTAL FREE ENERGY PREDICTED BY IDOCK:   -7.07 KCAL/MOL
REMARK 923 INTER-LIGAND FREE ENERGY PREDICTED BY IDOCK:   -6.39 KCAL/MOL
REMARK 924 INTRA-LIGAND FREE ENERGY PREDICTED BY IDOCK:   -0.68 KCAL/MOL
REMARK 927      BINDING AFFINITY PREDICTED BY RF-SCORE:    0.00 PKD
ROOT
HETATM    1  C   UNL     1      -7.596  19.747  67.498  1.00  0.00    -0.310 C  
HETATM    2  C   UNL     1      -6.897  21.079  67.216  1.00  0.00    -0.434 C  
HETATM    3  C   UNL     1      -6.869  18.561  66.820  1.00  0.00    -0.191 C  
HETATM    4  C   UNL     1      -9.075  19.820  67.011  1.00  0.00    -0.428 C  
ENDROOT
BRANCH   3   5
HETATM    5  N   UNL     1      -5.476  18.236  67.176  1.00  0.00    -0.131 NA 
HETATM    6  C   UNL     1      -5.842  14.419  67.842  1.00  0.00    -0.132 C  
HETATM    7  C   UNL     1      -5.269  16.762  67.011  1.00  0.00    -0.119 C  
HETATM    8  C   UNL     1      -5.132  18.552  68.588  1.00  0.00    -0.181 C  
HETATM    9  C   UNL     1      -5.847  17.660  69.636  1.00  0.00    -0.242 C  
HETATM   10  C   UNL     1      -6.045  15.911  68.052  1.00  0.00    -0.133 C  
HETATM   11  C   UNL     1      -5.333  17.952  71.041  1.00  0.00    -0.184 C  
HETATM   12  O   UNL     1      -5.622  16.259  69.379  1.00  0.00    -0.122 OA 
ENDBRANCH   3   5
BRANCH   4  13
HETATM   13  C   UNL     1      -9.836  18.534  67.245  1.00  0.00    -0.329 A  
HETATM   14  C   UNL     1     -10.519  16.330  66.474  1.00  0.00    -0.290 A  
HETATM   15  C   UNL     1     -10.869  15.935  67.778  1.00  0.00    -0.324 A  
HETATM   16  C   UNL     1     -10.762  16.904  68.791  1.00  0.00    -0.333 A  
HETATM   17  C   UNL     1     -10.244  18.179  68.532  1.00  0.00    -0.399 A  
HETATM   18  C   UNL     1     -10.028  17.616  66.206  1.00  0.00    -0.324 A  
BRANCH  15  19
HETATM   19  C   UNL     1     -11.315  14.489  68.065  1.00  0.00    -0.326 C  
HETATM   20  C   UNL     1     -10.136  13.507  68.258  1.00  0.00    -0.247 C  
HETATM   21  C   UNL     1     -12.123  14.462  69.389  1.00  0.00    -0.338 C  
BRANCH  19  22
HETATM   22  C   UNL     1     -12.244  13.946  66.931  1.00  0.00    -0.415 C  
HETATM   23  C   UNL     1     -11.718  12.729  66.176  1.00  0.00    -0.458 C  
ENDBRANCH  19  22
ENDBRANCH  15  19
ENDBRANCH   4  13
TORSDOF 4
ENDMDL
MODEL       46
REMARK 921   NORMALIZED FREE ENERGY PREDICTED BY IDOCK:   -5.48 KCAL/MOL
REMARK 922        TOTAL FREE ENERGY PREDICTED BY IDOCK:   -7.06 KCAL/MOL
REMARK 923 INTER-LIGAND FREE ENERGY PREDICTED BY IDOCK:   -6.90 KCAL/MOL
REMARK 924 INTRA-LIGAND FREE ENERGY PREDICTED BY IDOCK:   -0.17 KCAL/MOL
REMARK 927      BINDING AFFINITY PREDICTED BY RF-SCORE:    0.00 PKD
ROOT
HETATM    1  C   UNL     1     -11.345  13.225  69.071  1.00  0.00    -0.334 C  
HETATM    2  C   UNL     1     -11.866  14.622  68.731  1.00  0.00    -0.348 C  
HETATM    3  C   UNL     1     -11.169  12.352  67.805  1.00  0.00    -0.275 C  
HETATM    4  C   UNL     1     -12.323  12.531  70.069  1.00  0.00    -0.154 C  
ENDROOT
BRANCH   3   5
HETATM    5  N   UNL     1     -10.231  12.759  66.743  1.00  0.00    -0.236 NA 
HETATM    6  C   UNL     1     -12.569  12.436  63.648  1.00  0.00    -0.550 C  
HETATM    7  C   UNL     1     -11.020  13.169  65.537  1.00  0.00    -0.277 C  
HETATM    8  C   UNL     1      -9.324  11.667  66.298  1.00  0.00    -0.216 C  
HETATM    9  C   UNL     1     -10.034  10.512  65.544  1.00  0.00    -0.279 C  
HETATM   10  C   UNL     1     -11.752  11.986  64.848  1.00  0.00    -0.258 C  
HETATM   11  C   UNL     1      -9.020   9.513  65.001  1.00  0.00    -0.258 C  
HETATM   12  O   UNL     1     -10.796  11.003  64.423  1.00  0.00    -0.334 OA 
ENDBRANCH   3   5
BRANCH   4  13
HETATM   13  C   UNL     1     -11.884  11.135  70.449  1.00  0.00    -0.462 A  
HETATM   14  C   UNL     1     -10.127   9.462  70.623  1.00  0.00    -0.356 A  
HETATM   15  C   UNL     1     -10.885   8.698  71.529  1.00  0.00    -0.352 A  
HETATM   16  C   UNL     1     -12.185   9.148  71.815  1.00  0.00    -0.442 A  
HETATM   17  C   UNL     1     -12.674  10.352  71.292  1.00  0.00    -0.536 A  
HETATM   18  C   UNL     1     -10.624  10.653  70.076  1.00  0.00    -0.150 A  
BRANCH  15  19
HETATM   19  C   UNL     1     -10.282   7.445  72.193  1.00  0.00    -0.226 C  
HETATM   20  C   UNL     1      -8.833   7.647  72.690  1.00  0.00    -0.198 C  
HETATM   21  C   UNL     1     -11.124   7.081  73.444  1.00  0.00    -0.140 C  
BRANCH  19  22
HETATM   22  C   UNL     1     -10.317   6.219  71.224  1.00  0.00    -0.255 C  
HETATM   23  C   UNL     1     -10.354   4.849  71.896  1.00  0.00    -0.259 C  
ENDBRANCH  19  22
ENDBRANCH  15  19
ENDBRANCH   4  13
TORSDOF 4
ENDMDL
MODEL       47
REMARK 921   NORMALIZED FREE ENERGY PREDICTED BY IDOCK:   -5.47 KCAL/MOL
REMARK 922        TOTAL FREE ENERGY PREDICTED BY IDOCK:   -7.05 KCAL/MOL
REMARK 923 INTER-LIGAND FREE ENERGY PREDICTED BY IDOCK:   -6.69 KCAL/MOL
REMARK 924 INTRA-LIGAND FREE ENERGY PREDICTED BY IDOCK:   -0.36 KCAL/MOL
REMARK 927      BINDING AFFINITY PREDICTED BY RF-SCORE:    0.00 PKD
ROOT
HETATM    1  C   UNL     1     -11.912  13.455  70.487  1.00  0.00    -0.332 C  
HETATM    2  C   UNL     1     -12.633  14.464  71.382  1.00  0.00    -0.426 C  
HETATM    3  C   UNL     1     -12.035  13.824  68.988  1.00  0.00    -0.360 C  
HETATM    4  C   UNL     1     -12.489  12.028  70.737  1.00  0.00    -0.372 C  
ENDROOT
BRANCH   3   5
HETATM    5  N   UNL     1     -11.490  15.097  68.485  1.00  0.00    -0.305 NA 
HETATM    6  C   UNL     1     -10.340  13.963  64.944  1.00  0.00    -0.430 C  
HETATM    7  C   UNL     1     -11.423  15.034  66.990  1.00  0.00    -0.284 C  
HETATM    8  C   UNL     1     -10.107  15.381  68.954  1.00  0.00    -0.219 C  
HETATM    9  C   UNL     1      -9.028  14.428  68.377  1.00  0.00    -0.188 C  
HETATM   10  C   UNL     1     -10.364  14.030  66.463  1.00  0.00    -0.285 C  
HETATM   11  C   UNL     1      -7.631  14.873  68.792  1.00  0.00    -0.135 C  
HETATM   12  O   UNL     1      -9.061  14.403  66.936  1.00  0.00    -0.230 OA 
ENDBRANCH   3   5
BRANCH   4  13
HETATM   13  C   UNL     1     -11.834  10.969  69.880  1.00  0.00    -0.431 A  
HETATM   14  C   UNL     1     -10.975  10.254  67.719  1.00  0.00    -0.360 A  
HETATM   15  C   UNL     1     -10.229   9.219  68.309  1.00  0.00    -0.236 A  
HETATM   16  C   UNL     1     -10.373   9.036  69.695  1.00  0.00    -0.217 A  
HETATM   17  C   UNL     1     -11.154   9.903  70.471  1.00  0.00    -0.398 A  
HETATM   18  C   UNL     1     -11.781  11.106  68.488  1.00  0.00    -0.368 A  
BRANCH  15  19
HETATM   19  C   UNL     1      -9.276   8.356  67.460  1.00  0.00    -0.158 C  
HETATM   20  C   UNL     1      -9.195   8.802  65.982  1.00  0.00    -0.282 C  
HETATM   21  C   UNL     1      -7.839   8.478  68.030  1.00  0.00    -0.103 C  
BRANCH  19  22
HETATM   22  C   UNL     1      -9.680   6.847  67.510  1.00  0.00    -0.162 C  
HETATM   23  C   UNL     1     -11.094   6.528  67.033  1.00  0.00    -0.411 C  
ENDBRANCH  19  22
ENDBRANCH  15  19
ENDBRANCH   4  13
TORSDOF 4
ENDMDL
MODEL       48
REMARK 921   NORMALIZED FREE ENERGY PREDICTED BY IDOCK:   -5.46 KCAL/MOL
REMARK 922        TOTAL FREE ENERGY PREDICTED BY IDOCK:   -7.05 KCAL/MOL
REMARK 923 INTER-LIGAND FREE ENERGY PREDICTED BY IDOCK:   -6.28 KCAL/MOL
REMARK 924 INTRA-LIGAND FREE ENERGY PREDICTED BY IDOCK:   -0.77 KCAL/MOL
REMARK 927      BINDING AFFINITY PREDICTED BY RF-SCORE:    0.00 PKD
ROOT
HETATM    1  C   UNL     1      -9.785  11.194  63.725  1.00  0.00    -0.338 C  
HETATM    2  C   UNL     1      -9.723  10.224  62.544  1.00  0.00    -0.097 C  
HETATM    3  C   UNL     1      -9.888  10.448  65.078  1.00  0.00    -0.319 C  
HETATM    4  C   UNL     1     -11.000  12.155  63.549  1.00  0.00    -0.521 C  
ENDROOT
BRANCH   3   5
HETATM    5  N   UNL     1      -8.815   9.535  65.511  1.00  0.00    -0.156 NA 
HETATM    6  C   UNL     1      -9.523   9.461  69.337  1.00  0.00    -0.177 C  
HETATM    7  C   UNL     1      -9.169   8.982  66.857  1.00  0.00    -0.142 C  
HETATM    8  C   UNL     1      -7.493  10.199  65.666  1.00  0.00    -0.144 C  
HETATM    9  C   UNL     1      -7.418  11.210  66.840  1.00  0.00    -0.138 C  
HETATM   10  C   UNL     1      -9.129  10.043  67.989  1.00  0.00    -0.131 C  
HETATM   11  C   UNL     1      -5.999  11.735  67.017  1.00  0.00    -0.153 C  
HETATM   12  O   UNL     1      -7.810  10.601  68.087  1.00  0.00    -0.105 OA 
ENDBRANCH   3   5
BRANCH   4  13
HETATM   13  C   UNL     1     -11.140  13.143  64.685  1.00  0.00    -0.366 A  
HETATM   14  C   UNL     1     -11.886  13.651  66.944  1.00  0.00    -0.451 A  
HETATM   15  C   UNL     1     -11.058  14.786  67.008  1.00  0.00    -0.333 A  
HETATM   16  C   UNL     1     -10.336  15.118  65.850  1.00  0.00    -0.344 A  
HETATM   17  C   UNL     1     -10.367  14.305  64.709  1.00  0.00    -0.373 A  
HETATM   18  C   UNL     1     -11.942  12.851  65.794  1.00  0.00    -0.496 A  
BRANCH  15  19
HETATM   19  C   UNL     1     -10.938  15.596  68.314  1.00  0.00    -0.315 C  
HETATM   20  C   UNL     1     -12.075  15.310  69.323  1.00  0.00    -0.280 C  
HETATM   21  C   UNL     1      -9.616  15.212  69.028  1.00  0.00    -0.229 C  
BRANCH  19  22
HETATM   22  C   UNL     1     -10.894  17.132  68.026  1.00  0.00    -0.317 C  
HETATM   23  C   UNL     1      -9.754  17.894  68.695  1.00  0.00    -0.355 C  
ENDBRANCH  19  22
ENDBRANCH  15  19
ENDBRANCH   4  13
TORSDOF 4
ENDMDL
MODEL       49
REMARK 921   NORMALIZED FREE ENERGY PREDICTED BY IDOCK:   -5.43 KCAL/MOL
REMARK 922        TOTAL FREE ENERGY PREDICTED BY IDOCK:   -7.01 KCAL/MOL
REMARK 923 INTER-LIGAND FREE ENERGY PREDICTED BY IDOCK:   -6.88 KCAL/MOL
REMARK 924 INTRA-LIGAND FREE ENERGY PREDICTED BY IDOCK:   -0.13 KCAL/MOL
REMARK 927      BINDING AFFINITY PREDICTED BY RF-SCORE:    0.00 PKD
ROOT
HETATM    1  C   UNL     1     -13.007  10.259  71.466  1.00  0.00    -0.556 C  
HETATM    2  C   UNL     1     -13.640   9.264  72.441  1.00  0.00    -0.527 C  
HETATM    3  C   UNL     1     -11.493   9.995  71.277  1.00  0.00    -0.314 C  
HETATM    4  C   UNL     1     -13.238  11.713  71.979  1.00  0.00    -0.443 C  
ENDROOT
BRANCH   3   5
HETATM    5  N   UNL     1     -11.021   8.712  70.726  1.00  0.00    -0.237 NA 
HETATM    6  C   UNL     1      -8.924   7.435  73.745  1.00  0.00    -0.275 C  
HETATM    7  C   UNL     1     -10.595   7.831  71.860  1.00  0.00    -0.223 C  
HETATM    8  C   UNL     1      -9.840   8.845  69.832  1.00  0.00    -0.182 C  
HETATM    9  C   UNL     1      -8.536   9.275  70.554  1.00  0.00    -0.233 C  
HETATM   10  C   UNL     1      -9.315   8.330  72.581  1.00  0.00    -0.280 C  
HETATM   11  C   UNL     1      -7.351   9.248  69.597  1.00  0.00    -0.068 C  
HETATM   12  O   UNL     1      -8.224   8.392  71.650  1.00  0.00    -0.127 OA 
ENDBRANCH   3   5
BRANCH   4  13
HETATM   13  C   UNL     1     -12.632  12.761  71.075  1.00  0.00    -0.362 A  
HETATM   14  C   UNL     1     -11.702  14.989  70.772  1.00  0.00    -0.371 A  
HETATM   15  C   UNL     1     -11.098  14.619  69.557  1.00  0.00    -0.294 A  
HETATM   16  C   UNL     1     -11.351  13.319  69.086  1.00  0.00    -0.336 A  
HETATM   17  C   UNL     1     -12.097  12.401  69.837  1.00  0.00    -0.317 A  
HETATM   18  C   UNL     1     -12.473  14.081  71.512  1.00  0.00    -0.407 A  
BRANCH  15  19
HETATM   19  C   UNL     1     -10.177  15.601  68.809  1.00  0.00    -0.215 C  
HETATM   20  C   UNL     1     -10.328  17.067  69.277  1.00  0.00    -0.276 C  
HETATM   21  C   UNL     1      -8.700  15.210  69.074  1.00  0.00    -0.215 C  
BRANCH  19  22
HETATM   22  C   UNL     1     -10.415  15.537  67.265  1.00  0.00    -0.279 C  
HETATM   23  C   UNL     1      -9.169  15.305  66.416  1.00  0.00    -0.342 C  
ENDBRANCH  19  22
ENDBRANCH  15  19
ENDBRANCH   4  13
TORSDOF 4
ENDMDL
MODEL       50
REMARK 921   NORMALIZED FREE ENERGY PREDICTED BY IDOCK:   -5.42 KCAL/MOL
REMARK 922        TOTAL FREE ENERGY PREDICTED BY IDOCK:   -6.99 KCAL/MOL
REMARK 923 INTER-LIGAND FREE ENERGY PREDICTED BY IDOCK:   -6.51 KCAL/MOL
REMARK 924 INTRA-LIGAND FREE ENERGY PREDICTED BY IDOCK:   -0.49 KCAL/MOL
REMARK 927      BINDING AFFINITY PREDICTED BY RF-SCORE:    0.00 PKD
ROOT
HETATM    1  C   UNL     1     -11.798  12.972  69.918  1.00  0.00    -0.377 C  
HETATM    2  C   UNL     1     -12.535  14.297  70.125  1.00  0.00    -0.393 C  
HETATM    3  C   UNL     1     -11.953  12.447  68.470  1.00  0.00    -0.223 C  
HETATM    4  C   UNL     1     -12.331  11.914  70.932  1.00  0.00    -0.400 C  
ENDROOT
BRANCH   3   5
HETATM    5  N   UNL     1     -11.450  13.237  67.332  1.00  0.00    -0.313 NA 
HETATM    6  C   UNL     1     -10.223  10.353  65.025  1.00  0.00    -0.334 C  
HETATM    7  C   UNL     1     -11.366  12.347  66.130  1.00  0.00    -0.352 C  
HETATM    8  C   UNL     1     -10.084  13.785  67.543  1.00  0.00    -0.241 C  
HETATM    9  C   UNL     1      -8.964  12.713  67.587  1.00  0.00    -0.186 C  
HETATM   10  C   UNL     1     -10.264  11.260  66.244  1.00  0.00    -0.236 C  
HETATM   11  C   UNL     1      -7.589  13.365  67.663  1.00  0.00    -0.177 C  
HETATM   12  O   UNL     1      -8.981  11.882  66.409  1.00  0.00    -0.202 OA 
ENDBRANCH   3   5
BRANCH   4  13
HETATM   13  C   UNL     1     -11.660  10.568  70.787  1.00  0.00    -0.432 A  
HETATM   14  C   UNL     1     -11.702   8.156  71.103  1.00  0.00    -0.309 A  
HETATM   15  C   UNL     1     -10.671   7.971  70.165  1.00  0.00    -0.244 A  
HETATM   16  C   UNL     1     -10.097   9.127  69.609  1.00  0.00    -0.206 A  
HETATM   17  C   UNL     1     -10.589  10.404  69.906  1.00  0.00    -0.299 A  
HETATM   18  C   UNL     1     -12.178   9.435  71.425  1.00  0.00    -0.438 A  
BRANCH  15  19
HETATM   19  C   UNL     1     -10.229   6.553  69.755  1.00  0.00    -0.221 C  
HETATM   20  C   UNL     1     -10.621   5.465  70.781  1.00  0.00    -0.293 C  
HETATM   21  C   UNL     1     -10.930   6.169  68.426  1.00  0.00    -0.391 C  
BRANCH  19  22
HETATM   22  C   UNL     1      -8.686   6.487  69.514  1.00  0.00    -0.134 C  
HETATM   23  C   UNL     1      -7.827   6.406  70.772  1.00  0.00    -0.106 C  
ENDBRANCH  19  22
ENDBRANCH  15  19
ENDBRANCH   4  13
TORSDOF 4
ENDMDL
MODEL       51
REMARK 921   NORMALIZED FREE ENERGY PREDICTED BY IDOCK:   -5.39 KCAL/MOL
REMARK 922        TOTAL FREE ENERGY PREDICTED BY IDOCK:   -6.96 KCAL/MOL
REMARK 923 INTER-LIGAND FREE ENERGY PREDICTED BY IDOCK:   -6.14 KCAL/MOL
REMARK 924 INTRA-LIGAND FREE ENERGY PREDICTED BY IDOCK:   -0.82 KCAL/MOL
REMARK 927      BINDING AFFINITY PREDICTED BY RF-SCORE:    0.00 PKD
ROOT
HETATM    1  C   UNL     1      -9.679  11.406  65.475  1.00  0.00    -0.263 C  
HETATM    2  C   UNL     1      -9.889   9.934  65.113  1.00  0.00    -0.348 C  
HETATM    3  C   UNL     1      -8.880  11.567  66.791  1.00  0.00    -0.183 C  
HETATM    4  C   UNL     1     -11.061  12.117  65.596  1.00  0.00    -0.360 C  
ENDROOT
BRANCH   3   5
HETATM    5  N   UNL     1      -7.505  11.045  66.899  1.00  0.00    -0.126 NA 
HETATM    6  C   UNL     1      -7.706   9.397  70.418  1.00  0.00    -0.163 C  
HETATM    7  C   UNL     1      -7.480   9.972  67.944  1.00  0.00    -0.089 C  
HETATM    8  C   UNL     1      -6.511  12.066  67.322  1.00  0.00    -0.149 C  
HETATM    9  C   UNL     1      -6.681  12.558  68.783  1.00  0.00    -0.093 C  
HETATM   10  C   UNL     1      -7.705  10.509  69.382  1.00  0.00    -0.155 C  
HETATM   11  C   UNL     1      -5.543  13.490  69.179  1.00  0.00    -0.075 C  
HETATM   12  O   UNL     1      -6.680  11.458  69.715  1.00  0.00    -0.132 OA 
ENDBRANCH   3   5
BRANCH   4  13
HETATM   13  C   UNL     1     -10.942  13.578  65.964  1.00  0.00    -0.281 A  
HETATM   14  C   UNL     1     -10.943  15.323  67.660  1.00  0.00    -0.311 A  
HETATM   15  C   UNL     1     -10.305  16.227  66.792  1.00  0.00    -0.296 A  
HETATM   16  C   UNL     1     -10.068  15.792  65.477  1.00  0.00    -0.383 A  
HETATM   17  C   UNL     1     -10.372  14.487  65.071  1.00  0.00    -0.442 A  
HETATM   18  C   UNL     1     -11.275  14.024  67.248  1.00  0.00    -0.328 A  
BRANCH  15  19
HETATM   19  C   UNL     1      -9.862  17.615  67.293  1.00  0.00    -0.303 C  
HETATM   20  C   UNL     1     -10.142  17.845  68.796  1.00  0.00    -0.384 C  
HETATM   21  C   UNL     1      -8.329  17.754  67.110  1.00  0.00    -0.236 C  
BRANCH  19  22
HETATM   22  C   UNL     1     -10.544  18.757  66.473  1.00  0.00    -0.436 C  
HETATM   23  C   UNL     1     -10.034  20.167  66.758  1.00  0.00    -0.604 C  
ENDBRANCH  19  22
ENDBRANCH  15  19
ENDBRANCH   4  13
TORSDOF 4
ENDMDL
MODEL       52
REMARK 921   NORMALIZED FREE ENERGY PREDICTED BY IDOCK:   -5.37 KCAL/MOL
REMARK 922        TOTAL FREE ENERGY PREDICTED BY IDOCK:   -6.93 KCAL/MOL
REMARK 923 INTER-LIGAND FREE ENERGY PREDICTED BY IDOCK:   -6.13 KCAL/MOL
REMARK 924 INTRA-LIGAND FREE ENERGY PREDICTED BY IDOCK:   -0.80 KCAL/MOL
REMARK 927      BINDING AFFINITY PREDICTED BY RF-SCORE:    0.00 PKD
ROOT
HETATM    1  C   UNL     1      -9.380   7.041  68.558  1.00  0.00    -0.135 C  
HETATM    2  C   UNL     1      -9.043   5.592  68.202  1.00  0.00    -0.111 C  
HETATM    3  C   UNL     1     -10.777   7.164  69.214  1.00  0.00    -0.215 C  
HETATM    4  C   UNL     1      -9.310   7.925  67.275  1.00  0.00    -0.180 C  
ENDROOT
BRANCH   3   5
HETATM    5  N   UNL     1     -11.067   6.480  70.486  1.00  0.00    -0.294 NA 
HETATM    6  C   UNL     1     -13.432   9.105  72.116  1.00  0.00    -0.530 C  
HETATM    7  C   UNL     1     -12.316   7.064  71.072  1.00  0.00    -0.356 C  
HETATM    8  C   UNL     1     -10.004   6.651  71.512  1.00  0.00    -0.175 C  
HETATM    9  C   UNL     1      -9.868   8.097  72.058  1.00  0.00    -0.232 C  
HETATM   10  C   UNL     1     -12.142   8.528  71.557  1.00  0.00    -0.304 C  
HETATM   11  C   UNL     1      -8.861   8.155  73.199  1.00  0.00    -0.325 C  
HETATM   12  O   UNL     1     -11.124   8.589  72.567  1.00  0.00    -0.355 OA 
ENDBRANCH   3   5
BRANCH   4  13
HETATM   13  C   UNL     1      -9.641   9.376  67.539  1.00  0.00    -0.174 A  
HETATM   14  C   UNL     1      -8.902  11.645  68.012  1.00  0.00    -0.162 A  
HETATM   15  C   UNL     1     -10.141  12.178  67.614  1.00  0.00    -0.205 A  
HETATM   16  C   UNL     1     -11.145  11.263  67.254  1.00  0.00    -0.367 A  
HETATM   17  C   UNL     1     -10.898   9.885  67.207  1.00  0.00    -0.268 A  
HETATM   18  C   UNL     1      -8.659  10.264  67.995  1.00  0.00    -0.118 A  
BRANCH  15  19
HETATM   19  C   UNL     1     -10.354  13.702  67.549  1.00  0.00    -0.241 C  
HETATM   20  C   UNL     1     -11.842  14.118  67.582  1.00  0.00    -0.427 C  
HETATM   21  C   UNL     1      -9.691  14.359  68.789  1.00  0.00    -0.190 C  
BRANCH  19  22
HETATM   22  C   UNL     1      -9.686  14.314  66.275  1.00  0.00    -0.321 C  
HETATM   23  C   UNL     1     -10.558  14.340  65.023  1.00  0.00    -0.444 C  
ENDBRANCH  19  22
ENDBRANCH  15  19
ENDBRANCH   4  13
TORSDOF 4
ENDMDL
MODEL       53
REMARK 921   NORMALIZED FREE ENERGY PREDICTED BY IDOCK:   -5.33 KCAL/MOL
REMARK 922        TOTAL FREE ENERGY PREDICTED BY IDOCK:   -6.88 KCAL/MOL
REMARK 923 INTER-LIGAND FREE ENERGY PREDICTED BY IDOCK:   -5.84 KCAL/MOL
REMARK 924 INTRA-LIGAND FREE ENERGY PREDICTED BY IDOCK:   -1.04 KCAL/MOL
REMARK 927      BINDING AFFINITY PREDICTED BY RF-SCORE:    0.00 PKD
ROOT
HETATM    1  C   UNL     1     -12.522  10.692  70.636  1.00  0.00    -0.462 C  
HETATM    2  C   UNL     1     -13.240  11.149  71.907  1.00  0.00    -0.488 C  
HETATM    3  C   UNL     1     -11.629   9.454  70.893  1.00  0.00    -0.312 C  
HETATM    4  C   UNL     1     -11.664  11.864  70.069  1.00  0.00    -0.366 C  
ENDROOT
BRANCH   3   5
HETATM    5  N   UNL     1     -12.223   8.188  71.359  1.00  0.00    -0.295 NA 
HETATM    6  C   UNL     1      -9.587   7.176  74.037  1.00  0.00    -0.311 C  
HETATM    7  C   UNL     1     -11.652   7.856  72.704  1.00  0.00    -0.377 C  
HETATM    8  C   UNL     1     -11.923   7.028  70.479  1.00  0.00    -0.266 C  
HETATM    9  C   UNL     1     -10.434   6.593  70.479  1.00  0.00    -0.203 C  
HETATM   10  C   UNL     1     -10.148   7.477  72.657  1.00  0.00    -0.222 C  
HETATM   11  C   UNL     1     -10.240   5.317  69.668  1.00  0.00    -0.348 C  
HETATM   12  O   UNL     1      -9.961   6.329  71.815  1.00  0.00    -0.171 OA 
ENDBRANCH   3   5
BRANCH   4  13
HETATM   13  C   UNL     1     -10.910  11.490  68.814  1.00  0.00    -0.258 A  
HETATM   14  C   UNL     1      -8.811  10.954  67.708  1.00  0.00    -0.135 A  
HETATM   15  C   UNL     1      -9.483  10.371  66.619  1.00  0.00    -0.199 A  
HETATM   16  C   UNL     1     -10.887  10.436  66.624  1.00  0.00    -0.140 A  
HETATM   17  C   UNL     1     -11.591  10.977  67.708  1.00  0.00    -0.277 A  
HETATM   18  C   UNL     1      -9.511  11.522  68.781  1.00  0.00    -0.099 A  
BRANCH  15  19
HETATM   19  C   UNL     1      -8.696   9.666  65.497  1.00  0.00    -0.176 C  
HETATM   20  C   UNL     1      -9.169  10.051  64.077  1.00  0.00    -0.318 C  
HETATM   21  C   UNL     1      -7.205  10.084  65.587  1.00  0.00    -0.120 C  
BRANCH  19  22
HETATM   22  C   UNL     1      -8.763   8.112  65.648  1.00  0.00    -0.176 C  
HETATM   23  C   UNL     1      -8.414   7.569  67.030  1.00  0.00    -0.122 C  
ENDBRANCH  19  22
ENDBRANCH  15  19
ENDBRANCH   4  13
TORSDOF 4
ENDMDL
MODEL       54
REMARK 921   NORMALIZED FREE ENERGY PREDICTED BY IDOCK:   -5.33 KCAL/MOL
REMARK 922        TOTAL FREE ENERGY PREDICTED BY IDOCK:   -6.88 KCAL/MOL
REMARK 923 INTER-LIGAND FREE ENERGY PREDICTED BY IDOCK:   -6.35 KCAL/MOL
REMARK 924 INTRA-LIGAND FREE ENERGY PREDICTED BY IDOCK:   -0.53 KCAL/MOL
REMARK 927      BINDING AFFINITY PREDICTED BY RF-SCORE:    0.00 PKD
ROOT
HETATM    1  C   UNL     1     -11.723   8.339  70.843  1.00  0.00    -0.256 C  
HETATM    2  C   UNL     1     -11.819   7.525  72.135  1.00  0.00    -0.338 C  
HETATM    3  C   UNL     1     -10.862   7.623  69.774  1.00  0.00    -0.217 C  
HETATM    4  C   UNL     1     -11.130   9.747  71.155  1.00  0.00    -0.414 C  
ENDROOT
BRANCH   3   5
HETATM    5  N   UNL     1     -11.262   6.303  69.255  1.00  0.00    -0.400 NA 
HETATM    6  C   UNL     1      -8.389   4.124  70.718  1.00  0.00    -0.086 C  
HETATM    7  C   UNL     1     -10.588   5.242  70.068  1.00  0.00    -0.230 C  
HETATM    8  C   UNL     1     -10.857   6.070  67.843  1.00  0.00    -0.290 C  
HETATM    9  C   UNL     1      -9.325   5.942  67.630  1.00  0.00    -0.107 C  
HETATM   10  C   UNL     1      -9.051   5.188  69.858  1.00  0.00    -0.123 C  
HETATM   11  C   UNL     1      -9.006   5.564  66.189  1.00  0.00    -0.146 C  
HETATM   12  O   UNL     1      -8.757   4.924  68.477  1.00  0.00    -0.097 OA 
ENDBRANCH   3   5
BRANCH   4  13
HETATM   13  C   UNL     1     -10.991  10.614  69.924  1.00  0.00    -0.337 A  
HETATM   14  C   UNL     1      -9.713  11.293  67.968  1.00  0.00    -0.185 A  
HETATM   15  C   UNL     1     -10.847  11.880  67.378  1.00  0.00    -0.289 A  
HETATM   16  C   UNL     1     -12.032  11.884  68.133  1.00  0.00    -0.222 A  
HETATM   17  C   UNL     1     -12.107  11.253  69.382  1.00  0.00    -0.384 A  
HETATM   18  C   UNL     1      -9.777  10.685  69.230  1.00  0.00    -0.181 A  
BRANCH  15  19
HETATM   19  C   UNL     1     -10.778  12.456  65.951  1.00  0.00    -0.299 C  
HETATM   20  C   UNL     1      -9.983  13.779  65.858  1.00  0.00    -0.308 C  
HETATM   21  C   UNL     1     -10.046  11.444  65.032  1.00  0.00    -0.323 C  
BRANCH  19  22
HETATM   22  C   UNL     1     -12.207  12.684  65.362  1.00  0.00    -0.517 C  
HETATM   23  C   UNL     1     -12.390  12.280  63.902  1.00  0.00    -0.606 C  
ENDBRANCH  19  22
ENDBRANCH  15  19
ENDBRANCH   4  13
TORSDOF 4
ENDMDL
MODEL       55
REMARK 921   NORMALIZED FREE ENERGY PREDICTED BY IDOCK:   -5.31 KCAL/MOL
REMARK 922        TOTAL FREE ENERGY PREDICTED BY IDOCK:   -6.86 KCAL/MOL
REMARK 923 INTER-LIGAND FREE ENERGY PREDICTED BY IDOCK:   -6.76 KCAL/MOL
REMARK 924 INTRA-LIGAND FREE ENERGY PREDICTED BY IDOCK:   -0.10 KCAL/MOL
REMARK 927      BINDING AFFINITY PREDICTED BY RF-SCORE:    0.00 PKD
ROOT
HETATM    1  C   UNL     1     -11.028  15.395  69.313  1.00  0.00    -0.261 C  
HETATM    2  C   UNL     1     -10.902  16.915  69.192  1.00  0.00    -0.237 C  
HETATM    3  C   UNL     1     -11.296  14.728  67.942  1.00  0.00    -0.316 C  
HETATM    4  C   UNL     1     -12.172  15.044  70.313  1.00  0.00    -0.390 C  
ENDROOT
BRANCH   3   5
HETATM    5  N   UNL     1     -10.315  14.849  66.849  1.00  0.00    -0.261 NA 
HETATM    6  C   UNL     1     -10.448  11.222  65.445  1.00  0.00    -0.326 C  
HETATM    7  C   UNL     1     -10.541  13.734  65.874  1.00  0.00    -0.289 C  
HETATM    8  C   UNL     1      -8.902  14.732  67.299  1.00  0.00    -0.204 C  
HETATM    9  C   UNL     1      -8.506  13.319  67.802  1.00  0.00    -0.181 C  
HETATM   10  C   UNL     1     -10.178  12.337  66.443  1.00  0.00    -0.225 C  
HETATM   11  C   UNL     1      -7.015  13.248  68.107  1.00  0.00    -0.114 C  
HETATM   12  O   UNL     1      -8.792  12.307  66.815  1.00  0.00    -0.202 OA 
ENDBRANCH   3   5
BRANCH   4  13
HETATM   13  C   UNL     1     -12.370  13.555  70.482  1.00  0.00    -0.412 A  
HETATM   14  C   UNL     1     -11.714  11.275  69.942  1.00  0.00    -0.430 A  
HETATM   15  C   UNL     1     -12.385  10.769  71.069  1.00  0.00    -0.509 A  
HETATM   16  C   UNL     1     -13.113  11.685  71.846  1.00  0.00    -0.490 A  
HETATM   17  C   UNL     1     -13.098  13.058  71.565  1.00  0.00    -0.400 A  
HETATM   18  C   UNL     1     -11.720  12.645  69.640  1.00  0.00    -0.373 A  
BRANCH  15  19
HETATM   19  C   UNL     1     -12.285   9.275  71.435  1.00  0.00    -0.426 C  
HETATM   20  C   UNL     1     -12.109   8.351  70.209  1.00  0.00     0.412 C  
HETATM   21  C   UNL     1     -11.035   9.056  72.327  1.00  0.00    -0.112 C  
BRANCH  19  22
HETATM   22  C   UNL     1     -13.535   8.806  72.246  1.00  0.00    -0.463 C  
HETATM   23  C   UNL     1     -14.221   7.546  71.728  1.00  0.00    -0.548 C  
ENDBRANCH  19  22
ENDBRANCH  15  19
ENDBRANCH   4  13
TORSDOF 4
ENDMDL
MODEL       56
REMARK 921   NORMALIZED FREE ENERGY PREDICTED BY IDOCK:   -5.31 KCAL/MOL
REMARK 922        TOTAL FREE ENERGY PREDICTED BY IDOCK:   -6.86 KCAL/MOL
REMARK 923 INTER-LIGAND FREE ENERGY PREDICTED BY IDOCK:   -6.71 KCAL/MOL
REMARK 924 INTRA-LIGAND FREE ENERGY PREDICTED BY IDOCK:   -0.15 KCAL/MOL
REMARK 927      BINDING AFFINITY PREDICTED BY RF-SCORE:    0.00 PKD
ROOT
HETATM    1  C   UNL     1      -9.759  11.360  65.487  1.00  0.00    -0.263 C  
HETATM    2  C   UNL     1      -9.315  10.813  64.129  1.00  0.00    -0.286 C  
HETATM    3  C   UNL     1     -10.042  10.225  66.501  1.00  0.00    -0.231 C  
HETATM    4  C   UNL     1     -11.030  12.245  65.303  1.00  0.00    -0.347 C  
ENDROOT
BRANCH   3   5
HETATM    5  N   UNL     1      -8.969   9.297  66.902  1.00  0.00    -0.129 NA 
HETATM    6  C   UNL     1     -11.094   6.124  67.648  1.00  0.00    -0.311 C  
HETATM    7  C   UNL     1      -9.477   7.894  66.777  1.00  0.00    -0.201 C  
HETATM    8  C   UNL     1      -8.534   9.462  68.314  1.00  0.00    -0.120 C  
HETATM    9  C   UNL     1      -9.598   9.045  69.364  1.00  0.00    -0.160 C  
HETATM   10  C   UNL     1     -10.575   7.542  67.817  1.00  0.00    -0.206 C  
HETATM   11  C   UNL     1      -9.025   9.109  70.774  1.00  0.00    -0.296 C  
HETATM   12  O   UNL     1     -10.055   7.695  69.146  1.00  0.00    -0.183 OA 
ENDBRANCH   3   5
BRANCH   4  13
HETATM   13  C   UNL     1     -11.542  12.819  66.605  1.00  0.00    -0.430 A  
HETATM   14  C   UNL     1     -12.008  12.549  68.977  1.00  0.00    -0.280 A  
HETATM   15  C   UNL     1     -12.074  13.941  69.166  1.00  0.00    -0.377 A  
HETATM   16  C   UNL     1     -11.946  14.749  68.024  1.00  0.00    -0.261 A  
HETATM   17  C   UNL     1     -11.674  14.199  66.765  1.00  0.00    -0.432 A  
HETATM   18  C   UNL     1     -11.764  11.993  67.713  1.00  0.00    -0.379 A  
BRANCH  15  19
HETATM   19  C   UNL     1     -12.247  14.533  70.578  1.00  0.00    -0.399 C  
HETATM   20  C   UNL     1     -11.061  15.419  71.024  1.00  0.00    -0.377 C  
HETATM   21  C   UNL     1     -13.501  15.445  70.595  1.00  0.00    -0.213 C  
BRANCH  19  22
HETATM   22  C   UNL     1     -12.464  13.408  71.642  1.00  0.00    -0.189 C  
HETATM   23  C   UNL     1     -13.871  13.314  72.223  1.00  0.00    -0.637 C  
ENDBRANCH  19  22
ENDBRANCH  15  19
ENDBRANCH   4  13
TORSDOF 4
ENDMDL
MODEL       57
REMARK 921   NORMALIZED FREE ENERGY PREDICTED BY IDOCK:   -5.30 KCAL/MOL
REMARK 922        TOTAL FREE ENERGY PREDICTED BY IDOCK:   -6.84 KCAL/MOL
REMARK 923 INTER-LIGAND FREE ENERGY PREDICTED BY IDOCK:   -5.97 KCAL/MOL
REMARK 924 INTRA-LIGAND FREE ENERGY PREDICTED BY IDOCK:   -0.87 KCAL/MOL
REMARK 927      BINDING AFFINITY PREDICTED BY RF-SCORE:    0.00 PKD
ROOT
HETATM    1  C   UNL     1      -9.758   5.480  69.704  1.00  0.00    -0.230 C  
HETATM    2  C   UNL     1      -9.714   3.988  70.035  1.00  0.00    -0.264 C  
HETATM    3  C   UNL     1     -11.134   6.104  70.041  1.00  0.00    -0.392 C  
HETATM    4  C   UNL     1      -9.428   5.692  68.195  1.00  0.00    -0.125 C  
ENDROOT
BRANCH   3   5
HETATM    5  N   UNL     1     -11.637   6.101  71.426  1.00  0.00    -0.266 NA 
HETATM    6  C   UNL     1     -13.094   9.705  71.602  1.00  0.00    -0.503 C  
HETATM    7  C   UNL     1     -12.651   7.193  71.572  1.00  0.00    -0.390 C  
HETATM    8  C   UNL     1     -10.585   6.367  72.443  1.00  0.00    -0.213 C  
HETATM    9  C   UNL     1     -10.016   7.810  72.412  1.00  0.00    -0.214 C  
HETATM   10  C   UNL     1     -12.039   8.617  71.483  1.00  0.00    -0.316 C  
HETATM   11  C   UNL     1      -9.054   8.041  73.571  1.00  0.00    -0.327 C  
HETATM   12  O   UNL     1     -11.064   8.794  72.522  1.00  0.00    -0.266 OA 
ENDBRANCH   3   5
BRANCH   4  13
HETATM   13  C   UNL     1      -9.461   7.146  67.782  1.00  0.00    -0.136 A  
HETATM   14  C   UNL     1     -10.638   9.007  66.748  1.00  0.00    -0.201 A  
HETATM   15  C   UNL     1      -9.787   9.943  67.362  1.00  0.00    -0.223 A  
HETATM   16  C   UNL     1      -8.723   9.435  68.127  1.00  0.00    -0.124 A  
HETATM   17  C   UNL     1      -8.567   8.060  68.342  1.00  0.00    -0.127 A  
HETATM   18  C   UNL     1     -10.468   7.628  66.938  1.00  0.00    -0.388 A  
BRANCH  15  19
HETATM   19  C   UNL     1     -10.050  11.454  67.218  1.00  0.00    -0.218 C  
HETATM   20  C   UNL     1     -10.821  12.062  68.412  1.00  0.00    -0.266 C  
HETATM   21  C   UNL     1      -8.691  12.200  67.153  1.00  0.00    -0.190 C  
BRANCH  19  22
HETATM   22  C   UNL     1     -10.829  11.771  65.901  1.00  0.00    -0.339 C  
HETATM   23  C   UNL     1     -10.042  12.530  64.837  1.00  0.00    -0.249 C  
ENDBRANCH  19  22
ENDBRANCH  15  19
ENDBRANCH   4  13
TORSDOF 4
ENDMDL
MODEL       58
REMARK 921   NORMALIZED FREE ENERGY PREDICTED BY IDOCK:   -5.29 KCAL/MOL
REMARK 922        TOTAL FREE ENERGY PREDICTED BY IDOCK:   -6.83 KCAL/MOL
REMARK 923 INTER-LIGAND FREE ENERGY PREDICTED BY IDOCK:   -6.45 KCAL/MOL
REMARK 924 INTRA-LIGAND FREE ENERGY PREDICTED BY IDOCK:   -0.38 KCAL/MOL
REMARK 927      BINDING AFFINITY PREDICTED BY RF-SCORE:    0.00 PKD
ROOT
HETATM    1  C   UNL     1      -9.705   6.603  69.150  1.00  0.00    -0.148 C  
HETATM    2  C   UNL     1      -9.137   5.183  69.177  1.00  0.00    -0.135 C  
HETATM    3  C   UNL     1     -11.200   6.633  69.548  1.00  0.00    -0.326 C  
HETATM    4  C   UNL     1      -9.516   7.214  67.728  1.00  0.00    -0.136 C  
ENDROOT
BRANCH   3   5
HETATM    5  N   UNL     1     -11.627   6.179  70.884  1.00  0.00    -0.266 NA 
HETATM    6  C   UNL     1     -13.524   9.358  72.083  1.00  0.00    -0.543 C  
HETATM    7  C   UNL     1     -12.764   7.038  71.344  1.00  0.00    -0.374 C  
HETATM    8  C   UNL     1     -10.567   6.296  71.921  1.00  0.00    -0.219 C  
HETATM    9  C   UNL     1     -10.191   7.756  72.288  1.00  0.00    -0.228 C  
HETATM   10  C   UNL     1     -12.346   8.501  71.650  1.00  0.00    -0.326 C  
HETATM   11  C   UNL     1      -9.208   7.788  73.452  1.00  0.00    -0.344 C  
HETATM   12  O   UNL     1     -11.349   8.517  72.684  1.00  0.00    -0.343 OA 
ENDBRANCH   3   5
BRANCH   4  13
HETATM   13  C   UNL     1     -10.063   8.619  67.612  1.00  0.00    -0.271 A  
HETATM   14  C   UNL     1     -10.414  10.821  68.586  1.00  0.00    -0.213 A  
HETATM   15  C   UNL     1     -10.668  11.386  67.323  1.00  0.00    -0.283 A  
HETATM   16  C   UNL     1     -10.688  10.512  66.223  1.00  0.00    -0.139 A  
HETATM   17  C   UNL     1     -10.381   9.153  66.362  1.00  0.00    -0.235 A  
HETATM   18  C   UNL     1     -10.134   9.455  68.733  1.00  0.00    -0.208 A  
BRANCH  15  19
HETATM   19  C   UNL     1     -10.878  12.905  67.173  1.00  0.00    -0.278 C  
HETATM   20  C   UNL     1     -11.947  13.477  68.131  1.00  0.00    -0.376 C  
HETATM   21  C   UNL     1      -9.553  13.635  67.514  1.00  0.00    -0.220 C  
BRANCH  19  22
HETATM   22  C   UNL     1     -11.262  13.281  65.705  1.00  0.00    -0.313 C  
HETATM   23  C   UNL     1     -12.676  13.819  65.512  1.00  0.00    -0.530 C  
ENDBRANCH  19  22
ENDBRANCH  15  19
ENDBRANCH   4  13
TORSDOF 4
ENDMDL
MODEL       59
REMARK 921   NORMALIZED FREE ENERGY PREDICTED BY IDOCK:   -5.24 KCAL/MOL
REMARK 922        TOTAL FREE ENERGY PREDICTED BY IDOCK:   -6.77 KCAL/MOL
REMARK 923 INTER-LIGAND FREE ENERGY PREDICTED BY IDOCK:   -6.21 KCAL/MOL
REMARK 924 INTRA-LIGAND FREE ENERGY PREDICTED BY IDOCK:   -0.56 KCAL/MOL
REMARK 927      BINDING AFFINITY PREDICTED BY RF-SCORE:    0.00 PKD
ROOT
HETATM    1  C   UNL     1     -11.619  12.555  64.537  1.00  0.00    -0.406 C  
HETATM    2  C   UNL     1     -12.243  13.193  63.294  1.00  0.00    -0.438 C  
HETATM    3  C   UNL     1     -10.644  13.521  65.252  1.00  0.00    -0.328 C  
HETATM    4  C   UNL     1     -10.877  11.244  64.134  1.00  0.00    -0.407 C  
ENDROOT
BRANCH   3   5
HETATM    5  N   UNL     1     -11.127  14.802  65.798  1.00  0.00    -0.331 NA 
HETATM    6  C   UNL     1      -7.860  16.066  67.493  1.00  0.00    -0.170 C  
HETATM    7  C   UNL     1      -9.947  15.681  66.079  1.00  0.00    -0.333 C  
HETATM    8  C   UNL     1     -11.861  14.663  67.084  1.00  0.00    -0.345 C  
HETATM    9  C   UNL     1     -10.977  14.226  68.282  1.00  0.00    -0.247 C  
HETATM   10  C   UNL     1      -9.067  15.173  67.252  1.00  0.00    -0.198 C  
HETATM   11  C   UNL     1     -11.772  14.247  69.581  1.00  0.00    -0.362 C  
HETATM   12  O   UNL     1      -9.849  15.107  68.454  1.00  0.00    -0.213 OA 
ENDBRANCH   3   5
BRANCH   4  13
HETATM   13  C   UNL     1     -10.221  10.554  65.309  1.00  0.00    -0.352 A  
HETATM   14  C   UNL     1     -10.167  10.060  67.690  1.00  0.00    -0.249 A  
HETATM   15  C   UNL     1      -9.318   8.958  67.486  1.00  0.00    -0.160 A  
HETATM   16  C   UNL     1      -8.872   8.727  66.174  1.00  0.00    -0.201 A  
HETATM   17  C   UNL     1      -9.323   9.506  65.100  1.00  0.00    -0.316 A  
HETATM   18  C   UNL     1     -10.598  10.859  66.622  1.00  0.00    -0.305 A  
BRANCH  15  19
HETATM   19  C   UNL     1      -8.934   8.037  68.660  1.00  0.00    -0.134 C  
HETATM   20  C   UNL     1      -8.971   6.533  68.301  1.00  0.00    -0.121 C  
HETATM   21  C   UNL     1      -7.476   8.345  69.090  1.00  0.00    -0.089 C  
BRANCH  19  22
HETATM   22  C   UNL     1      -9.856   8.282  69.898  1.00  0.00    -0.186 C  
HETATM   23  C   UNL     1      -9.168   8.875  71.124  1.00  0.00    -0.324 C  
ENDBRANCH  19  22
ENDBRANCH  15  19
ENDBRANCH   4  13
TORSDOF 4
ENDMDL
MODEL       60
REMARK 921   NORMALIZED FREE ENERGY PREDICTED BY IDOCK:   -5.21 KCAL/MOL
REMARK 922        TOTAL FREE ENERGY PREDICTED BY IDOCK:   -6.74 KCAL/MOL
REMARK 923 INTER-LIGAND FREE ENERGY PREDICTED BY IDOCK:   -6.07 KCAL/MOL
REMARK 924 INTRA-LIGAND FREE ENERGY PREDICTED BY IDOCK:   -0.67 KCAL/MOL
REMARK 927      BINDING AFFINITY PREDICTED BY RF-SCORE:    0.00 PKD
ROOT
HETATM    1  C   UNL     1     -12.910  13.299  71.086  1.00  0.00    -0.363 C  
HETATM    2  C   UNL     1     -13.577  12.680  72.315  1.00  0.00    -0.508 C  
HETATM    3  C   UNL     1     -11.920  12.318  70.413  1.00  0.00    -0.263 C  
HETATM    4  C   UNL     1     -12.171  14.609  71.497  1.00  0.00    -0.416 C  
ENDROOT
BRANCH   3   5
HETATM    5  N   UNL     1     -12.397  11.034  69.866  1.00  0.00    -0.314 NA 
HETATM    6  C   UNL     1     -10.256   8.580  71.997  1.00  0.00    -0.391 C  
HETATM    7  C   UNL     1     -12.075   9.947  70.845  1.00  0.00    -0.341 C  
HETATM    8  C   UNL     1     -11.744  10.652  68.586  1.00  0.00    -0.158 C  
HETATM    9  C   UNL     1     -10.239  10.298  68.715  1.00  0.00    -0.192 C  
HETATM   10  C   UNL     1     -10.555   9.666  70.975  1.00  0.00    -0.292 C  
HETATM   11  C   UNL     1      -9.686   9.783  67.393  1.00  0.00    -0.202 C  
HETATM   12  O   UNL     1     -10.021   9.270  69.702  1.00  0.00    -0.175 OA 
ENDBRANCH   3   5
BRANCH   4  13
HETATM   13  C   UNL     1     -11.472  15.281  70.336  1.00  0.00    -0.330 A  
HETATM   14  C   UNL     1      -9.438  15.703  69.071  1.00  0.00    -0.243 A  
HETATM   15  C   UNL     1     -10.172  16.142  67.955  1.00  0.00    -0.261 A  
HETATM   16  C   UNL     1     -11.568  16.213  68.094  1.00  0.00    -0.133 A  
HETATM   17  C   UNL     1     -12.210  15.780  69.261  1.00  0.00    -0.120 A  
HETATM   18  C   UNL     1     -10.075  15.295  70.251  1.00  0.00    -0.020 A  
BRANCH  15  19
HETATM   19  C   UNL     1      -9.457  16.493  66.636  1.00  0.00    -0.278 C  
HETATM   20  C   UNL     1      -9.871  17.866  66.056  1.00  0.00    -0.180 C  
HETATM   21  C   UNL     1      -7.930  16.574  66.894  1.00  0.00    -0.260 C  
BRANCH  19  22
HETATM   22  C   UNL     1      -9.697  15.394  65.551  1.00  0.00    -0.318 C  
HETATM   23  C   UNL     1     -10.164  14.041  66.078  1.00  0.00    -0.313 C  
ENDBRANCH  19  22
ENDBRANCH  15  19
ENDBRANCH   4  13
TORSDOF 4
ENDMDL
MODEL       61
REMARK 921   NORMALIZED FREE ENERGY PREDICTED BY IDOCK:   -5.21 KCAL/MOL
REMARK 922        TOTAL FREE ENERGY PREDICTED BY IDOCK:   -6.74 KCAL/MOL
REMARK 923 INTER-LIGAND FREE ENERGY PREDICTED BY IDOCK:   -6.36 KCAL/MOL
REMARK 924 INTRA-LIGAND FREE ENERGY PREDICTED BY IDOCK:   -0.37 KCAL/MOL
REMARK 927      BINDING AFFINITY PREDICTED BY RF-SCORE:    0.00 PKD
ROOT
HETATM    1  C   UNL     1      -8.579   8.928  69.234  1.00  0.00    -0.133 C  
HETATM    2  C   UNL     1      -7.998   7.575  69.647  1.00  0.00    -0.125 C  
HETATM    3  C   UNL     1      -9.995   9.149  69.818  1.00  0.00    -0.193 C  
HETATM    4  C   UNL     1      -8.618   9.027  67.679  1.00  0.00    -0.120 C  
ENDROOT
BRANCH   3   5
HETATM    5  N   UNL     1     -10.206   9.178  71.277  1.00  0.00    -0.312 NA 
HETATM    6  C   UNL     1     -10.781   5.385  71.931  1.00  0.00    -0.275 C  
HETATM    7  C   UNL     1      -9.975   7.802  71.823  1.00  0.00    -0.175 C  
HETATM    8  C   UNL     1     -11.587   9.559  71.673  1.00  0.00    -0.381 C  
HETATM    9  C   UNL     1     -12.670   8.509  71.309  1.00  0.00    -0.201 C  
HETATM   10  C   UNL     1     -11.057   6.778  71.389  1.00  0.00    -0.254 C  
HETATM   11  C   UNL     1     -14.027   8.910  71.874  1.00  0.00    -0.476 C  
HETATM   12  O   UNL     1     -12.348   7.210  71.845  1.00  0.00    -0.315 OA 
ENDBRANCH   3   5
BRANCH   4  13
HETATM   13  C   UNL     1      -9.192  10.336  67.186  1.00  0.00    -0.163 A  
HETATM   14  C   UNL     1     -11.073  11.605  66.307  1.00  0.00    -0.345 A  
HETATM   15  C   UNL     1     -10.469  12.826  66.659  1.00  0.00    -0.270 A  
HETATM   16  C   UNL     1      -9.177  12.766  67.208  1.00  0.00    -0.203 A  
HETATM   17  C   UNL     1      -8.551  11.542  67.477  1.00  0.00    -0.143 A  
HETATM   18  C   UNL     1     -10.437  10.379  66.549  1.00  0.00    -0.262 A  
BRANCH  15  19
HETATM   19  C   UNL     1     -11.225  14.156  66.474  1.00  0.00    -0.333 C  
HETATM   20  C   UNL     1     -10.501  15.150  65.537  1.00  0.00    -0.400 C  
HETATM   21  C   UNL     1     -12.602  13.868  65.822  1.00  0.00    -0.533 C  
BRANCH  19  22
HETATM   22  C   UNL     1     -11.486  14.855  67.847  1.00  0.00    -0.357 C  
HETATM   23  C   UNL     1     -12.036  13.955  68.950  1.00  0.00    -0.393 C  
ENDBRANCH  19  22
ENDBRANCH  15  19
ENDBRANCH   4  13
TORSDOF 4
ENDMDL
MODEL       62
REMARK 921   NORMALIZED FREE ENERGY PREDICTED BY IDOCK:   -5.19 KCAL/MOL
REMARK 922        TOTAL FREE ENERGY PREDICTED BY IDOCK:   -6.71 KCAL/MOL
REMARK 923 INTER-LIGAND FREE ENERGY PREDICTED BY IDOCK:   -6.31 KCAL/MOL
REMARK 924 INTRA-LIGAND FREE ENERGY PREDICTED BY IDOCK:   -0.41 KCAL/MOL
REMARK 927      BINDING AFFINITY PREDICTED BY RF-SCORE:    0.00 PKD
ROOT
HETATM    1  C   UNL     1     -10.267   9.955  65.845  1.00  0.00    -0.264 C  
HETATM    2  C   UNL     1      -9.794  10.503  64.498  1.00  0.00    -0.401 C  
HETATM    3  C   UNL     1     -10.528  11.088  66.868  1.00  0.00    -0.246 C  
HETATM    4  C   UNL     1      -9.206   8.959  66.406  1.00  0.00    -0.240 C  
ENDROOT
BRANCH   3   5
HETATM    5  N   UNL     1     -11.550  12.115  66.599  1.00  0.00    -0.483 NA 
HETATM    6  C   UNL     1      -9.245  15.198  66.026  1.00  0.00    -0.273 C  
HETATM    7  C   UNL     1     -10.902  13.263  65.889  1.00  0.00    -0.277 C  
HETATM    8  C   UNL     1     -12.167  12.678  67.830  1.00  0.00     0.122 C  
HETATM    9  C   UNL     1     -11.206  13.536  68.693  1.00  0.00    -0.278 C  
HETATM   10  C   UNL     1      -9.911  14.059  66.781  1.00  0.00    -0.268 C  
HETATM   11  C   UNL     1     -11.950  14.188  69.851  1.00  0.00    -0.398 C  
HETATM   12  O   UNL     1     -10.602  14.593  67.920  1.00  0.00    -0.240 OA 
ENDBRANCH   3   5
BRANCH   4  13
HETATM   13  C   UNL     1      -9.594   8.379  67.747  1.00  0.00    -0.185 A  
HETATM   14  C   UNL     1      -9.804   8.623  70.159  1.00  0.00    -0.191 A  
HETATM   15  C   UNL     1     -10.693   7.536  70.235  1.00  0.00    -0.247 A  
HETATM   16  C   UNL     1     -10.952   6.836  69.044  1.00  0.00    -0.281 A  
HETATM   17  C   UNL     1     -10.420   7.255  67.818  1.00  0.00    -0.292 A  
HETATM   18  C   UNL     1      -9.247   9.028  68.937  1.00  0.00    -0.140 A  
BRANCH  15  19
HETATM   19  C   UNL     1     -11.368   7.168  71.570  1.00  0.00    -0.285 C  
HETATM   20  C   UNL     1     -12.899   7.382  71.566  1.00  0.00    -0.416 C  
HETATM   21  C   UNL     1     -11.141   5.660  71.853  1.00  0.00    -0.278 C  
BRANCH  19  22
HETATM   22  C   UNL     1     -10.749   7.972  72.759  1.00  0.00    -0.431 C  
HETATM   23  C   UNL     1      -9.679   7.240  73.563  1.00  0.00    -0.315 C  
ENDBRANCH  19  22
ENDBRANCH  15  19
ENDBRANCH   4  13
TORSDOF 4
ENDMDL
MODEL       63
REMARK 921   NORMALIZED FREE ENERGY PREDICTED BY IDOCK:   -5.17 KCAL/MOL
REMARK 922        TOTAL FREE ENERGY PREDICTED BY IDOCK:   -6.68 KCAL/MOL
REMARK 923 INTER-LIGAND FREE ENERGY PREDICTED BY IDOCK:   -5.74 KCAL/MOL
REMARK 924 INTRA-LIGAND FREE ENERGY PREDICTED BY IDOCK:   -0.94 KCAL/MOL
REMARK 927      BINDING AFFINITY PREDICTED BY RF-SCORE:    0.00 PKD
ROOT
HETATM    1  C   UNL     1     -11.914  11.474  70.585  1.00  0.00    -0.391 C  
HETATM    2  C   UNL     1     -12.835  12.579  71.105  1.00  0.00    -0.303 C  
HETATM    3  C   UNL     1     -11.982  11.346  69.044  1.00  0.00    -0.320 C  
HETATM    4  C   UNL     1     -12.294  10.118  71.253  1.00  0.00    -0.501 C  
ENDROOT
BRANCH   3   5
HETATM    5  N   UNL     1     -11.591  12.477  68.182  1.00  0.00    -0.319 NA 
HETATM    6  C   UNL     1     -10.279  10.518  65.086  1.00  0.00    -0.358 C  
HETATM    7  C   UNL     1     -11.504  11.994  66.767  1.00  0.00    -0.345 C  
HETATM    8  C   UNL     1     -10.258  13.047  68.514  1.00  0.00    -0.215 C  
HETATM    9  C   UNL     1      -9.065  12.105  68.205  1.00  0.00    -0.196 C  
HETATM   10  C   UNL     1     -10.325  11.016  66.522  1.00  0.00    -0.245 C  
HETATM   11  C   UNL     1      -7.737  12.814  68.437  1.00  0.00    -0.132 C  
HETATM   12  O   UNL     1      -9.082  11.663  66.833  1.00  0.00    -0.176 OA 
ENDBRANCH   3   5
BRANCH   4  13
HETATM   13  C   UNL     1     -11.434   8.967  70.783  1.00  0.00    -0.331 A  
HETATM   14  C   UNL     1      -9.228   8.020  70.390  1.00  0.00    -0.155 A  
HETATM   15  C   UNL     1      -9.751   6.716  70.331  1.00  0.00    -0.186 A  
HETATM   16  C   UNL     1     -11.146   6.581  70.425  1.00  0.00    -0.389 A  
HETATM   17  C   UNL     1     -11.975   7.686  70.658  1.00  0.00    -0.122 A  
HETATM   18  C   UNL     1     -10.057   9.132  70.593  1.00  0.00    -0.307 A  
BRANCH  15  19
HETATM   19  C   UNL     1      -8.813   5.500  70.204  1.00  0.00    -0.147 C  
HETATM   20  C   UNL     1      -7.963   5.242  71.469  1.00  0.00    -0.114 C  
HETATM   21  C   UNL     1      -9.666   4.224  69.984  1.00  0.00    -0.287 C  
BRANCH  19  22
HETATM   22  C   UNL     1      -7.857   5.649  68.976  1.00  0.00    -0.096 C  
HETATM   23  C   UNL     1      -8.524   5.563  67.607  1.00  0.00    -0.102 C  
ENDBRANCH  19  22
ENDBRANCH  15  19
ENDBRANCH   4  13
TORSDOF 4
ENDMDL
MODEL       64
REMARK 921   NORMALIZED FREE ENERGY PREDICTED BY IDOCK:   -5.17 KCAL/MOL
REMARK 922        TOTAL FREE ENERGY PREDICTED BY IDOCK:   -6.68 KCAL/MOL
REMARK 923 INTER-LIGAND FREE ENERGY PREDICTED BY IDOCK:   -5.74 KCAL/MOL
REMARK 924 INTRA-LIGAND FREE ENERGY PREDICTED BY IDOCK:   -0.94 KCAL/MOL
REMARK 927      BINDING AFFINITY PREDICTED BY RF-SCORE:    0.00 PKD
ROOT
HETATM    1  C   UNL     1      -7.686  12.981  68.509  1.00  0.00    -0.111 C  
HETATM    2  C   UNL     1      -7.349  11.490  68.444  1.00  0.00    -0.097 C  
HETATM    3  C   UNL     1      -8.987  13.311  67.738  1.00  0.00    -0.196 C  
HETATM    4  C   UNL     1      -6.497  13.811  67.935  1.00  0.00    -0.165 C  
ENDROOT
BRANCH   3   5
HETATM    5  N   UNL     1     -10.269  12.709  68.144  1.00  0.00    -0.233 NA 
HETATM    6  C   UNL     1     -12.591  14.195  65.397  1.00  0.00    -0.485 C  
HETATM    7  C   UNL     1     -11.209  12.747  66.979  1.00  0.00    -0.292 C  
HETATM    8  C   UNL     1     -10.946  13.435  69.252  1.00  0.00    -0.109 C  
HETATM    9  C   UNL     1     -11.469  14.843  68.867  1.00  0.00    -0.299 C  
HETATM   10  C   UNL     1     -11.664  14.182  66.602  1.00  0.00    -0.403 C  
HETATM   11  C   UNL     1     -12.270  15.456  70.010  1.00  0.00    -0.392 C  
HETATM   12  O   UNL     1     -12.336  14.789  67.716  1.00  0.00    -0.105 OA 
ENDBRANCH   3   5
BRANCH   4  13
HETATM   13  C   UNL     1      -6.755  15.300  67.953  1.00  0.00    -0.167 A  
HETATM   14  C   UNL     1      -6.863  17.426  66.775  1.00  0.00    -0.247 A  
HETATM   15  C   UNL     1      -7.634  18.004  67.799  1.00  0.00    -0.220 A  
HETATM   16  C   UNL     1      -7.883  17.215  68.935  1.00  0.00    -0.217 A  
HETATM   17  C   UNL     1      -7.460  15.882  69.008  1.00  0.00    -0.194 A  
HETATM   18  C   UNL     1      -6.413  16.100  66.857  1.00  0.00    -0.006 A  
BRANCH  15  19
HETATM   19  C   UNL     1      -8.199  19.429  67.645  1.00  0.00    -0.329 C  
HETATM   20  C   UNL     1      -7.312  20.517  68.294  1.00  0.00    -0.084 C  
HETATM   21  C   UNL     1      -8.284  19.779  66.137  1.00  0.00    -0.363 C  
BRANCH  19  22
HETATM   22  C   UNL     1      -9.641  19.534  68.239  1.00  0.00    -0.464 C  
HETATM   23  C   UNL     1     -10.762  19.025  67.339  1.00  0.00    -0.559 C  
ENDBRANCH  19  22
ENDBRANCH  15  19
ENDBRANCH   4  13
TORSDOF 4
ENDMDL
MODEL       65
REMARK 921   NORMALIZED FREE ENERGY PREDICTED BY IDOCK:   -5.15 KCAL/MOL
REMARK 922        TOTAL FREE ENERGY PREDICTED BY IDOCK:   -6.66 KCAL/MOL
REMARK 923 INTER-LIGAND FREE ENERGY PREDICTED BY IDOCK:   -5.82 KCAL/MOL
REMARK 924 INTRA-LIGAND FREE ENERGY PREDICTED BY IDOCK:   -0.85 KCAL/MOL
REMARK 927      BINDING AFFINITY PREDICTED BY RF-SCORE:    0.00 PKD
ROOT
HETATM    1  C   UNL     1     -11.488  13.381  65.328  1.00  0.00    -0.318 C  
HETATM    2  C   UNL     1     -12.759  12.816  64.692  1.00  0.00    -0.439 C  
HETATM    3  C   UNL     1     -11.000  12.509  66.510  1.00  0.00    -0.266 C  
HETATM    4  C   UNL     1     -11.749  14.841  65.810  1.00  0.00    -0.252 C  
ENDROOT
BRANCH   3   5
HETATM    5  N   UNL     1     -10.612  11.103  66.291  1.00  0.00    -0.260 NA 
HETATM    6  C   UNL     1     -10.722   9.815  69.962  1.00  0.00    -0.326 C  
HETATM    7  C   UNL     1     -11.042  10.296  67.478  1.00  0.00    -0.232 C  
HETATM    8  C   UNL     1      -9.145  10.903  66.158  1.00  0.00    -0.183 C  
HETATM    9  C   UNL     1      -8.343  11.158  67.461  1.00  0.00    -0.122 C  
HETATM   10  C   UNL     1     -10.244  10.625  68.767  1.00  0.00    -0.190 C  
HETATM   11  C   UNL     1      -6.875  10.794  67.277  1.00  0.00    -0.081 C  
HETATM   12  O   UNL     1      -8.848  10.368  68.556  1.00  0.00    -0.130 OA 
ENDBRANCH   3   5
BRANCH   4  13
HETATM   13  C   UNL     1     -10.541  15.470  66.464  1.00  0.00    -0.307 A  
HETATM   14  C   UNL     1      -8.368  16.547  66.263  1.00  0.00    -0.364 A  
HETATM   15  C   UNL     1      -8.446  17.047  67.575  1.00  0.00    -0.208 A  
HETATM   16  C   UNL     1      -9.564  16.669  68.339  1.00  0.00    -0.233 A  
HETATM   17  C   UNL     1     -10.599  15.901  67.791  1.00  0.00    -0.302 A  
HETATM   18  C   UNL     1      -9.389  15.755  65.720  1.00  0.00    -0.298 A  
BRANCH  15  19
HETATM   19  C   UNL     1      -7.360  17.994  68.119  1.00  0.00    -0.250 C  
HETATM   20  C   UNL     1      -6.411  18.536  67.025  1.00  0.00    -0.198 C  
HETATM   21  C   UNL     1      -8.041  19.233  68.757  1.00  0.00    -0.391 C  
BRANCH  19  22
HETATM   22  C   UNL     1      -6.505  17.299  69.228  1.00  0.00    -0.243 C  
HETATM   23  C   UNL     1      -5.765  18.239  70.175  1.00  0.00    -0.224 C  
ENDBRANCH  19  22
ENDBRANCH  15  19
ENDBRANCH   4  13
TORSDOF 4
ENDMDL
MODEL       66
REMARK 921   NORMALIZED FREE ENERGY PREDICTED BY IDOCK:   -5.12 KCAL/MOL
REMARK 922        TOTAL FREE ENERGY PREDICTED BY IDOCK:   -6.63 KCAL/MOL
REMARK 923 INTER-LIGAND FREE ENERGY PREDICTED BY IDOCK:   -6.23 KCAL/MOL
REMARK 924 INTRA-LIGAND FREE ENERGY PREDICTED BY IDOCK:   -0.40 KCAL/MOL
REMARK 927      BINDING AFFINITY PREDICTED BY RF-SCORE:    0.00 PKD
ROOT
HETATM    1  C   UNL     1      -9.117  10.083  65.056  1.00  0.00    -0.255 C  
HETATM    2  C   UNL     1      -8.481  10.297  63.681  1.00  0.00    -0.183 C  
HETATM    3  C   UNL     1      -8.833  11.267  66.012  1.00  0.00    -0.184 C  
HETATM    4  C   UNL     1      -8.588   8.754  65.676  1.00  0.00    -0.195 C  
ENDROOT
BRANCH   3   5
HETATM    5  N   UNL     1      -9.307  12.624  65.683  1.00  0.00     0.031 NA 
HETATM    6  C   UNL     1     -12.010  13.061  68.448  1.00  0.00    -0.309 C  
HETATM    7  C   UNL     1     -10.002  13.193  66.881  1.00  0.00    -0.245 C  
HETATM    8  C   UNL     1     -10.294  12.657  64.571  1.00  0.00    -0.344 C  
HETATM    9  C   UNL     1     -11.664  12.015  64.912  1.00  0.00    -0.258 C  
HETATM   10  C   UNL     1     -11.342  12.484  67.210  1.00  0.00    -0.315 C  
HETATM   11  C   UNL     1     -12.658  12.218  63.775  1.00  0.00    -0.577 C  
HETATM   12  O   UNL     1     -12.241  12.599  66.097  1.00  0.00    -0.568 OA 
ENDBRANCH   3   5
BRANCH   4  13
HETATM   13  C   UNL     1      -9.162   8.473  67.046  1.00  0.00    -0.187 A  
HETATM   14  C   UNL     1      -8.830   8.145  69.434  1.00  0.00    -0.143 A  
HETATM   15  C   UNL     1     -10.190   8.382  69.699  1.00  0.00    -0.209 A  
HETATM   16  C   UNL     1     -11.032   8.587  68.593  1.00  0.00     0.131 A  
HETATM   17  C   UNL     1     -10.526   8.642  67.288  1.00  0.00    -0.360 A  
HETATM   18  C   UNL     1      -8.324   8.170  68.126  1.00  0.00    -0.129 A  
BRANCH  15  19
HETATM   19  C   UNL     1     -10.706   8.445  71.150  1.00  0.00    -0.280 C  
HETATM   20  C   UNL     1     -11.559   7.221  71.553  1.00  0.00    -0.306 C  
HETATM   21  C   UNL     1      -9.494   8.468  72.117  1.00  0.00    -0.375 C  
BRANCH  19  22
HETATM   22  C   UNL     1     -11.538   9.744  71.400  1.00  0.00    -0.452 C  
HETATM   23  C   UNL     1     -12.944   9.530  71.950  1.00  0.00    -0.514 C  
ENDBRANCH  19  22
ENDBRANCH  15  19
ENDBRANCH   4  13
TORSDOF 4
ENDMDL
MODEL       67
REMARK 921   NORMALIZED FREE ENERGY PREDICTED BY IDOCK:   -5.11 KCAL/MOL
REMARK 922        TOTAL FREE ENERGY PREDICTED BY IDOCK:   -6.61 KCAL/MOL
REMARK 923 INTER-LIGAND FREE ENERGY PREDICTED BY IDOCK:   -5.94 KCAL/MOL
REMARK 924 INTRA-LIGAND FREE ENERGY PREDICTED BY IDOCK:   -0.67 KCAL/MOL
REMARK 927      BINDING AFFINITY PREDICTED BY RF-SCORE:    0.00 PKD
ROOT
HETATM    1  C   UNL     1     -12.043  10.574  71.290  1.00  0.00    -0.432 C  
HETATM    2  C   UNL     1     -12.879  11.855  71.278  1.00  0.00    -0.391 C  
HETATM    3  C   UNL     1     -11.284  10.370  69.956  1.00  0.00    -0.316 C  
HETATM    4  C   UNL     1     -12.966   9.350  71.574  1.00  0.00    -0.449 C  
ENDROOT
BRANCH   3   5
HETATM    5  N   UNL     1     -10.289  11.360  69.504  1.00  0.00     0.047 NA 
HETATM    6  C   UNL     1     -11.966  12.507  66.186  1.00  0.00    -0.432 C  
HETATM    7  C   UNL     1     -10.936  12.270  68.507  1.00  0.00    -0.240 C  
HETATM    8  C   UNL     1      -9.115  10.755  68.820  1.00  0.00    -0.178 C  
HETATM    9  C   UNL     1      -9.436  10.113  67.445  1.00  0.00    -0.153 C  
HETATM   10  C   UNL     1     -11.283  11.568  67.167  1.00  0.00    -0.301 C  
HETATM   11  C   UNL     1      -8.162   9.648  66.751  1.00  0.00    -0.113 C  
HETATM   12  O   UNL     1     -10.087  11.050  66.564  1.00  0.00    -0.211 OA 
ENDBRANCH   3   5
BRANCH   4  13
HETATM   13  C   UNL     1     -12.216   8.038  71.591  1.00  0.00    -0.340 A  
HETATM   14  C   UNL     1     -11.360   6.094  70.405  1.00  0.00    -0.399 A  
HETATM   15  C   UNL     1     -10.464   5.798  71.447  1.00  0.00    -0.296 A  
HETATM   16  C   UNL     1     -10.527   6.607  72.594  1.00  0.00    -0.237 A  
HETATM   17  C   UNL     1     -11.381   7.715  72.663  1.00  0.00    -0.423 A  
HETATM   18  C   UNL     1     -12.237   7.185  70.481  1.00  0.00    -0.173 A  
BRANCH  15  19
HETATM   19  C   UNL     1      -9.443   4.653  71.302  1.00  0.00    -0.221 C  
HETATM   20  C   UNL     1      -7.976   5.111  71.472  1.00  0.00    -0.113 C  
HETATM   21  C   UNL     1      -9.701   3.601  72.412  1.00  0.00    -0.215 C  
BRANCH  19  22
HETATM   22  C   UNL     1      -9.591   3.934  69.922  1.00  0.00    -0.270 C  
HETATM   23  C   UNL     1      -8.298   3.756  69.131  1.00  0.00    -0.087 C  
ENDBRANCH  19  22
ENDBRANCH  15  19
ENDBRANCH   4  13
TORSDOF 4
ENDMDL
MODEL       68
REMARK 921   NORMALIZED FREE ENERGY PREDICTED BY IDOCK:   -5.10 KCAL/MOL
REMARK 922        TOTAL FREE ENERGY PREDICTED BY IDOCK:   -6.60 KCAL/MOL
REMARK 923 INTER-LIGAND FREE ENERGY PREDICTED BY IDOCK:   -6.62 KCAL/MOL
REMARK 924 INTRA-LIGAND FREE ENERGY PREDICTED BY IDOCK:    0.02 KCAL/MOL
REMARK 927      BINDING AFFINITY PREDICTED BY RF-SCORE:    0.00 PKD
ROOT
HETATM    1  C   UNL     1     -11.393   8.641  71.019  1.00  0.00    -0.322 C  
HETATM    2  C   UNL     1     -11.177   8.265  72.486  1.00  0.00    -0.446 C  
HETATM    3  C   UNL     1     -10.523   7.782  70.070  1.00  0.00    -0.230 C  
HETATM    4  C   UNL     1     -11.076  10.154  70.815  1.00  0.00    -0.372 C  
ENDROOT
BRANCH   3   5
HETATM    5  N   UNL     1     -10.694   6.319  70.020  1.00  0.00    -0.255 NA 
HETATM    6  C   UNL     1      -6.961   5.230  69.849  1.00  0.00    -0.057 C  
HETATM    7  C   UNL     1      -9.406   5.671  70.428  1.00  0.00    -0.160 C  
HETATM    8  C   UNL     1     -11.012   5.801  68.663  1.00  0.00    -0.126 C  
HETATM    9  C   UNL     1      -9.852   5.928  67.641  1.00  0.00    -0.121 C  
HETATM   10  C   UNL     1      -8.264   5.870  69.396  1.00  0.00    -0.113 C  
HETATM   11  C   UNL     1     -10.210   5.249  66.325  1.00  0.00    -0.263 C  
HETATM   12  O   UNL     1      -8.646   5.309  68.131  1.00  0.00    -0.100 OA 
ENDBRANCH   3   5
BRANCH   4  13
HETATM   13  C   UNL     1     -11.255  10.606  69.384  1.00  0.00    -0.329 A  
HETATM   14  C   UNL     1     -11.801  12.361  67.790  1.00  0.00    -0.362 A  
HETATM   15  C   UNL     1     -11.194  11.654  66.737  1.00  0.00    -0.371 A  
HETATM   16  C   UNL     1     -10.690  10.376  67.032  1.00  0.00    -0.298 A  
HETATM   17  C   UNL     1     -10.711   9.863  68.335  1.00  0.00    -0.271 A  
HETATM   18  C   UNL     1     -11.850  11.839  69.090  1.00  0.00    -0.389 A  
BRANCH  15  19
HETATM   19  C   UNL     1     -11.066  12.287  65.339  1.00  0.00    -0.353 C  
HETATM   20  C   UNL     1     -10.319  11.393  64.323  1.00  0.00    -0.383 C  
HETATM   21  C   UNL     1     -12.485  12.516  64.755  1.00  0.00    -0.532 C  
BRANCH  19  22
HETATM   22  C   UNL     1     -10.352  13.676  65.408  1.00  0.00    -0.345 C  
HETATM   23  C   UNL     1     -11.188  14.869  64.954  1.00  0.00    -0.415 C  
ENDBRANCH  19  22
ENDBRANCH  15  19
ENDBRANCH   4  13
TORSDOF 4
ENDMDL
MODEL       69
REMARK 921   NORMALIZED FREE ENERGY PREDICTED BY IDOCK:   -5.08 KCAL/MOL
REMARK 922        TOTAL FREE ENERGY PREDICTED BY IDOCK:   -6.57 KCAL/MOL
REMARK 923 INTER-LIGAND FREE ENERGY PREDICTED BY IDOCK:   -5.94 KCAL/MOL
REMARK 924 INTRA-LIGAND FREE ENERGY PREDICTED BY IDOCK:   -0.63 KCAL/MOL
REMARK 927      BINDING AFFINITY PREDICTED BY RF-SCORE:    0.00 PKD
ROOT
HETATM    1  C   UNL     1     -11.903  14.430  70.243  1.00  0.00    -0.382 C  
HETATM    2  C   UNL     1     -12.883  15.534  70.645  1.00  0.00    -0.466 C  
HETATM    3  C   UNL     1     -10.807  14.955  69.284  1.00  0.00    -0.266 C  
HETATM    4  C   UNL     1     -12.683  13.256  69.576  1.00  0.00     0.452 C  
ENDROOT
BRANCH   3   5
HETATM    5  N   UNL     1      -9.882  16.017  69.717  1.00  0.00    -0.204 NA 
HETATM    6  C   UNL     1     -10.621  18.683  66.979  1.00  0.00    -0.448 C  
HETATM    7  C   UNL     1     -10.323  17.314  69.111  1.00  0.00    -0.290 C  
HETATM    8  C   UNL     1      -8.479  15.804  69.273  1.00  0.00    -0.258 C  
HETATM    9  C   UNL     1      -8.266  15.928  67.742  1.00  0.00    -0.146 C  
HETATM   10  C   UNL     1     -10.137  17.369  67.571  1.00  0.00    -0.322 C  
HETATM   11  C   UNL     1      -6.786  15.839  67.389  1.00  0.00    -0.228 C  
HETATM   12  O   UNL     1      -8.751  17.190  67.242  1.00  0.00    -0.197 OA 
ENDBRANCH   3   5
BRANCH   4  13
HETATM   13  C   UNL     1     -11.782  12.124  69.137  1.00  0.00    -0.384 A  
HETATM   14  C   UNL     1     -10.700   9.998  69.614  1.00  0.00    -0.282 A  
HETATM   15  C   UNL     1     -10.464   9.762  68.248  1.00  0.00    -0.255 A  
HETATM   16  C   UNL     1     -10.835  10.777  67.350  1.00  0.00    -0.345 A  
HETATM   17  C   UNL     1     -11.493  11.935  67.785  1.00  0.00    -0.389 A  
HETATM   18  C   UNL     1     -11.332  11.169  70.056  1.00  0.00    -0.326 A  
BRANCH  15  19
HETATM   19  C   UNL     1      -9.856   8.427  67.777  1.00  0.00    -0.218 C  
HETATM   20  C   UNL     1      -9.600   8.371  66.253  1.00  0.00    -0.286 C  
HETATM   21  C   UNL     1      -8.476   8.232  68.457  1.00  0.00    -0.126 C  
BRANCH  19  22
HETATM   22  C   UNL     1     -10.760   7.218  68.182  1.00  0.00    -0.191 C  
HETATM   23  C   UNL     1     -11.069   6.224  67.066  1.00  0.00    -0.379 C  
ENDBRANCH  19  22
ENDBRANCH  15  19
ENDBRANCH   4  13
TORSDOF 4
ENDMDL
MODEL       70
REMARK 921   NORMALIZED FREE ENERGY PREDICTED BY IDOCK:   -5.06 KCAL/MOL
REMARK 922        TOTAL FREE ENERGY PREDICTED BY IDOCK:   -6.54 KCAL/MOL
REMARK 923 INTER-LIGAND FREE ENERGY PREDICTED BY IDOCK:   -5.41 KCAL/MOL
REMARK 924 INTRA-LIGAND FREE ENERGY PREDICTED BY IDOCK:   -1.13 KCAL/MOL
REMARK 927      BINDING AFFINITY PREDICTED BY RF-SCORE:    0.00 PKD
ROOT
HETATM    1  C   UNL     1     -11.264  10.708  69.631  1.00  0.00    -0.351 C  
HETATM    2  C   UNL     1     -11.802  11.972  68.959  1.00  0.00    -0.372 C  
HETATM    3  C   UNL     1     -11.033   9.567  68.609  1.00  0.00    -0.072 C  
HETATM    4  C   UNL     1     -12.255  10.242  70.740  1.00  0.00    -0.447 C  
ENDROOT
BRANCH   3   5
HETATM    5  N   UNL     1     -10.073   9.738  67.504  1.00  0.00    -0.184 NA 
HETATM    6  C   UNL     1      -9.741   6.036  66.349  1.00  0.00    -0.158 C  
HETATM    7  C   UNL     1     -10.154   8.540  66.609  1.00  0.00    -0.294 C  
HETATM    8  C   UNL     1      -8.658   9.831  67.952  1.00  0.00    -0.125 C  
HETATM    9  C   UNL     1      -8.087   8.517  68.547  1.00  0.00    -0.122 C  
HETATM   10  C   UNL     1      -9.618   7.241  67.268  1.00  0.00    -0.152 C  
HETATM   11  C   UNL     1      -6.599   8.657  68.846  1.00  0.00    -0.053 C  
HETATM   12  O   UNL     1      -8.240   7.413  67.632  1.00  0.00    -0.116 OA 
ENDBRANCH   3   5
BRANCH   4  13
HETATM   13  C   UNL     1     -11.800   8.986  71.448  1.00  0.00    -0.395 A  
HETATM   14  C   UNL     1     -12.062   6.605  71.874  1.00  0.00    -0.385 A  
HETATM   15  C   UNL     1     -10.757   6.511  72.390  1.00  0.00    -0.253 A  
HETATM   16  C   UNL     1     -10.021   7.703  72.494  1.00  0.00    -0.263 A  
HETATM   17  C   UNL     1     -10.529   8.920  72.022  1.00  0.00    -0.383 A  
HETATM   18  C   UNL     1     -12.585   7.827  71.427  1.00  0.00    -0.339 A  
BRANCH  15  19
HETATM   19  C   UNL     1     -10.168   5.143  72.786  1.00  0.00    -0.222 C  
HETATM   20  C   UNL     1      -8.664   5.198  73.139  1.00  0.00    -0.116 C  
HETATM   21  C   UNL     1     -10.895   4.628  74.056  1.00  0.00    -0.328 C  
BRANCH  19  22
HETATM   22  C   UNL     1     -10.382   4.085  71.655  1.00  0.00    -0.018 C  
HETATM   23  C   UNL     1      -9.550   4.293  70.393  1.00  0.00    -0.265 C  
ENDBRANCH  19  22
ENDBRANCH  15  19
ENDBRANCH   4  13
TORSDOF 4
ENDMDL
MODEL       71
REMARK 921   NORMALIZED FREE ENERGY PREDICTED BY IDOCK:   -5.05 KCAL/MOL
REMARK 922        TOTAL FREE ENERGY PREDICTED BY IDOCK:   -6.54 KCAL/MOL
REMARK 923 INTER-LIGAND FREE ENERGY PREDICTED BY IDOCK:   -5.66 KCAL/MOL
REMARK 924 INTRA-LIGAND FREE ENERGY PREDICTED BY IDOCK:   -0.88 KCAL/MOL
REMARK 927      BINDING AFFINITY PREDICTED BY RF-SCORE:    0.00 PKD
ROOT
HETATM    1  C   UNL     1     -11.662  13.241  69.373  1.00  0.00    -0.383 C  
HETATM    2  C   UNL     1     -12.524  14.157  70.244  1.00  0.00    -0.416 C  
HETATM    3  C   UNL     1     -12.190  13.163  67.920  1.00  0.00    -0.057 C  
HETATM    4  C   UNL     1     -11.610  11.816  70.004  1.00  0.00    -0.318 C  
ENDROOT
BRANCH   3   5
HETATM    5  N   UNL     1     -12.259  14.374  67.084  1.00  0.00    -0.332 NA 
HETATM    6  C   UNL     1     -11.386  12.829  63.620  1.00  0.00    -0.514 C  
HETATM    7  C   UNL     1     -12.429  13.962  65.654  1.00  0.00    -0.505 C  
HETATM    8  C   UNL     1     -11.028  15.207  67.137  1.00  0.00    -0.326 C  
HETATM    9  C   UNL     1      -9.784  14.551  66.482  1.00  0.00    -0.285 C  
HETATM   10  C   UNL     1     -11.175  13.265  65.062  1.00  0.00    -0.305 C  
HETATM   11  C   UNL     1      -8.610  15.522  66.451  1.00  0.00    -0.292 C  
HETATM   12  O   UNL     1     -10.050  14.154  65.122  1.00  0.00    -0.364 OA 
ENDBRANCH   3   5
BRANCH   4  13
HETATM   13  C   UNL     1     -10.783  10.843  69.195  1.00  0.00    -0.265 A  
HETATM   14  C   UNL     1      -8.648   9.763  68.756  1.00  0.00    -0.127 A  
HETATM   15  C   UNL     1      -9.269   8.737  68.023  1.00  0.00    -0.147 A  
HETATM   16  C   UNL     1     -10.656   8.839  67.827  1.00  0.00    -0.256 A  
HETATM   17  C   UNL     1     -11.404   9.869  68.411  1.00  0.00    -0.049 A  
HETATM   18  C   UNL     1      -9.389  10.812  69.319  1.00  0.00    -0.087 A  
BRANCH  15  19
HETATM   19  C   UNL     1      -8.448   7.544  67.496  1.00  0.00    -0.119 C  
HETATM   20  C   UNL     1      -9.236   6.636  66.524  1.00  0.00    -0.183 C  
HETATM   21  C   UNL     1      -7.230   8.079  66.699  1.00  0.00    -0.081 C  
BRANCH  19  22
HETATM   22  C   UNL     1      -7.900   6.670  68.670  1.00  0.00    -0.114 C  
HETATM   23  C   UNL     1      -8.958   6.015  69.553  1.00  0.00    -0.131 C  
ENDBRANCH  19  22
ENDBRANCH  15  19
ENDBRANCH   4  13
TORSDOF 4
ENDMDL
MODEL       72
REMARK 921   NORMALIZED FREE ENERGY PREDICTED BY IDOCK:   -5.04 KCAL/MOL
REMARK 922        TOTAL FREE ENERGY PREDICTED BY IDOCK:   -6.52 KCAL/MOL
REMARK 923 INTER-LIGAND FREE ENERGY PREDICTED BY IDOCK:   -5.65 KCAL/MOL
REMARK 924 INTRA-LIGAND FREE ENERGY PREDICTED BY IDOCK:   -0.87 KCAL/MOL
REMARK 927      BINDING AFFINITY PREDICTED BY RF-SCORE:    0.00 PKD
ROOT
HETATM    1  C   UNL     1      -8.880   6.412  65.961  1.00  0.00    -0.160 C  
HETATM    2  C   UNL     1      -8.141   5.902  64.722  1.00  0.00    -0.132 C  
HETATM    3  C   UNL     1      -8.492   7.871  66.302  1.00  0.00    -0.135 C  
HETATM    4  C   UNL     1      -8.577   5.478  67.172  1.00  0.00    -0.109 C  
ENDROOT
BRANCH   3   5
HETATM    5  N   UNL     1      -8.754   8.958  65.342  1.00  0.00    -0.182 NA 
HETATM    6  C   UNL     1      -6.380  11.687  66.778  1.00  0.00    -0.114 C  
HETATM    7  C   UNL     1      -7.620   9.935  65.400  1.00  0.00    -0.131 C  
HETATM    8  C   UNL     1      -9.989   9.732  65.639  1.00  0.00    -0.282 C  
HETATM    9  C   UNL     1      -9.913  10.585  66.932  1.00  0.00    -0.200 C  
HETATM   10  C   UNL     1      -7.558  10.727  66.733  1.00  0.00    -0.129 C  
HETATM   11  C   UNL     1     -11.157  11.452  67.085  1.00  0.00    -0.366 C  
HETATM   12  O   UNL     1      -8.774  11.468  66.916  1.00  0.00    -0.167 OA 
ENDBRANCH   3   5
BRANCH   4  13
HETATM   13  C   UNL     1      -9.263   5.921  68.444  1.00  0.00    -0.118 A  
HETATM   14  C   UNL     1      -9.245   7.237  70.490  1.00  0.00    -0.158 A  
HETATM   15  C   UNL     1     -10.641   7.135  70.619  1.00  0.00    -0.243 A  
HETATM   16  C   UNL     1     -11.316   6.344  69.674  1.00  0.00    -0.479 A  
HETATM   17  C   UNL     1     -10.641   5.754  68.598  1.00  0.00    -0.305 A  
HETATM   18  C   UNL     1      -8.562   6.624  69.430  1.00  0.00    -0.135 A  
BRANCH  15  19
HETATM   19  C   UNL     1     -11.383   7.896  71.736  1.00  0.00    -0.309 C  
HETATM   20  C   UNL     1     -12.890   7.559  71.815  1.00  0.00    -0.359 C  
HETATM   21  C   UNL     1     -10.776   7.499  73.107  1.00  0.00    -0.452 C  
BRANCH  19  22
HETATM   22  C   UNL     1     -11.219   9.442  71.574  1.00  0.00    -0.457 C  
HETATM   23  C   UNL     1     -12.517  10.242  71.539  1.00  0.00    -0.524 C  
ENDBRANCH  19  22
ENDBRANCH  15  19
ENDBRANCH   4  13
TORSDOF 4
ENDMDL
MODEL       73
REMARK 921   NORMALIZED FREE ENERGY PREDICTED BY IDOCK:   -5.01 KCAL/MOL
REMARK 922        TOTAL FREE ENERGY PREDICTED BY IDOCK:   -6.48 KCAL/MOL
REMARK 923 INTER-LIGAND FREE ENERGY PREDICTED BY IDOCK:   -5.54 KCAL/MOL
REMARK 924 INTRA-LIGAND FREE ENERGY PREDICTED BY IDOCK:   -0.95 KCAL/MOL
REMARK 927      BINDING AFFINITY PREDICTED BY RF-SCORE:    0.00 PKD
ROOT
HETATM    1  C   UNL     1      -7.918  14.811  67.279  1.00  0.00    -0.232 C  
HETATM    2  C   UNL     1      -7.319  16.165  66.895  1.00  0.00    -0.255 C  
HETATM    3  C   UNL     1      -8.893  14.932  68.476  1.00  0.00    -0.174 C  
HETATM    4  C   UNL     1      -6.773  13.809  67.618  1.00  0.00    -0.189 C  
ENDROOT
BRANCH   3   5
HETATM    5  N   UNL     1     -10.104  15.764  68.372  1.00  0.00    -0.219 NA 
HETATM    6  C   UNL     1     -12.446  13.819  70.796  1.00  0.00    -0.441 C  
HETATM    7  C   UNL     1     -10.975  15.497  69.561  1.00  0.00    -0.273 C  
HETATM    8  C   UNL     1     -10.931  15.467  67.172  1.00  0.00    -0.295 C  
HETATM    9  C   UNL     1     -11.615  14.075  67.195  1.00  0.00    -0.372 C  
HETATM   10  C   UNL     1     -11.594  14.074  69.563  1.00  0.00    -0.295 C  
HETATM   11  C   UNL     1     -12.552  13.909  66.005  1.00  0.00    -0.467 C  
HETATM   12  O   UNL     1     -12.401  13.892  68.390  1.00  0.00    -0.261 OA 
ENDBRANCH   3   5
BRANCH   4  13
HETATM   13  C   UNL     1      -7.284  12.444  68.020  1.00  0.00    -0.105 A  
HETATM   14  C   UNL     1      -7.455  10.672  69.678  1.00  0.00    -0.121 A  
HETATM   15  C   UNL     1      -8.553  10.097  69.013  1.00  0.00    -0.156 A  
HETATM   16  C   UNL     1      -8.944  10.684  67.798  1.00  0.00    -0.140 A  
HETATM   17  C   UNL     1      -8.327  11.844  67.313  1.00  0.00    -0.169 A  
HETATM   18  C   UNL     1      -6.817  11.817  69.181  1.00  0.00    -0.106 A  
BRANCH  15  19
HETATM   19  C   UNL     1      -9.300   8.897  69.627  1.00  0.00    -0.163 C  
HETATM   20  C   UNL     1     -10.294   8.226  68.651  1.00  0.00    -0.225 C  
HETATM   21  C   UNL     1      -8.270   7.806  70.017  1.00  0.00    -0.121 C  
BRANCH  19  22
HETATM   22  C   UNL     1     -10.068   9.311  70.924  1.00  0.00    -0.373 C  
HETATM   23  C   UNL     1      -9.697   8.535  72.184  1.00  0.00    -0.387 C  
ENDBRANCH  19  22
ENDBRANCH  15  19
ENDBRANCH   4  13
TORSDOF 4
ENDMDL
MODEL       74
REMARK 921   NORMALIZED FREE ENERGY PREDICTED BY IDOCK:   -4.99 KCAL/MOL
REMARK 922        TOTAL FREE ENERGY PREDICTED BY IDOCK:   -6.46 KCAL/MOL
REMARK 923 INTER-LIGAND FREE ENERGY PREDICTED BY IDOCK:   -5.38 KCAL/MOL
REMARK 924 INTRA-LIGAND FREE ENERGY PREDICTED BY IDOCK:   -1.09 KCAL/MOL
REMARK 927      BINDING AFFINITY PREDICTED BY RF-SCORE:    0.00 PKD
ROOT
HETATM    1  C   UNL     1      -8.736   7.745  66.670  1.00  0.00    -0.151 C  
HETATM    2  C   UNL     1      -8.475   6.269  66.364  1.00  0.00    -0.125 C  
HETATM    3  C   UNL     1      -9.970   7.934  67.585  1.00  0.00    -0.181 C  
HETATM    4  C   UNL     1      -8.931   8.529  65.336  1.00  0.00    -0.150 C  
ENDROOT
BRANCH   3   5
HETATM    5  N   UNL     1      -9.994   7.350  68.938  1.00  0.00    -0.165 NA 
HETATM    6  C   UNL     1     -11.899  10.166  70.832  1.00  0.00    -0.468 C  
HETATM    7  C   UNL     1     -11.075   8.018  69.730  1.00  0.00    -0.064 C  
HETATM    8  C   UNL     1      -8.732   7.554  69.697  1.00  0.00    -0.137 C  
HETATM    9  C   UNL     1      -8.453   9.028  70.091  1.00  0.00    -0.157 C  
HETATM   10  C   UNL     1     -10.772   9.505  70.055  1.00  0.00    -0.243 C  
HETATM   11  C   UNL     1      -7.222   9.129  70.984  1.00  0.00    -0.113 C  
HETATM   12  O   UNL     1      -9.559   9.599  70.818  1.00  0.00    -0.235 OA 
ENDBRANCH   3   5
BRANCH   4  13
HETATM   13  C   UNL     1      -9.205  10.000  65.552  1.00  0.00    -0.247 A  
HETATM   14  C   UNL     1     -10.715  11.901  65.380  1.00  0.00    -0.330 A  
HETATM   15  C   UNL     1      -9.963  12.637  66.313  1.00  0.00    -0.266 A  
HETATM   16  C   UNL     1      -8.780  12.047  66.791  1.00  0.00    -0.192 A  
HETATM   17  C   UNL     1      -8.412  10.746  66.426  1.00  0.00    -0.158 A  
HETATM   18  C   UNL     1     -10.334  10.609  64.990  1.00  0.00    -0.341 A  
BRANCH  15  19
HETATM   19  C   UNL     1     -10.451  14.015  66.800  1.00  0.00    -0.277 C  
HETATM   20  C   UNL     1      -9.453  14.723  67.745  1.00  0.00    -0.204 C  
HETATM   21  C   UNL     1     -10.629  14.950  65.576  1.00  0.00    -0.373 C  
BRANCH  19  22
HETATM   22  C   UNL     1     -11.835  13.904  67.518  1.00  0.00    -0.431 C  
HETATM   23  C   UNL     1     -11.785  13.460  68.977  1.00  0.00    -0.368 C  
ENDBRANCH  19  22
ENDBRANCH  15  19
ENDBRANCH   4  13
TORSDOF 4
ENDMDL
MODEL       75
REMARK 921   NORMALIZED FREE ENERGY PREDICTED BY IDOCK:   -4.93 KCAL/MOL
REMARK 922        TOTAL FREE ENERGY PREDICTED BY IDOCK:   -6.38 KCAL/MOL
REMARK 923 INTER-LIGAND FREE ENERGY PREDICTED BY IDOCK:   -5.43 KCAL/MOL
REMARK 924 INTRA-LIGAND FREE ENERGY PREDICTED BY IDOCK:   -0.95 KCAL/MOL
REMARK 927      BINDING AFFINITY PREDICTED BY RF-SCORE:    0.00 PKD
ROOT
HETATM    1  C   UNL     1      -8.584   5.946  65.828  1.00  0.00    -0.154 C  
HETATM    2  C   UNL     1      -7.838   5.518  64.563  1.00  0.00    -0.109 C  
HETATM    3  C   UNL     1      -7.686   6.787  66.769  1.00  0.00    -0.106 C  
HETATM    4  C   UNL     1      -9.111   4.683  66.576  1.00  0.00    -0.123 C  
ENDROOT
BRANCH   3   5
HETATM    5  N   UNL     1      -7.128   8.073  66.315  1.00  0.00    -0.066 NA 
HETATM    6  C   UNL     1      -7.971  10.280  69.408  1.00  0.00    -0.162 C  
HETATM    7  C   UNL     1      -6.907   8.949  67.510  1.00  0.00    -0.071 C  
HETATM    8  C   UNL     1      -8.029   8.827  65.404  1.00  0.00    -0.112 C  
HETATM    9  C   UNL     1      -9.317   9.366  66.080  1.00  0.00    -0.205 C  
HETATM   10  C   UNL     1      -8.225   9.420  68.180  1.00  0.00    -0.118 C  
HETATM   11  C   UNL     1     -10.110  10.243  65.119  1.00  0.00    -0.355 C  
HETATM   12  O   UNL     1      -9.010  10.167  67.239  1.00  0.00    -0.135 OA 
ENDBRANCH   3   5
BRANCH   4  13
HETATM   13  C   UNL     1      -9.853   5.020  67.849  1.00  0.00    -0.200 A  
HETATM   14  C   UNL     1      -9.997   4.948  70.277  1.00  0.00    -0.321 A  
HETATM   15  C   UNL     1     -10.951   5.981  70.294  1.00  0.00    -0.412 A  
HETATM   16  C   UNL     1     -11.397   6.462  69.051  1.00  0.00    -0.332 A  
HETATM   17  C   UNL     1     -10.851   5.997  67.848  1.00  0.00    -0.378 A  
HETATM   18  C   UNL     1      -9.468   4.460  69.073  1.00  0.00    -0.237 A  
BRANCH  15  19
HETATM   19  C   UNL     1     -11.446   6.568  71.630  1.00  0.00    -0.345 C  
HETATM   20  C   UNL     1     -12.898   7.097  71.570  1.00  0.00    -0.434 C  
HETATM   21  C   UNL     1     -11.434   5.453  72.708  1.00  0.00    -0.333 C  
BRANCH  19  22
HETATM   22  C   UNL     1     -10.510   7.717  72.126  1.00  0.00    -0.287 C  
HETATM   23  C   UNL     1     -10.879   9.119  71.648  1.00  0.00    -0.442 C  
ENDBRANCH  19  22
ENDBRANCH  15  19
ENDBRANCH   4  13
TORSDOF 4
ENDMDL
MODEL       76
REMARK 921   NORMALIZED FREE ENERGY PREDICTED BY IDOCK:   -4.88 KCAL/MOL
REMARK 922        TOTAL FREE ENERGY PREDICTED BY IDOCK:   -6.33 KCAL/MOL
REMARK 923 INTER-LIGAND FREE ENERGY PREDICTED BY IDOCK:   -5.38 KCAL/MOL
REMARK 924 INTRA-LIGAND FREE ENERGY PREDICTED BY IDOCK:   -0.95 KCAL/MOL
REMARK 927      BINDING AFFINITY PREDICTED BY RF-SCORE:    0.00 PKD
ROOT
HETATM    1  C   UNL     1      -8.926  14.948  67.188  1.00  0.00    -0.230 C  
HETATM    2  C   UNL     1      -9.113  16.404  66.761  1.00  0.00    -0.259 C  
HETATM    3  C   UNL     1      -9.833  14.578  68.387  1.00  0.00    -0.227 C  
HETATM    4  C   UNL     1      -7.430  14.697  67.549  1.00  0.00    -0.217 C  
ENDROOT
BRANCH   3   5
HETATM    5  N   UNL     1     -11.300  14.657  68.266  1.00  0.00    -0.283 NA 
HETATM    6  C   UNL     1     -12.265  11.188  69.743  1.00  0.00    -0.369 C  
HETATM    7  C   UNL     1     -11.912  13.654  69.195  1.00  0.00    -0.351 C  
HETATM    8  C   UNL     1     -11.805  14.331  66.906  1.00  0.00    -0.433 C  
HETATM    9  C   UNL     1     -11.623  12.847  66.494  1.00  0.00    -0.371 C  
HETATM   10  C   UNL     1     -11.660  12.184  68.767  1.00  0.00    -0.327 C  
HETATM   11  C   UNL     1     -12.292  12.568  65.154  1.00  0.00    -0.496 C  
HETATM   12  O   UNL     1     -12.211  11.954  67.462  1.00  0.00    -0.510 OA 
ENDBRANCH   3   5
BRANCH   4  13
HETATM   13  C   UNL     1      -7.161  13.277  67.994  1.00  0.00    -0.121 A  
HETATM   14  C   UNL     1      -6.515  11.712  69.740  1.00  0.00    -0.111 A  
HETATM   15  C   UNL     1      -7.056  10.627  69.028  1.00  0.00    -0.086 A  
HETATM   16  C   UNL     1      -7.578  10.895  67.752  1.00  0.00    -0.095 A  
HETATM   17  C   UNL     1      -7.640  12.200  67.245  1.00  0.00    -0.156 A  
HETATM   18  C   UNL     1      -6.548  13.015  69.225  1.00  0.00    -0.089 A  
BRANCH  15  19
HETATM   19  C   UNL     1      -7.095   9.219  69.654  1.00  0.00    -0.061 C  
HETATM   20  C   UNL     1      -6.220   8.187  68.906  1.00  0.00    -0.040 C  
HETATM   21  C   UNL     1      -6.539   9.293  71.100  1.00  0.00    -0.080 C  
BRANCH  19  22
HETATM   22  C   UNL     1      -8.558   8.676  69.736  1.00  0.00    -0.131 C  
HETATM   23  C   UNL     1      -9.372   9.154  70.934  1.00  0.00    -0.335 C  
ENDBRANCH  19  22
ENDBRANCH  15  19
ENDBRANCH   4  13
TORSDOF 4
ENDMDL
MODEL       77
REMARK 921   NORMALIZED FREE ENERGY PREDICTED BY IDOCK:   -4.88 KCAL/MOL
REMARK 922        TOTAL FREE ENERGY PREDICTED BY IDOCK:   -6.32 KCAL/MOL
REMARK 923 INTER-LIGAND FREE ENERGY PREDICTED BY IDOCK:   -5.56 KCAL/MOL
REMARK 924 INTRA-LIGAND FREE ENERGY PREDICTED BY IDOCK:   -0.76 KCAL/MOL
REMARK 927      BINDING AFFINITY PREDICTED BY RF-SCORE:    0.00 PKD
ROOT
HETATM    1  C   UNL     1     -11.344  10.132  69.277  1.00  0.00    -0.211 C  
HETATM    2  C   UNL     1     -11.721  11.558  69.681  1.00  0.00    -0.419 C  
HETATM    3  C   UNL     1     -10.405   9.469  70.314  1.00  0.00    -0.269 C  
HETATM    4  C   UNL     1     -10.666  10.148  67.873  1.00  0.00    -0.317 C  
ENDROOT
BRANCH   3   5
HETATM    5  N   UNL     1     -10.852   9.266  71.704  1.00  0.00    -0.372 NA 
HETATM    6  C   UNL     1      -9.976   5.498  72.129  1.00  0.00    -0.219 C  
HETATM    7  C   UNL     1     -10.190   8.037  72.246  1.00  0.00    -0.260 C  
HETATM    8  C   UNL     1     -12.316   9.044  71.833  1.00  0.00    -0.384 C  
HETATM    9  C   UNL     1     -12.816   7.702  71.237  1.00  0.00    -0.260 C  
HETATM   10  C   UNL     1     -10.687   6.726  71.582  1.00  0.00    -0.225 C  
HETATM   11  C   UNL     1     -14.295   7.490  71.537  1.00  0.00    -0.603 C  
HETATM   12  O   UNL     1     -12.100   6.580  71.789  1.00  0.00    -0.338 OA 
ENDBRANCH   3   5
BRANCH   4  13
HETATM   13  C   UNL     1     -10.251   8.773  67.402  1.00  0.00    -0.318 A  
HETATM   14  C   UNL     1      -8.500   7.226  66.726  1.00  0.00    -0.121 A  
HETATM   15  C   UNL     1      -9.338   6.116  66.939  1.00  0.00    -0.143 A  
HETATM   16  C   UNL     1     -10.666   6.380  67.313  1.00  0.00    -0.426 A  
HETATM   17  C   UNL     1     -11.115   7.686  67.551  1.00  0.00     0.092 A  
HETATM   18  C   UNL     1      -8.953   8.536  66.936  1.00  0.00    -0.166 A  
BRANCH  15  19
HETATM   19  C   UNL     1      -8.791   4.683  66.796  1.00  0.00    -0.111 C  
HETATM   20  C   UNL     1      -9.176   3.757  67.973  1.00  0.00    -0.216 C  
HETATM   21  C   UNL     1      -9.392   4.037  65.521  1.00  0.00    -0.159 C  
BRANCH  19  22
HETATM   22  C   UNL     1      -7.236   4.682  66.641  1.00  0.00    -0.080 C  
HETATM   23  C   UNL     1      -6.458   4.094  67.814  1.00  0.00    -0.038 C  
ENDBRANCH  19  22
ENDBRANCH  15  19
ENDBRANCH   4  13
TORSDOF 4
ENDMDL
MODEL       78
REMARK 921   NORMALIZED FREE ENERGY PREDICTED BY IDOCK:   -4.86 KCAL/MOL
REMARK 922        TOTAL FREE ENERGY PREDICTED BY IDOCK:   -6.30 KCAL/MOL
REMARK 923 INTER-LIGAND FREE ENERGY PREDICTED BY IDOCK:   -6.20 KCAL/MOL
REMARK 924 INTRA-LIGAND FREE ENERGY PREDICTED BY IDOCK:   -0.10 KCAL/MOL
REMARK 927      BINDING AFFINITY PREDICTED BY RF-SCORE:    0.00 PKD
ROOT
HETATM    1  C   UNL     1     -10.138  11.989  65.913  1.00  0.00    -0.264 C  
HETATM    2  C   UNL     1     -10.342  12.865  64.676  1.00  0.00    -0.366 C  
HETATM    3  C   UNL     1      -9.791  10.528  65.533  1.00  0.00    -0.265 C  
HETATM    4  C   UNL     1     -11.424  12.023  66.795  1.00  0.00    -0.410 C  
ENDROOT
BRANCH   3   5
HETATM    5  N   UNL     1      -8.572  10.227  64.763  1.00  0.00    -0.176 NA 
HETATM    6  C   UNL     1      -8.396   6.376  65.296  1.00  0.00    -0.131 C  
HETATM    7  C   UNL     1      -8.565   8.768  64.426  1.00  0.00    -0.084 C  
HETATM    8  C   UNL     1      -7.313  10.490  65.510  1.00  0.00    -0.106 C  
HETATM    9  C   UNL     1      -7.067   9.533  66.706  1.00  0.00    -0.086 C  
HETATM   10  C   UNL     1      -8.367   7.851  65.662  1.00  0.00    -0.142 C  
HETATM   11  C   UNL     1      -5.697   9.777  67.325  1.00  0.00    -0.047 C  
HETATM   12  O   UNL     1      -7.114   8.152  66.296  1.00  0.00    -0.071 OA 
ENDBRANCH   3   5
BRANCH   4  13
HETATM   13  C   UNL     1     -11.308  11.170  68.038  1.00  0.00    -0.380 A  
HETATM   14  C   UNL     1     -12.008  10.671  70.314  1.00  0.00    -0.425 A  
HETATM   15  C   UNL     1     -11.472   9.373  70.241  1.00  0.00    -0.223 A  
HETATM   16  C   UNL     1     -10.783   9.030  69.065  1.00  0.00    -0.163 A  
HETATM   17  C   UNL     1     -10.711   9.909  67.976  1.00  0.00    -0.296 A  
HETATM   18  C   UNL     1     -11.912  11.564  69.237  1.00  0.00    -0.397 A  
BRANCH  15  19
HETATM   19  C   UNL     1     -11.672   8.376  71.398  1.00  0.00    -0.332 C  
HETATM   20  C   UNL     1     -11.788   6.906  70.932  1.00  0.00    -0.424 C  
HETATM   21  C   UNL     1     -10.440   8.438  72.338  1.00  0.00    -0.402 C  
BRANCH  19  22
HETATM   22  C   UNL     1     -12.935   8.738  72.245  1.00  0.00    -0.462 C  
HETATM   23  C   UNL     1     -14.236   8.076  71.803  1.00  0.00    -0.550 C  
ENDBRANCH  19  22
ENDBRANCH  15  19
ENDBRANCH   4  13
TORSDOF 4
ENDMDL
MODEL       79
REMARK 921   NORMALIZED FREE ENERGY PREDICTED BY IDOCK:   -4.85 KCAL/MOL
REMARK 922        TOTAL FREE ENERGY PREDICTED BY IDOCK:   -6.29 KCAL/MOL
REMARK 923 INTER-LIGAND FREE ENERGY PREDICTED BY IDOCK:   -6.11 KCAL/MOL
REMARK 924 INTRA-LIGAND FREE ENERGY PREDICTED BY IDOCK:   -0.18 KCAL/MOL
REMARK 927      BINDING AFFINITY PREDICTED BY RF-SCORE:    0.00 PKD
ROOT
HETATM    1  C   UNL     1     -11.321  13.989  67.906  1.00  0.00    -0.317 C  
HETATM    2  C   UNL     1     -11.512  14.944  66.727  1.00  0.00    -0.304 C  
HETATM    3  C   UNL     1      -9.900  14.100  68.512  1.00  0.00    -0.230 C  
HETATM    4  C   UNL     1     -11.593  12.525  67.443  1.00  0.00    -0.434 C  
ENDROOT
BRANCH   3   5
HETATM    5  N   UNL     1      -9.433  15.372  69.093  1.00  0.00    -0.227 NA 
HETATM    6  C   UNL     1      -7.798  16.968  65.942  1.00  0.00     0.037 C  
HETATM    7  C   UNL     1      -9.199  16.349  67.982  1.00  0.00    -0.204 C  
HETATM    8  C   UNL     1      -8.146  15.256  69.827  1.00  0.00    -0.028 C  
HETATM    9  C   UNL     1      -6.920  14.955  68.925  1.00  0.00    -0.112 C  
HETATM   10  C   UNL     1      -7.993  15.977  67.079  1.00  0.00    -0.227 C  
HETATM   11  C   UNL     1      -5.628  14.994  69.732  1.00  0.00    -0.103 C  
HETATM   12  O   UNL     1      -6.793  15.924  67.865  1.00  0.00    -0.122 OA 
ENDBRANCH   3   5
BRANCH   4  13
HETATM   13  C   UNL     1     -11.413  11.513  68.552  1.00  0.00    -0.354 A  
HETATM   14  C   UNL     1     -11.969  10.727  70.786  1.00  0.00    -0.464 A  
HETATM   15  C   UNL     1     -11.469   9.443  70.506  1.00  0.00    -0.317 A  
HETATM   16  C   UNL     1     -10.870   9.249  69.250  1.00  0.00    -0.170 A  
HETATM   17  C   UNL     1     -10.851  10.264  68.284  1.00  0.00    -0.300 A  
HETATM   18  C   UNL     1     -11.926  11.753  69.832  1.00  0.00    -0.405 A  
BRANCH  15  19
HETATM   19  C   UNL     1     -11.613   8.304  71.533  1.00  0.00    -0.326 C  
HETATM   20  C   UNL     1     -10.431   8.215  72.525  1.00  0.00    -0.409 C  
HETATM   21  C   UNL     1     -12.882   8.553  72.390  1.00  0.00    -0.373 C  
BRANCH  19  22
HETATM   22  C   UNL     1     -11.783   6.921  70.826  1.00  0.00    -0.417 C  
HETATM   23  C   UNL     1     -11.014   5.762  71.452  1.00  0.00    -0.304 C  
ENDBRANCH  19  22
ENDBRANCH  15  19
ENDBRANCH   4  13
TORSDOF 4
ENDMDL
MODEL       80
REMARK 921   NORMALIZED FREE ENERGY PREDICTED BY IDOCK:   -4.82 KCAL/MOL
REMARK 922        TOTAL FREE ENERGY PREDICTED BY IDOCK:   -6.26 KCAL/MOL
REMARK 923 INTER-LIGAND FREE ENERGY PREDICTED BY IDOCK:   -5.20 KCAL/MOL
REMARK 924 INTRA-LIGAND FREE ENERGY PREDICTED BY IDOCK:   -1.06 KCAL/MOL
REMARK 927      BINDING AFFINITY PREDICTED BY RF-SCORE:    0.00 PKD
ROOT
HETATM    1  C   UNL     1      -7.692  14.525  67.331  1.00  0.00    -0.215 C  
HETATM    2  C   UNL     1      -6.991  15.877  67.185  1.00  0.00    -0.227 C  
HETATM    3  C   UNL     1      -8.757  14.547  68.454  1.00  0.00    -0.175 C  
HETATM    4  C   UNL     1      -6.634  13.416  67.617  1.00  0.00    -0.174 C  
ENDROOT
BRANCH   3   5
HETATM    5  N   UNL     1      -9.910  15.462  68.372  1.00  0.00    -0.211 NA 
HETATM    6  C   UNL     1     -12.442  13.525  70.604  1.00  0.00    -0.405 C  
HETATM    7  C   UNL     1     -10.831  15.178  69.518  1.00  0.00    -0.263 C  
HETATM    8  C   UNL     1     -10.718  15.294  67.134  1.00  0.00    -0.316 C  
HETATM    9  C   UNL     1     -11.489  13.950  67.051  1.00  0.00    -0.346 C  
HETATM   10  C   UNL     1     -11.539  13.801  69.413  1.00  0.00    -0.310 C  
HETATM   11  C   UNL     1     -12.398  13.920  65.828  1.00  0.00    -0.518 C  
HETATM   12  O   UNL     1     -12.321  13.745  68.210  1.00  0.00    -0.242 OA 
ENDBRANCH   3   5
BRANCH   4  13
HETATM   13  C   UNL     1      -7.248  12.045  67.785  1.00  0.00    -0.108 A  
HETATM   14  C   UNL     1      -7.962  10.229  69.239  1.00  0.00    -0.149 A  
HETATM   15  C   UNL     1      -8.774   9.682  68.230  1.00  0.00    -0.120 A  
HETATM   16  C   UNL     1      -8.737  10.306  66.971  1.00  0.00    -0.133 A  
HETATM   17  C   UNL     1      -7.995  11.474  66.753  1.00  0.00    -0.152 A  
HETATM   18  C   UNL     1      -7.195  11.382  69.017  1.00  0.00    -0.118 A  
BRANCH  15  19
HETATM   19  C   UNL     1      -9.682   8.473  68.524  1.00  0.00    -0.174 C  
HETATM   20  C   UNL     1     -10.764   8.760  69.589  1.00  0.00    -0.212 C  
HETATM   21  C   UNL     1     -10.439   8.082  67.228  1.00  0.00    -0.384 C  
BRANCH  19  22
HETATM   22  C   UNL     1      -8.845   7.233  68.976  1.00  0.00    -0.132 C  
HETATM   23  C   UNL     1      -7.790   6.753  67.983  1.00  0.00    -0.113 C  
ENDBRANCH  19  22
ENDBRANCH  15  19
ENDBRANCH   4  13
TORSDOF 4
ENDMDL
MODEL       81
REMARK 921   NORMALIZED FREE ENERGY PREDICTED BY IDOCK:   -4.82 KCAL/MOL
REMARK 922        TOTAL FREE ENERGY PREDICTED BY IDOCK:   -6.25 KCAL/MOL
REMARK 923 INTER-LIGAND FREE ENERGY PREDICTED BY IDOCK:   -5.44 KCAL/MOL
REMARK 924 INTRA-LIGAND FREE ENERGY PREDICTED BY IDOCK:   -0.80 KCAL/MOL
REMARK 927      BINDING AFFINITY PREDICTED BY RF-SCORE:    0.00 PKD
ROOT
HETATM    1  C   UNL     1      -7.999  16.884  67.014  1.00  0.00    -0.228 C  
HETATM    2  C   UNL     1      -7.119  17.485  65.917  1.00  0.00    -0.212 C  
HETATM    3  C   UNL     1      -7.960  15.337  67.001  1.00  0.00    -0.208 C  
HETATM    4  C   UNL     1      -9.466  17.385  66.841  1.00  0.00    -0.275 C  
ENDROOT
BRANCH   3   5
HETATM    5  N   UNL     1      -6.692  14.620  67.224  1.00  0.00    -0.253 NA 
HETATM    6  C   UNL     1      -8.072  11.287  68.686  1.00  0.00    -0.145 C  
HETATM    7  C   UNL     1      -6.981  13.154  67.333  1.00  0.00    -0.107 C  
HETATM    8  C   UNL     1      -6.003  15.005  68.484  1.00  0.00    -0.094 C  
HETATM    9  C   UNL     1      -6.740  14.567  69.777  1.00  0.00    -0.150 C  
HETATM   10  C   UNL     1      -7.765  12.775  68.617  1.00  0.00    -0.064 C  
HETATM   11  C   UNL     1      -5.902  14.872  71.012  1.00  0.00    -0.010 C  
HETATM   12  O   UNL     1      -7.008  13.151  69.778  1.00  0.00     0.141 OA 
ENDBRANCH   3   5
BRANCH   4  13
HETATM   13  C   UNL     1     -10.407  16.826  67.884  1.00  0.00    -0.319 A  
HETATM   14  C   UNL     1     -11.869  15.039  68.649  1.00  0.00    -0.325 A  
HETATM   15  C   UNL     1     -11.833  15.517  69.971  1.00  0.00    -0.379 A  
HETATM   16  C   UNL     1     -11.130  16.711  70.201  1.00  0.00    -0.077 A  
HETATM   17  C   UNL     1     -10.419  17.351  69.178  1.00  0.00    -0.231 A  
HETATM   18  C   UNL     1     -11.182  15.692  67.616  1.00  0.00    -0.274 A  
BRANCH  15  19
HETATM   19  C   UNL     1     -12.515  14.730  71.108  1.00  0.00    -0.397 C  
HETATM   20  C   UNL     1     -11.872  14.968  72.493  1.00  0.00    -0.420 C  
HETATM   21  C   UNL     1     -13.990  15.192  71.228  1.00  0.00    -0.548 C  
BRANCH  19  22
HETATM   22  C   UNL     1     -12.520  13.196  70.811  1.00  0.00    -0.389 C  
HETATM   23  C   UNL     1     -13.178  12.322  71.874  1.00  0.00    -0.481 C  
ENDBRANCH  19  22
ENDBRANCH  15  19
ENDBRANCH   4  13
TORSDOF 4
ENDMDL
MODEL       82
REMARK 921   NORMALIZED FREE ENERGY PREDICTED BY IDOCK:   -4.79 KCAL/MOL
REMARK 922        TOTAL FREE ENERGY PREDICTED BY IDOCK:   -6.22 KCAL/MOL
REMARK 923 INTER-LIGAND FREE ENERGY PREDICTED BY IDOCK:   -5.02 KCAL/MOL
REMARK 924 INTRA-LIGAND FREE ENERGY PREDICTED BY IDOCK:   -1.20 KCAL/MOL
REMARK 927      BINDING AFFINITY PREDICTED BY RF-SCORE:    0.00 PKD
ROOT
HETATM    1  C   UNL     1      -9.626   8.523  70.409  1.00  0.00    -0.189 C  
HETATM    2  C   UNL     1      -9.460   7.348  71.373  1.00  0.00    -0.160 C  
HETATM    3  C   UNL     1      -8.589   9.641  70.679  1.00  0.00     0.005 C  
HETATM    4  C   UNL     1     -11.073   9.094  70.525  1.00  0.00    -0.308 C  
ENDROOT
BRANCH   3   5
HETATM    5  N   UNL     1      -7.147   9.367  70.553  1.00  0.00    -0.098 NA 
HETATM    6  C   UNL     1      -5.886  12.923  69.601  1.00  0.00    -0.112 C  
HETATM    7  C   UNL     1      -6.401  10.661  70.661  1.00  0.00    -0.011 C  
HETATM    8  C   UNL     1      -6.764   8.770  69.246  1.00  0.00    -0.050 C  
HETATM    9  C   UNL     1      -6.919   9.729  68.036  1.00  0.00    -0.077 C  
HETATM   10  C   UNL     1      -6.628  11.605  69.450  1.00  0.00    -0.115 C  
HETATM   11  C   UNL     1      -6.374   9.091  66.764  1.00  0.00    -0.063 C  
HETATM   12  O   UNL     1      -6.199  10.960  68.242  1.00  0.00    -0.049 OA 
ENDBRANCH   3   5
BRANCH   4  13
HETATM   13  C   UNL     1     -11.317  10.271  69.609  1.00  0.00    -0.315 A  
HETATM   14  C   UNL     1     -11.721  12.652  69.313  1.00  0.00    -0.379 A  
HETATM   15  C   UNL     1     -11.348  12.591  67.958  1.00  0.00    -0.339 A  
HETATM   16  C   UNL     1     -11.038  11.324  67.436  1.00  0.00    -0.358 A  
HETATM   17  C   UNL     1     -11.012  10.183  68.249  1.00  0.00    -0.299 A  
HETATM   18  C   UNL     1     -11.724  11.508  70.123  1.00  0.00    -0.395 A  
BRANCH  15  19
HETATM   19  C   UNL     1     -11.258  13.875  67.111  1.00  0.00    -0.328 C  
HETATM   20  C   UNL     1     -12.363  13.981  66.034  1.00  0.00    -0.504 C  
HETATM   21  C   UNL     1     -11.435  15.106  68.038  1.00  0.00    -0.355 C  
BRANCH  19  22
HETATM   22  C   UNL     1      -9.863  14.000  66.417  1.00  0.00    -0.306 C  
HETATM   23  C   UNL     1      -8.676  14.187  67.356  1.00  0.00    -0.217 C  
ENDBRANCH  19  22
ENDBRANCH  15  19
ENDBRANCH   4  13
TORSDOF 4
ENDMDL
MODEL       83
REMARK 921   NORMALIZED FREE ENERGY PREDICTED BY IDOCK:   -4.76 KCAL/MOL
REMARK 922        TOTAL FREE ENERGY PREDICTED BY IDOCK:   -6.17 KCAL/MOL
REMARK 923 INTER-LIGAND FREE ENERGY PREDICTED BY IDOCK:   -6.18 KCAL/MOL
REMARK 924 INTRA-LIGAND FREE ENERGY PREDICTED BY IDOCK:    0.01 KCAL/MOL
REMARK 927      BINDING AFFINITY PREDICTED BY RF-SCORE:    0.00 PKD
ROOT
HETATM    1  C   UNL     1      -8.857  18.194  66.686  1.00  0.00    -0.287 C  
HETATM    2  C   UNL     1      -8.621  19.632  66.219  1.00  0.00    -0.393 C  
HETATM    3  C   UNL     1      -7.702  17.254  66.262  1.00  0.00    -0.318 C  
HETATM    4  C   UNL     1     -10.211  17.674  66.113  1.00  0.00    -0.345 C  
ENDROOT
BRANCH   3   5
HETATM    5  N   UNL     1      -6.330  17.492  66.745  1.00  0.00    -0.173 NA 
HETATM    6  C   UNL     1      -6.208  14.922  69.664  1.00  0.00    -0.133 C  
HETATM    7  C   UNL     1      -5.890  16.305  67.545  1.00  0.00    -0.155 C  
HETATM    8  C   UNL     1      -6.209  18.671  67.643  1.00  0.00    -0.191 C  
HETATM    9  C   UNL     1      -6.907  18.502  69.018  1.00  0.00    -0.274 C  
HETATM   10  C   UNL     1      -6.652  16.151  68.888  1.00  0.00    -0.138 C  
HETATM   11  C   UNL     1      -6.615  19.690  69.926  1.00  0.00    -0.300 C  
HETATM   12  O   UNL     1      -6.448  17.317  69.700  1.00  0.00    -0.243 OA 
ENDBRANCH   3   5
BRANCH   4  13
HETATM   13  C   UNL     1     -10.515  16.250  66.520  1.00  0.00    -0.290 A  
HETATM   14  C   UNL     1     -10.811  13.912  65.917  1.00  0.00    -0.287 A  
HETATM   15  C   UNL     1     -10.647  13.502  67.252  1.00  0.00    -0.263 A  
HETATM   16  C   UNL     1     -10.496  14.512  68.218  1.00  0.00    -0.242 A  
HETATM   17  C   UNL     1     -10.420  15.863  67.858  1.00  0.00    -0.288 A  
HETATM   18  C   UNL     1     -10.765  15.266  65.557  1.00  0.00    -0.385 A  
BRANCH  15  19
HETATM   19  C   UNL     1     -10.605  12.005  67.613  1.00  0.00    -0.239 C  
HETATM   20  C   UNL     1     -10.480  11.078  66.381  1.00  0.00    -0.312 C  
HETATM   21  C   UNL     1      -9.356  11.731  68.491  1.00  0.00    -0.158 C  
BRANCH  19  22
HETATM   22  C   UNL     1     -11.865  11.584  68.435  1.00  0.00    -0.353 C  
HETATM   23  C   UNL     1     -11.620  11.293  69.913  1.00  0.00    -0.413 C  
ENDBRANCH  19  22
ENDBRANCH  15  19
ENDBRANCH   4  13
TORSDOF 4
ENDMDL
MODEL       84
REMARK 921   NORMALIZED FREE ENERGY PREDICTED BY IDOCK:   -4.73 KCAL/MOL
REMARK 922        TOTAL FREE ENERGY PREDICTED BY IDOCK:   -6.14 KCAL/MOL
REMARK 923 INTER-LIGAND FREE ENERGY PREDICTED BY IDOCK:   -5.37 KCAL/MOL
REMARK 924 INTRA-LIGAND FREE ENERGY PREDICTED BY IDOCK:   -0.77 KCAL/MOL
REMARK 927      BINDING AFFINITY PREDICTED BY RF-SCORE:    0.00 PKD
ROOT
HETATM    1  C   UNL     1     -11.252   6.355  72.096  1.00  0.00    -0.319 C  
HETATM    2  C   UNL     1     -11.880   5.192  72.866  1.00  0.00    -0.147 C  
HETATM    3  C   UNL     1     -10.044   6.961  72.851  1.00  0.00    -0.189 C  
HETATM    4  C   UNL     1     -12.329   7.453  71.837  1.00  0.00    -0.343 C  
ENDROOT
BRANCH   3   5
HETATM    5  N   UNL     1      -8.858   6.137  73.146  1.00  0.00    -0.131 NA 
HETATM    6  C   UNL     1      -6.092   8.863  72.908  1.00  0.00    -0.023 C  
HETATM    7  C   UNL     1      -7.743   7.038  73.577  1.00  0.00    -0.085 C  
HETATM    8  C   UNL     1      -8.353   5.377  71.972  1.00  0.00    -0.122 C  
HETATM    9  C   UNL     1      -7.742   6.260  70.853  1.00  0.00    -0.098 C  
HETATM   10  C   UNL     1      -7.201   7.937  72.435  1.00  0.00    -0.089 C  
HETATM   11  C   UNL     1      -7.122   5.400  69.758  1.00  0.00    -0.063 C  
HETATM   12  O   UNL     1      -6.703   7.118  71.365  1.00  0.00    -0.050 OA 
ENDBRANCH   3   5
BRANCH   4  13
HETATM   13  C   UNL     1     -11.785   8.647  71.087  1.00  0.00    -0.334 A  
HETATM   14  C   UNL     1     -10.548   9.553  69.198  1.00  0.00    -0.237 A  
HETATM   15  C   UNL     1     -11.102  10.831  69.394  1.00  0.00    -0.324 A  
HETATM   16  C   UNL     1     -11.943  11.001  70.506  1.00  0.00    -0.474 A  
HETATM   17  C   UNL     1     -12.288   9.926  71.335  1.00  0.00    -0.498 A  
HETATM   18  C   UNL     1     -10.868   8.481  70.042  1.00  0.00    -0.225 A  
BRANCH  15  19
HETATM   19  C   UNL     1     -10.812  11.971  68.398  1.00  0.00    -0.266 C  
HETATM   20  C   UNL     1     -11.411  13.331  68.827  1.00  0.00    -0.331 C  
HETATM   21  C   UNL     1      -9.279  12.182  68.303  1.00  0.00    -0.192 C  
BRANCH  19  22
HETATM   22  C   UNL     1     -11.333  11.620  66.967  1.00  0.00    -0.373 C  
HETATM   23  C   UNL     1     -12.031  12.754  66.224  1.00  0.00    -0.460 C  
ENDBRANCH  19  22
ENDBRANCH  15  19
ENDBRANCH   4  13
TORSDOF 4
ENDMDL
MODEL       85
REMARK 921   NORMALIZED FREE ENERGY PREDICTED BY IDOCK:   -4.71 KCAL/MOL
REMARK 922        TOTAL FREE ENERGY PREDICTED BY IDOCK:   -6.12 KCAL/MOL
REMARK 923 INTER-LIGAND FREE ENERGY PREDICTED BY IDOCK:   -5.46 KCAL/MOL
REMARK 924 INTRA-LIGAND FREE ENERGY PREDICTED BY IDOCK:   -0.66 KCAL/MOL
REMARK 927      BINDING AFFINITY PREDICTED BY RF-SCORE:    0.00 PKD
ROOT
HETATM    1  C   UNL     1     -11.561  12.344  68.792  1.00  0.00    -0.373 C  
HETATM    2  C   UNL     1     -12.283  11.106  69.328  1.00  0.00    -0.295 C  
HETATM    3  C   UNL     1     -10.029  12.132  68.723  1.00  0.00    -0.052 C  
HETATM    4  C   UNL     1     -11.893  13.574  69.692  1.00  0.00    -0.398 C  
ENDROOT
BRANCH   3   5
HETATM    5  N   UNL     1      -9.460  11.074  67.870  1.00  0.00    -0.162 NA 
HETATM    6  C   UNL     1      -7.462   9.079  70.548  1.00  0.00    -0.099 C  
HETATM    7  C   UNL     1      -9.048   9.926  68.739  1.00  0.00    -0.147 C  
HETATM    8  C   UNL     1      -8.241  11.496  67.129  1.00  0.00    -0.161 C  
HETATM    9  C   UNL     1      -7.003  11.754  68.027  1.00  0.00    -0.076 C  
HETATM   10  C   UNL     1      -7.838  10.250  69.655  1.00  0.00    -0.160 C  
HETATM   11  C   UNL     1      -5.768  12.041  67.182  1.00  0.00    -0.142 C  
HETATM   12  O   UNL     1      -6.703  10.611  68.853  1.00  0.00    -0.055 OA 
ENDBRANCH   3   5
BRANCH   4  13
HETATM   13  C   UNL     1     -11.207  14.841  69.235  1.00  0.00    -0.303 A  
HETATM   14  C   UNL     1     -10.829  16.519  67.515  1.00  0.00    -0.237 A  
HETATM   15  C   UNL     1     -10.307  17.426  68.454  1.00  0.00    -0.379 A  
HETATM   16  C   UNL     1     -10.175  16.973  69.777  1.00  0.00     0.100 A  
HETATM   17  C   UNL     1     -10.627  15.705  70.165  1.00  0.00    -0.348 A  
HETATM   18  C   UNL     1     -11.255  15.238  67.893  1.00  0.00    -0.333 A  
BRANCH  15  19
HETATM   19  C   UNL     1      -9.934  18.861  68.034  1.00  0.00    -0.414 C  
HETATM   20  C   UNL     1     -10.945  19.499  67.053  1.00  0.00    -0.443 C  
HETATM   21  C   UNL     1      -9.918  19.768  69.292  1.00  0.00    -0.314 C  
BRANCH  19  22
HETATM   22  C   UNL     1      -8.509  18.913  67.394  1.00  0.00    -0.295 C  
HETATM   23  C   UNL     1      -8.366  19.822  66.178  1.00  0.00    -0.368 C  
ENDBRANCH  19  22
ENDBRANCH  15  19
ENDBRANCH   4  13
TORSDOF 4
ENDMDL
MODEL       86
REMARK 921   NORMALIZED FREE ENERGY PREDICTED BY IDOCK:   -4.70 KCAL/MOL
REMARK 922        TOTAL FREE ENERGY PREDICTED BY IDOCK:   -6.10 KCAL/MOL
REMARK 923 INTER-LIGAND FREE ENERGY PREDICTED BY IDOCK:   -6.04 KCAL/MOL
REMARK 924 INTRA-LIGAND FREE ENERGY PREDICTED BY IDOCK:   -0.05 KCAL/MOL
REMARK 927      BINDING AFFINITY PREDICTED BY RF-SCORE:    0.00 PKD
ROOT
HETATM    1  C   UNL     1      -9.190  18.964  66.767  1.00  0.00    -0.335 C  
HETATM    2  C   UNL     1      -9.362  20.481  66.860  1.00  0.00    -0.435 C  
HETATM    3  C   UNL     1      -8.000  18.574  65.857  1.00  0.00    -0.006 C  
HETATM    4  C   UNL     1     -10.506  18.320  66.233  1.00  0.00    -0.397 C  
ENDROOT
BRANCH   3   5
HETATM    5  N   UNL     1      -6.630  18.999  66.196  1.00  0.00    -0.204 NA 
HETATM    6  C   UNL     1      -5.239  15.654  67.616  1.00  0.00    -0.085 C  
HETATM    7  C   UNL     1      -5.764  17.783  66.313  1.00  0.00    -0.202 C  
HETATM    8  C   UNL     1      -6.531  19.711  67.498  1.00  0.00    -0.207 C  
HETATM    9  C   UNL     1      -6.804  18.818  68.737  1.00  0.00    -0.285 C  
HETATM   10  C   UNL     1      -6.111  16.897  67.540  1.00  0.00    -0.147 C  
HETATM   11  C   UNL     1      -6.544  19.585  70.028  1.00  0.00    -0.198 C  
HETATM   12  O   UNL     1      -5.953  17.655  68.749  1.00  0.00    -0.168 OA 
ENDBRANCH   3   5
BRANCH   4  13
HETATM   13  C   UNL     1     -10.416  16.817  66.101  1.00  0.00    -0.282 A  
HETATM   14  C   UNL     1     -10.189  14.628  67.140  1.00  0.00    -0.256 A  
HETATM   15  C   UNL     1     -10.671  13.984  65.987  1.00  0.00    -0.294 A  
HETATM   16  C   UNL     1     -10.945  14.790  64.869  1.00  0.00    -0.425 A  
HETATM   17  C   UNL     1     -10.829  16.185  64.927  1.00  0.00    -0.353 A  
HETATM   18  C   UNL     1     -10.045  16.022  67.192  1.00  0.00    -0.270 A  
BRANCH  15  19
HETATM   19  C   UNL     1     -10.913  12.462  65.983  1.00  0.00    -0.324 C  
HETATM   20  C   UNL     1     -11.627  11.949  67.255  1.00  0.00    -0.364 C  
HETATM   21  C   UNL     1     -11.836  12.099  64.791  1.00  0.00    -0.385 C  
BRANCH  19  22
HETATM   22  C   UNL     1      -9.575  11.675  65.803  1.00  0.00    -0.255 C  
HETATM   23  C   UNL     1      -9.178  10.775  66.969  1.00  0.00    -0.166 C  
ENDBRANCH  19  22
ENDBRANCH  15  19
ENDBRANCH   4  13
TORSDOF 4
ENDMDL
MODEL       87
REMARK 921   NORMALIZED FREE ENERGY PREDICTED BY IDOCK:   -4.69 KCAL/MOL
REMARK 922        TOTAL FREE ENERGY PREDICTED BY IDOCK:   -6.09 KCAL/MOL
REMARK 923 INTER-LIGAND FREE ENERGY PREDICTED BY IDOCK:   -5.22 KCAL/MOL
REMARK 924 INTRA-LIGAND FREE ENERGY PREDICTED BY IDOCK:   -0.86 KCAL/MOL
REMARK 927      BINDING AFFINITY PREDICTED BY RF-SCORE:    0.00 PKD
ROOT
HETATM    1  C   UNL     1      -7.468  14.497  67.337  1.00  0.00    -0.194 C  
HETATM    2  C   UNL     1      -6.624  15.768  67.455  1.00  0.00    -0.213 C  
HETATM    3  C   UNL     1      -8.727  14.557  68.236  1.00  0.00    -0.173 C  
HETATM    4  C   UNL     1      -6.600  13.257  67.711  1.00  0.00    -0.156 C  
ENDROOT
BRANCH   3   5
HETATM    5  N   UNL     1      -9.747  15.600  68.024  1.00  0.00    -0.204 NA 
HETATM    6  C   UNL     1     -12.519  14.301  70.426  1.00  0.00    -0.426 C  
HETATM    7  C   UNL     1     -10.699  15.581  69.180  1.00  0.00    -0.250 C  
HETATM    8  C   UNL     1     -10.567  15.393  66.802  1.00  0.00    -0.309 C  
HETATM    9  C   UNL     1     -11.511  14.164  66.865  1.00  0.00    -0.357 C  
HETATM   10  C   UNL     1     -11.585  14.308  69.227  1.00  0.00    -0.306 C  
HETATM   11  C   UNL     1     -12.414  14.107  65.639  1.00  0.00    -0.490 C  
HETATM   12  O   UNL     1     -12.365  14.212  68.025  1.00  0.00    -0.233 OA 
ENDBRANCH   3   5
BRANCH   4  13
HETATM   13  C   UNL     1      -7.365  11.956  67.630  1.00  0.00    -0.123 A  
HETATM   14  C   UNL     1      -8.511  10.275  66.297  1.00  0.00    -0.138 A  
HETATM   15  C   UNL     1      -8.422   9.329  67.334  1.00  0.00    -0.122 A  
HETATM   16  C   UNL     1      -7.861   9.761  68.547  1.00  0.00    -0.081 A  
HETATM   17  C   UNL     1      -7.331  11.050  68.692  1.00  0.00    -0.104 A  
HETATM   18  C   UNL     1      -8.009  11.575  66.447  1.00  0.00    -0.046 A  
BRANCH  15  19
HETATM   19  C   UNL     1      -8.893   7.879  67.114  1.00  0.00    -0.137 C  
HETATM   20  C   UNL     1      -8.419   7.273  65.774  1.00  0.00    -0.148 C  
HETATM   21  C   UNL     1      -8.301   6.980  68.231  1.00  0.00    -0.123 C  
BRANCH  19  22
HETATM   22  C   UNL     1     -10.450   7.771  67.194  1.00  0.00    -0.413 C  
HETATM   23  C   UNL     1     -11.013   6.353  67.189  1.00  0.00    -0.476 C  
ENDBRANCH  19  22
ENDBRANCH  15  19
ENDBRANCH   4  13
TORSDOF 4
ENDMDL
MODEL       88
REMARK 921   NORMALIZED FREE ENERGY PREDICTED BY IDOCK:   -4.68 KCAL/MOL
REMARK 922        TOTAL FREE ENERGY PREDICTED BY IDOCK:   -6.08 KCAL/MOL
REMARK 923 INTER-LIGAND FREE ENERGY PREDICTED BY IDOCK:   -5.21 KCAL/MOL
REMARK 924 INTRA-LIGAND FREE ENERGY PREDICTED BY IDOCK:   -0.87 KCAL/MOL
REMARK 927      BINDING AFFINITY PREDICTED BY RF-SCORE:    0.00 PKD
ROOT
HETATM    1  C   UNL     1      -8.575   6.725  65.828  1.00  0.00    -0.144 C  
HETATM    2  C   UNL     1      -7.744   6.214  64.650  1.00  0.00    -0.101 C  
HETATM    3  C   UNL     1      -8.213   8.184  66.198  1.00  0.00    -0.117 C  
HETATM    4  C   UNL     1      -8.366   5.791  67.059  1.00  0.00    -0.108 C  
ENDROOT
BRANCH   3   5
HETATM    5  N   UNL     1      -8.401   9.271  65.221  1.00  0.00    -0.137 NA 
HETATM    6  C   UNL     1      -6.286  12.057  66.925  1.00  0.00    -0.074 C  
HETATM    7  C   UNL     1      -7.311  10.280  65.409  1.00  0.00    -0.144 C  
HETATM    8  C   UNL     1      -9.685  10.004  65.383  1.00  0.00    -0.302 C  
HETATM    9  C   UNL     1      -9.779  10.849  66.681  1.00  0.00    -0.189 C  
HETATM   10  C   UNL     1      -7.421  11.062  66.745  1.00  0.00    -0.139 C  
HETATM   11  C   UNL     1     -11.058  11.676  66.701  1.00  0.00    -0.364 C  
HETATM   12  O   UNL     1      -8.672  11.766  66.797  1.00  0.00    -0.182 OA 
ENDBRANCH   3   5
BRANCH   4  13
HETATM   13  C   UNL     1      -9.147   6.234  68.275  1.00  0.00    -0.113 A  
HETATM   14  C   UNL     1     -11.221   6.249  69.546  1.00  0.00    -0.500 A  
HETATM   15  C   UNL     1     -10.553   6.653  70.715  1.00  0.00    -0.265 A  
HETATM   16  C   UNL     1      -9.177   6.918  70.607  1.00  0.00    -0.158 A  
HETATM   17  C   UNL     1      -8.482   6.703  69.410  1.00  0.00    -0.131 A  
HETATM   18  C   UNL     1     -10.535   6.060  68.338  1.00  0.00    -0.290 A  
BRANCH  15  19
HETATM   19  C   UNL     1     -11.309   6.761  72.053  1.00  0.00    -0.308 C  
HETATM   20  C   UNL     1     -10.779   7.886  72.972  1.00  0.00    -0.408 C  
HETATM   21  C   UNL     1     -12.796   7.098  71.768  1.00  0.00    -0.368 C  
BRANCH  19  22
HETATM   22  C   UNL     1     -11.271   5.410  72.837  1.00  0.00    -0.372 C  
HETATM   23  C   UNL     1     -10.334   5.373  74.040  1.00  0.00    -0.299 C  
ENDBRANCH  19  22
ENDBRANCH  15  19
ENDBRANCH   4  13
TORSDOF 4
ENDMDL
MODEL       89
REMARK 921   NORMALIZED FREE ENERGY PREDICTED BY IDOCK:   -4.67 KCAL/MOL
REMARK 922        TOTAL FREE ENERGY PREDICTED BY IDOCK:   -6.07 KCAL/MOL
REMARK 923 INTER-LIGAND FREE ENERGY PREDICTED BY IDOCK:   -5.39 KCAL/MOL
REMARK 924 INTRA-LIGAND FREE ENERGY PREDICTED BY IDOCK:   -0.68 KCAL/MOL
REMARK 927      BINDING AFFINITY PREDICTED BY RF-SCORE:    0.00 PKD
ROOT
HETATM    1  C   UNL     1     -10.097  10.823  67.057  1.00  0.00    -0.249 C  
HETATM    2  C   UNL     1     -10.460   9.345  67.211  1.00  0.00    -0.332 C  
HETATM    3  C   UNL     1      -9.258  11.338  68.252  1.00  0.00    -0.176 C  
HETATM    4  C   UNL     1     -11.399  11.669  66.912  1.00  0.00    -0.364 C  
ENDROOT
BRANCH   3   5
HETATM    5  N   UNL     1      -7.940  10.747  68.548  1.00  0.00    -0.122 NA 
HETATM    6  C   UNL     1      -5.776  13.981  68.623  1.00  0.00    -0.086 C  
HETATM    7  C   UNL     1      -7.045  11.819  69.091  1.00  0.00    -0.071 C  
HETATM    8  C   UNL     1      -7.252  10.193  67.353  1.00  0.00    -0.088 C  
HETATM    9  C   UNL     1      -6.795  11.261  66.324  1.00  0.00    -0.001 C  
HETATM   10  C   UNL     1      -6.658  12.890  68.037  1.00  0.00    -0.107 C  
HETATM   11  C   UNL     1      -5.978  10.625  65.207  1.00  0.00    -0.090 C  
HETATM   12  O   UNL     1      -5.970  12.269  66.941  1.00  0.00    -0.251 OA 
ENDBRANCH   3   5
BRANCH   4  13
HETATM   13  C   UNL     1     -11.128  13.148  66.766  1.00  0.00    -0.314 A  
HETATM   14  C   UNL     1     -11.388  15.422  67.592  1.00  0.00    -0.292 A  
HETATM   15  C   UNL     1     -10.311  15.875  66.810  1.00  0.00    -0.298 A  
HETATM   16  C   UNL     1      -9.709  14.944  65.948  1.00  0.00    -0.366 A  
HETATM   17  C   UNL     1     -10.103  13.600  65.932  1.00  0.00    -0.320 A  
HETATM   18  C   UNL     1     -11.804  14.083  67.558  1.00  0.00    -0.442 A  
BRANCH  15  19
HETATM   19  C   UNL     1      -9.808  17.327  66.935  1.00  0.00    -0.287 C  
HETATM   20  C   UNL     1     -10.521  18.310  65.978  1.00  0.00    -0.380 C  
HETATM   21  C   UNL     1     -10.090  17.838  68.372  1.00  0.00    -0.376 C  
BRANCH  19  22
HETATM   22  C   UNL     1      -8.267  17.415  66.693  1.00  0.00    -0.290 C  
HETATM   23  C   UNL     1      -7.795  18.618  65.882  1.00  0.00    -0.090 C  
ENDBRANCH  19  22
ENDBRANCH  15  19
ENDBRANCH   4  13
TORSDOF 4
ENDMDL
MODEL       90
REMARK 921   NORMALIZED FREE ENERGY PREDICTED BY IDOCK:   -4.66 KCAL/MOL
REMARK 922        TOTAL FREE ENERGY PREDICTED BY IDOCK:   -6.06 KCAL/MOL
REMARK 923 INTER-LIGAND FREE ENERGY PREDICTED BY IDOCK:   -6.13 KCAL/MOL
REMARK 924 INTRA-LIGAND FREE ENERGY PREDICTED BY IDOCK:    0.08 KCAL/MOL
REMARK 927      BINDING AFFINITY PREDICTED BY RF-SCORE:    0.00 PKD
ROOT
HETATM    1  C   UNL     1      -7.959   7.721  67.568  1.00  0.00    -0.123 C  
HETATM    2  C   UNL     1      -7.388   6.304  67.484  1.00  0.00    -0.080 C  
HETATM    3  C   UNL     1      -8.941   7.877  68.755  1.00  0.00    -0.141 C  
HETATM    4  C   UNL     1      -8.675   8.076  66.229  1.00  0.00    -0.174 C  
ENDROOT
BRANCH   3   5
HETATM    5  N   UNL     1      -8.479   7.670  70.139  1.00  0.00    -0.137 NA 
HETATM    6  C   UNL     1      -9.891   4.100  70.775  1.00  0.00    -0.248 C  
HETATM    7  C   UNL     1      -8.487   6.202  70.434  1.00  0.00    -0.133 C  
HETATM    8  C   UNL     1      -9.351   8.308  71.161  1.00  0.00    -0.165 C  
HETATM    9  C   UNL     1     -10.756   7.664  71.294  1.00  0.00    -0.228 C  
HETATM   10  C   UNL     1      -9.914   5.596  70.506  1.00  0.00    -0.205 C  
HETATM   11  C   UNL     1     -11.529   8.280  72.454  1.00  0.00    -0.463 C  
HETATM   12  O   UNL     1     -10.667   6.247  71.541  1.00  0.00    -0.229 OA 
ENDBRANCH   3   5
BRANCH   4  13
HETATM   13  C   UNL     1      -9.279   9.462  66.233  1.00  0.00    -0.229 A  
HETATM   14  C   UNL     1      -9.510  11.654  65.203  1.00  0.00    -0.152 A  
HETATM   15  C   UNL     1     -10.689  11.916  65.924  1.00  0.00    -0.326 A  
HETATM   16  C   UNL     1     -11.096  10.949  66.859  1.00  0.00    -0.236 A  
HETATM   17  C   UNL     1     -10.409   9.738  67.006  1.00  0.00    -0.305 A  
HETATM   18  C   UNL     1      -8.804  10.454  65.368  1.00  0.00    -0.197 A  
BRANCH  15  19
HETATM   19  C   UNL     1     -11.502  13.197  65.657  1.00  0.00    -0.351 C  
HETATM   20  C   UNL     1     -11.943  13.926  66.947  1.00  0.00    -0.467 C  
HETATM   21  C   UNL     1     -10.620  14.201  64.870  1.00  0.00    -0.449 C  
BRANCH  19  22
HETATM   22  C   UNL     1     -12.767  12.896  64.790  1.00  0.00    -0.442 C  
HETATM   23  C   UNL     1     -12.533  12.011  63.570  1.00  0.00    -0.654 C  
ENDBRANCH  19  22
ENDBRANCH  15  19
ENDBRANCH   4  13
TORSDOF 4
ENDMDL
MODEL       91
REMARK 921   NORMALIZED FREE ENERGY PREDICTED BY IDOCK:   -4.61 KCAL/MOL
REMARK 922        TOTAL FREE ENERGY PREDICTED BY IDOCK:   -5.99 KCAL/MOL
REMARK 923 INTER-LIGAND FREE ENERGY PREDICTED BY IDOCK:   -5.17 KCAL/MOL
REMARK 924 INTRA-LIGAND FREE ENERGY PREDICTED BY IDOCK:   -0.83 KCAL/MOL
REMARK 927      BINDING AFFINITY PREDICTED BY RF-SCORE:    0.00 PKD
ROOT
HETATM    1  C   UNL     1      -7.300   9.759  68.578  1.00  0.00    -0.074 C  
HETATM    2  C   UNL     1      -5.967   9.092  68.923  1.00  0.00    -0.044 C  
HETATM    3  C   UNL     1      -8.506   8.917  69.060  1.00  0.00    -0.133 C  
HETATM    4  C   UNL     1      -7.386   9.990  67.039  1.00  0.00    -0.091 C  
ENDROOT
BRANCH   3   5
HETATM    5  N   UNL     1      -8.691   8.628  70.493  1.00  0.00    -0.149 NA 
HETATM    6  C   UNL     1     -10.175   5.039  70.251  1.00  0.00    -0.328 C  
HETATM    7  C   UNL     1      -8.800   7.145  70.674  1.00  0.00    -0.149 C  
HETATM    8  C   UNL     1      -9.933   9.213  71.065  1.00  0.00    -0.297 C  
HETATM    9  C   UNL     1     -11.244   8.574  70.534  1.00  0.00    -0.242 C  
HETATM   10  C   UNL     1     -10.105   6.548  70.082  1.00  0.00    -0.174 C  
HETATM   11  C   UNL     1     -12.456   9.128  71.272  1.00  0.00    -0.366 C  
HETATM   12  O   UNL     1     -11.246   7.144  70.717  1.00  0.00    -0.259 OA 
ENDBRANCH   3   5
BRANCH   4  13
HETATM   13  C   UNL     1      -8.683  10.638  66.612  1.00  0.00    -0.144 A  
HETATM   14  C   UNL     1     -10.176  12.559  66.633  1.00  0.00    -0.243 A  
HETATM   15  C   UNL     1     -10.877  12.082  65.511  1.00  0.00    -0.336 A  
HETATM   16  C   UNL     1     -10.499  10.825  65.008  1.00  0.00    -0.307 A  
HETATM   17  C   UNL     1      -9.414  10.119  65.542  1.00  0.00    -0.286 A  
HETATM   18  C   UNL     1      -9.107  11.841  67.189  1.00  0.00    -0.175 A  
BRANCH  15  19
HETATM   19  C   UNL     1     -11.984  12.932  64.859  1.00  0.00    -0.437 C  
HETATM   20  C   UNL     1     -12.982  12.103  64.018  1.00  0.00    -0.293 C  
HETATM   21  C   UNL     1     -12.817  13.618  65.972  1.00  0.00    -0.242 C  
BRANCH  19  22
HETATM   22  C   UNL     1     -11.378  14.056  63.958  1.00  0.00    -0.038 C  
HETATM   23  C   UNL     1     -11.136  15.395  64.649  1.00  0.00    -0.361 C  
ENDBRANCH  19  22
ENDBRANCH  15  19
ENDBRANCH   4  13
TORSDOF 4
ENDMDL
MODEL       92
REMARK 921   NORMALIZED FREE ENERGY PREDICTED BY IDOCK:   -4.59 KCAL/MOL
REMARK 922        TOTAL FREE ENERGY PREDICTED BY IDOCK:   -5.97 KCAL/MOL
REMARK 923 INTER-LIGAND FREE ENERGY PREDICTED BY IDOCK:   -5.81 KCAL/MOL
REMARK 924 INTRA-LIGAND FREE ENERGY PREDICTED BY IDOCK:   -0.16 KCAL/MOL
REMARK 927      BINDING AFFINITY PREDICTED BY RF-SCORE:    0.00 PKD
ROOT
HETATM    1  C   UNL     1     -11.516  12.711  64.308  1.00  0.00    -0.420 C  
HETATM    2  C   UNL     1     -12.498  11.923  63.439  1.00  0.00    -0.582 C  
HETATM    3  C   UNL     1     -11.462  12.166  65.755  1.00  0.00    -0.361 C  
HETATM    4  C   UNL     1     -11.919  14.218  64.316  1.00  0.00    -0.449 C  
ENDROOT
BRANCH   3   5
HETATM    5  N   UNL     1     -11.030  10.781  66.016  1.00  0.00    -0.025 NA 
HETATM    6  C   UNL     1      -8.332  11.439  68.743  1.00  0.00    -0.096 C  
HETATM    7  C   UNL     1     -10.348  10.733  67.349  1.00  0.00    -0.211 C  
HETATM    8  C   UNL     1     -10.048  10.266  65.025  1.00  0.00    -0.283 C  
HETATM    9  C   UNL     1      -8.658  10.952  65.085  1.00  0.00    -0.078 C  
HETATM   10  C   UNL     1      -8.986  11.477  67.371  1.00  0.00    -0.156 C  
HETATM   11  C   UNL     1      -7.674  10.272  64.141  1.00  0.00    -0.097 C  
HETATM   12  O   UNL     1      -8.095  10.889  66.411  1.00  0.00    -0.153 OA 
ENDBRANCH   3   5
BRANCH   4  13
HETATM   13  C   UNL     1     -11.001  15.068  65.165  1.00  0.00    -0.417 A  
HETATM   14  C   UNL     1      -8.887  15.349  66.336  1.00  0.00    -0.340 A  
HETATM   15  C   UNL     1      -9.049  16.745  66.383  1.00  0.00    -0.321 A  
HETATM   16  C   UNL     1     -10.251  17.268  65.875  1.00  0.00    -0.273 A  
HETATM   17  C   UNL     1     -11.207  16.445  65.266  1.00  0.00     0.005 A  
HETATM   18  C   UNL     1      -9.855  14.519  65.754  1.00  0.00    -0.343 A  
BRANCH  15  19
HETATM   19  C   UNL     1      -7.930  17.646  66.940  1.00  0.00    -0.252 C  
HETATM   20  C   UNL     1      -8.212  19.156  66.768  1.00  0.00    -0.292 C  
HETATM   21  C   UNL     1      -7.795  17.400  68.465  1.00  0.00    -0.268 C  
BRANCH  19  22
HETATM   22  C   UNL     1      -6.553  17.311  66.281  1.00  0.00    -0.248 C  
HETATM   23  C   UNL     1      -5.587  16.507  67.147  1.00  0.00    -0.146 C  
ENDBRANCH  19  22
ENDBRANCH  15  19
ENDBRANCH   4  13
TORSDOF 4
ENDMDL
MODEL       93
REMARK 921   NORMALIZED FREE ENERGY PREDICTED BY IDOCK:   -4.58 KCAL/MOL
REMARK 922        TOTAL FREE ENERGY PREDICTED BY IDOCK:   -5.96 KCAL/MOL
REMARK 923 INTER-LIGAND FREE ENERGY PREDICTED BY IDOCK:   -5.22 KCAL/MOL
REMARK 924 INTRA-LIGAND FREE ENERGY PREDICTED BY IDOCK:   -0.74 KCAL/MOL
REMARK 927      BINDING AFFINITY PREDICTED BY RF-SCORE:    0.00 PKD
ROOT
HETATM    1  C   UNL     1      -9.631  13.453  67.452  1.00  0.00    -0.223 C  
HETATM    2  C   UNL     1      -9.419  14.578  66.437  1.00  0.00    -0.316 C  
HETATM    3  C   UNL     1      -8.699  12.248  67.177  1.00  0.00    -0.193 C  
HETATM    4  C   UNL     1     -11.122  12.996  67.422  1.00  0.00    -0.302 C  
ENDROOT
BRANCH   3   5
HETATM    5  N   UNL     1      -7.235  12.409  67.228  1.00  0.00    -0.144 NA 
HETATM    6  C   UNL     1      -6.144   8.805  66.244  1.00  0.00    -0.059 C  
HETATM    7  C   UNL     1      -6.602  11.307  66.435  1.00  0.00    -0.069 C  
HETATM    8  C   UNL     1      -6.671  12.314  68.601  1.00  0.00    -0.083 C  
HETATM    9  C   UNL     1      -6.765  10.902  69.234  1.00  0.00    -0.086 C  
HETATM   10  C   UNL     1      -6.767   9.908  67.085  1.00  0.00    -0.074 C  
HETATM   11  C   UNL     1      -6.041  10.857  70.574  1.00  0.00    -0.102 C  
HETATM   12  O   UNL     1      -6.164   9.902  68.388  1.00  0.00    -0.049 OA 
ENDBRANCH   3   5
BRANCH   4  13
HETATM   13  C   UNL     1     -11.414  11.874  68.392  1.00  0.00    -0.357 A  
HETATM   14  C   UNL     1     -11.175   9.540  69.034  1.00  0.00     0.026 A  
HETATM   15  C   UNL     1     -11.544   9.822  70.361  1.00  0.00    -0.327 A  
HETATM   16  C   UNL     1     -11.922  11.144  70.653  1.00  0.00    -0.459 A  
HETATM   17  C   UNL     1     -11.849  12.156  69.688  1.00  0.00    -0.391 A  
HETATM   18  C   UNL     1     -11.128  10.545  68.058  1.00  0.00    -0.361 A  
BRANCH  15  19
HETATM   19  C   UNL     1     -11.496   8.722  71.439  1.00  0.00    -0.366 C  
HETATM   20  C   UNL     1     -12.717   8.735  72.388  1.00  0.00    -0.433 C  
HETATM   21  C   UNL     1     -11.498   7.335  70.747  1.00  0.00    -0.328 C  
BRANCH  19  22
HETATM   22  C   UNL     1     -10.192   8.824  72.294  1.00  0.00    -0.310 C  
HETATM   23  C   UNL     1      -8.949   8.190  71.678  1.00  0.00    -0.212 C  
ENDBRANCH  19  22
ENDBRANCH  15  19
ENDBRANCH   4  13
TORSDOF 4
ENDMDL
MODEL       94
REMARK 921   NORMALIZED FREE ENERGY PREDICTED BY IDOCK:   -4.55 KCAL/MOL
REMARK 922        TOTAL FREE ENERGY PREDICTED BY IDOCK:   -5.92 KCAL/MOL
REMARK 923 INTER-LIGAND FREE ENERGY PREDICTED BY IDOCK:   -7.15 KCAL/MOL
REMARK 924 INTRA-LIGAND FREE ENERGY PREDICTED BY IDOCK:    1.23 KCAL/MOL
REMARK 927      BINDING AFFINITY PREDICTED BY RF-SCORE:    0.00 PKD
ROOT
HETATM    1  C   UNL     1     -11.206   7.775  70.522  1.00  0.00    -0.267 C  
HETATM    2  C   UNL     1     -10.984   6.319  70.935  1.00  0.00    -0.344 C  
HETATM    3  C   UNL     1      -9.867   8.511  70.270  1.00  0.00    -0.182 C  
HETATM    4  C   UNL     1     -12.024   8.512  71.626  1.00  0.00    -0.372 C  
ENDROOT
BRANCH   3   5
HETATM    5  N   UNL     1      -8.948   8.049  69.215  1.00  0.00    -0.148 NA 
HETATM    6  C   UNL     1      -9.838  10.597  66.410  1.00  0.00    -0.259 C  
HETATM    7  C   UNL     1      -8.765   9.154  68.220  1.00  0.00    -0.129 C  
HETATM    8  C   UNL     1      -9.456   6.878  68.452  1.00  0.00    -0.128 C  
HETATM    9  C   UNL     1     -10.689   7.181  67.561  1.00  0.00    -0.274 C  
HETATM   10  C   UNL     1     -10.042   9.452  67.389  1.00  0.00    -0.215 C  
HETATM   11  C   UNL     1     -11.055   5.971  66.709  1.00  0.00    -0.201 C  
HETATM   12  O   UNL     1     -10.435   8.278  66.661  1.00  0.00    -0.305 OA 
ENDBRANCH   3   5
BRANCH   4  13
HETATM   13  C   UNL     1     -12.278   9.966  71.299  1.00  0.00    -0.480 A  
HETATM   14  C   UNL     1     -13.192  12.131  71.930  1.00  0.00    -0.474 A  
HETATM   15  C   UNL     1     -12.415  12.790  70.960  1.00  0.00    -0.369 A  
HETATM   16  C   UNL     1     -11.630  11.987  70.115  1.00  0.00    -0.228 A  
HETATM   17  C   UNL     1     -11.554  10.599  70.287  1.00  0.00    -0.424 A  
HETATM   18  C   UNL     1     -13.140  10.739  72.086  1.00  0.00    -0.350 A  
BRANCH  15  19
HETATM   19  C   UNL     1     -12.414  14.328  70.870  1.00  0.00    -0.424 C  
HETATM   20  C   UNL     1     -11.542  15.008  71.950  1.00  0.00    -0.426 C  
HETATM   21  C   UNL     1     -11.821  14.754  69.502  1.00  0.00    -0.366 C  
BRANCH  19  22
HETATM   22  C   UNL     1     -13.865  14.902  70.958  1.00  0.00    -0.332 C  
HETATM   23  C   UNL     1     -14.405  15.114  72.369  1.00  0.00    -0.453 C  
ENDBRANCH  19  22
ENDBRANCH  15  19
ENDBRANCH   4  13
TORSDOF 4
ENDMDL
MODEL       95
REMARK 921   NORMALIZED FREE ENERGY PREDICTED BY IDOCK:   -4.53 KCAL/MOL
REMARK 922        TOTAL FREE ENERGY PREDICTED BY IDOCK:   -5.90 KCAL/MOL
REMARK 923 INTER-LIGAND FREE ENERGY PREDICTED BY IDOCK:   -4.93 KCAL/MOL
REMARK 924 INTRA-LIGAND FREE ENERGY PREDICTED BY IDOCK:   -0.97 KCAL/MOL
REMARK 927      BINDING AFFINITY PREDICTED BY RF-SCORE:    0.00 PKD
ROOT
HETATM    1  C   UNL     1     -11.563  12.419  64.243  1.00  0.00    -0.436 C  
HETATM    2  C   UNL     1     -12.550  13.205  63.378  1.00  0.00    -0.172 C  
HETATM    3  C   UNL     1     -10.383  13.302  64.717  1.00  0.00    -0.363 C  
HETATM    4  C   UNL     1     -11.029  11.192  63.442  1.00  0.00    -0.129 C  
ENDROOT
BRANCH   3   5
HETATM    5  N   UNL     1     -10.627  14.485  65.561  1.00  0.00    -0.328 NA 
HETATM    6  C   UNL     1      -7.321  14.517  67.614  1.00  0.00    -0.201 C  
HETATM    7  C   UNL     1      -9.315  14.975  66.091  1.00  0.00    -0.292 C  
HETATM    8  C   UNL     1     -11.480  14.205  66.747  1.00  0.00    -0.369 C  
HETATM    9  C   UNL     1     -10.813  13.299  67.815  1.00  0.00    -0.252 C  
HETATM   10  C   UNL     1      -8.665  14.009  67.117  1.00  0.00    -0.221 C  
HETATM   11  C   UNL     1     -11.692  13.180  69.054  1.00  0.00    -0.367 C  
HETATM   12  O   UNL     1      -9.542  13.829  68.240  1.00  0.00    -0.211 OA 
ENDBRANCH   3   5
BRANCH   4  13
HETATM   13  C   UNL     1     -10.035  10.365  64.225  1.00  0.00    -0.368 A  
HETATM   14  C   UNL     1      -7.790   9.460  64.472  1.00  0.00    -0.121 A  
HETATM   15  C   UNL     1      -7.999   9.200  65.838  1.00  0.00    -0.106 A  
HETATM   16  C   UNL     1      -9.279   9.466  66.353  1.00  0.00    -0.215 A  
HETATM   17  C   UNL     1     -10.279  10.048  65.563  1.00  0.00    -0.248 A  
HETATM   18  C   UNL     1      -8.798  10.016  63.671  1.00  0.00    -0.249 A  
BRANCH  15  19
HETATM   19  C   UNL     1      -6.849   8.678  66.721  1.00  0.00    -0.069 C  
HETATM   20  C   UNL     1      -6.843   7.140  66.880  1.00  0.00    -0.072 C  
HETATM   21  C   UNL     1      -5.496   9.052  66.063  1.00  0.00    -0.041 C  
BRANCH  19  22
HETATM   22  C   UNL     1      -6.883   9.332  68.141  1.00  0.00    -0.064 C  
HETATM   23  C   UNL     1      -5.642  10.132  68.527  1.00  0.00    -0.038 C  
ENDBRANCH  19  22
ENDBRANCH  15  19
ENDBRANCH   4  13
TORSDOF 4
ENDMDL
MODEL       96
REMARK 921   NORMALIZED FREE ENERGY PREDICTED BY IDOCK:   -4.53 KCAL/MOL
REMARK 922        TOTAL FREE ENERGY PREDICTED BY IDOCK:   -5.89 KCAL/MOL
REMARK 923 INTER-LIGAND FREE ENERGY PREDICTED BY IDOCK:   -5.75 KCAL/MOL
REMARK 924 INTRA-LIGAND FREE ENERGY PREDICTED BY IDOCK:   -0.14 KCAL/MOL
REMARK 927      BINDING AFFINITY PREDICTED BY RF-SCORE:    0.00 PKD
ROOT
HETATM    1  C   UNL     1      -9.064  10.035  65.339  1.00  0.00    -0.235 C  
HETATM    2  C   UNL     1      -8.579  10.712  64.056  1.00  0.00    -0.099 C  
HETATM    3  C   UNL     1      -8.606  10.802  66.604  1.00  0.00    -0.143 C  
HETATM    4  C   UNL     1      -8.542   8.566  65.385  1.00  0.00    -0.202 C  
ENDROOT
BRANCH   3   5
HETATM    5  N   UNL     1      -9.038  12.193  66.831  1.00  0.00    -0.198 NA 
HETATM    6  C   UNL     1     -11.756  11.598  69.551  1.00  0.00    -0.410 C  
HETATM    7  C   UNL     1      -9.729  12.270  68.157  1.00  0.00    -0.213 C  
HETATM    8  C   UNL     1     -10.012  12.688  65.822  1.00  0.00    -0.256 C  
HETATM    9  C   UNL     1     -11.403  12.005  65.887  1.00  0.00    -0.337 C  
HETATM   10  C   UNL     1     -11.093  11.530  68.185  1.00  0.00    -0.246 C  
HETATM   11  C   UNL     1     -12.379  12.666  64.921  1.00  0.00    -0.563 C  
HETATM   12  O   UNL     1     -11.976  12.097  67.206  1.00  0.00    -0.573 OA 
ENDBRANCH   3   5
BRANCH   4  13
HETATM   13  C   UNL     1      -8.970   7.827  66.632  1.00  0.00    -0.175 A  
HETATM   14  C   UNL     1      -8.385   6.626  68.665  1.00  0.00    -0.123 A  
HETATM   15  C   UNL     1      -9.673   6.812  69.197  1.00  0.00    -0.147 A  
HETATM   16  C   UNL     1     -10.619   7.449  68.377  1.00  0.00    -0.192 A  
HETATM   17  C   UNL     1     -10.272   7.958  67.118  1.00  0.00    -0.360 A  
HETATM   18  C   UNL     1      -8.042   7.109  67.394  1.00  0.00    -0.112 A  
BRANCH  15  19
HETATM   19  C   UNL     1     -10.000   6.360  70.633  1.00  0.00    -0.213 C  
HETATM   20  C   UNL     1     -10.522   4.907  70.718  1.00  0.00    -0.166 C  
HETATM   21  C   UNL     1      -8.706   6.407  71.486  1.00  0.00    -0.134 C  
BRANCH  19  22
HETATM   22  C   UNL     1     -11.045   7.310  71.303  1.00  0.00    -0.270 C  
HETATM   23  C   UNL     1     -12.393   6.678  71.634  1.00  0.00    -0.382 C  
ENDBRANCH  19  22
ENDBRANCH  15  19
ENDBRANCH   4  13
TORSDOF 4
ENDMDL
MODEL       97
REMARK 921   NORMALIZED FREE ENERGY PREDICTED BY IDOCK:   -4.47 KCAL/MOL
REMARK 922        TOTAL FREE ENERGY PREDICTED BY IDOCK:   -5.82 KCAL/MOL
REMARK 923 INTER-LIGAND FREE ENERGY PREDICTED BY IDOCK:   -5.06 KCAL/MOL
REMARK 924 INTRA-LIGAND FREE ENERGY PREDICTED BY IDOCK:   -0.77 KCAL/MOL
REMARK 927      BINDING AFFINITY PREDICTED BY RF-SCORE:    0.00 PKD
ROOT
HETATM    1  C   UNL     1     -11.211  10.120  68.909  1.00  0.00    -0.220 C  
HETATM    2  C   UNL     1     -11.582  11.587  69.128  1.00  0.00    -0.382 C  
HETATM    3  C   UNL     1     -10.150   9.636  69.926  1.00  0.00    -0.246 C  
HETATM    4  C   UNL     1     -10.687   9.925  67.453  1.00  0.00    -0.323 C  
ENDROOT
BRANCH   3   5
HETATM    5  N   UNL     1     -10.441   9.647  71.371  1.00  0.00    -0.191 NA 
HETATM    6  C   UNL     1      -8.772   6.285  72.400  1.00  0.00    -0.121 C  
HETATM    7  C   UNL     1      -9.499   8.706  72.058  1.00  0.00    -0.300 C  
HETATM    8  C   UNL     1     -11.814   9.185  71.707  1.00  0.00    -0.383 C  
HETATM    9  C   UNL     1     -12.066   7.679  71.437  1.00  0.00    -0.316 C  
HETATM   10  C   UNL     1      -9.761   7.215  71.715  1.00  0.00    -0.157 C  
HETATM   11  C   UNL     1     -13.442   7.259  71.938  1.00  0.00    -0.295 C  
HETATM   12  O   UNL     1     -11.094   6.852  72.107  1.00  0.00    -0.229 OA 
ENDBRANCH   3   5
BRANCH   4  13
HETATM   13  C   UNL     1     -10.287   8.497  67.157  1.00  0.00    -0.377 A  
HETATM   14  C   UNL     1     -10.852   6.132  67.080  1.00  0.00    -0.435 A  
HETATM   15  C   UNL     1      -9.771   5.858  66.224  1.00  0.00    -0.132 A  
HETATM   16  C   UNL     1      -8.912   6.926  65.914  1.00  0.00    -0.092 A  
HETATM   17  C   UNL     1      -9.170   8.227  66.364  1.00  0.00    -0.247 A  
HETATM   18  C   UNL     1     -11.098   7.428  67.556  1.00  0.00    -0.045 A  
BRANCH  15  19
HETATM   19  C   UNL     1      -9.575   4.447  65.635  1.00  0.00    -0.189 C  
HETATM   20  C   UNL     1      -8.463   4.375  64.563  1.00  0.00    -0.119 C  
HETATM   21  C   UNL     1      -9.149   3.480  66.770  1.00  0.00    -0.179 C  
BRANCH  19  22
HETATM   22  C   UNL     1     -10.905   3.901  65.021  1.00  0.00     0.126 C  
HETATM   23  C   UNL     1     -10.855   3.570  63.532  1.00  0.00    -0.205 C  
ENDBRANCH  19  22
ENDBRANCH  15  19
ENDBRANCH   4  13
TORSDOF 4
ENDMDL
MODEL       98
REMARK 921   NORMALIZED FREE ENERGY PREDICTED BY IDOCK:   -4.45 KCAL/MOL
REMARK 922        TOTAL FREE ENERGY PREDICTED BY IDOCK:   -5.80 KCAL/MOL
REMARK 923 INTER-LIGAND FREE ENERGY PREDICTED BY IDOCK:   -5.77 KCAL/MOL
REMARK 924 INTRA-LIGAND FREE ENERGY PREDICTED BY IDOCK:   -0.03 KCAL/MOL
REMARK 927      BINDING AFFINITY PREDICTED BY RF-SCORE:    0.00 PKD
ROOT
HETATM    1  C   UNL     1      -9.274   8.769  65.711  1.00  0.00    -0.269 C  
HETATM    2  C   UNL     1      -8.302   8.767  64.530  1.00  0.00    -0.171 C  
HETATM    3  C   UNL     1      -9.066  10.001  66.626  1.00  0.00    -0.147 C  
HETATM    4  C   UNL     1      -9.102   7.455  66.533  1.00  0.00    -0.195 C  
ENDROOT
BRANCH   3   5
HETATM    5  N   UNL     1      -9.251  11.364  66.097  1.00  0.00    -0.206 NA 
HETATM    6  C   UNL     1      -6.905  13.325  68.504  1.00  0.00    -0.099 C  
HETATM    7  C   UNL     1      -8.102  12.214  66.545  1.00  0.00     0.107 C  
HETATM    8  C   UNL     1     -10.484  12.033  66.591  1.00  0.00    -0.215 C  
HETATM    9  C   UNL     1     -10.463  12.378  68.103  1.00  0.00    -0.219 C  
HETATM   10  C   UNL     1      -8.098  12.488  68.073  1.00  0.00    -0.164 C  
HETATM   11  C   UNL     1     -11.696  13.184  68.494  1.00  0.00    -0.387 C  
HETATM   12  O   UNL     1      -9.307  13.165  68.449  1.00  0.00    -0.207 OA 
ENDBRANCH   3   5
BRANCH   4  13
HETATM   13  C   UNL     1     -10.023   7.383  67.729  1.00  0.00    -0.208 A  
HETATM   14  C   UNL     1     -11.213   6.056  69.385  1.00  0.00    -0.397 A  
HETATM   15  C   UNL     1     -11.386   7.174  70.220  1.00  0.00    -0.305 A  
HETATM   16  C   UNL     1     -10.927   8.411  69.737  1.00  0.00    -0.130 A  
HETATM   17  C   UNL     1     -10.248   8.514  68.516  1.00  0.00    -0.225 A  
HETATM   18  C   UNL     1     -10.559   6.160  68.149  1.00  0.00    -0.328 A  
BRANCH  15  19
HETATM   19  C   UNL     1     -12.021   7.019  71.615  1.00  0.00    -0.365 C  
HETATM   20  C   UNL     1     -11.649   5.694  72.318  1.00  0.00    -0.244 C  
HETATM   21  C   UNL     1     -11.507   8.158  72.534  1.00  0.00    -0.470 C  
BRANCH  19  22
HETATM   22  C   UNL     1     -13.578   7.133  71.545  1.00  0.00    -0.408 C  
HETATM   23  C   UNL     1     -14.148   8.530  71.774  1.00  0.00    -0.515 C  
ENDBRANCH  19  22
ENDBRANCH  15  19
ENDBRANCH   4  13
TORSDOF 4
ENDMDL
MODEL       99
REMARK 921   NORMALIZED FREE ENERGY PREDICTED BY IDOCK:   -4.42 KCAL/MOL
REMARK 922        TOTAL FREE ENERGY PREDICTED BY IDOCK:   -5.75 KCAL/MOL
REMARK 923 INTER-LIGAND FREE ENERGY PREDICTED BY IDOCK:   -5.44 KCAL/MOL
REMARK 924 INTRA-LIGAND FREE ENERGY PREDICTED BY IDOCK:   -0.31 KCAL/MOL
REMARK 927      BINDING AFFINITY PREDICTED BY RF-SCORE:    0.00 PKD
ROOT
HETATM    1  C   UNL     1     -11.852  13.201  66.953  1.00  0.00    -0.444 C  
HETATM    2  C   UNL     1     -12.536  14.207  66.026  1.00  0.00    -0.454 C  
HETATM    3  C   UNL     1     -10.622  13.816  67.663  1.00  0.00    -0.242 C  
HETATM    4  C   UNL     1     -11.426  11.942  66.136  1.00  0.00    -0.352 C  
ENDROOT
BRANCH   3   5
HETATM    5  N   UNL     1     -10.779  14.974  68.561  1.00  0.00    -0.237 NA 
HETATM    6  C   UNL     1     -10.336  17.862  65.990  1.00  0.00    -0.318 C  
HETATM    7  C   UNL     1     -11.121  16.178  67.737  1.00  0.00    -0.254 C  
HETATM    8  C   UNL     1      -9.544  15.318  69.313  1.00  0.00    -0.249 C  
HETATM    9  C   UNL     1      -8.391  15.870  68.433  1.00  0.00    -0.174 C  
HETATM   10  C   UNL     1      -9.952  16.659  66.837  1.00  0.00    -0.271 C  
HETATM   11  C   UNL     1      -7.221  16.329  69.294  1.00  0.00    -0.221 C  
HETATM   12  O   UNL     1      -8.820  17.002  67.650  1.00  0.00    -0.216 OA 
ENDBRANCH   3   5
BRANCH   4  13
HETATM   13  C   UNL     1     -10.730  10.900  66.980  1.00  0.00    -0.323 A  
HETATM   14  C   UNL     1      -8.720   9.644  67.529  1.00  0.00    -0.126 A  
HETATM   15  C   UNL     1      -9.237   9.282  68.786  1.00  0.00    -0.136 A  
HETATM   16  C   UNL     1     -10.551   9.686  69.078  1.00  0.00    -0.237 A  
HETATM   17  C   UNL     1     -11.283  10.490  68.195  1.00  0.00    -0.357 A  
HETATM   18  C   UNL     1      -9.460  10.425  66.631  1.00  0.00    -0.199 A  
BRANCH  15  19
HETATM   19  C   UNL     1      -8.370   8.506  69.796  1.00  0.00    -0.124 C  
HETATM   20  C   UNL     1      -7.391   9.405  70.586  1.00  0.00    -0.140 C  
HETATM   21  C   UNL     1      -9.294   7.840  70.849  1.00  0.00    -0.157 C  
BRANCH  19  22
HETATM   22  C   UNL     1      -7.558   7.371  69.092  1.00  0.00    -0.105 C  
HETATM   23  C   UNL     1      -8.172   5.977  69.171  1.00  0.00    -0.111 C  
ENDBRANCH  19  22
ENDBRANCH  15  19
ENDBRANCH   4  13
TORSDOF 4
ENDMDL
MODEL      100
REMARK 921   NORMALIZED FREE ENERGY PREDICTED BY IDOCK:   -4.40 KCAL/MOL
REMARK 922        TOTAL FREE ENERGY PREDICTED BY IDOCK:   -5.74 KCAL/MOL
REMARK 923 INTER-LIGAND FREE ENERGY PREDICTED BY IDOCK:   -4.60 KCAL/MOL
REMARK 924 INTRA-LIGAND FREE ENERGY PREDICTED BY IDOCK:   -1.13 KCAL/MOL
REMARK 927      BINDING AFFINITY PREDICTED BY RF-SCORE:    0.00 PKD
ROOT
HETATM    1  C   UNL     1     -10.134   4.265  72.512  1.00  0.00    -0.233 C  
HETATM    2  C   UNL     1     -10.932   3.454  73.535  1.00  0.00    -0.328 C  
HETATM    3  C   UNL     1     -10.875   5.561  72.103  1.00  0.00    -0.235 C  
HETATM    4  C   UNL     1      -9.851   3.388  71.255  1.00  0.00    -0.194 C  
ENDROOT
BRANCH   3   5
HETATM    5  N   UNL     1     -11.188   6.593  73.108  1.00  0.00    -0.160 NA 
HETATM    6  C   UNL     1     -10.920   9.776  70.887  1.00  0.00    -0.411 C  
HETATM    7  C   UNL     1     -11.610   7.842  72.399  1.00  0.00    -0.380 C  
HETATM    8  C   UNL     1     -10.028   6.966  73.961  1.00  0.00    -0.336 C  
HETATM    9  C   UNL     1      -8.898   7.718  73.210  1.00  0.00    -0.221 C  
HETATM   10  C   UNL     1     -10.456   8.529  71.622  1.00  0.00    -0.275 C  
HETATM   11  C   UNL     1      -7.820   8.188  74.179  1.00  0.00    -0.285 C  
HETATM   12  O   UNL     1      -9.401   8.885  72.529  1.00  0.00    -0.308 OA 
ENDBRANCH   3   5
BRANCH   4  13
HETATM   13  C   UNL     1      -9.073   4.123  70.187  1.00  0.00    -0.181 A  
HETATM   14  C   UNL     1      -8.943   5.023  67.930  1.00  0.00    -0.116 A  
HETATM   15  C   UNL     1      -7.866   5.858  68.279  1.00  0.00    -0.105 A  
HETATM   16  C   UNL     1      -7.362   5.740  69.586  1.00  0.00    -0.071 A  
HETATM   17  C   UNL     1      -7.961   4.894  70.528  1.00  0.00    -0.077 A  
HETATM   18  C   UNL     1      -9.527   4.154  68.863  1.00  0.00    -0.238 A  
BRANCH  15  19
HETATM   19  C   UNL     1      -7.302   6.874  67.268  1.00  0.00    -0.091 C  
HETATM   20  C   UNL     1      -5.838   6.590  66.860  1.00  0.00    -0.014 C  
HETATM   21  C   UNL     1      -8.137   6.805  65.963  1.00  0.00    -0.119 C  
BRANCH  19  22
HETATM   22  C   UNL     1      -7.399   8.334  67.817  1.00  0.00    -0.093 C  
HETATM   23  C   UNL     1      -8.812   8.884  67.978  1.00  0.00    -0.133 C  
ENDBRANCH  19  22
ENDBRANCH  15  19
ENDBRANCH   4  13
TORSDOF 4
ENDMDL
MODEL      101
REMARK 921   NORMALIZED FREE ENERGY PREDICTED BY IDOCK:   -4.37 KCAL/MOL
REMARK 922        TOTAL FREE ENERGY PREDICTED BY IDOCK:   -5.70 KCAL/MOL
REMARK 923 INTER-LIGAND FREE ENERGY PREDICTED BY IDOCK:   -5.00 KCAL/MOL
REMARK 924 INTRA-LIGAND FREE ENERGY PREDICTED BY IDOCK:   -0.70 KCAL/MOL
REMARK 927      BINDING AFFINITY PREDICTED BY RF-SCORE:    0.00 PKD
ROOT
HETATM    1  C   UNL     1      -9.859   9.450  68.863  1.00  0.00    -0.176 C  
HETATM    2  C   UNL     1     -10.334  10.564  69.797  1.00  0.00    -0.211 C  
HETATM    3  C   UNL     1     -10.036   9.834  67.374  1.00  0.00    -0.191 C  
HETATM    4  C   UNL     1     -10.640   8.137  69.175  1.00  0.00    -0.179 C  
ENDROOT
BRANCH   3   5
HETATM    5  N   UNL     1      -9.329  11.000  66.814  1.00  0.00    -0.179 NA 
HETATM    6  C   UNL     1     -12.381  13.218  65.859  1.00  0.00    -0.479 C  
HETATM    7  C   UNL     1     -10.261  12.173  66.817  1.00  0.00    -0.203 C  
HETATM    8  C   UNL     1      -8.894  10.814  65.404  1.00  0.00    -0.189 C  
HETATM    9  C   UNL     1     -10.057  10.741  64.380  1.00  0.00    -0.353 C  
HETATM   10  C   UNL     1     -11.435  12.029  65.812  1.00  0.00    -0.320 C  
HETATM   11  C   UNL     1      -9.524  10.695  62.954  1.00  0.00    -0.367 C  
HETATM   12  O   UNL     1     -10.921  11.891  64.479  1.00  0.00    -0.296 OA 
ENDBRANCH   3   5
BRANCH   4  13
HETATM   13  C   UNL     1     -10.236   6.985  68.284  1.00  0.00    -0.206 A  
HETATM   14  C   UNL     1     -10.725   5.504  66.417  1.00  0.00    -0.262 A  
HETATM   15  C   UNL     1      -9.374   5.129  66.304  1.00  0.00    -0.155 A  
HETATM   16  C   UNL     1      -8.484   5.648  67.260  1.00  0.00    -0.106 A  
HETATM   17  C   UNL     1      -8.905   6.569  68.228  1.00  0.00    -0.119 A  
HETATM   18  C   UNL     1     -11.155   6.403  67.403  1.00  0.00    -0.412 A  
BRANCH  15  19
HETATM   19  C   UNL     1      -8.908   4.216  65.155  1.00  0.00    -0.130 C  
HETATM   20  C   UNL     1      -9.939   4.092  64.009  1.00  0.00    -0.160 C  
HETATM   21  C   UNL     1      -7.625   4.815  64.522  1.00  0.00    -0.073 C  
BRANCH  19  22
HETATM   22  C   UNL     1      -8.556   2.785  65.675  1.00  0.00    -0.107 C  
HETATM   23  C   UNL     1      -9.088   1.629  64.833  1.00  0.00    -0.123 C  
ENDBRANCH  19  22
ENDBRANCH  15  19
ENDBRANCH   4  13
TORSDOF 4
ENDMDL
MODEL      102
REMARK 921   NORMALIZED FREE ENERGY PREDICTED BY IDOCK:   -4.37 KCAL/MOL
REMARK 922        TOTAL FREE ENERGY PREDICTED BY IDOCK:   -5.69 KCAL/MOL
REMARK 923 INTER-LIGAND FREE ENERGY PREDICTED BY IDOCK:   -5.25 KCAL/MOL
REMARK 924 INTRA-LIGAND FREE ENERGY PREDICTED BY IDOCK:   -0.44 KCAL/MOL
REMARK 927      BINDING AFFINITY PREDICTED BY RF-SCORE:    0.00 PKD
ROOT
HETATM    1  C   UNL     1      -9.003   6.995  67.295  1.00  0.00    -0.119 C  
HETATM    2  C   UNL     1      -8.569   5.755  68.078  1.00  0.00    -0.105 C  
HETATM    3  C   UNL     1      -7.790   7.852  66.856  1.00  0.00    -0.104 C  
HETATM    4  C   UNL     1      -9.976   7.849  68.165  1.00  0.00    -0.210 C  
ENDROOT
BRANCH   3   5
HETATM    5  N   UNL     1      -6.764   7.290  65.959  1.00  0.00    -0.052 NA 
HETATM    6  C   UNL     1      -5.349  10.581  64.440  1.00  0.00    -0.145 C  
HETATM    7  C   UNL     1      -5.775   8.365  65.628  1.00  0.00    -0.043 C  
HETATM    8  C   UNL     1      -7.306   6.805  64.662  1.00  0.00    -0.089 C  
HETATM    9  C   UNL     1      -7.832   7.927  63.729  1.00  0.00    -0.141 C  
HETATM   10  C   UNL     1      -6.364   9.489  64.734  1.00  0.00    -0.083 C  
HETATM   11  C   UNL     1      -8.235   7.362  62.372  1.00  0.00    -0.084 C  
HETATM   12  O   UNL     1      -6.827   8.933  63.494  1.00  0.00    -0.089 OA 
ENDBRANCH   3   5
BRANCH   4  13
HETATM   13  C   UNL     1     -10.444   9.104  67.466  1.00  0.00    -0.335 A  
HETATM   14  C   UNL     1     -11.358  11.356  67.584  1.00  0.00    -0.359 A  
HETATM   15  C   UNL     1     -10.935  11.643  66.274  1.00  0.00    -0.338 A  
HETATM   16  C   UNL     1     -10.332  10.598  65.553  1.00  0.00    -0.297 A  
HETATM   17  C   UNL     1     -10.081   9.352  66.141  1.00  0.00    -0.324 A  
HETATM   18  C   UNL     1     -11.134  10.100  68.167  1.00  0.00    -0.290 A  
BRANCH  15  19
HETATM   19  C   UNL     1     -11.105  13.057  65.688  1.00  0.00    -0.301 C  
HETATM   20  C   UNL     1     -12.514  13.652  65.911  1.00  0.00    -0.502 C  
HETATM   21  C   UNL     1     -10.111  14.018  66.390  1.00  0.00    -0.299 C  
BRANCH  19  22
HETATM   22  C   UNL     1     -10.785  13.079  64.158  1.00  0.00    -0.429 C  
HETATM   23  C   UNL     1     -11.979  12.866  63.232  1.00  0.00    -0.516 C  
ENDBRANCH  19  22
ENDBRANCH  15  19
ENDBRANCH   4  13
TORSDOF 4
ENDMDL
MODEL      103
REMARK 921   NORMALIZED FREE ENERGY PREDICTED BY IDOCK:   -4.35 KCAL/MOL
REMARK 922        TOTAL FREE ENERGY PREDICTED BY IDOCK:   -5.67 KCAL/MOL
REMARK 923 INTER-LIGAND FREE ENERGY PREDICTED BY IDOCK:   -5.10 KCAL/MOL
REMARK 924 INTRA-LIGAND FREE ENERGY PREDICTED BY IDOCK:   -0.58 KCAL/MOL
REMARK 927      BINDING AFFINITY PREDICTED BY RF-SCORE:    0.00 PKD
ROOT
HETATM    1  C   UNL     1      -9.924   9.974  67.236  1.00  0.00    -0.245 C  
HETATM    2  C   UNL     1      -9.759  10.872  66.009  1.00  0.00    -0.268 C  
HETATM    3  C   UNL     1     -10.592  10.724  68.414  1.00  0.00    -0.197 C  
HETATM    4  C   UNL     1      -8.532   9.423  67.671  1.00  0.00    -0.119 C  
ENDROOT
BRANCH   3   5
HETATM    5  N   UNL     1     -11.952  11.274  68.274  1.00  0.00    -0.621 NA 
HETATM    6  C   UNL     1     -11.199  15.046  68.862  1.00  0.00    -0.288 C  
HETATM    7  C   UNL     1     -11.851  12.740  67.988  1.00  0.00    -0.336 C  
HETATM    8  C   UNL     1     -12.778  11.143  69.504  1.00  0.00     0.253 C  
HETATM    9  C   UNL     1     -12.301  12.020  70.691  1.00  0.00    -0.304 C  
HETATM   10  C   UNL     1     -11.322  13.567  69.190  1.00  0.00    -0.282 C  
HETATM   11  C   UNL     1     -13.278  11.935  71.857  1.00  0.00    -0.467 C  
HETATM   12  O   UNL     1     -12.199  13.408  70.315  1.00  0.00    -0.339 OA 
ENDBRANCH   3   5
BRANCH   4  13
HETATM   13  C   UNL     1      -8.606   8.530  68.889  1.00  0.00    -0.127 A  
HETATM   14  C   UNL     1      -8.641   8.281  71.309  1.00  0.00    -0.179 A  
HETATM   15  C   UNL     1      -9.171   6.982  71.210  1.00  0.00    -0.152 A  
HETATM   16  C   UNL     1      -9.335   6.453  69.919  1.00  0.00    -0.156 A  
HETATM   17  C   UNL     1      -9.066   7.217  68.776  1.00  0.00    -0.127 A  
HETATM   18  C   UNL     1      -8.344   9.038  70.167  1.00  0.00    -0.156 A  
BRANCH  15  19
HETATM   19  C   UNL     1      -9.581   6.205  72.476  1.00  0.00    -0.149 C  
HETATM   20  C   UNL     1      -9.871   7.115  73.691  1.00  0.00    -0.342 C  
HETATM   21  C   UNL     1     -10.893   5.428  72.191  1.00  0.00    -0.275 C  
BRANCH  19  22
HETATM   22  C   UNL     1      -8.489   5.160  72.877  1.00  0.00    -0.116 C  
HETATM   23  C   UNL     1      -8.665   4.518  74.250  1.00  0.00    -0.106 C  
ENDBRANCH  19  22
ENDBRANCH  15  19
ENDBRANCH   4  13
TORSDOF 4
ENDMDL
MODEL      104
REMARK 921   NORMALIZED FREE ENERGY PREDICTED BY IDOCK:   -4.31 KCAL/MOL
REMARK 922        TOTAL FREE ENERGY PREDICTED BY IDOCK:   -5.63 KCAL/MOL
REMARK 923 INTER-LIGAND FREE ENERGY PREDICTED BY IDOCK:   -5.08 KCAL/MOL
REMARK 924 INTRA-LIGAND FREE ENERGY PREDICTED BY IDOCK:   -0.55 KCAL/MOL
REMARK 927      BINDING AFFINITY PREDICTED BY RF-SCORE:    0.00 PKD
ROOT
HETATM    1  C   UNL     1      -8.777  11.186  68.842  1.00  0.00    -0.086 C  
HETATM    2  C   UNL     1      -8.881   9.663  68.933  1.00  0.00    -0.136 C  
HETATM    3  C   UNL     1      -9.748  11.767  67.786  1.00  0.00    -0.183 C  
HETATM    4  C   UNL     1      -7.310  11.590  68.502  1.00  0.00    -0.104 C  
ENDROOT
BRANCH   3   5
HETATM    5  N   UNL     1     -11.203  11.586  67.930  1.00  0.00    -0.256 NA 
HETATM    6  C   UNL     1     -12.451  14.325  65.463  1.00  0.00    -0.434 C  
HETATM    7  C   UNL     1     -11.883  12.192  66.740  1.00  0.00    -0.228 C  
HETATM    8  C   UNL     1     -11.773  12.261  69.126  1.00  0.00    -0.323 C  
HETATM    9  C   UNL     1     -11.743  13.811  69.062  1.00  0.00    -0.331 C  
HETATM   10  C   UNL     1     -11.781  13.740  66.696  1.00  0.00    -0.394 C  
HETATM   11  C   UNL     1     -12.471  14.419  70.255  1.00  0.00    -0.413 C  
HETATM   12  O   UNL     1     -12.387  14.303  67.870  1.00  0.00    -0.229 OA 
ENDBRANCH   3   5
BRANCH   4  13
HETATM   13  C   UNL     1      -7.123  13.086  68.383  1.00  0.00    -0.103 A  
HETATM   14  C   UNL     1      -7.618  15.178  67.245  1.00  0.00    -0.236 A  
HETATM   15  C   UNL     1      -7.176  15.932  68.347  1.00  0.00    -0.121 A  
HETATM   16  C   UNL     1      -6.633  15.222  69.432  1.00  0.00    -0.152 A  
HETATM   17  C   UNL     1      -6.616  13.822  69.455  1.00  0.00    -0.081 A  
HETATM   18  C   UNL     1      -7.576  13.777  67.253  1.00  0.00    -0.075 A  
BRANCH  15  19
HETATM   19  C   UNL     1      -7.320  17.466  68.357  1.00  0.00    -0.227 C  
HETATM   20  C   UNL     1      -8.723  17.950  68.792  1.00  0.00    -0.206 C  
HETATM   21  C   UNL     1      -6.318  18.063  69.378  1.00  0.00    -0.243 C  
BRANCH  19  22
HETATM   22  C   UNL     1      -6.989  18.075  66.956  1.00  0.00    -0.214 C  
HETATM   23  C   UNL     1      -8.083  18.942  66.339  1.00  0.00    -0.306 C  
ENDBRANCH  19  22
ENDBRANCH  15  19
ENDBRANCH   4  13
TORSDOF 4
ENDMDL
MODEL      105
REMARK 921   NORMALIZED FREE ENERGY PREDICTED BY IDOCK:   -4.31 KCAL/MOL
REMARK 922        TOTAL FREE ENERGY PREDICTED BY IDOCK:   -5.62 KCAL/MOL
REMARK 923 INTER-LIGAND FREE ENERGY PREDICTED BY IDOCK:   -4.75 KCAL/MOL
REMARK 924 INTRA-LIGAND FREE ENERGY PREDICTED BY IDOCK:   -0.87 KCAL/MOL
REMARK 927      BINDING AFFINITY PREDICTED BY RF-SCORE:    0.00 PKD
ROOT
HETATM    1  C   UNL     1      -6.779  14.902  68.887  1.00  0.00    -0.100 C  
HETATM    2  C   UNL     1      -6.184  16.054  69.698  1.00  0.00    -0.182 C  
HETATM    3  C   UNL     1      -8.324  14.870  68.982  1.00  0.00    -0.175 C  
HETATM    4  C   UNL     1      -6.183  13.550  69.384  1.00  0.00    -0.107 C  
ENDROOT
BRANCH   3   5
HETATM    5  N   UNL     1      -9.126  16.008  68.498  1.00  0.00    -0.195 NA 
HETATM    6  C   UNL     1     -12.434  15.350  70.438  1.00  0.00    -0.447 C  
HETATM    7  C   UNL     1     -10.257  16.239  69.452  1.00  0.00    -0.265 C  
HETATM    8  C   UNL     1      -9.743  15.778  67.165  1.00  0.00    -0.223 C  
HETATM    9  C   UNL     1     -10.855  14.696  67.152  1.00  0.00    -0.303 C  
HETATM   10  C   UNL     1     -11.316  15.105  69.439  1.00  0.00    -0.294 C  
HETATM   11  C   UNL     1     -11.530  14.625  65.788  1.00  0.00    -0.338 C  
HETATM   12  O   UNL     1     -11.881  14.981  68.124  1.00  0.00    -0.334 OA 
ENDBRANCH   3   5
BRANCH   4  13
HETATM   13  C   UNL     1      -6.730  12.355  68.638  1.00  0.00    -0.083 A  
HETATM   14  C   UNL     1      -8.451  10.656  68.370  1.00  0.00    -0.132 A  
HETATM   15  C   UNL     1      -8.047  10.394  67.049  1.00  0.00    -0.116 A  
HETATM   16  C   UNL     1      -6.918  11.084  66.575  1.00  0.00    -0.138 A  
HETATM   17  C   UNL     1      -6.275  12.056  67.352  1.00  0.00    -0.136 A  
HETATM   18  C   UNL     1      -7.792  11.607  69.161  1.00  0.00     0.113 A  
BRANCH  15  19
HETATM   19  C   UNL     1      -8.845   9.415  66.165  1.00  0.00    -0.178 C  
HETATM   20  C   UNL     1      -7.962   8.615  65.180  1.00  0.00    -0.127 C  
HETATM   21  C   UNL     1      -9.542   8.368  67.073  1.00  0.00    -0.248 C  
BRANCH  19  22
HETATM   22  C   UNL     1      -9.957  10.158  65.357  1.00  0.00    -0.377 C  
HETATM   23  C   UNL     1      -9.581  10.557  63.934  1.00  0.00    -0.363 C  
ENDBRANCH  19  22
ENDBRANCH  15  19
ENDBRANCH   4  13
TORSDOF 4
ENDMDL
MODEL      106
REMARK 921   NORMALIZED FREE ENERGY PREDICTED BY IDOCK:   -4.26 KCAL/MOL
REMARK 922        TOTAL FREE ENERGY PREDICTED BY IDOCK:   -5.56 KCAL/MOL
REMARK 923 INTER-LIGAND FREE ENERGY PREDICTED BY IDOCK:   -4.90 KCAL/MOL
REMARK 924 INTRA-LIGAND FREE ENERGY PREDICTED BY IDOCK:   -0.67 KCAL/MOL
REMARK 927      BINDING AFFINITY PREDICTED BY RF-SCORE:    0.00 PKD
ROOT
HETATM    1  C   UNL     1     -10.256   6.660  69.569  1.00  0.00    -0.208 C  
HETATM    2  C   UNL     1     -10.480   5.229  70.061  1.00  0.00    -0.351 C  
HETATM    3  C   UNL     1      -8.791   7.115  69.771  1.00  0.00    -0.142 C  
HETATM    4  C   UNL     1     -11.227   7.626  70.313  1.00  0.00    -0.230 C  
ENDROOT
BRANCH   3   5
HETATM    5  N   UNL     1      -7.688   6.404  69.100  1.00  0.00    -0.099 NA 
HETATM    6  C   UNL     1      -5.355   9.416  68.306  1.00  0.00    -0.037 C  
HETATM    7  C   UNL     1      -6.469   7.274  69.128  1.00  0.00    -0.036 C  
HETATM    8  C   UNL     1      -7.955   6.103  67.669  1.00  0.00    -0.106 C  
HETATM    9  C   UNL     1      -8.010   7.353  66.752  1.00  0.00    -0.115 C  
HETATM   10  C   UNL     1      -6.593   8.536  68.234  1.00  0.00    -0.061 C  
HETATM   11  C   UNL     1      -8.144   6.949  65.289  1.00  0.00    -0.134 C  
HETATM   12  O   UNL     1      -6.813   8.148  66.870  1.00  0.00    -0.066 OA 
ENDBRANCH   3   5
BRANCH   4  13
HETATM   13  C   UNL     1     -11.062   9.068  69.891  1.00  0.00    -0.155 A  
HETATM   14  C   UNL     1     -10.619  10.707  68.148  1.00  0.00    -0.237 A  
HETATM   15  C   UNL     1     -11.162  11.745  68.926  1.00  0.00    -0.311 A  
HETATM   16  C   UNL     1     -11.579  11.419  70.228  1.00  0.00    -0.334 A  
HETATM   17  C   UNL     1     -11.539  10.101  70.701  1.00  0.00    -0.429 A  
HETATM   18  C   UNL     1     -10.551   9.392  68.628  1.00  0.00    -0.230 A  
BRANCH  15  19
HETATM   19  C   UNL     1     -11.316  13.163  68.344  1.00  0.00    -0.324 C  
HETATM   20  C   UNL     1     -12.098  13.201  67.011  1.00  0.00    -0.366 C  
HETATM   21  C   UNL     1     -12.118  14.036  69.343  1.00  0.00    -0.386 C  
BRANCH  19  22
HETATM   22  C   UNL     1      -9.924  13.842  68.131  1.00  0.00    -0.240 C  
HETATM   23  C   UNL     1      -9.468  13.969  66.681  1.00  0.00    -0.300 C  
ENDBRANCH  19  22
ENDBRANCH  15  19
ENDBRANCH   4  13
TORSDOF 4
ENDMDL
MODEL      107
REMARK 921   NORMALIZED FREE ENERGY PREDICTED BY IDOCK:   -4.25 KCAL/MOL
REMARK 922        TOTAL FREE ENERGY PREDICTED BY IDOCK:   -5.55 KCAL/MOL
REMARK 923 INTER-LIGAND FREE ENERGY PREDICTED BY IDOCK:   -5.36 KCAL/MOL
REMARK 924 INTRA-LIGAND FREE ENERGY PREDICTED BY IDOCK:   -0.19 KCAL/MOL
REMARK 927      BINDING AFFINITY PREDICTED BY RF-SCORE:    0.00 PKD
ROOT
HETATM    1  C   UNL     1      -9.795  18.532  67.993  1.00  0.00    -0.370 C  
HETATM    2  C   UNL     1     -10.241  19.994  68.053  1.00  0.00    -0.538 C  
HETATM    3  C   UNL     1      -8.891  18.256  66.767  1.00  0.00    -0.276 C  
HETATM    4  C   UNL     1     -11.048  17.604  67.955  1.00  0.00     0.041 C  
ENDROOT
BRANCH   3   5
HETATM    5  N   UNL     1      -7.603  18.956  66.617  1.00  0.00    -0.231 NA 
HETATM    6  C   UNL     1      -5.169  16.043  67.475  1.00  0.00    -0.111 C  
HETATM    7  C   UNL     1      -6.521  17.937  66.430  1.00  0.00    -0.228 C  
HETATM    8  C   UNL     1      -7.219  19.762  67.806  1.00  0.00    -0.276 C  
HETATM    9  C   UNL     1      -6.874  18.921  69.064  1.00  0.00    -0.306 C  
HETATM   10  C   UNL     1      -6.249  17.089  67.701  1.00  0.00    -0.147 C  
HETATM   11  C   UNL     1      -6.356  19.811  70.187  1.00  0.00    -0.323 C  
HETATM   12  O   UNL     1      -5.851  17.945  68.783  1.00  0.00    -0.179 OA 
ENDBRANCH   3   5
BRANCH   4  13
HETATM   13  C   UNL     1     -10.693  16.137  67.883  1.00  0.00    -0.321 A  
HETATM   14  C   UNL     1     -10.369  14.118  66.564  1.00  0.00    -0.284 A  
HETATM   15  C   UNL     1      -9.628  13.512  67.595  1.00  0.00    -0.222 A  
HETATM   16  C   UNL     1      -9.505  14.225  68.799  1.00  0.00    -0.131 A  
HETATM   17  C   UNL     1     -10.020  15.520  68.939  1.00  0.00    -0.218 A  
HETATM   18  C   UNL     1     -10.910  15.403  66.711  1.00  0.00    -0.306 A  
BRANCH  15  19
HETATM   19  C   UNL     1      -8.960  12.140  67.378  1.00  0.00    -0.180 C  
HETATM   20  C   UNL     1      -7.416  12.192  67.431  1.00  0.00    -0.156 C  
HETATM   21  C   UNL     1      -9.402  11.178  68.511  1.00  0.00    -0.190 C  
BRANCH  19  22
HETATM   22  C   UNL     1      -9.398  11.506  66.019  1.00  0.00    -0.239 C  
HETATM   23  C   UNL     1      -8.495  10.396  65.489  1.00  0.00    -0.171 C  
ENDBRANCH  19  22
ENDBRANCH  15  19
ENDBRANCH   4  13
TORSDOF 4
ENDMDL
MODEL      108
REMARK 921   NORMALIZED FREE ENERGY PREDICTED BY IDOCK:   -4.25 KCAL/MOL
REMARK 922        TOTAL FREE ENERGY PREDICTED BY IDOCK:   -5.55 KCAL/MOL
REMARK 923 INTER-LIGAND FREE ENERGY PREDICTED BY IDOCK:   -4.61 KCAL/MOL
REMARK 924 INTRA-LIGAND FREE ENERGY PREDICTED BY IDOCK:   -0.94 KCAL/MOL
REMARK 927      BINDING AFFINITY PREDICTED BY RF-SCORE:    0.00 PKD
ROOT
HETATM    1  C   UNL     1     -10.559   5.503  72.414  1.00  0.00    -0.272 C  
HETATM    2  C   UNL     1     -10.927   4.669  73.642  1.00  0.00    -0.392 C  
HETATM    3  C   UNL     1      -9.329   6.405  72.677  1.00  0.00    -0.141 C  
HETATM    4  C   UNL     1     -11.781   6.373  71.987  1.00  0.00    -0.376 C  
ENDROOT
BRANCH   3   5
HETATM    5  N   UNL     1      -8.026   5.809  73.022  1.00  0.00    -0.107 NA 
HETATM    6  C   UNL     1      -6.171   8.982  74.300  1.00  0.00    -0.036 C  
HETATM    7  C   UNL     1      -7.313   6.726  73.967  1.00  0.00    -0.092 C  
HETATM    8  C   UNL     1      -7.124   5.628  71.853  1.00  0.00    -0.086 C  
HETATM    9  C   UNL     1      -6.609   6.953  71.232  1.00  0.00    -0.049 C  
HETATM   10  C   UNL     1      -6.863   8.058  73.311  1.00  0.00    -0.101 C  
HETATM   11  C   UNL     1      -5.585   6.679  70.137  1.00  0.00    -0.019 C  
HETATM   12  O   UNL     1      -5.970   7.787  72.219  1.00  0.00    -0.039 OA 
ENDBRANCH   3   5
BRANCH   4  13
HETATM   13  C   UNL     1     -11.495   7.239  70.781  1.00  0.00    -0.328 A  
HETATM   14  C   UNL     1     -11.007   9.428  69.837  1.00  0.00    -0.251 A  
HETATM   15  C   UNL     1     -10.531   8.855  68.645  1.00  0.00    -0.223 A  
HETATM   16  C   UNL     1     -10.625   7.458  68.523  1.00  0.00    -0.188 A  
HETATM   17  C   UNL     1     -11.090   6.661  69.577  1.00  0.00    -0.378 A  
HETATM   18  C   UNL     1     -11.500   8.635  70.884  1.00  0.00    -0.315 A  
BRANCH  15  19
HETATM   19  C   UNL     1      -9.905   9.737  67.547  1.00  0.00    -0.209 C  
HETATM   20  C   UNL     1      -8.483  10.235  67.893  1.00  0.00    -0.118 C  
HETATM   21  C   UNL     1      -9.769   8.905  66.246  1.00  0.00    -0.345 C  
BRANCH  19  22
HETATM   22  C   UNL     1     -10.808  10.972  67.229  1.00  0.00    -0.335 C  
HETATM   23  C   UNL     1     -10.199  12.333  67.548  1.00  0.00    -0.212 C  
ENDBRANCH  19  22
ENDBRANCH  15  19
ENDBRANCH   4  13
TORSDOF 4
ENDMDL
MODEL      109
REMARK 921   NORMALIZED FREE ENERGY PREDICTED BY IDOCK:   -4.25 KCAL/MOL
REMARK 922        TOTAL FREE ENERGY PREDICTED BY IDOCK:   -5.55 KCAL/MOL
REMARK 923 INTER-LIGAND FREE ENERGY PREDICTED BY IDOCK:   -4.96 KCAL/MOL
REMARK 924 INTRA-LIGAND FREE ENERGY PREDICTED BY IDOCK:   -0.59 KCAL/MOL
REMARK 927      BINDING AFFINITY PREDICTED BY RF-SCORE:    0.00 PKD
ROOT
HETATM    1  C   UNL     1     -10.747   9.073  69.862  1.00  0.00    -0.240 C  
HETATM    2  C   UNL     1     -11.229  10.524  69.915  1.00  0.00    -0.374 C  
HETATM    3  C   UNL     1     -10.091   8.636  71.195  1.00  0.00    -0.226 C  
HETATM    4  C   UNL     1      -9.739   8.900  68.685  1.00  0.00    -0.169 C  
ENDROOT
BRANCH   3   5
HETATM    5  N   UNL     1     -10.870   8.636  72.446  1.00  0.00    -0.311 NA 
HETATM    6  C   UNL     1     -10.665   4.855  73.344  1.00  0.00    -0.329 C  
HETATM    7  C   UNL     1     -10.533   7.399  73.221  1.00  0.00    -0.374 C  
HETATM    8  C   UNL     1     -12.341   8.610  72.233  1.00  0.00    -0.382 C  
HETATM    9  C   UNL     1     -12.877   7.283  71.633  1.00  0.00    -0.375 C  
HETATM   10  C   UNL     1     -11.047   6.096  72.553  1.00  0.00    -0.274 C  
HETATM   11  C   UNL     1     -14.400   7.286  71.581  1.00  0.00    -0.583 C  
HETATM   12  O   UNL     1     -12.476   6.146  72.422  1.00  0.00    -0.180 OA 
ENDBRANCH   3   5
BRANCH   4  13
HETATM   13  C   UNL     1      -9.204   7.490  68.571  1.00  0.00    -0.143 A  
HETATM   14  C   UNL     1      -7.350   5.927  68.762  1.00  0.00    -0.084 A  
HETATM   15  C   UNL     1      -8.225   4.827  68.801  1.00  0.00    -0.083 A  
HETATM   16  C   UNL     1      -9.595   5.093  68.641  1.00  0.00    -0.194 A  
HETATM   17  C   UNL     1     -10.080   6.403  68.538  1.00  0.00    -0.173 A  
HETATM   18  C   UNL     1      -7.828   7.238  68.630  1.00  0.00    -0.122 A  
BRANCH  15  19
HETATM   19  C   UNL     1      -7.685   3.404  69.043  1.00  0.00    -0.051 C  
HETATM   20  C   UNL     1      -7.957   2.434  67.871  1.00  0.00    -0.062 C  
HETATM   21  C   UNL     1      -6.144   3.469  69.205  1.00  0.00    -0.028 C  
BRANCH  19  22
HETATM   22  C   UNL     1      -8.275   2.790  70.354  1.00  0.00    -0.068 C  
HETATM   23  C   UNL     1      -9.514   1.919  70.174  1.00  0.00    -0.138 C  
ENDBRANCH  19  22
ENDBRANCH  15  19
ENDBRANCH   4  13
TORSDOF 4
ENDMDL
MODEL      110
REMARK 921   NORMALIZED FREE ENERGY PREDICTED BY IDOCK:   -4.21 KCAL/MOL
REMARK 922        TOTAL FREE ENERGY PREDICTED BY IDOCK:   -5.49 KCAL/MOL
REMARK 923 INTER-LIGAND FREE ENERGY PREDICTED BY IDOCK:   -4.74 KCAL/MOL
REMARK 924 INTRA-LIGAND FREE ENERGY PREDICTED BY IDOCK:   -0.76 KCAL/MOL
REMARK 927      BINDING AFFINITY PREDICTED BY RF-SCORE:    0.00 PKD
ROOT
HETATM    1  C   UNL     1      -6.944   8.226  69.073  1.00  0.00    -0.061 C  
HETATM    2  C   UNL     1      -5.917   7.092  69.109  1.00  0.00    -0.022 C  
HETATM    3  C   UNL     1      -8.288   7.805  69.715  1.00  0.00    -0.131 C  
HETATM    4  C   UNL     1      -7.171   8.679  67.599  1.00  0.00    -0.084 C  
ENDROOT
BRANCH   3   5
HETATM    5  N   UNL     1      -8.347   7.408  71.133  1.00  0.00    -0.113 NA 
HETATM    6  C   UNL     1      -9.829   3.830  70.748  1.00  0.00    -0.173 C  
HETATM    7  C   UNL     1      -8.434   5.915  71.210  1.00  0.00    -0.128 C  
HETATM    8  C   UNL     1      -9.539   7.934  71.851  1.00  0.00    -0.173 C  
HETATM    9  C   UNL     1     -10.887   7.322  71.388  1.00  0.00    -0.230 C  
HETATM   10  C   UNL     1      -9.781   5.348  70.688  1.00  0.00    -0.181 C  
HETATM   11  C   UNL     1     -12.034   7.805  72.266  1.00  0.00    -0.356 C  
HETATM   12  O   UNL     1     -10.866   5.882  71.462  1.00  0.00    -0.250 OA 
ENDBRANCH   3   5
BRANCH   4  13
HETATM   13  C   UNL     1      -8.184   9.794  67.474  1.00  0.00    -0.114 A  
HETATM   14  C   UNL     1      -8.788  12.127  67.806  1.00  0.00    -0.172 A  
HETATM   15  C   UNL     1      -9.850  12.028  66.889  1.00  0.00    -0.217 A  
HETATM   16  C   UNL     1     -10.101  10.760  66.336  1.00  0.00    -0.278 A  
HETATM   17  C   UNL     1      -9.277   9.663  66.615  1.00  0.00    -0.187 A  
HETATM   18  C   UNL     1      -7.978  11.024  68.110  1.00  0.00    -0.119 A  
BRANCH  15  19
HETATM   19  C   UNL     1     -10.666  13.274  66.496  1.00  0.00    -0.290 C  
HETATM   20  C   UNL     1     -10.008  14.114  65.378  1.00  0.00    -0.321 C  
HETATM   21  C   UNL     1     -12.045  12.824  65.948  1.00  0.00    -0.485 C  
BRANCH  19  22
HETATM   22  C   UNL     1     -10.925  14.194  67.733  1.00  0.00    -0.274 C  
HETATM   23  C   UNL     1     -11.765  13.579  68.848  1.00  0.00    -0.379 C  
ENDBRANCH  19  22
ENDBRANCH  15  19
ENDBRANCH   4  13
TORSDOF 4
ENDMDL
MODEL      111
REMARK 921   NORMALIZED FREE ENERGY PREDICTED BY IDOCK:   -4.19 KCAL/MOL
REMARK 922        TOTAL FREE ENERGY PREDICTED BY IDOCK:   -5.47 KCAL/MOL
REMARK 923 INTER-LIGAND FREE ENERGY PREDICTED BY IDOCK:   -4.49 KCAL/MOL
REMARK 924 INTRA-LIGAND FREE ENERGY PREDICTED BY IDOCK:   -0.98 KCAL/MOL
REMARK 927      BINDING AFFINITY PREDICTED BY RF-SCORE:    0.00 PKD
ROOT
HETATM    1  C   UNL     1      -9.728   7.690  68.638  1.00  0.00    -0.157 C  
HETATM    2  C   UNL     1      -9.386   6.268  69.085  1.00  0.00    -0.133 C  
HETATM    3  C   UNL     1      -8.462   8.573  68.511  1.00  0.00    -0.131 C  
HETATM    4  C   UNL     1     -10.729   8.329  69.649  1.00  0.00    -0.196 C  
ENDROOT
BRANCH   3   5
HETATM    5  N   UNL     1      -7.397   8.219  67.556  1.00  0.00    -0.091 NA 
HETATM    6  C   UNL     1      -5.718  11.703  67.127  1.00  0.00    -0.120 C  
HETATM    7  C   UNL     1      -6.337   9.276  67.605  1.00  0.00    -0.059 C  
HETATM    8  C   UNL     1      -7.860   8.155  66.144  1.00  0.00    -0.092 C  
HETATM    9  C   UNL     1      -8.260   9.527  65.539  1.00  0.00    -0.125 C  
HETATM   10  C   UNL     1      -6.802  10.642  67.035  1.00  0.00    -0.091 C  
HETATM   11  C   UNL     1      -8.582   9.394  64.056  1.00  0.00    -0.222 C  
HETATM   12  O   UNL     1      -7.194  10.490  65.662  1.00  0.00    -0.146 OA 
ENDBRANCH   3   5
BRANCH   4  13
HETATM   13  C   UNL     1     -11.110   9.745  69.284  1.00  0.00    -0.184 A  
HETATM   14  C   UNL     1     -11.351  12.083  69.915  1.00  0.00    -0.144 A  
HETATM   15  C   UNL     1     -11.389  12.487  68.568  1.00  0.00    -0.337 A  
HETATM   16  C   UNL     1     -11.365  11.474  67.595  1.00  0.00    -0.358 A  
HETATM   17  C   UNL     1     -11.217  10.126  67.945  1.00  0.00    -0.234 A  
HETATM   18  C   UNL     1     -11.232  10.732  70.270  1.00  0.00    -0.326 A  
BRANCH  15  19
HETATM   19  C   UNL     1     -11.422  13.983  68.200  1.00  0.00    -0.341 C  
HETATM   20  C   UNL     1     -11.922  14.252  66.761  1.00  0.00    -0.462 C  
HETATM   21  C   UNL     1     -12.409  14.715  69.146  1.00  0.00    -0.130 C  
BRANCH  19  22
HETATM   22  C   UNL     1     -10.016  14.641  68.377  1.00  0.00    -0.227 C  
HETATM   23  C   UNL     1      -8.833  13.808  67.895  1.00  0.00    -0.186 C  
ENDBRANCH  19  22
ENDBRANCH  15  19
ENDBRANCH   4  13
TORSDOF 4
ENDMDL
MODEL      112
REMARK 921   NORMALIZED FREE ENERGY PREDICTED BY IDOCK:   -4.15 KCAL/MOL
REMARK 922        TOTAL FREE ENERGY PREDICTED BY IDOCK:   -5.43 KCAL/MOL
REMARK 923 INTER-LIGAND FREE ENERGY PREDICTED BY IDOCK:   -4.77 KCAL/MOL
REMARK 924 INTRA-LIGAND FREE ENERGY PREDICTED BY IDOCK:   -0.66 KCAL/MOL
REMARK 927      BINDING AFFINITY PREDICTED BY RF-SCORE:    0.00 PKD
ROOT
HETATM    1  C   UNL     1      -9.792   5.077  69.057  1.00  0.00    -0.252 C  
HETATM    2  C   UNL     1      -9.649   3.894  70.016  1.00  0.00    -0.269 C  
HETATM    3  C   UNL     1      -8.446   5.440  68.385  1.00  0.00    -0.096 C  
HETATM    4  C   UNL     1     -10.356   6.310  69.828  1.00  0.00    -0.260 C  
ENDROOT
BRANCH   3   5
HETATM    5  N   UNL     1      -7.750   4.460  67.531  1.00  0.00    -0.084 NA 
HETATM    6  C   UNL     1      -6.164   6.875  64.923  1.00  0.00    -0.036 C  
HETATM    7  C   UNL     1      -6.690   5.173  66.749  1.00  0.00    -0.061 C  
HETATM    8  C   UNL     1      -8.635   3.802  66.534  1.00  0.00    -0.113 C  
HETATM    9  C   UNL     1      -9.154   4.746  65.418  1.00  0.00    -0.154 C  
HETATM   10  C   UNL     1      -7.260   6.142  65.680  1.00  0.00    -0.074 C  
HETATM   11  C   UNL     1      -9.932   3.966  64.365  1.00  0.00    -0.199 C  
HETATM   12  O   UNL     1      -8.069   5.414  64.744  1.00  0.00    -0.110 OA 
ENDBRANCH   3   5
BRANCH   4  13
HETATM   13  C   UNL     1     -10.518   7.530  68.951  1.00  0.00    -0.214 A  
HETATM   14  C   UNL     1     -10.510   9.950  68.700  1.00  0.00    -0.231 A  
HETATM   15  C   UNL     1     -10.376   9.848  67.304  1.00  0.00    -0.303 A  
HETATM   16  C   UNL     1     -10.396   8.556  66.752  1.00  0.00    -0.346 A  
HETATM   17  C   UNL     1     -10.456   7.414  67.561  1.00  0.00    -0.338 A  
HETATM   18  C   UNL     1     -10.599   8.810  69.512  1.00  0.00    -0.224 A  
BRANCH  15  19
HETATM   19  C   UNL     1     -10.183  11.109  66.440  1.00  0.00    -0.279 C  
HETATM   20  C   UNL     1     -10.089  10.811  64.926  1.00  0.00    -0.387 C  
HETATM   21  C   UNL     1     -11.409  12.041  66.624  1.00  0.00    -0.399 C  
BRANCH  19  22
HETATM   22  C   UNL     1      -8.912  11.906  66.878  1.00  0.00    -0.196 C  
HETATM   23  C   UNL     1      -7.618  11.100  66.940  1.00  0.00    -0.145 C  
ENDBRANCH  19  22
ENDBRANCH  15  19
ENDBRANCH   4  13
TORSDOF 4
ENDMDL
MODEL      113
REMARK 921   NORMALIZED FREE ENERGY PREDICTED BY IDOCK:   -4.15 KCAL/MOL
REMARK 922        TOTAL FREE ENERGY PREDICTED BY IDOCK:   -5.42 KCAL/MOL
REMARK 923 INTER-LIGAND FREE ENERGY PREDICTED BY IDOCK:   -5.26 KCAL/MOL
REMARK 924 INTRA-LIGAND FREE ENERGY PREDICTED BY IDOCK:   -0.16 KCAL/MOL
REMARK 927      BINDING AFFINITY PREDICTED BY RF-SCORE:    0.00 PKD
ROOT
HETATM    1  C   UNL     1     -11.964  10.762  70.440  1.00  0.00    -0.448 C  
HETATM    2  C   UNL     1     -12.821  11.512  71.461  1.00  0.00    -0.485 C  
HETATM    3  C   UNL     1     -10.743  10.079  71.104  1.00  0.00     0.090 C  
HETATM    4  C   UNL     1     -11.489  11.748  69.330  1.00  0.00    -0.369 C  
ENDROOT
BRANCH   3   5
HETATM    5  N   UNL     1     -10.936   9.044  72.135  1.00  0.00    -0.295 NA 
HETATM    6  C   UNL     1     -10.129   5.869  70.035  1.00  0.00    -0.258 C  
HETATM    7  C   UNL     1     -10.229   7.797  71.702  1.00  0.00    -0.186 C  
HETATM    8  C   UNL     1     -12.359   8.668  72.345  1.00  0.00    -0.357 C  
HETATM    9  C   UNL     1     -13.005   7.919  71.150  1.00  0.00    -0.104 C  
HETATM   10  C   UNL     1     -10.884   7.113  70.472  1.00  0.00    -0.246 C  
HETATM   11  C   UNL     1     -14.411   7.446  71.500  1.00  0.00    -0.594 C  
HETATM   12  O   UNL     1     -12.240   6.755  70.780  1.00  0.00    -0.390 OA 
ENDBRANCH   3   5
BRANCH   4  13
HETATM   13  C   UNL     1     -10.625  11.084  68.283  1.00  0.00    -0.220 A  
HETATM   14  C   UNL     1      -8.418  10.629  67.364  1.00  0.00    -0.122 A  
HETATM   15  C   UNL     1      -8.903   9.533  66.628  1.00  0.00    -0.150 A  
HETATM   16  C   UNL     1     -10.286   9.287  66.682  1.00  0.00    -0.323 A  
HETATM   17  C   UNL     1     -11.132  10.043  67.503  1.00  0.00    -0.190 A  
HETATM   18  C   UNL     1      -9.267  11.406  68.165  1.00  0.00    -0.178 A  
BRANCH  15  19
HETATM   19  C   UNL     1      -7.938   8.635  65.831  1.00  0.00    -0.105 C  
HETATM   20  C   UNL     1      -7.718   7.246  66.473  1.00  0.00    -0.093 C  
HETATM   21  C   UNL     1      -8.535   8.374  64.424  1.00  0.00    -0.056 C  
BRANCH  19  22
HETATM   22  C   UNL     1      -6.550   9.327  65.637  1.00  0.00    -0.069 C  
HETATM   23  C   UNL     1      -6.216   9.744  64.208  1.00  0.00    -0.115 C  
ENDBRANCH  19  22
ENDBRANCH  15  19
ENDBRANCH   4  13
TORSDOF 4
ENDMDL
MODEL      114
REMARK 921   NORMALIZED FREE ENERGY PREDICTED BY IDOCK:   -4.12 KCAL/MOL
REMARK 922        TOTAL FREE ENERGY PREDICTED BY IDOCK:   -5.38 KCAL/MOL
REMARK 923 INTER-LIGAND FREE ENERGY PREDICTED BY IDOCK:   -4.82 KCAL/MOL
REMARK 924 INTRA-LIGAND FREE ENERGY PREDICTED BY IDOCK:   -0.57 KCAL/MOL
REMARK 927      BINDING AFFINITY PREDICTED BY RF-SCORE:    0.00 PKD
ROOT
HETATM    1  C   UNL     1     -10.552  10.925  64.762  1.00  0.00    -0.316 C  
HETATM    2  C   UNL     1     -11.202  11.392  63.458  1.00  0.00    -0.322 C  
HETATM    3  C   UNL     1     -10.484  12.062  65.811  1.00  0.00    -0.254 C  
HETATM    4  C   UNL     1      -9.122  10.380  64.468  1.00  0.00    -0.263 C  
ENDROOT
BRANCH   3   5
HETATM    5  N   UNL     1     -11.719  12.691  66.313  1.00  0.00    -0.385 NA 
HETATM    6  C   UNL     1     -11.566  16.067  64.383  1.00  0.00    -0.212 C  
HETATM    7  C   UNL     1     -12.122  13.780  65.367  1.00  0.00    -0.407 C  
HETATM    8  C   UNL     1     -11.564  13.330  67.647  1.00  0.00    -0.346 C  
HETATM    9  C   UNL     1     -10.653  14.585  67.653  1.00  0.00    -0.251 C  
HETATM   10  C   UNL     1     -11.151  14.991  65.374  1.00  0.00    -0.374 C  
HETATM   11  C   UNL     1     -10.662  15.258  69.020  1.00  0.00    -0.244 C  
HETATM   12  O   UNL     1     -11.094  15.563  66.690  1.00  0.00    -0.293 OA 
ENDBRANCH   3   5
BRANCH   4  13
HETATM   13  C   UNL     1      -8.404   9.906  65.711  1.00  0.00    -0.131 A  
HETATM   14  C   UNL     1      -6.728  10.274  67.435  1.00  0.00    -0.072 A  
HETATM   15  C   UNL     1      -7.312   9.306  68.271  1.00  0.00    -0.078 A  
HETATM   16  C   UNL     1      -8.409   8.593  67.756  1.00  0.00    -0.118 A  
HETATM   17  C   UNL     1      -8.953   8.894  66.501  1.00  0.00    -0.187 A  
HETATM   18  C   UNL     1      -7.252  10.558  66.167  1.00  0.00    -0.136 A  
BRANCH  15  19
HETATM   19  C   UNL     1      -6.779   9.077  69.699  1.00  0.00    -0.046 C  
HETATM   20  C   UNL     1      -5.363   8.458  69.735  1.00  0.00    -0.029 C  
HETATM   21  C   UNL     1      -6.675  10.444  70.425  1.00  0.00    -0.105 C  
BRANCH  19  22
HETATM   22  C   UNL     1      -7.747   8.172  70.527  1.00  0.00    -0.085 C  
HETATM   23  C   UNL     1      -7.755   8.421  72.032  1.00  0.00    -0.163 C  
ENDBRANCH  19  22
ENDBRANCH  15  19
ENDBRANCH   4  13
TORSDOF 4
ENDMDL
MODEL      115
REMARK 921   NORMALIZED FREE ENERGY PREDICTED BY IDOCK:   -4.10 KCAL/MOL
REMARK 922        TOTAL FREE ENERGY PREDICTED BY IDOCK:   -5.36 KCAL/MOL
REMARK 923 INTER-LIGAND FREE ENERGY PREDICTED BY IDOCK:   -4.43 KCAL/MOL
REMARK 924 INTRA-LIGAND FREE ENERGY PREDICTED BY IDOCK:   -0.93 KCAL/MOL
REMARK 927      BINDING AFFINITY PREDICTED BY RF-SCORE:    0.00 PKD
ROOT
HETATM    1  C   UNL     1     -10.171   5.238  67.194  1.00  0.00    -0.264 C  
HETATM    2  C   UNL     1     -10.298   4.707  65.765  1.00  0.00    -0.295 C  
HETATM    3  C   UNL     1      -9.463   6.614  67.236  1.00  0.00    -0.133 C  
HETATM    4  C   UNL     1      -9.393   4.207  68.067  1.00  0.00    -0.213 C  
ENDROOT
BRANCH   3   5
HETATM    5  N   UNL     1     -10.051   7.777  66.548  1.00  0.00    -0.205 NA 
HETATM    6  C   UNL     1      -6.819   9.838  65.871  1.00  0.00    -0.096 C  
HETATM    7  C   UNL     1      -8.972   8.474  65.776  1.00  0.00    -0.182 C  
HETATM    8  C   UNL     1     -10.625   8.791  67.472  1.00  0.00    -0.228 C  
HETATM    9  C   UNL     1      -9.574   9.543  68.330  1.00  0.00    -0.142 C  
HETATM   10  C   UNL     1      -7.918   9.167  66.679  1.00  0.00    -0.104 C  
HETATM   11  C   UNL     1     -10.227  10.655  69.140  1.00  0.00    -0.238 C  
HETATM   12  O   UNL     1      -8.557  10.150  67.508  1.00  0.00    -0.119 OA 
ENDBRANCH   3   5
BRANCH   4  13
HETATM   13  C   UNL     1      -9.214   4.663  69.498  1.00  0.00    -0.182 A  
HETATM   14  C   UNL     1      -8.000   5.978  71.145  1.00  0.00    -0.116 A  
HETATM   15  C   UNL     1      -9.068   5.902  72.056  1.00  0.00    -0.147 A  
HETATM   16  C   UNL     1     -10.175   5.123  71.681  1.00  0.00    -0.276 A  
HETATM   17  C   UNL     1     -10.253   4.521  70.419  1.00  0.00    -0.145 A  
HETATM   18  C   UNL     1      -8.062   5.353  69.892  1.00  0.00    -0.088 A  
BRANCH  15  19
HETATM   19  C   UNL     1      -9.019   6.676  73.388  1.00  0.00    -0.140 C  
HETATM   20  C   UNL     1     -10.125   6.260  74.384  1.00  0.00    -0.355 C  
HETATM   21  C   UNL     1      -7.668   6.386  74.092  1.00  0.00    -0.090 C  
BRANCH  19  22
HETATM   22  C   UNL     1      -9.108   8.219  73.150  1.00  0.00    -0.305 C  
HETATM   23  C   UNL     1     -10.258   8.682  72.261  1.00  0.00    -0.372 C  
ENDBRANCH  19  22
ENDBRANCH  15  19
ENDBRANCH   4  13
TORSDOF 4
ENDMDL
MODEL      116
REMARK 921   NORMALIZED FREE ENERGY PREDICTED BY IDOCK:   -4.09 KCAL/MOL
REMARK 922        TOTAL FREE ENERGY PREDICTED BY IDOCK:   -5.35 KCAL/MOL
REMARK 923 INTER-LIGAND FREE ENERGY PREDICTED BY IDOCK:   -4.92 KCAL/MOL
REMARK 924 INTRA-LIGAND FREE ENERGY PREDICTED BY IDOCK:   -0.43 KCAL/MOL
REMARK 927      BINDING AFFINITY PREDICTED BY RF-SCORE:    0.00 PKD
ROOT
HETATM    1  C   UNL     1     -10.661  15.263  67.360  1.00  0.00    -0.282 C  
HETATM    2  C   UNL     1     -10.804  16.672  66.782  1.00  0.00    -0.037 C  
HETATM    3  C   UNL     1     -11.156  14.181  66.369  1.00  0.00    -0.320 C  
HETATM    4  C   UNL     1     -11.451  15.165  68.701  1.00  0.00    -0.341 C  
ENDROOT
BRANCH   3   5
HETATM    5  N   UNL     1     -10.509  14.020  65.055  1.00  0.00    -0.398 NA 
HETATM    6  C   UNL     1     -13.154  11.774  63.294  1.00  0.00     0.095 C  
HETATM    7  C   UNL     1     -11.544  13.599  64.058  1.00  0.00    -0.317 C  
HETATM    8  C   UNL     1      -9.455  12.972  65.033  1.00  0.00     0.403 C  
HETATM    9  C   UNL     1      -9.988  11.525  65.201  1.00  0.00    -0.262 C  
HETATM   10  C   UNL     1     -12.083  12.164  64.300  1.00  0.00    -0.375 C  
HETATM   11  C   UNL     1      -8.868  10.508  65.025  1.00  0.00    -0.207 C  
HETATM   12  O   UNL     1     -11.004  11.219  64.225  1.00  0.00    -0.354 OA 
ENDBRANCH   3   5
BRANCH   4  13
HETATM   13  C   UNL     1     -11.370  13.795  69.334  1.00  0.00    -0.306 A  
HETATM   14  C   UNL     1     -12.322  12.099  70.796  1.00  0.00    -0.391 A  
HETATM   15  C   UNL     1     -11.521  11.095  70.223  1.00  0.00    -0.329 A  
HETATM   16  C   UNL     1     -10.589  11.496  69.251  1.00  0.00    -0.120 A  
HETATM   17  C   UNL     1     -10.521  12.822  68.805  1.00  0.00    -0.179 A  
HETATM   18  C   UNL     1     -12.236  13.433  70.373  1.00  0.00    -0.415 A  
BRANCH  15  19
HETATM   19  C   UNL     1     -11.700   9.621  70.634  1.00  0.00    -0.353 C  
HETATM   20  C   UNL     1     -10.766   9.185  71.787  1.00  0.00    -0.405 C  
HETATM   21  C   UNL     1     -13.149   9.410  71.145  1.00  0.00    -0.294 C  
BRANCH  19  22
HETATM   22  C   UNL     1     -11.481   8.663  69.418  1.00  0.00     0.478 C  
HETATM   23  C   UNL     1     -10.268   7.742  69.516  1.00  0.00    -0.207 C  
ENDBRANCH  19  22
ENDBRANCH  15  19
ENDBRANCH   4  13
TORSDOF 4
ENDMDL
MODEL      117
REMARK 921   NORMALIZED FREE ENERGY PREDICTED BY IDOCK:   -4.08 KCAL/MOL
REMARK 922        TOTAL FREE ENERGY PREDICTED BY IDOCK:   -5.33 KCAL/MOL
REMARK 923 INTER-LIGAND FREE ENERGY PREDICTED BY IDOCK:   -4.76 KCAL/MOL
REMARK 924 INTRA-LIGAND FREE ENERGY PREDICTED BY IDOCK:   -0.57 KCAL/MOL
REMARK 927      BINDING AFFINITY PREDICTED BY RF-SCORE:    0.00 PKD
ROOT
HETATM    1  C   UNL     1     -10.954  10.758  69.233  1.00  0.00    -0.292 C  
HETATM    2  C   UNL     1     -11.810  11.963  69.626  1.00  0.00    -0.406 C  
HETATM    3  C   UNL     1     -11.062  10.444  67.721  1.00  0.00    -0.299 C  
HETATM    4  C   UNL     1     -11.386   9.515  70.071  1.00  0.00    -0.204 C  
ENDROOT
BRANCH   3   5
HETATM    5  N   UNL     1     -10.635  11.438  66.720  1.00  0.00    -0.244 NA 
HETATM    6  C   UNL     1      -8.842   9.089  64.188  1.00  0.00    -0.068 C  
HETATM    7  C   UNL     1     -10.347  10.729  65.432  1.00  0.00    -0.247 C  
HETATM    8  C   UNL     1      -9.389  12.160  67.089  1.00  0.00    -0.193 C  
HETATM    9  C   UNL     1      -8.114  11.276  67.087  1.00  0.00    -0.150 C  
HETATM   10  C   UNL     1      -9.092   9.820  65.497  1.00  0.00    -0.196 C  
HETATM   11  C   UNL     1      -6.868  12.118  67.334  1.00  0.00    -0.147 C  
HETATM   12  O   UNL     1      -7.936  10.607  65.823  1.00  0.00    -0.159 OA 
ENDBRANCH   3   5
BRANCH   4  13
HETATM   13  C   UNL     1     -10.592   8.273  69.734  1.00  0.00    -0.228 A  
HETATM   14  C   UNL     1     -10.480   5.855  69.498  1.00  0.00    -0.346 A  
HETATM   15  C   UNL     1      -9.318   5.942  68.711  1.00  0.00    -0.133 A  
HETATM   16  C   UNL     1      -8.770   7.221  68.519  1.00  0.00    -0.123 A  
HETATM   17  C   UNL     1      -9.401   8.370  69.013  1.00  0.00    -0.147 A  
HETATM   18  C   UNL     1     -11.099   7.000  70.019  1.00  0.00    -0.316 A  
BRANCH  15  19
HETATM   19  C   UNL     1      -8.710   4.680  68.069  1.00  0.00    -0.112 C  
HETATM   20  C   UNL     1      -7.175   4.588  68.227  1.00  0.00    -0.064 C  
HETATM   21  C   UNL     1      -9.295   3.425  68.767  1.00  0.00    -0.234 C  
BRANCH  19  22
HETATM   22  C   UNL     1      -9.067   4.589  66.550  1.00  0.00    -0.119 C  
HETATM   23  C   UNL     1     -10.532   4.838  66.202  1.00  0.00    -0.332 C  
ENDBRANCH  19  22
ENDBRANCH  15  19
ENDBRANCH   4  13
TORSDOF 4
ENDMDL
MODEL      118
REMARK 921   NORMALIZED FREE ENERGY PREDICTED BY IDOCK:   -4.05 KCAL/MOL
REMARK 922        TOTAL FREE ENERGY PREDICTED BY IDOCK:   -5.30 KCAL/MOL
REMARK 923 INTER-LIGAND FREE ENERGY PREDICTED BY IDOCK:   -4.59 KCAL/MOL
REMARK 924 INTRA-LIGAND FREE ENERGY PREDICTED BY IDOCK:   -0.71 KCAL/MOL
REMARK 927      BINDING AFFINITY PREDICTED BY RF-SCORE:    0.00 PKD
ROOT
HETATM    1  C   UNL     1     -10.255  15.004  68.041  1.00  0.00    -0.228 C  
HETATM    2  C   UNL     1     -10.409  16.503  67.779  1.00  0.00    -0.291 C  
HETATM    3  C   UNL     1     -10.849  14.595  69.411  1.00  0.00    -0.243 C  
HETATM    4  C   UNL     1      -8.747  14.614  67.972  1.00  0.00    -0.167 C  
ENDROOT
BRANCH   3   5
HETATM    5  N   UNL     1     -12.282  14.790  69.692  1.00  0.00    -0.295 NA 
HETATM    6  C   UNL     1     -12.050  16.264  73.287  1.00  0.00    -0.587 C  
HETATM    7  C   UNL     1     -12.422  15.777  70.811  1.00  0.00    -0.374 C  
HETATM    8  C   UNL     1     -12.977  13.553  70.135  1.00  0.00     0.301 C  
HETATM    9  C   UNL     1     -12.541  13.039  71.532  1.00  0.00    -0.178 C  
HETATM   10  C   UNL     1     -11.926  15.233  72.177  1.00  0.00    -0.420 C  
HETATM   11  C   UNL     1     -13.398  11.858  71.970  1.00  0.00    -0.425 C  
HETATM   12  O   UNL     1     -12.676  14.063  72.538  1.00  0.00    -0.302 OA 
ENDBRANCH   3   5
BRANCH   4  13
HETATM   13  C   UNL     1      -8.506  13.144  68.232  1.00  0.00    -0.161 A  
HETATM   14  C   UNL     1      -7.335  11.393  69.450  1.00  0.00     0.012 A  
HETATM   15  C   UNL     1      -8.301  10.437  69.089  1.00  0.00    -0.160 A  
HETATM   16  C   UNL     1      -9.326  10.857  68.224  1.00  0.00    -0.168 A  
HETATM   17  C   UNL     1      -9.433  12.190  67.809  1.00  0.00    -0.192 A  
HETATM   18  C   UNL     1      -7.423  12.723  69.014  1.00  0.00     0.103 A  
BRANCH  15  19
HETATM   19  C   UNL     1      -8.238   9.006  69.657  1.00  0.00    -0.116 C  
HETATM   20  C   UNL     1      -8.444   7.909  68.587  1.00  0.00    -0.128 C  
HETATM   21  C   UNL     1      -6.831   8.764  70.263  1.00  0.00    -0.042 C  
BRANCH  19  22
HETATM   22  C   UNL     1      -9.288   8.802  70.797  1.00  0.00    -0.253 C  
HETATM   23  C   UNL     1      -8.718   8.382  72.149  1.00  0.00    -0.272 C  
ENDBRANCH  19  22
ENDBRANCH  15  19
ENDBRANCH   4  13
TORSDOF 4
ENDMDL
MODEL      119
REMARK 921   NORMALIZED FREE ENERGY PREDICTED BY IDOCK:   -4.03 KCAL/MOL
REMARK 922        TOTAL FREE ENERGY PREDICTED BY IDOCK:   -5.28 KCAL/MOL
REMARK 923 INTER-LIGAND FREE ENERGY PREDICTED BY IDOCK:   -4.98 KCAL/MOL
REMARK 924 INTRA-LIGAND FREE ENERGY PREDICTED BY IDOCK:   -0.30 KCAL/MOL
REMARK 927      BINDING AFFINITY PREDICTED BY RF-SCORE:    0.00 PKD
ROOT
HETATM    1  C   UNL     1     -11.057  13.815  67.121  1.00  0.00    -0.315 C  
HETATM    2  C   UNL     1     -12.036  12.678  67.417  1.00  0.00    -0.179 C  
HETATM    3  C   UNL     1      -9.631  13.493  67.629  1.00  0.00    -0.222 C  
HETATM    4  C   UNL     1     -11.574  15.134  67.772  1.00  0.00    -0.303 C  
ENDROOT
BRANCH   3   5
HETATM    5  N   UNL     1      -8.893  12.332  67.099  1.00  0.00    -0.188 NA 
HETATM    6  C   UNL     1      -9.649   9.742  69.903  1.00  0.00    -0.269 C  
HETATM    7  C   UNL     1      -9.420  11.091  67.751  1.00  0.00    -0.162 C  
HETATM    8  C   UNL     1      -7.435  12.370  67.387  1.00  0.00    -0.157 C  
HETATM    9  C   UNL     1      -7.074  12.202  68.886  1.00  0.00    -0.098 C  
HETATM   10  C   UNL     1      -9.076  10.995  69.261  1.00  0.00     0.095 C  
HETATM   11  C   UNL     1      -5.565  12.109  69.075  1.00  0.00    -0.059 C  
HETATM   12  O   UNL     1      -7.651  11.002  69.438  1.00  0.00    -0.128 OA 
ENDBRANCH   3   5
BRANCH   4  13
HETATM   13  C   UNL     1     -10.654  16.309  67.534  1.00  0.00    -0.310 A  
HETATM   14  C   UNL     1      -9.320  18.144  68.416  1.00  0.00    -0.319 A  
HETATM   15  C   UNL     1      -8.592  18.248  67.217  1.00  0.00    -0.254 A  
HETATM   16  C   UNL     1      -8.979  17.409  66.158  1.00  0.00    -0.174 A  
HETATM   17  C   UNL     1      -9.986  16.448  66.315  1.00  0.00    -0.341 A  
HETATM   18  C   UNL     1     -10.349  17.202  68.568  1.00  0.00    -0.364 A  
BRANCH  15  19
HETATM   19  C   UNL     1      -7.404  19.222  67.104  1.00  0.00    -0.226 C  
HETATM   20  C   UNL     1      -7.752  20.669  67.520  1.00  0.00    -0.319 C  
HETATM   21  C   UNL     1      -6.275  18.755  68.059  1.00  0.00    -0.209 C  
BRANCH  19  22
HETATM   22  C   UNL     1      -6.822  19.240  65.654  1.00  0.00    -0.313 C  
HETATM   23  C   UNL     1      -6.794  20.605  64.973  1.00  0.00    -0.165 C  
ENDBRANCH  19  22
ENDBRANCH  15  19
ENDBRANCH   4  13
TORSDOF 4
ENDMDL
MODEL      120
REMARK 921   NORMALIZED FREE ENERGY PREDICTED BY IDOCK:   -4.02 KCAL/MOL
REMARK 922        TOTAL FREE ENERGY PREDICTED BY IDOCK:   -5.26 KCAL/MOL
REMARK 923 INTER-LIGAND FREE ENERGY PREDICTED BY IDOCK:   -4.74 KCAL/MOL
REMARK 924 INTRA-LIGAND FREE ENERGY PREDICTED BY IDOCK:   -0.52 KCAL/MOL
REMARK 927      BINDING AFFINITY PREDICTED BY RF-SCORE:    0.00 PKD
ROOT
HETATM    1  C   UNL     1     -10.128  15.927  66.063  1.00  0.00    -0.359 C  
HETATM    2  C   UNL     1     -10.845  17.179  65.556  1.00  0.00    -0.058 C  
HETATM    3  C   UNL     1     -10.926  15.221  67.185  1.00  0.00    -0.331 C  
HETATM    4  C   UNL     1      -8.706  16.310  66.575  1.00  0.00    -0.327 C  
ENDROOT
BRANCH   3   5
HETATM    5  N   UNL     1     -12.277  14.692  66.923  1.00  0.00    -0.216 NA 
HETATM    6  C   UNL     1     -11.898  11.136  68.457  1.00  0.00    -0.330 C  
HETATM    7  C   UNL     1     -12.523  13.529  67.833  1.00  0.00     0.321 C  
HETATM    8  C   UNL     1     -12.460  14.186  65.537  1.00  0.00    -0.476 C  
HETATM    9  C   UNL     1     -11.649  12.904  65.211  1.00  0.00    -0.340 C  
HETATM   10  C   UNL     1     -11.651  12.290  67.498  1.00  0.00    -0.353 C  
HETATM   11  C   UNL     1     -12.002  12.373  63.828  1.00  0.00    -0.600 C  
HETATM   12  O   UNL     1     -11.922  11.852  66.158  1.00  0.00    -0.537 OA 
ENDBRANCH   3   5
BRANCH   4  13
HETATM   13  C   UNL     1      -7.931  15.126  67.105  1.00  0.00    -0.248 A  
HETATM   14  C   UNL     1      -6.364  14.193  68.715  1.00  0.00    -0.088 A  
HETATM   15  C   UNL     1      -6.781  12.882  68.428  1.00  0.00    -0.092 A  
HETATM   16  C   UNL     1      -7.731  12.722  67.405  1.00  0.00    -0.165 A  
HETATM   17  C   UNL     1      -8.305  13.826  66.760  1.00  0.00     0.086 A  
HETATM   18  C   UNL     1      -6.915  15.299  68.052  1.00  0.00    -0.144 A  
BRANCH  15  19
HETATM   19  C   UNL     1      -6.232  11.690  69.235  1.00  0.00    -0.086 C  
HETATM   20  C   UNL     1      -5.136  10.894  68.490  1.00  0.00    -0.037 C  
HETATM   21  C   UNL     1      -5.576  12.220  70.537  1.00  0.00    -0.168 C  
BRANCH  19  22
HETATM   22  C   UNL     1      -7.377  10.709  69.646  1.00  0.00    -0.133 C  
HETATM   23  C   UNL     1      -7.153   9.245  69.280  1.00  0.00    -0.057 C  
ENDBRANCH  19  22
ENDBRANCH  15  19
ENDBRANCH   4  13
TORSDOF 4
ENDMDL
MODEL      121
REMARK 921   NORMALIZED FREE ENERGY PREDICTED BY IDOCK:   -4.00 KCAL/MOL
REMARK 922        TOTAL FREE ENERGY PREDICTED BY IDOCK:   -5.23 KCAL/MOL
REMARK 923 INTER-LIGAND FREE ENERGY PREDICTED BY IDOCK:   -4.26 KCAL/MOL
REMARK 924 INTRA-LIGAND FREE ENERGY PREDICTED BY IDOCK:   -0.98 KCAL/MOL
REMARK 927      BINDING AFFINITY PREDICTED BY RF-SCORE:    0.00 PKD
ROOT
HETATM    1  C   UNL     1      -9.245   5.585  69.064  1.00  0.00    -0.143 C  
HETATM    2  C   UNL     1      -9.772   4.153  68.966  1.00  0.00    -0.188 C  
HETATM    3  C   UNL     1     -10.351   6.576  69.504  1.00  0.00    -0.200 C  
HETATM    4  C   UNL     1      -8.651   6.020  67.690  1.00  0.00    -0.106 C  
ENDROOT
BRANCH   3   5
HETATM    5  N   UNL     1     -11.015   6.422  70.811  1.00  0.00    -0.272 NA 
HETATM    6  C   UNL     1     -12.439  10.017  71.248  1.00  0.00    -0.494 C  
HETATM    7  C   UNL     1     -12.026   7.516  70.967  1.00  0.00    -0.290 C  
HETATM    8  C   UNL     1     -10.088   6.539  71.968  1.00  0.00    -0.184 C  
HETATM    9  C   UNL     1      -9.502   7.960  72.178  1.00  0.00    -0.177 C  
HETATM   10  C   UNL     1     -11.391   8.924  71.123  1.00  0.00    -0.291 C  
HETATM   11  C   UNL     1      -8.682   8.027  73.460  1.00  0.00    -0.330 C  
HETATM   12  O   UNL     1     -10.544   8.951  72.282  1.00  0.00    -0.320 OA 
ENDBRANCH   3   5
BRANCH   4  13
HETATM   13  C   UNL     1      -8.116   7.434  67.699  1.00  0.00    -0.114 A  
HETATM   14  C   UNL     1      -8.362   9.775  67.084  1.00  0.00    -0.121 A  
HETATM   15  C   UNL     1      -7.410  10.171  68.040  1.00  0.00    -0.086 A  
HETATM   16  C   UNL     1      -6.766   9.152  68.763  1.00  0.00    -0.053 A  
HETATM   17  C   UNL     1      -7.119   7.806  68.603  1.00  0.00    -0.076 A  
HETATM   18  C   UNL     1      -8.698   8.426  66.901  1.00  0.00    -0.137 A  
BRANCH  15  19
HETATM   19  C   UNL     1      -7.127  11.664  68.292  1.00  0.00    -0.078 C  
HETATM   20  C   UNL     1      -6.386  11.935  69.621  1.00  0.00    -0.124 C  
HETATM   21  C   UNL     1      -6.207  12.202  67.164  1.00  0.00    -0.143 C  
BRANCH  19  22
HETATM   22  C   UNL     1      -8.445  12.503  68.269  1.00  0.00    -0.165 C  
HETATM   23  C   UNL     1      -8.289  13.964  67.857  1.00  0.00    -0.167 C  
ENDBRANCH  19  22
ENDBRANCH  15  19
ENDBRANCH   4  13
TORSDOF 4
ENDMDL
MODEL      122
REMARK 921   NORMALIZED FREE ENERGY PREDICTED BY IDOCK:   -3.98 KCAL/MOL
REMARK 922        TOTAL FREE ENERGY PREDICTED BY IDOCK:   -5.21 KCAL/MOL
REMARK 923 INTER-LIGAND FREE ENERGY PREDICTED BY IDOCK:   -4.49 KCAL/MOL
REMARK 924 INTRA-LIGAND FREE ENERGY PREDICTED BY IDOCK:   -0.72 KCAL/MOL
REMARK 927      BINDING AFFINITY PREDICTED BY RF-SCORE:    0.00 PKD
ROOT
HETATM    1  C   UNL     1      -9.356   5.813  68.876  1.00  0.00    -0.141 C  
HETATM    2  C   UNL     1      -9.063   4.635  69.805  1.00  0.00    -0.162 C  
HETATM    3  C   UNL     1      -8.057   6.451  68.326  1.00  0.00    -0.113 C  
HETATM    4  C   UNL     1     -10.198   6.882  69.637  1.00  0.00    -0.206 C  
ENDROOT
BRANCH   3   5
HETATM    5  N   UNL     1      -7.127   5.658  67.501  1.00  0.00    -0.072 NA 
HETATM    6  C   UNL     1      -6.030   8.384  64.949  1.00  0.00    -0.052 C  
HETATM    7  C   UNL     1      -6.227   6.596  66.758  1.00  0.00    -0.040 C  
HETATM    8  C   UNL     1      -7.804   4.824  66.473  1.00  0.00    -0.099 C  
HETATM    9  C   UNL     1      -8.481   5.634  65.336  1.00  0.00    -0.147 C  
HETATM   10  C   UNL     1      -6.961   7.419  65.666  1.00  0.00    -0.060 C  
HETATM   11  C   UNL     1      -9.024   4.706  64.256  1.00  0.00    -0.136 C  
HETATM   12  O   UNL     1      -7.550   6.533  64.702  1.00  0.00    -0.086 OA 
ENDBRANCH   3   5
BRANCH   4  13
HETATM   13  C   UNL     1     -10.523   8.090  68.788  1.00  0.00    -0.196 A  
HETATM   14  C   UNL     1     -10.625  10.507  68.529  1.00  0.00    -0.234 A  
HETATM   15  C   UNL     1     -10.694  10.397  67.129  1.00  0.00    -0.316 A  
HETATM   16  C   UNL     1     -10.755   9.101  66.590  1.00  0.00    -0.049 A  
HETATM   17  C   UNL     1     -10.662   7.965  67.405  1.00  0.00    -0.278 A  
HETATM   18  C   UNL     1     -10.560   9.372  69.349  1.00  0.00    -0.235 A  
BRANCH  15  19
HETATM   19  C   UNL     1     -10.667  11.657  66.241  1.00  0.00    -0.317 C  
HETATM   20  C   UNL     1     -11.798  12.661  66.563  1.00  0.00    -0.463 C  
HETATM   21  C   UNL     1      -9.334  12.414  66.477  1.00  0.00    -0.233 C  
BRANCH  19  22
HETATM   22  C   UNL     1     -10.740  11.284  64.725  1.00  0.00    -0.352 C  
HETATM   23  C   UNL     1     -11.094  12.429  63.782  1.00  0.00    -0.506 C  
ENDBRANCH  19  22
ENDBRANCH  15  19
ENDBRANCH   4  13
TORSDOF 4
ENDMDL
MODEL      123
REMARK 921   NORMALIZED FREE ENERGY PREDICTED BY IDOCK:   -3.97 KCAL/MOL
REMARK 922        TOTAL FREE ENERGY PREDICTED BY IDOCK:   -5.21 KCAL/MOL
REMARK 923 INTER-LIGAND FREE ENERGY PREDICTED BY IDOCK:   -4.27 KCAL/MOL
REMARK 924 INTRA-LIGAND FREE ENERGY PREDICTED BY IDOCK:   -0.94 KCAL/MOL
REMARK 927      BINDING AFFINITY PREDICTED BY RF-SCORE:    0.00 PKD
ROOT
HETATM    1  C   UNL     1     -10.298   6.041  70.915  1.00  0.00    -0.277 C  
HETATM    2  C   UNL     1     -11.118   5.719  72.165  1.00  0.00    -0.327 C  
HETATM    3  C   UNL     1     -10.757   7.361  70.249  1.00  0.00    -0.237 C  
HETATM    4  C   UNL     1     -10.407   4.862  69.900  1.00  0.00    -0.220 C  
ENDROOT
BRANCH   3   5
HETATM    5  N   UNL     1     -10.674   8.636  70.984  1.00  0.00    -0.217 NA 
HETATM    6  C   UNL     1     -11.525  11.109  68.102  1.00  0.00    -0.373 C  
HETATM    7  C   UNL     1     -11.419   9.683  70.214  1.00  0.00    -0.233 C  
HETATM    8  C   UNL     1      -9.286   9.143  71.146  1.00  0.00    -0.231 C  
HETATM    9  C   UNL     1      -8.613   9.600  69.825  1.00  0.00    -0.199 C  
HETATM   10  C   UNL     1     -10.732  10.069  68.877  1.00  0.00    -0.219 C  
HETATM   11  C   UNL     1      -7.255  10.234  70.096  1.00  0.00    -0.138 C  
HETATM   12  O   UNL     1      -9.415  10.579  69.135  1.00  0.00    -0.195 OA 
ENDBRANCH   3   5
BRANCH   4  13
HETATM   13  C   UNL     1      -9.630   5.107  68.626  1.00  0.00    -0.194 A  
HETATM   14  C   UNL     1      -9.606   5.516  66.228  1.00  0.00    -0.173 A  
HETATM   15  C   UNL     1      -8.286   5.996  66.280  1.00  0.00    -0.118 A  
HETATM   16  C   UNL     1      -7.633   5.944  67.523  1.00  0.00    -0.093 A  
HETATM   17  C   UNL     1      -8.297   5.516  68.680  1.00  0.00    -0.101 A  
HETATM   18  C   UNL     1     -10.264   5.060  67.379  1.00  0.00    -0.201 A  
BRANCH  15  19
HETATM   19  C   UNL     1      -7.616   6.582  65.022  1.00  0.00    -0.092 C  
HETATM   20  C   UNL     1      -6.073   6.490  65.046  1.00  0.00    -0.037 C  
HETATM   21  C   UNL     1      -8.079   5.777  63.780  1.00  0.00    -0.108 C  
BRANCH  19  22
HETATM   22  C   UNL     1      -8.029   8.074  64.802  1.00  0.00    -0.143 C  
HETATM   23  C   UNL     1      -7.759   8.633  63.409  1.00  0.00    -0.139 C  
ENDBRANCH  19  22
ENDBRANCH  15  19
ENDBRANCH   4  13
TORSDOF 4
ENDMDL
MODEL      124
REMARK 921   NORMALIZED FREE ENERGY PREDICTED BY IDOCK:   -3.96 KCAL/MOL
REMARK 922        TOTAL FREE ENERGY PREDICTED BY IDOCK:   -5.19 KCAL/MOL
REMARK 923 INTER-LIGAND FREE ENERGY PREDICTED BY IDOCK:   -4.60 KCAL/MOL
REMARK 924 INTRA-LIGAND FREE ENERGY PREDICTED BY IDOCK:   -0.60 KCAL/MOL
REMARK 927      BINDING AFFINITY PREDICTED BY RF-SCORE:    0.00 PKD
ROOT
HETATM    1  C   UNL     1     -10.931  10.573  69.914  1.00  0.00    -0.359 C  
HETATM    2  C   UNL     1     -11.852  11.772  70.145  1.00  0.00    -0.408 C  
HETATM    3  C   UNL     1     -10.607  10.377  68.413  1.00  0.00    -0.208 C  
HETATM    4  C   UNL     1     -11.594   9.286  70.493  1.00  0.00    -0.266 C  
ENDROOT
BRANCH   3   5
HETATM    5  N   UNL     1      -9.905  11.430  67.657  1.00  0.00    -0.174 NA 
HETATM    6  C   UNL     1     -12.893  12.883  65.631  1.00  0.00     0.119 C  
HETATM    7  C   UNL     1     -10.913  12.426  67.173  1.00  0.00    -0.262 C  
HETATM    8  C   UNL     1      -9.199  10.927  66.449  1.00  0.00    -0.174 C  
HETATM    9  C   UNL     1     -10.138  10.426  65.321  1.00  0.00    -0.300 C  
HETATM   10  C   UNL     1     -11.861  11.862  66.081  1.00  0.00    -0.028 C  
HETATM   11  C   UNL     1      -9.344  10.064  64.072  1.00  0.00    -0.324 C  
HETATM   12  O   UNL     1     -11.096  11.436  64.944  1.00  0.00    -0.257 OA 
ENDBRANCH   3   5
BRANCH   4  13
HETATM   13  C   UNL     1     -10.749   8.048  70.295  1.00  0.00    -0.239 A  
HETATM   14  C   UNL     1      -8.756   6.759  70.831  1.00  0.00    -0.142 A  
HETATM   15  C   UNL     1      -9.325   5.582  70.313  1.00  0.00    -0.194 A  
HETATM   16  C   UNL     1     -10.592   5.693  69.716  1.00  0.00    -0.400 A  
HETATM   17  C   UNL     1     -11.298   6.903  69.715  1.00  0.00    -0.288 A  
HETATM   18  C   UNL     1      -9.447   7.979  70.806  1.00  0.00    -0.173 A  
BRANCH  15  19
HETATM   19  C   UNL     1      -8.589   4.235  70.438  1.00  0.00    -0.105 C  
HETATM   20  C   UNL     1      -8.488   3.719  71.892  1.00  0.00    -0.100 C  
HETATM   21  C   UNL     1      -9.372   3.155  69.647  1.00  0.00    -0.222 C  
BRANCH  19  22
HETATM   22  C   UNL     1      -7.150   4.317  69.831  1.00  0.00    -0.042 C  
HETATM   23  C   UNL     1      -7.054   4.066  68.329  1.00  0.00    -0.055 C  
ENDBRANCH  19  22
ENDBRANCH  15  19
ENDBRANCH   4  13
TORSDOF 4
ENDMDL
MODEL      125
REMARK 921   NORMALIZED FREE ENERGY PREDICTED BY IDOCK:   -3.95 KCAL/MOL
REMARK 922        TOTAL FREE ENERGY PREDICTED BY IDOCK:   -5.18 KCAL/MOL
REMARK 923 INTER-LIGAND FREE ENERGY PREDICTED BY IDOCK:   -4.66 KCAL/MOL
REMARK 924 INTRA-LIGAND FREE ENERGY PREDICTED BY IDOCK:   -0.52 KCAL/MOL
REMARK 927      BINDING AFFINITY PREDICTED BY RF-SCORE:    0.00 PKD
ROOT
HETATM    1  C   UNL     1     -10.433   8.413  66.945  1.00  0.00    -0.359 C  
HETATM    2  C   UNL     1     -10.826   7.038  67.488  1.00  0.00    -0.338 C  
HETATM    3  C   UNL     1      -8.929   8.482  66.586  1.00  0.00    -0.148 C  
HETATM    4  C   UNL     1     -10.785   9.510  67.996  1.00  0.00    -0.266 C  
ENDROOT
BRANCH   3   5
HETATM    5  N   UNL     1      -8.366   7.593  65.554  1.00  0.00    -0.134 NA 
HETATM    6  C   UNL     1      -5.227   6.292  67.450  1.00  0.00    -0.005 C  
HETATM    7  C   UNL     1      -7.431   6.625  66.211  1.00  0.00    -0.081 C  
HETATM    8  C   UNL     1      -7.571   8.307  64.520  1.00  0.00    -0.108 C  
HETATM    9  C   UNL     1      -6.244   8.917  65.042  1.00  0.00    -0.064 C  
HETATM   10  C   UNL     1      -6.142   7.291  66.761  1.00  0.00    -0.042 C  
HETATM   11  C   UNL     1      -5.426   9.502  63.897  1.00  0.00    -0.067 C  
HETATM   12  O   UNL     1      -5.425   7.922  65.690  1.00  0.00    -0.029 OA 
ENDBRANCH   3   5
BRANCH   4  13
HETATM   13  C   UNL     1     -10.416  10.903  67.539  1.00  0.00    -0.252 A  
HETATM   14  C   UNL     1     -10.642  12.712  65.928  1.00  0.00    -0.297 A  
HETATM   15  C   UNL     1     -10.122  13.647  66.840  1.00  0.00    -0.260 A  
HETATM   16  C   UNL     1      -9.682  13.156  68.080  1.00  0.00    -0.228 A  
HETATM   17  C   UNL     1      -9.835  11.808  68.430  1.00  0.00    -0.199 A  
HETATM   18  C   UNL     1     -10.770  11.356  66.263  1.00  0.00    -0.322 A  
BRANCH  15  19
HETATM   19  C   UNL     1     -10.080  15.146  66.486  1.00  0.00    -0.279 C  
HETATM   20  C   UNL     1     -10.963  15.519  65.273  1.00  0.00    -0.391 C  
HETATM   21  C   UNL     1     -10.623  15.965  67.686  1.00  0.00    -0.307 C  
BRANCH  19  22
HETATM   22  C   UNL     1      -8.617  15.622  66.210  1.00  0.00    -0.265 C  
HETATM   23  C   UNL     1      -7.676  15.588  67.411  1.00  0.00    -0.222 C  
ENDBRANCH  19  22
ENDBRANCH  15  19
ENDBRANCH   4  13
TORSDOF 4
ENDMDL
MODEL      126
REMARK 921   NORMALIZED FREE ENERGY PREDICTED BY IDOCK:   -3.94 KCAL/MOL
REMARK 922        TOTAL FREE ENERGY PREDICTED BY IDOCK:   -5.16 KCAL/MOL
REMARK 923 INTER-LIGAND FREE ENERGY PREDICTED BY IDOCK:   -5.03 KCAL/MOL
REMARK 924 INTRA-LIGAND FREE ENERGY PREDICTED BY IDOCK:   -0.14 KCAL/MOL
REMARK 927      BINDING AFFINITY PREDICTED BY RF-SCORE:    0.00 PKD
ROOT
HETATM    1  C   UNL     1      -8.886  11.646  68.360  1.00  0.00    -0.161 C  
HETATM    2  C   UNL     1      -8.486  10.232  68.783  1.00  0.00    -0.130 C  
HETATM    3  C   UNL     1      -9.147  11.740  66.837  1.00  0.00    -0.192 C  
HETATM    4  C   UNL     1      -7.770  12.652  68.776  1.00  0.00     0.007 C  
ENDROOT
BRANCH   3   5
HETATM    5  N   UNL     1     -10.215  10.939  66.211  1.00  0.00    -0.240 NA 
HETATM    6  C   UNL     1      -8.269   7.628  65.583  1.00  0.00    -0.136 C  
HETATM    7  C   UNL     1      -9.852   9.490  66.314  1.00  0.00    -0.266 C  
HETATM    8  C   UNL     1     -10.403  11.222  64.763  1.00  0.00    -0.307 C  
HETATM    9  C   UNL     1      -9.223  10.768  63.864  1.00  0.00    -0.235 C  
HETATM   10  C   UNL     1      -8.635   9.096  65.435  1.00  0.00    -0.169 C  
HETATM   11  C   UNL     1      -9.556  10.963  62.390  1.00  0.00    -0.150 C  
HETATM   12  O   UNL     1      -8.921   9.371  64.055  1.00  0.00    -0.213 OA 
ENDBRANCH   3   5
BRANCH   4  13
HETATM   13  C   UNL     1      -8.084  14.077  68.382  1.00  0.00    -0.148 A  
HETATM   14  C   UNL     1      -9.233  16.174  68.832  1.00  0.00    -0.234 A  
HETATM   15  C   UNL     1      -8.383  16.877  67.959  1.00  0.00    -0.204 A  
HETATM   16  C   UNL     1      -7.434  16.125  67.246  1.00  0.00    -0.219 A  
HETATM   17  C   UNL     1      -7.279  14.750  67.461  1.00  0.00    -0.222 A  
HETATM   18  C   UNL     1      -9.099  14.792  69.028  1.00  0.00    -0.136 A  
BRANCH  15  19
HETATM   19  C   UNL     1      -8.484  18.409  67.832  1.00  0.00    -0.274 C  
HETATM   20  C   UNL     1      -9.701  19.010  68.572  1.00  0.00    -0.458 C  
HETATM   21  C   UNL     1      -7.226  19.054  68.471  1.00  0.00    -0.334 C  
BRANCH  19  22
HETATM   22  C   UNL     1      -8.535  18.851  66.334  1.00  0.00    -0.302 C  
HETATM   23  C   UNL     1      -7.223  19.371  65.756  1.00  0.00    -0.302 C  
ENDBRANCH  19  22
ENDBRANCH  15  19
ENDBRANCH   4  13
TORSDOF 4
ENDMDL
MODEL      127
REMARK 921   NORMALIZED FREE ENERGY PREDICTED BY IDOCK:   -3.90 KCAL/MOL
REMARK 922        TOTAL FREE ENERGY PREDICTED BY IDOCK:   -5.12 KCAL/MOL
REMARK 923 INTER-LIGAND FREE ENERGY PREDICTED BY IDOCK:   -4.94 KCAL/MOL
REMARK 924 INTRA-LIGAND FREE ENERGY PREDICTED BY IDOCK:   -0.18 KCAL/MOL
REMARK 927      BINDING AFFINITY PREDICTED BY RF-SCORE:    0.00 PKD
ROOT
HETATM    1  C   UNL     1     -10.318   8.299  70.274  1.00  0.00    -0.211 C  
HETATM    2  C   UNL     1     -10.870   9.250  71.337  1.00  0.00    -0.434 C  
HETATM    3  C   UNL     1     -10.232   8.976  68.884  1.00  0.00    -0.208 C  
HETATM    4  C   UNL     1     -11.214   7.025  70.196  1.00  0.00    -0.325 C  
ENDROOT
BRANCH   3   5
HETATM    5  N   UNL     1      -9.379  10.160  68.682  1.00  0.00    -0.154 NA 
HETATM    6  C   UNL     1     -12.075  12.957  68.916  1.00  0.00    -0.182 C  
HETATM    7  C   UNL     1     -10.101  11.366  69.199  1.00  0.00    -0.020 C  
HETATM    8  C   UNL     1      -9.070  10.437  67.254  1.00  0.00    -0.135 C  
HETATM    9  C   UNL     1     -10.291  10.891  66.412  1.00  0.00    -0.251 C  
HETATM   10  C   UNL     1     -11.343  11.750  68.351  1.00  0.00    -0.270 C  
HETATM   11  C   UNL     1      -9.864  11.289  65.005  1.00  0.00    -0.307 C  
HETATM   12  O   UNL     1     -10.944  12.033  67.002  1.00  0.00    -0.247 OA 
ENDBRANCH   3   5
BRANCH   4  13
HETATM   13  C   UNL     1     -10.741   6.034  69.157  1.00  0.00    -0.399 A  
HETATM   14  C   UNL     1     -10.542   5.375  66.823  1.00  0.00    -0.339 A  
HETATM   15  C   UNL     1      -9.518   4.459  67.125  1.00  0.00    -0.193 A  
HETATM   16  C   UNL     1      -9.180   4.299  68.479  1.00  0.00    -0.194 A  
HETATM   17  C   UNL     1      -9.774   5.080  69.479  1.00  0.00    -0.259 A  
HETATM   18  C   UNL     1     -11.159   6.138  67.824  1.00  0.00    -0.306 A  
BRANCH  15  19
HETATM   19  C   UNL     1      -8.787   3.702  65.999  1.00  0.00    -0.126 C  
HETATM   20  C   UNL     1      -7.593   4.483  65.405  1.00  0.00    -0.081 C  
HETATM   21  C   UNL     1      -8.204   2.384  66.572  1.00  0.00    -0.087 C  
BRANCH  19  22
HETATM   22  C   UNL     1      -9.768   3.323  64.842  1.00  0.00    -0.109 C  
HETATM   23  C   UNL     1      -9.170   2.474  63.724  1.00  0.00    -0.103 C  
ENDBRANCH  19  22
ENDBRANCH  15  19
ENDBRANCH   4  13
TORSDOF 4
ENDMDL
MODEL      128
REMARK 921   NORMALIZED FREE ENERGY PREDICTED BY IDOCK:   -3.84 KCAL/MOL
REMARK 922        TOTAL FREE ENERGY PREDICTED BY IDOCK:   -5.04 KCAL/MOL
REMARK 923 INTER-LIGAND FREE ENERGY PREDICTED BY IDOCK:   -5.56 KCAL/MOL
REMARK 924 INTRA-LIGAND FREE ENERGY PREDICTED BY IDOCK:    0.52 KCAL/MOL
REMARK 927      BINDING AFFINITY PREDICTED BY RF-SCORE:    0.00 PKD
ROOT
HETATM    1  C   UNL     1     -11.419  13.099  68.980  1.00  0.00    -0.345 C  
HETATM    2  C   UNL     1     -12.160  14.423  68.784  1.00  0.00    -0.276 C  
HETATM    3  C   UNL     1     -10.906  12.522  67.638  1.00  0.00    -0.225 C  
HETATM    4  C   UNL     1     -12.360  12.072  69.681  1.00  0.00    -0.083 C  
ENDROOT
BRANCH   3   5
HETATM    5  N   UNL     1      -9.937  13.277  66.822  1.00  0.00    -0.256 NA 
HETATM    6  C   UNL     1     -12.392  15.133  64.440  1.00  0.00    -0.225 C  
HETATM    7  C   UNL     1     -10.650  14.415  66.160  1.00  0.00    -0.298 C  
HETATM    8  C   UNL     1      -9.324  12.475  65.731  1.00  0.00     0.024 C  
HETATM    9  C   UNL     1     -10.308  12.074  64.600  1.00  0.00    -0.287 C  
HETATM   10  C   UNL     1     -11.660  13.960  65.073  1.00  0.00    -0.345 C  
HETATM   11  C   UNL     1      -9.573  11.383  63.459  1.00  0.00    -0.315 C  
HETATM   12  O   UNL     1     -10.974  13.227  64.047  1.00  0.00    -0.382 OA 
ENDBRANCH   3   5
BRANCH   4  13
HETATM   13  C   UNL     1     -11.704  10.728  69.903  1.00  0.00    -0.412 A  
HETATM   14  C   UNL     1     -10.221   8.963  69.126  1.00  0.00    -0.214 A  
HETATM   15  C   UNL     1     -10.103   8.432  70.423  1.00  0.00    -0.202 A  
HETATM   16  C   UNL     1     -10.871   9.035  71.434  1.00  0.00    -0.400 A  
HETATM   17  C   UNL     1     -11.651  10.171  71.182  1.00  0.00    -0.430 A  
HETATM   18  C   UNL     1     -11.024  10.082  68.864  1.00  0.00    -0.244 A  
BRANCH  15  19
HETATM   19  C   UNL     1      -9.141   7.262  70.707  1.00  0.00    -0.152 C  
HETATM   20  C   UNL     1      -9.194   6.148  69.636  1.00  0.00    -0.148 C  
HETATM   21  C   UNL     1      -7.685   7.794  70.710  1.00  0.00    -0.084 C  
BRANCH  19  22
HETATM   22  C   UNL     1      -9.418   6.628  72.108  1.00  0.00    -0.146 C  
HETATM   23  C   UNL     1      -8.224   5.947  72.770  1.00  0.00    -0.118 C  
ENDBRANCH  19  22
ENDBRANCH  15  19
ENDBRANCH   4  13
TORSDOF 4
ENDMDL
MODEL      129
REMARK 921   NORMALIZED FREE ENERGY PREDICTED BY IDOCK:   -3.77 KCAL/MOL
REMARK 922        TOTAL FREE ENERGY PREDICTED BY IDOCK:   -4.96 KCAL/MOL
REMARK 923 INTER-LIGAND FREE ENERGY PREDICTED BY IDOCK:   -4.06 KCAL/MOL
REMARK 924 INTRA-LIGAND FREE ENERGY PREDICTED BY IDOCK:   -0.90 KCAL/MOL
REMARK 927      BINDING AFFINITY PREDICTED BY RF-SCORE:    0.00 PKD
ROOT
HETATM    1  C   UNL     1      -9.534  10.232  69.125  1.00  0.00    -0.225 C  
HETATM    2  C   UNL     1      -9.374  11.542  68.352  1.00  0.00    -0.194 C  
HETATM    3  C   UNL     1     -10.664  10.320  70.179  1.00  0.00    -0.278 C  
HETATM    4  C   UNL     1      -8.185   9.864  69.814  1.00  0.00    -0.191 C  
ENDROOT
BRANCH   3   5
HETATM    5  N   UNL     1     -12.054  10.581  69.763  1.00  0.00    -0.252 NA 
HETATM    6  C   UNL     1     -12.981  13.381  72.302  1.00  0.00    -0.393 C  
HETATM    7  C   UNL     1     -12.461  11.931  70.269  1.00  0.00    -0.121 C  
HETATM    8  C   UNL     1     -13.035   9.612  70.319  1.00  0.00     0.435 C  
HETATM    9  C   UNL     1     -13.235   9.713  71.854  1.00  0.00    -0.446 C  
HETATM   10  C   UNL     1     -12.598  11.993  71.814  1.00  0.00    -0.037 C  
HETATM   11  C   UNL     1     -14.354   8.789  72.320  1.00  0.00    -0.468 C  
HETATM   12  O   UNL     1     -13.589  11.052  72.254  1.00  0.00    -0.247 OA 
ENDBRANCH   3   5
BRANCH   4  13
HETATM   13  C   UNL     1      -8.261   8.582  70.611  1.00  0.00    -0.129 A  
HETATM   14  C   UNL     1      -8.316   7.449  72.764  1.00  0.00    -0.137 A  
HETATM   15  C   UNL     1      -8.833   6.277  72.182  1.00  0.00    -0.137 A  
HETATM   16  C   UNL     1      -8.979   6.267  70.785  1.00  0.00    -0.144 A  
HETATM   17  C   UNL     1      -8.707   7.403  70.012  1.00  0.00    -0.140 A  
HETATM   18  C   UNL     1      -8.016   8.579  71.990  1.00  0.00    -0.160 A  
BRANCH  15  19
HETATM   19  C   UNL     1      -9.246   5.082  73.063  1.00  0.00    -0.130 C  
HETATM   20  C   UNL     1     -10.653   5.232  73.685  1.00  0.00    -0.322 C  
HETATM   21  C   UNL     1      -9.291   3.802  72.189  1.00  0.00    -0.182 C  
BRANCH  19  22
HETATM   22  C   UNL     1      -8.211   4.838  74.209  1.00  0.00    -0.099 C  
HETATM   23  C   UNL     1      -6.873   4.250  73.773  1.00  0.00    -0.060 C  
ENDBRANCH  19  22
ENDBRANCH  15  19
ENDBRANCH   4  13
TORSDOF 4
ENDMDL
MODEL      130
REMARK 921   NORMALIZED FREE ENERGY PREDICTED BY IDOCK:   -3.77 KCAL/MOL
REMARK 922        TOTAL FREE ENERGY PREDICTED BY IDOCK:   -4.96 KCAL/MOL
REMARK 923 INTER-LIGAND FREE ENERGY PREDICTED BY IDOCK:   -4.75 KCAL/MOL
REMARK 924 INTRA-LIGAND FREE ENERGY PREDICTED BY IDOCK:   -0.20 KCAL/MOL
REMARK 927      BINDING AFFINITY PREDICTED BY RF-SCORE:    0.00 PKD
ROOT
HETATM    1  C   UNL     1     -10.356  11.200  64.968  1.00  0.00    -0.362 C  
HETATM    2  C   UNL     1     -10.372  12.364  63.976  1.00  0.00    -0.435 C  
HETATM    3  C   UNL     1     -10.625  11.673  66.417  1.00  0.00    -0.258 C  
HETATM    4  C   UNL     1      -8.983  10.465  64.889  1.00  0.00    -0.225 C  
ENDROOT
BRANCH   3   5
HETATM    5  N   UNL     1     -11.898  12.330  66.764  1.00  0.00    -0.591 NA 
HETATM    6  C   UNL     1     -10.594  15.909  67.560  1.00  0.00    -0.315 C  
HETATM    7  C   UNL     1     -11.722  13.812  66.645  1.00  0.00    -0.394 C  
HETATM    8  C   UNL     1     -12.342  12.071  68.159  1.00  0.00     0.616 C  
HETATM    9  C   UNL     1     -11.448  12.723  69.246  1.00  0.00    -0.289 C  
HETATM   10  C   UNL     1     -10.779  14.409  67.724  1.00  0.00    -0.248 C  
HETATM   11  C   UNL     1     -12.049  12.531  70.633  1.00  0.00    -0.312 C  
HETATM   12  O   UNL     1     -11.305  14.142  69.033  1.00  0.00    -0.245 OA 
ENDBRANCH   3   5
BRANCH   4  13
HETATM   13  C   UNL     1      -8.881   9.302  65.850  1.00  0.00    -0.199 A  
HETATM   14  C   UNL     1      -9.938   7.455  67.029  1.00  0.00    -0.301 A  
HETATM   15  C   UNL     1      -8.693   6.855  67.293  1.00  0.00    -0.119 A  
HETATM   16  C   UNL     1      -7.546   7.556  66.885  1.00  0.00    -0.102 A  
HETATM   17  C   UNL     1      -7.636   8.754  66.166  1.00  0.00    -0.094 A  
HETATM   18  C   UNL     1     -10.032   8.669  66.335  1.00  0.00    -0.331 A  
BRANCH  15  19
HETATM   19  C   UNL     1      -8.617   5.474  67.972  1.00  0.00    -0.100 C  
HETATM   20  C   UNL     1      -9.778   5.208  68.959  1.00  0.00    -0.227 C  
HETATM   21  C   UNL     1      -8.708   4.371  66.886  1.00  0.00    -0.112 C  
BRANCH  19  22
HETATM   22  C   UNL     1      -7.261   5.287  68.726  1.00  0.00    -0.065 C  
HETATM   23  C   UNL     1      -7.033   3.909  69.339  1.00  0.00    -0.046 C  
ENDBRANCH  19  22
ENDBRANCH  15  19
ENDBRANCH   4  13
TORSDOF 4
ENDMDL
MODEL      131
REMARK 921   NORMALIZED FREE ENERGY PREDICTED BY IDOCK:   -3.75 KCAL/MOL
REMARK 922        TOTAL FREE ENERGY PREDICTED BY IDOCK:   -4.93 KCAL/MOL
REMARK 923 INTER-LIGAND FREE ENERGY PREDICTED BY IDOCK:   -4.11 KCAL/MOL
REMARK 924 INTRA-LIGAND FREE ENERGY PREDICTED BY IDOCK:   -0.81 KCAL/MOL
REMARK 927      BINDING AFFINITY PREDICTED BY RF-SCORE:    0.00 PKD
ROOT
HETATM    1  C   UNL     1     -10.763   8.551  70.357  1.00  0.00    -0.246 C  
HETATM    2  C   UNL     1     -11.189   8.890  71.787  1.00  0.00    -0.432 C  
HETATM    3  C   UNL     1      -9.815   7.328  70.313  1.00  0.00    -0.179 C  
HETATM    4  C   UNL     1     -10.073   9.790  69.710  1.00  0.00    -0.268 C  
ENDROOT
BRANCH   3   5
HETATM    5  N   UNL     1     -10.269   6.013  70.798  1.00  0.00    -0.196 NA 
HETATM    6  C   UNL     1      -6.937   4.684  72.306  1.00  0.00    -0.061 C  
HETATM    7  C   UNL     1      -9.299   5.518  71.826  1.00  0.00    -0.142 C  
HETATM    8  C   UNL     1     -10.322   4.972  69.737  1.00  0.00    -0.216 C  
HETATM    9  C   UNL     1      -8.935   4.545  69.190  1.00  0.00    -0.100 C  
HETATM   10  C   UNL     1      -7.911   5.152  71.236  1.00  0.00    -0.106 C  
HETATM   11  C   UNL     1      -9.069   3.380  68.216  1.00  0.00    -0.206 C  
HETATM   12  O   UNL     1      -8.057   4.119  70.251  1.00  0.00    -0.057 OA 
ENDBRANCH   3   5
BRANCH   4  13
HETATM   13  C   UNL     1      -9.610   9.534  68.294  1.00  0.00    -0.151 A  
HETATM   14  C   UNL     1     -10.076   9.512  65.906  1.00  0.00    -0.284 A  
HETATM   15  C   UNL     1      -8.704   9.497  65.595  1.00  0.00    -0.173 A  
HETATM   16  C   UNL     1      -7.805   9.420  66.672  1.00  0.00    -0.104 A  
HETATM   17  C   UNL     1      -8.248   9.448  68.000  1.00  0.00    -0.114 A  
HETATM   18  C   UNL     1     -10.525   9.512  67.234  1.00  0.00    -0.328 A  
BRANCH  15  19
HETATM   19  C   UNL     1      -8.231   9.595  64.132  1.00  0.00    -0.158 C  
HETATM   20  C   UNL     1      -8.121   8.224  63.426  1.00  0.00    -0.133 C  
HETATM   21  C   UNL     1      -9.264  10.419  63.321  1.00  0.00    -0.312 C  
BRANCH  19  22
HETATM   22  C   UNL     1      -6.854  10.328  64.030  1.00  0.00    -0.054 C  
HETATM   23  C   UNL     1      -5.702   9.491  63.482  1.00  0.00    -0.090 C  
ENDBRANCH  19  22
ENDBRANCH  15  19
ENDBRANCH   4  13
TORSDOF 4
ENDMDL
MODEL      132
REMARK 921   NORMALIZED FREE ENERGY PREDICTED BY IDOCK:   -3.69 KCAL/MOL
REMARK 922        TOTAL FREE ENERGY PREDICTED BY IDOCK:   -4.86 KCAL/MOL
REMARK 923 INTER-LIGAND FREE ENERGY PREDICTED BY IDOCK:   -4.08 KCAL/MOL
REMARK 924 INTRA-LIGAND FREE ENERGY PREDICTED BY IDOCK:   -0.78 KCAL/MOL
REMARK 927      BINDING AFFINITY PREDICTED BY RF-SCORE:    0.00 PKD
ROOT
HETATM    1  C   UNL     1     -10.309   5.243  67.103  1.00  0.00    -0.268 C  
HETATM    2  C   UNL     1     -10.430   4.645  65.700  1.00  0.00    -0.260 C  
HETATM    3  C   UNL     1      -9.405   6.500  67.117  1.00  0.00    -0.126 C  
HETATM    4  C   UNL     1      -9.748   4.167  68.082  1.00  0.00    -0.152 C  
ENDROOT
BRANCH   3   5
HETATM    5  N   UNL     1      -9.768   7.690  66.327  1.00  0.00    -0.117 NA 
HETATM    6  C   UNL     1      -6.478   9.739  66.680  1.00  0.00    -0.070 C  
HETATM    7  C   UNL     1      -8.513   8.399  65.923  1.00  0.00    -0.148 C  
HETATM    8  C   UNL     1     -10.584   8.679  67.080  1.00  0.00    -0.234 C  
HETATM    9  C   UNL     1      -9.825   9.393  68.229  1.00  0.00    -0.160 C  
HETATM   10  C   UNL     1      -7.764   9.053  67.114  1.00  0.00    -0.099 C  
HETATM   11  C   UNL     1     -10.684  10.486  68.853  1.00  0.00    -0.253 C  
HETATM   12  O   UNL     1      -8.614  10.016  67.755  1.00  0.00    -0.118 OA 
ENDBRANCH   3   5
BRANCH   4  13
HETATM   13  C   UNL     1      -9.586   4.683  69.494  1.00  0.00    -0.258 A  
HETATM   14  C   UNL     1     -10.584   5.479  71.565  1.00  0.00    -0.302 A  
HETATM   15  C   UNL     1      -9.397   5.241  72.279  1.00  0.00    -0.160 A  
HETATM   16  C   UNL     1      -8.286   4.792  71.544  1.00  0.00    -0.109 A  
HETATM   17  C   UNL     1      -8.381   4.508  70.176  1.00  0.00    -0.080 A  
HETATM   18  C   UNL     1     -10.675   5.222  70.189  1.00  0.00    -0.217 A  
BRANCH  15  19
HETATM   19  C   UNL     1      -9.348   5.438  73.807  1.00  0.00    -0.136 C  
HETATM   20  C   UNL     1      -7.933   5.751  74.343  1.00  0.00    -0.103 C  
HETATM   21  C   UNL     1     -10.236   6.650  74.189  1.00  0.00    -0.390 C  
BRANCH  19  22
HETATM   22  C   UNL     1      -9.907   4.185  74.557  1.00  0.00    -0.183 C  
HETATM   23  C   UNL     1      -9.767   2.858  73.818  1.00  0.00    -0.134 C  
ENDBRANCH  19  22
ENDBRANCH  15  19
ENDBRANCH   4  13
TORSDOF 4
ENDMDL
MODEL      133
REMARK 921   NORMALIZED FREE ENERGY PREDICTED BY IDOCK:   -3.61 KCAL/MOL
REMARK 922        TOTAL FREE ENERGY PREDICTED BY IDOCK:   -4.76 KCAL/MOL
REMARK 923 INTER-LIGAND FREE ENERGY PREDICTED BY IDOCK:   -3.92 KCAL/MOL
REMARK 924 INTRA-LIGAND FREE ENERGY PREDICTED BY IDOCK:   -0.84 KCAL/MOL
REMARK 927      BINDING AFFINITY PREDICTED BY RF-SCORE:    0.00 PKD
ROOT
HETATM    1  C   UNL     1      -9.400   4.088  68.104  1.00  0.00    -0.218 C  
HETATM    2  C   UNL     1      -9.467   2.751  68.843  1.00  0.00    -0.171 C  
HETATM    3  C   UNL     1      -8.111   4.212  67.255  1.00  0.00    -0.099 C  
HETATM    4  C   UNL     1      -9.481   5.259  69.131  1.00  0.00    -0.184 C  
ENDROOT
BRANCH   3   5
HETATM    5  N   UNL     1      -7.844   3.264  66.160  1.00  0.00    -0.081 NA 
HETATM    6  C   UNL     1      -6.402   5.717  63.506  1.00  0.00    -0.025 C  
HETATM    7  C   UNL     1      -6.857   3.883  65.218  1.00  0.00    -0.053 C  
HETATM    8  C   UNL     1      -9.046   2.934  65.349  1.00  0.00    -0.149 C  
HETATM    9  C   UNL     1      -9.589   4.113  64.500  1.00  0.00    -0.168 C  
HETATM   10  C   UNL     1      -7.433   5.089  64.430  1.00  0.00    -0.068 C  
HETATM   11  C   UNL     1     -10.727   3.655  63.597  1.00  0.00    -0.260 C  
HETATM   12  O   UNL     1      -8.564   4.669  63.652  1.00  0.00    -0.122 OA 
ENDBRANCH   3   5
BRANCH   4  13
HETATM   13  C   UNL     1      -9.409   6.621  68.480  1.00  0.00    -0.125 A  
HETATM   14  C   UNL     1     -10.515   8.458  67.330  1.00  0.00    -0.373 A  
HETATM   15  C   UNL     1      -9.460   9.338  67.631  1.00  0.00    -0.156 A  
HETATM   16  C   UNL     1      -8.347   8.799  68.298  1.00  0.00    -0.126 A  
HETATM   17  C   UNL     1      -8.325   7.465  68.725  1.00  0.00    -0.129 A  
HETATM   18  C   UNL     1     -10.484   7.114  67.730  1.00  0.00    -0.284 A  
BRANCH  15  19
HETATM   19  C   UNL     1      -9.557  10.831  67.266  1.00  0.00    -0.182 C  
HETATM   20  C   UNL     1      -9.261  11.777  68.453  1.00  0.00    -0.175 C  
HETATM   21  C   UNL     1      -8.501  11.156  66.178  1.00  0.00    -0.156 C  
BRANCH  19  22
HETATM   22  C   UNL     1     -10.964  11.181  66.681  1.00  0.00    -0.289 C  
HETATM   23  C   UNL     1     -10.970  11.701  65.246  1.00  0.00    -0.327 C  
ENDBRANCH  19  22
ENDBRANCH  15  19
ENDBRANCH   4  13
TORSDOF 4
ENDMDL
MODEL      134
REMARK 921   NORMALIZED FREE ENERGY PREDICTED BY IDOCK:   -3.58 KCAL/MOL
REMARK 922        TOTAL FREE ENERGY PREDICTED BY IDOCK:   -4.72 KCAL/MOL
REMARK 923 INTER-LIGAND FREE ENERGY PREDICTED BY IDOCK:   -4.72 KCAL/MOL
REMARK 924 INTRA-LIGAND FREE ENERGY PREDICTED BY IDOCK:    0.01 KCAL/MOL
REMARK 927      BINDING AFFINITY PREDICTED BY RF-SCORE:    0.00 PKD
ROOT
HETATM    1  C   UNL     1     -11.129  13.381  68.110  1.00  0.00    -0.284 C  
HETATM    2  C   UNL     1     -11.531  14.688  67.424  1.00  0.00    -0.384 C  
HETATM    3  C   UNL     1     -10.318  12.461  67.165  1.00  0.00    -0.219 C  
HETATM    4  C   UNL     1     -12.405  12.641  68.614  1.00  0.00     0.251 C  
ENDROOT
BRANCH   3   5
HETATM    5  N   UNL     1      -9.025  12.908  66.615  1.00  0.00    -0.182 NA 
HETATM    6  C   UNL     1      -6.706  10.137  68.061  1.00  0.00    -0.063 C  
HETATM    7  C   UNL     1      -8.070  11.755  66.636  1.00  0.00    -0.094 C  
HETATM    8  C   UNL     1      -8.386  13.996  67.403  1.00  0.00    -0.196 C  
HETATM    9  C   UNL     1      -7.897  13.564  68.810  1.00  0.00    -0.029 C  
HETATM   10  C   UNL     1      -7.650  11.329  68.068  1.00  0.00    -0.105 C  
HETATM   11  C   UNL     1      -7.131  14.692  69.490  1.00  0.00    -0.152 C  
HETATM   12  O   UNL     1      -7.012  12.428  68.737  1.00  0.00    -0.087 OA 
ENDBRANCH   3   5
BRANCH   4  13
HETATM   13  C   UNL     1     -12.094  11.328  69.296  1.00  0.00    -0.372 A  
HETATM   14  C   UNL     1     -11.059   9.127  69.241  1.00  0.00     0.001 A  
HETATM   15  C   UNL     1     -11.099   9.025  70.643  1.00  0.00    -0.314 A  
HETATM   16  C   UNL     1     -11.722  10.072  71.343  1.00  0.00    -0.414 A  
HETATM   17  C   UNL     1     -12.203  11.210  70.683  1.00  0.00    -0.492 A  
HETATM   18  C   UNL     1     -11.566  10.252  68.574  1.00  0.00    -0.077 A  
BRANCH  15  19
HETATM   19  C   UNL     1     -10.450   7.826  71.360  1.00  0.00    -0.237 C  
HETATM   20  C   UNL     1     -10.480   6.522  70.530  1.00  0.00    -0.251 C  
HETATM   21  C   UNL     1      -8.955   8.141  71.622  1.00  0.00    -0.212 C  
BRANCH  19  22
HETATM   22  C   UNL     1     -11.128   7.559  72.743  1.00  0.00    -0.416 C  
HETATM   23  C   UNL     1     -10.252   6.865  73.782  1.00  0.00    -0.396 C  
ENDBRANCH  19  22
ENDBRANCH  15  19
ENDBRANCH   4  13
TORSDOF 4
ENDMDL
MODEL      135
REMARK 921   NORMALIZED FREE ENERGY PREDICTED BY IDOCK:   -3.55 KCAL/MOL
REMARK 922        TOTAL FREE ENERGY PREDICTED BY IDOCK:   -4.68 KCAL/MOL
REMARK 923 INTER-LIGAND FREE ENERGY PREDICTED BY IDOCK:   -3.69 KCAL/MOL
REMARK 924 INTRA-LIGAND FREE ENERGY PREDICTED BY IDOCK:   -0.99 KCAL/MOL
REMARK 927      BINDING AFFINITY PREDICTED BY RF-SCORE:    0.00 PKD
ROOT
HETATM    1  C   UNL     1      -9.283   7.853  72.075  1.00  0.00    -0.207 C  
HETATM    2  C   UNL     1      -9.699   7.376  73.467  1.00  0.00    -0.338 C  
HETATM    3  C   UNL     1      -9.241   6.689  71.056  1.00  0.00    -0.160 C  
HETATM    4  C   UNL     1      -7.888   8.546  72.155  1.00  0.00    -0.136 C  
ENDROOT
BRANCH   3   5
HETATM    5  N   UNL     1     -10.462   5.924  70.745  1.00  0.00    -0.234 NA 
HETATM    6  C   UNL     1      -8.857   2.612  69.481  1.00  0.00    -0.151 C  
HETATM    7  C   UNL     1     -10.117   4.467  70.695  1.00  0.00    -0.162 C  
HETATM    8  C   UNL     1     -11.056   6.259  69.424  1.00  0.00    -0.410 C  
HETATM    9  C   UNL     1     -10.199   5.821  68.207  1.00  0.00    -0.187 C  
HETATM   10  C   UNL     1      -9.217   4.089  69.489  1.00  0.00    -0.151 C  
HETATM   11  C   UNL     1     -10.941   6.071  66.900  1.00  0.00    -0.350 C  
HETATM   12  O   UNL     1      -9.886   4.415  68.261  1.00  0.00    -0.138 OA 
ENDBRANCH   3   5
BRANCH   4  13
HETATM   13  C   UNL     1      -7.397   9.039  70.813  1.00  0.00    -0.109 A  
HETATM   14  C   UNL     1      -5.830   8.868  68.960  1.00  0.00    -0.040 A  
HETATM   15  C   UNL     1      -6.678   9.608  68.118  1.00  0.00    -0.062 A  
HETATM   16  C   UNL     1      -7.857  10.120  68.686  1.00  0.00    -0.097 A  
HETATM   17  C   UNL     1      -8.216   9.833  70.009  1.00  0.00    -0.207 A  
HETATM   18  C   UNL     1      -6.172   8.602  70.293  1.00  0.00    -0.037 A  
BRANCH  15  19
HETATM   19  C   UNL     1      -6.328   9.806  66.630  1.00  0.00    -0.066 C  
HETATM   20  C   UNL     1      -5.216  10.853  66.393  1.00  0.00    -0.095 C  
HETATM   21  C   UNL     1      -5.795   8.468  66.054  1.00  0.00    -0.047 C  
BRANCH  19  22
HETATM   22  C   UNL     1      -7.588  10.212  65.800  1.00  0.00    -0.134 C  
HETATM   23  C   UNL     1      -8.296   9.070  65.077  1.00  0.00    -0.174 C  
ENDBRANCH  19  22
ENDBRANCH  15  19
ENDBRANCH   4  13
TORSDOF 4
ENDMDL
MODEL      136
REMARK 921   NORMALIZED FREE ENERGY PREDICTED BY IDOCK:   -3.55 KCAL/MOL
REMARK 922        TOTAL FREE ENERGY PREDICTED BY IDOCK:   -4.68 KCAL/MOL
REMARK 923 INTER-LIGAND FREE ENERGY PREDICTED BY IDOCK:   -4.44 KCAL/MOL
REMARK 924 INTRA-LIGAND FREE ENERGY PREDICTED BY IDOCK:   -0.24 KCAL/MOL
REMARK 927      BINDING AFFINITY PREDICTED BY RF-SCORE:    0.00 PKD
ROOT
HETATM    1  C   UNL     1     -10.203  15.309  67.619  1.00  0.00    -0.242 C  
HETATM    2  C   UNL     1     -10.441  16.820  67.589  1.00  0.00    -0.328 C  
HETATM    3  C   UNL     1     -10.756  14.665  68.913  1.00  0.00    -0.248 C  
HETATM    4  C   UNL     1      -8.677  15.017  67.483  1.00  0.00    -0.194 C  
ENDROOT
BRANCH   3   5
HETATM    5  N   UNL     1     -12.194  14.736  69.228  1.00  0.00    -0.244 NA 
HETATM    6  C   UNL     1     -12.003  16.193  72.832  1.00  0.00    -0.623 C  
HETATM    7  C   UNL     1     -12.390  15.697  70.360  1.00  0.00    -0.391 C  
HETATM    8  C   UNL     1     -12.772  13.440  69.673  1.00  0.00     0.357 C  
HETATM    9  C   UNL     1     -12.262  12.953  71.055  1.00  0.00    -0.116 C  
HETATM   10  C   UNL     1     -11.818  15.185  71.709  1.00  0.00    -0.405 C  
HETATM   11  C   UNL     1     -13.006  11.700  71.499  1.00  0.00    -0.463 C  
HETATM   12  O   UNL     1     -12.459  13.953  72.074  1.00  0.00    -0.233 OA 
ENDBRANCH   3   5
BRANCH   4  13
HETATM   13  C   UNL     1      -8.355  13.541  67.514  1.00  0.00    -0.185 A  
HETATM   14  C   UNL     1      -9.036  11.235  67.140  1.00  0.00    -0.155 A  
HETATM   15  C   UNL     1      -7.699  10.797  67.130  1.00  0.00    -0.120 A  
HETATM   16  C   UNL     1      -6.709  11.757  67.397  1.00  0.00    -0.120 A  
HETATM   17  C   UNL     1      -7.029  13.109  67.576  1.00  0.00    -0.155 A  
HETATM   18  C   UNL     1      -9.362  12.583  67.347  1.00  0.00    -0.187 A  
BRANCH  15  19
HETATM   19  C   UNL     1      -7.358   9.330  66.804  1.00  0.00    -0.086 C  
HETATM   20  C   UNL     1      -6.547   8.625  67.916  1.00  0.00    -0.061 C  
HETATM   21  C   UNL     1      -8.676   8.526  66.651  1.00  0.00    -0.139 C  
BRANCH  19  22
HETATM   22  C   UNL     1      -6.573   9.216  65.458  1.00  0.00    -0.068 C  
HETATM   23  C   UNL     1      -5.559   8.079  65.381  1.00  0.00    -0.036 C  
ENDBRANCH  19  22
ENDBRANCH  15  19
ENDBRANCH   4  13
TORSDOF 4
ENDMDL
MODEL      137
REMARK 921   NORMALIZED FREE ENERGY PREDICTED BY IDOCK:   -3.47 KCAL/MOL
REMARK 922        TOTAL FREE ENERGY PREDICTED BY IDOCK:   -4.58 KCAL/MOL
REMARK 923 INTER-LIGAND FREE ENERGY PREDICTED BY IDOCK:   -3.70 KCAL/MOL
REMARK 924 INTRA-LIGAND FREE ENERGY PREDICTED BY IDOCK:   -0.88 KCAL/MOL
REMARK 927      BINDING AFFINITY PREDICTED BY RF-SCORE:    0.00 PKD
ROOT
HETATM    1  C   UNL     1      -9.938   5.211  73.100  1.00  0.00    -0.183 C  
HETATM    2  C   UNL     1     -10.495   4.865  74.482  1.00  0.00    -0.291 C  
HETATM    3  C   UNL     1      -9.290   6.616  73.076  1.00  0.00    -0.135 C  
HETATM    4  C   UNL     1     -11.079   5.127  72.041  1.00  0.00    -0.085 C  
ENDROOT
BRANCH   3   5
HETATM    5  N   UNL     1      -8.133   6.921  73.937  1.00  0.00    -0.115 NA 
HETATM    6  C   UNL     1      -6.073   9.150  71.501  1.00  0.00    -0.076 C  
HETATM    7  C   UNL     1      -7.441   8.136  73.400  1.00  0.00    -0.145 C  
HETATM    8  C   UNL     1      -7.114   5.839  73.970  1.00  0.00    -0.082 C  
HETATM    9  C   UNL     1      -6.353   5.634  72.634  1.00  0.00    -0.053 C  
HETATM   10  C   UNL     1      -6.739   7.893  72.037  1.00  0.00    -0.061 C  
HETATM   11  C   UNL     1      -5.235   4.612  72.795  1.00  0.00    -0.007 C  
HETATM   12  O   UNL     1      -5.751   6.861  72.176  1.00  0.00    -0.037 OA 
ENDBRANCH   3   5
BRANCH   4  13
HETATM   13  C   UNL     1     -10.613   5.467  70.644  1.00  0.00    -0.329 A  
HETATM   14  C   UNL     1     -10.817   6.824  68.635  1.00  0.00    -0.277 A  
HETATM   15  C   UNL     1      -9.530   6.457  68.203  1.00  0.00    -0.114 A  
HETATM   16  C   UNL     1      -8.835   5.520  68.987  1.00  0.00    -0.108 A  
HETATM   17  C   UNL     1      -9.362   5.040  70.193  1.00  0.00    -0.215 A  
HETATM   18  C   UNL     1     -11.360   6.324  69.826  1.00  0.00    -0.506 A  
BRANCH  15  19
HETATM   19  C   UNL     1      -8.915   7.093  66.942  1.00  0.00    -0.145 C  
HETATM   20  C   UNL     1      -7.499   7.669  67.170  1.00  0.00    -0.096 C  
HETATM   21  C   UNL     1      -8.770   6.004  65.846  1.00  0.00    -0.157 C  
BRANCH  19  22
HETATM   22  C   UNL     1      -9.833   8.221  66.371  1.00  0.00    -0.283 C  
HETATM   23  C   UNL     1      -9.386   9.649  66.671  1.00  0.00    -0.200 C  
ENDBRANCH  19  22
ENDBRANCH  15  19
ENDBRANCH   4  13
TORSDOF 4
ENDMDL
MODEL      138
REMARK 921   NORMALIZED FREE ENERGY PREDICTED BY IDOCK:   -3.41 KCAL/MOL
REMARK 922        TOTAL FREE ENERGY PREDICTED BY IDOCK:   -4.51 KCAL/MOL
REMARK 923 INTER-LIGAND FREE ENERGY PREDICTED BY IDOCK:   -3.67 KCAL/MOL
REMARK 924 INTRA-LIGAND FREE ENERGY PREDICTED BY IDOCK:   -0.84 KCAL/MOL
REMARK 927      BINDING AFFINITY PREDICTED BY RF-SCORE:    0.00 PKD
ROOT
HETATM    1  C   UNL     1      -9.981   9.796  69.162  1.00  0.00    -0.195 C  
HETATM    2  C   UNL     1     -10.773  11.104  69.188  1.00  0.00    -0.262 C  
HETATM    3  C   UNL     1      -9.317   9.552  67.785  1.00  0.00    -0.127 C  
HETATM    4  C   UNL     1     -10.923   8.607  69.522  1.00  0.00    -0.067 C  
ENDROOT
BRANCH   3   5
HETATM    5  N   UNL     1      -8.322  10.502  67.257  1.00  0.00    -0.122 NA 
HETATM    6  C   UNL     1      -9.921  11.265  63.792  1.00  0.00    -0.388 C  
HETATM    7  C   UNL     1      -8.952  11.292  66.151  1.00  0.00    -0.202 C  
HETATM    8  C   UNL     1      -7.122   9.846  66.672  1.00  0.00    -0.087 C  
HETATM    9  C   UNL     1      -7.398   9.057  65.365  1.00  0.00    -0.085 C  
HETATM   10  C   UNL     1      -9.254  10.446  64.885  1.00  0.00    -0.221 C  
HETATM   11  C   UNL     1      -6.100   8.539  64.758  1.00  0.00    -0.064 C  
HETATM   12  O   UNL     1      -8.036   9.885  64.372  1.00  0.00    -0.141 OA 
ENDBRANCH   3   5
BRANCH   4  13
HETATM   13  C   UNL     1     -10.217   7.271  69.509  1.00  0.00    -0.200 A  
HETATM   14  C   UNL     1      -8.750   5.661  70.594  1.00  0.00    -0.138 A  
HETATM   15  C   UNL     1      -9.207   4.621  69.765  1.00  0.00    -0.185 A  
HETATM   16  C   UNL     1     -10.123   4.962  68.755  1.00  0.00    -0.169 A  
HETATM   17  C   UNL     1     -10.628   6.263  68.634  1.00  0.00    -0.314 A  
HETATM   18  C   UNL     1      -9.232   6.970  70.457  1.00  0.00    -0.159 A  
BRANCH  15  19
HETATM   19  C   UNL     1      -8.738   3.171  69.994  1.00  0.00    -0.131 C  
HETATM   20  C   UNL     1      -9.575   2.123  69.226  1.00  0.00    -0.046 C  
HETATM   21  C   UNL     1      -7.281   3.024  69.482  1.00  0.00    -0.044 C  
BRANCH  19  22
HETATM   22  C   UNL     1      -8.745   2.807  71.514  1.00  0.00    -0.112 C  
HETATM   23  C   UNL     1     -10.083   2.327  72.070  1.00  0.00    -0.210 C  
ENDBRANCH  19  22
ENDBRANCH  15  19
ENDBRANCH   4  13
TORSDOF 4
ENDMDL
MODEL      139
REMARK 921   NORMALIZED FREE ENERGY PREDICTED BY IDOCK:   -3.40 KCAL/MOL
REMARK 922        TOTAL FREE ENERGY PREDICTED BY IDOCK:   -4.50 KCAL/MOL
REMARK 923 INTER-LIGAND FREE ENERGY PREDICTED BY IDOCK:   -3.98 KCAL/MOL
REMARK 924 INTRA-LIGAND FREE ENERGY PREDICTED BY IDOCK:   -0.52 KCAL/MOL
REMARK 927      BINDING AFFINITY PREDICTED BY RF-SCORE:    0.00 PKD
ROOT
HETATM    1  C   UNL     1      -9.417   6.684  67.413  1.00  0.00    -0.143 C  
HETATM    2  C   UNL     1      -9.576   5.334  66.711  1.00  0.00    -0.156 C  
HETATM    3  C   UNL     1     -10.103   6.696  68.800  1.00  0.00    -0.158 C  
HETATM    4  C   UNL     1     -10.004   7.814  66.513  1.00  0.00    -0.244 C  
ENDROOT
BRANCH   3   5
HETATM    5  N   UNL     1      -9.666   5.768  69.858  1.00  0.00    -0.157 NA 
HETATM    6  C   UNL     1      -8.945   8.318  72.709  1.00  0.00    -0.323 C  
HETATM    7  C   UNL     1      -9.790   6.457  71.183  1.00  0.00    -0.179 C  
HETATM    8  C   UNL     1      -8.245   5.350  69.735  1.00  0.00    -0.100 C  
HETATM    9  C   UNL     1      -7.219   6.485  69.992  1.00  0.00    -0.080 C  
HETATM   10  C   UNL     1      -8.776   7.617  71.370  1.00  0.00    -0.124 C  
HETATM   11  C   UNL     1      -5.795   5.943  69.987  1.00  0.00    -0.024 C  
HETATM   12  O   UNL     1      -7.435   7.113  71.271  1.00  0.00    -0.078 OA 
ENDBRANCH   3   5
BRANCH   4  13
HETATM   13  C   UNL     1      -9.896   9.185  67.142  1.00  0.00    -0.253 A  
HETATM   14  C   UNL     1      -8.657  11.254  67.464  1.00  0.00    -0.134 A  
HETATM   15  C   UNL     1      -9.807  11.921  67.922  1.00  0.00    -0.190 A  
HETATM   16  C   UNL     1     -10.980  11.159  68.053  1.00  0.00    -0.307 A  
HETATM   17  C   UNL     1     -11.028   9.815  67.660  1.00  0.00    -0.226 A  
HETATM   18  C   UNL     1      -8.694   9.901  67.097  1.00  0.00    -0.136 A  
BRANCH  15  19
HETATM   19  C   UNL     1      -9.767  13.431  68.228  1.00  0.00    -0.226 C  
HETATM   20  C   UNL     1      -8.347  13.959  68.539  1.00  0.00    -0.132 C  
HETATM   21  C   UNL     1     -10.258  14.213  66.983  1.00  0.00    -0.260 C  
BRANCH  19  22
HETATM   22  C   UNL     1     -10.712  13.793  69.419  1.00  0.00    -0.014 C  
HETATM   23  C   UNL     1     -11.849  14.755  69.089  1.00  0.00    -0.340 C  
ENDBRANCH  19  22
ENDBRANCH  15  19
ENDBRANCH   4  13
TORSDOF 4
ENDMDL
MODEL      140
REMARK 921   NORMALIZED FREE ENERGY PREDICTED BY IDOCK:   -3.36 KCAL/MOL
REMARK 922        TOTAL FREE ENERGY PREDICTED BY IDOCK:   -4.45 KCAL/MOL
REMARK 923 INTER-LIGAND FREE ENERGY PREDICTED BY IDOCK:   -3.22 KCAL/MOL
REMARK 924 INTRA-LIGAND FREE ENERGY PREDICTED BY IDOCK:   -1.23 KCAL/MOL
REMARK 927      BINDING AFFINITY PREDICTED BY RF-SCORE:    0.00 PKD
ROOT
HETATM    1  C   UNL     1      -9.851   4.428  67.572  1.00  0.00    -0.180 C  
HETATM    2  C   UNL     1     -10.163   4.648  66.091  1.00  0.00    -0.308 C  
HETATM    3  C   UNL     1      -9.160   5.661  68.204  1.00  0.00    -0.110 C  
HETATM    4  C   UNL     1      -8.950   3.166  67.734  1.00  0.00    -0.188 C  
ENDROOT
BRANCH   3   5
HETATM    5  N   UNL     1      -9.848   6.964  68.245  1.00  0.00    -0.135 NA 
HETATM    6  C   UNL     1      -7.949   8.614  71.213  1.00  0.00    -0.167 C  
HETATM    7  C   UNL     1      -8.984   7.940  68.982  1.00  0.00    -0.145 C  
HETATM    8  C   UNL     1     -11.149   6.929  68.964  1.00  0.00    -0.136 C  
HETATM    9  C   UNL     1     -11.029   6.688  70.492  1.00  0.00    -0.286 C  
HETATM   10  C   UNL     1      -8.855   7.627  70.496  1.00  0.00    -0.149 C  
HETATM   11  C   UNL     1     -12.388   6.809  71.170  1.00  0.00    -0.386 C  
HETATM   12  O   UNL     1     -10.153   7.651  71.111  1.00  0.00    -0.185 OA 
ENDBRANCH   3   5
BRANCH   4  13
HETATM   13  C   UNL     1      -8.585   2.884  69.174  1.00  0.00    -0.117 A  
HETATM   14  C   UNL     1      -6.955   2.955  70.979  1.00  0.00    -0.033 A  
HETATM   15  C   UNL     1      -7.959   2.791  71.950  1.00  0.00    -0.054 A  
HETATM   16  C   UNL     1      -9.271   2.596  71.487  1.00  0.00    -0.185 A  
HETATM   17  C   UNL     1      -9.582   2.651  70.123  1.00  0.00    -0.098 A  
HETATM   18  C   UNL     1      -7.258   2.982  69.610  1.00  0.00    -0.044 A  
BRANCH  15  19
HETATM   19  C   UNL     1      -7.616   2.860  73.450  1.00  0.00    -0.051 C  
HETATM   20  C   UNL     1      -8.810   2.520  74.371  1.00  0.00    -0.081 C  
HETATM   21  C   UNL     1      -6.512   1.818  73.766  1.00  0.00    -0.013 C  
BRANCH  19  22
HETATM   22  C   UNL     1      -7.063   4.269  73.841  1.00  0.00    -0.066 C  
HETATM   23  C   UNL     1      -8.018   5.437  73.612  1.00  0.00    -0.109 C  
ENDBRANCH  19  22
ENDBRANCH  15  19
ENDBRANCH   4  13
TORSDOF 4
ENDMDL
MODEL      141
REMARK 921   NORMALIZED FREE ENERGY PREDICTED BY IDOCK:   -3.35 KCAL/MOL
REMARK 922        TOTAL FREE ENERGY PREDICTED BY IDOCK:   -4.43 KCAL/MOL
REMARK 923 INTER-LIGAND FREE ENERGY PREDICTED BY IDOCK:   -3.61 KCAL/MOL
REMARK 924 INTRA-LIGAND FREE ENERGY PREDICTED BY IDOCK:   -0.82 KCAL/MOL
REMARK 927      BINDING AFFINITY PREDICTED BY RF-SCORE:    0.00 PKD
ROOT
HETATM    1  C   UNL     1     -10.369   6.686  69.456  1.00  0.00    -0.232 C  
HETATM    2  C   UNL     1     -11.546   6.355  70.376  1.00  0.00    -0.440 C  
HETATM    3  C   UNL     1     -10.496   8.104  68.847  1.00  0.00    -0.185 C  
HETATM    4  C   UNL     1     -10.276   5.621  68.322  1.00  0.00    -0.239 C  
ENDROOT
BRANCH   3   5
HETATM    5  N   UNL     1     -10.524   9.291  69.719  1.00  0.00    -0.212 NA 
HETATM    6  C   UNL     1     -11.330  12.028  67.072  1.00  0.00    -0.396 C  
HETATM    7  C   UNL     1     -11.275  10.383  69.020  1.00  0.00    -0.234 C  
HETATM    8  C   UNL     1      -9.176   9.839  70.024  1.00  0.00    -0.229 C  
HETATM    9  C   UNL     1      -8.451  10.470  68.806  1.00  0.00    -0.141 C  
HETATM   10  C   UNL     1     -10.531  10.945  67.780  1.00  0.00    -0.203 C  
HETATM   11  C   UNL     1      -7.146  11.131  69.231  1.00  0.00    -0.123 C  
HETATM   12  O   UNL     1      -9.260  11.483  68.175  1.00  0.00    -0.168 OA 
ENDBRANCH   3   5
BRANCH   4  13
HETATM   13  C   UNL     1      -9.141   5.883  67.359  1.00  0.00    -0.110 A  
HETATM   14  C   UNL     1      -8.356   6.214  65.080  1.00  0.00    -0.129 A  
HETATM   15  C   UNL     1      -7.158   6.796  65.532  1.00  0.00    -0.068 A  
HETATM   16  C   UNL     1      -6.948   6.833  66.920  1.00  0.00    -0.070 A  
HETATM   17  C   UNL     1      -7.927   6.394  67.821  1.00  0.00    -0.114 A  
HETATM   18  C   UNL     1      -9.326   5.747  65.978  1.00  0.00    -0.134 A  
BRANCH  15  19
HETATM   19  C   UNL     1      -6.149   7.390  64.530  1.00  0.00    -0.038 C  
HETATM   20  C   UNL     1      -6.810   8.239  63.420  1.00  0.00    -0.085 C  
HETATM   21  C   UNL     1      -5.184   8.340  65.287  1.00  0.00    -0.032 C  
BRANCH  19  22
HETATM   22  C   UNL     1      -5.286   6.270  63.863  1.00  0.00    -0.018 C  
HETATM   23  C   UNL     1      -5.737   5.832  62.473  1.00  0.00    -0.014 C  
ENDBRANCH  19  22
ENDBRANCH  15  19
ENDBRANCH   4  13
TORSDOF 4
ENDMDL
MODEL      142
REMARK 921   NORMALIZED FREE ENERGY PREDICTED BY IDOCK:   -3.28 KCAL/MOL
REMARK 922        TOTAL FREE ENERGY PREDICTED BY IDOCK:   -4.35 KCAL/MOL
REMARK 923 INTER-LIGAND FREE ENERGY PREDICTED BY IDOCK:   -3.71 KCAL/MOL
REMARK 924 INTRA-LIGAND FREE ENERGY PREDICTED BY IDOCK:   -0.64 KCAL/MOL
REMARK 927      BINDING AFFINITY PREDICTED BY RF-SCORE:    0.00 PKD
ROOT
HETATM    1  C   UNL     1      -8.385  10.098  67.708  1.00  0.00    -0.114 C  
HETATM    2  C   UNL     1      -8.179  11.029  66.512  1.00  0.00    -0.161 C  
HETATM    3  C   UNL     1      -8.249   8.609  67.309  1.00  0.00    -0.105 C  
HETATM    4  C   UNL     1      -9.786  10.359  68.340  1.00  0.00    -0.173 C  
ENDROOT
BRANCH   3   5
HETATM    5  N   UNL     1      -6.982   8.095  66.758  1.00  0.00    -0.072 NA 
HETATM    6  C   UNL     1      -7.988   7.748  63.015  1.00  0.00    -0.123 C  
HETATM    7  C   UNL     1      -6.970   8.332  65.279  1.00  0.00    -0.066 C  
HETATM    8  C   UNL     1      -6.798   6.632  66.950  1.00  0.00    -0.065 C  
HETATM    9  C   UNL     1      -7.775   5.751  66.128  1.00  0.00    -0.095 C  
HETATM   10  C   UNL     1      -8.000   7.464  64.508  1.00  0.00    -0.122 C  
HETATM   11  C   UNL     1      -7.428   4.275  66.269  1.00  0.00    -0.085 C  
HETATM   12  O   UNL     1      -7.722   6.072  64.723  1.00  0.00    -0.087 OA 
ENDBRANCH   3   5
BRANCH   4  13
HETATM   13  C   UNL     1     -10.073   9.468  69.526  1.00  0.00    -0.218 A  
HETATM   14  C   UNL     1     -11.209   7.537  70.475  1.00  0.00    -0.287 A  
HETATM   15  C   UNL     1     -10.329   7.504  71.571  1.00  0.00    -0.216 A  
HETATM   16  C   UNL     1      -9.370   8.528  71.654  1.00  0.00    -0.311 A  
HETATM   17  C   UNL     1      -9.237   9.489  70.644  1.00  0.00    -0.243 A  
HETATM   18  C   UNL     1     -11.097   8.515  69.476  1.00  0.00     0.039 A  
BRANCH  15  19
HETATM   19  C   UNL     1     -10.408   6.364  72.606  1.00  0.00    -0.216 C  
HETATM   20  C   UNL     1     -10.242   6.845  74.066  1.00  0.00    -0.384 C  
HETATM   21  C   UNL     1     -11.809   5.703  72.523  1.00  0.00    -0.194 C  
BRANCH  19  22
HETATM   22  C   UNL     1      -9.343   5.259  72.314  1.00  0.00    -0.160 C  
HETATM   23  C   UNL     1      -9.880   3.977  71.684  1.00  0.00    -0.253 C  
ENDBRANCH  19  22
ENDBRANCH  15  19
ENDBRANCH   4  13
TORSDOF 4
ENDMDL
MODEL      143
REMARK 921   NORMALIZED FREE ENERGY PREDICTED BY IDOCK:   -3.27 KCAL/MOL
REMARK 922        TOTAL FREE ENERGY PREDICTED BY IDOCK:   -4.34 KCAL/MOL
REMARK 923 INTER-LIGAND FREE ENERGY PREDICTED BY IDOCK:   -4.20 KCAL/MOL
REMARK 924 INTRA-LIGAND FREE ENERGY PREDICTED BY IDOCK:   -0.15 KCAL/MOL
REMARK 927      BINDING AFFINITY PREDICTED BY RF-SCORE:    0.00 PKD
ROOT
HETATM    1  C   UNL     1     -10.026  15.966  69.091  1.00  0.00    -0.245 C  
HETATM    2  C   UNL     1     -10.412  15.053  70.256  1.00  0.00    -0.063 C  
HETATM    3  C   UNL     1     -10.309  15.302  67.721  1.00  0.00    -0.244 C  
HETATM    4  C   UNL     1      -8.517  16.345  69.203  1.00  0.00    -0.181 C  
ENDROOT
BRANCH   3   5
HETATM    5  N   UNL     1     -11.682  14.922  67.345  1.00  0.00    -0.339 NA 
HETATM    6  C   UNL     1     -11.567  11.127  68.202  1.00  0.00    -0.350 C  
HETATM    7  C   UNL     1     -12.024  13.630  68.022  1.00  0.00    -0.350 C  
HETATM    8  C   UNL     1     -11.859  14.691  65.887  1.00  0.00    -0.272 C  
HETATM    9  C   UNL     1     -11.120  13.440  65.343  1.00  0.00    -0.287 C  
HETATM   10  C   UNL     1     -11.222  12.418  67.476  1.00  0.00    -0.294 C  
HETATM   11  C   UNL     1     -11.468  13.196  63.880  1.00  0.00    -0.451 C  
HETATM   12  O   UNL     1     -11.483  12.252  66.075  1.00  0.00    -0.346 OA 
ENDBRANCH   3   5
BRANCH   4  13
HETATM   13  C   UNL     1      -8.050  17.241  68.078  1.00  0.00    -0.221 A  
HETATM   14  C   UNL     1      -8.170  19.366  66.901  1.00  0.00    -0.302 A  
HETATM   15  C   UNL     1      -6.932  19.139  66.275  1.00  0.00    -0.247 A  
HETATM   16  C   UNL     1      -6.310  17.902  66.516  1.00  0.00    -0.232 A  
HETATM   17  C   UNL     1      -6.854  16.971  67.411  1.00  0.00    -0.174 A  
HETATM   18  C   UNL     1      -8.732  18.425  67.775  1.00  0.00    -0.278 A  
BRANCH  15  19
HETATM   19  C   UNL     1      -6.287  20.226  65.394  1.00  0.00    -0.284 C  
HETATM   20  C   UNL     1      -7.305  20.999  64.525  1.00  0.00     0.725 C  
HETATM   21  C   UNL     1      -5.607  21.279  66.307  1.00  0.00    -0.302 C  
BRANCH  19  22
HETATM   22  C   UNL     1      -5.185  19.623  64.464  1.00  0.00    -0.207 C  
HETATM   23  C   UNL     1      -5.663  18.556  63.484  1.00  0.00     0.745 C  
ENDBRANCH  19  22
ENDBRANCH  15  19
ENDBRANCH   4  13
TORSDOF 4
ENDMDL
MODEL      144
REMARK 921   NORMALIZED FREE ENERGY PREDICTED BY IDOCK:   -3.22 KCAL/MOL
REMARK 922        TOTAL FREE ENERGY PREDICTED BY IDOCK:   -4.27 KCAL/MOL
REMARK 923 INTER-LIGAND FREE ENERGY PREDICTED BY IDOCK:   -3.70 KCAL/MOL
REMARK 924 INTRA-LIGAND FREE ENERGY PREDICTED BY IDOCK:   -0.58 KCAL/MOL
REMARK 927      BINDING AFFINITY PREDICTED BY RF-SCORE:    0.00 PKD
ROOT
HETATM    1  C   UNL     1      -9.199   7.936  72.057  1.00  0.00    -0.207 C  
HETATM    2  C   UNL     1      -9.136   7.695  73.567  1.00  0.00    -0.317 C  
HETATM    3  C   UNL     1      -9.046   6.619  71.258  1.00  0.00    -0.151 C  
HETATM    4  C   UNL     1      -8.087   8.947  71.643  1.00  0.00    -0.088 C  
ENDROOT
BRANCH   3   5
HETATM    5  N   UNL     1     -10.027   5.530  71.416  1.00  0.00    -0.179 NA 
HETATM    6  C   UNL     1      -7.882   3.009  73.462  1.00  0.00    -0.064 C  
HETATM    7  C   UNL     1      -9.602   4.663  72.561  1.00  0.00    -0.139 C  
HETATM    8  C   UNL     1     -10.127   4.639  70.230  1.00  0.00    -0.206 C  
HETATM    9  C   UNL     1      -8.867   3.772  69.974  1.00  0.00    -0.087 C  
HETATM   10  C   UNL     1      -8.309   3.855  72.273  1.00  0.00    -0.093 C  
HETATM   11  C   UNL     1      -9.105   2.790  68.833  1.00  0.00    -0.207 C  
HETATM   12  O   UNL     1      -8.511   3.000  71.138  1.00  0.00    -0.061 OA 
ENDBRANCH   3   5
BRANCH   4  13
HETATM   13  C   UNL     1      -8.073   9.232  70.158  1.00  0.00    -0.152 A  
HETATM   14  C   UNL     1      -7.197   8.758  67.939  1.00  0.00    -0.084 A  
HETATM   15  C   UNL     1      -8.290   9.395  67.324  1.00  0.00    -0.125 A  
HETATM   16  C   UNL     1      -9.227  10.015  68.168  1.00  0.00    -0.130 A  
HETATM   17  C   UNL     1      -9.127   9.927  69.563  1.00  0.00    -0.237 A  
HETATM   18  C   UNL     1      -7.078   8.693  69.334  1.00  0.00    -0.053 A  
BRANCH  15  19
HETATM   19  C   UNL     1      -8.451   9.372  65.792  1.00  0.00    -0.142 C  
HETATM   20  C   UNL     1      -7.374  10.194  65.047  1.00  0.00    -0.139 C  
HETATM   21  C   UNL     1      -8.306   7.912  65.290  1.00  0.00    -0.140 C  
BRANCH  19  22
HETATM   22  C   UNL     1      -9.864   9.884  65.363  1.00  0.00    -0.384 C  
HETATM   23  C   UNL     1      -9.883  11.218  64.622  1.00  0.00    -0.314 C  
ENDBRANCH  19  22
ENDBRANCH  15  19
ENDBRANCH   4  13
TORSDOF 4
ENDMDL
MODEL      145
REMARK 921   NORMALIZED FREE ENERGY PREDICTED BY IDOCK:   -3.19 KCAL/MOL
REMARK 922        TOTAL FREE ENERGY PREDICTED BY IDOCK:   -4.24 KCAL/MOL
REMARK 923 INTER-LIGAND FREE ENERGY PREDICTED BY IDOCK:   -3.30 KCAL/MOL
REMARK 924 INTRA-LIGAND FREE ENERGY PREDICTED BY IDOCK:   -0.94 KCAL/MOL
REMARK 927      BINDING AFFINITY PREDICTED BY RF-SCORE:    0.00 PKD
ROOT
HETATM    1  C   UNL     1      -9.981   9.796  69.162  1.00  0.00    -0.195 C  
HETATM    2  C   UNL     1     -10.773  11.104  69.188  1.00  0.00    -0.262 C  
HETATM    3  C   UNL     1      -9.317   9.552  67.785  1.00  0.00    -0.127 C  
HETATM    4  C   UNL     1     -10.923   8.607  69.522  1.00  0.00    -0.067 C  
ENDROOT
BRANCH   3   5
HETATM    5  N   UNL     1      -8.322  10.502  67.257  1.00  0.00    -0.122 NA 
HETATM    6  C   UNL     1      -9.921  11.265  63.792  1.00  0.00    -0.388 C  
HETATM    7  C   UNL     1      -8.952  11.292  66.151  1.00  0.00    -0.202 C  
HETATM    8  C   UNL     1      -7.122   9.846  66.672  1.00  0.00    -0.087 C  
HETATM    9  C   UNL     1      -7.398   9.057  65.365  1.00  0.00    -0.085 C  
HETATM   10  C   UNL     1      -9.254  10.446  64.885  1.00  0.00    -0.221 C  
HETATM   11  C   UNL     1      -6.100   8.539  64.758  1.00  0.00    -0.064 C  
HETATM   12  O   UNL     1      -8.036   9.885  64.372  1.00  0.00    -0.141 OA 
ENDBRANCH   3   5
BRANCH   4  13
HETATM   13  C   UNL     1     -10.217   7.271  69.509  1.00  0.00    -0.200 A  
HETATM   14  C   UNL     1      -9.734   5.163  68.393  1.00  0.00    -0.200 A  
HETATM   15  C   UNL     1      -8.601   4.947  69.198  1.00  0.00    -0.091 A  
HETATM   16  C   UNL     1      -8.348   5.886  70.212  1.00  0.00    -0.122 A  
HETATM   17  C   UNL     1      -9.135   7.034  70.360  1.00  0.00    -0.156 A  
HETATM   18  C   UNL     1     -10.542   6.297  68.557  1.00  0.00    -0.315 A  
BRANCH  15  19
HETATM   19  C   UNL     1      -7.673   3.745  68.938  1.00  0.00    -0.053 C  
HETATM   20  C   UNL     1      -6.320   3.839  69.680  1.00  0.00    -0.029 C  
HETATM   21  C   UNL     1      -8.362   2.453  69.451  1.00  0.00    -0.077 C  
BRANCH  19  22
HETATM   22  C   UNL     1      -7.399   3.561  67.410  1.00  0.00    -0.063 C  
HETATM   23  C   UNL     1      -6.260   4.401  66.840  1.00  0.00    -0.036 C  
ENDBRANCH  19  22
ENDBRANCH  15  19
ENDBRANCH   4  13
TORSDOF 4
ENDMDL
MODEL      146
REMARK 921   NORMALIZED FREE ENERGY PREDICTED BY IDOCK:   -3.14 KCAL/MOL
REMARK 922        TOTAL FREE ENERGY PREDICTED BY IDOCK:   -4.18 KCAL/MOL
REMARK 923 INTER-LIGAND FREE ENERGY PREDICTED BY IDOCK:   -5.23 KCAL/MOL
REMARK 924 INTRA-LIGAND FREE ENERGY PREDICTED BY IDOCK:    1.04 KCAL/MOL
REMARK 927      BINDING AFFINITY PREDICTED BY RF-SCORE:    0.00 PKD
ROOT
HETATM    1  C   UNL     1     -10.027   9.572  67.017  1.00  0.00    -0.273 C  
HETATM    2  C   UNL     1      -9.984   9.896  65.522  1.00  0.00    -0.363 C  
HETATM    3  C   UNL     1     -10.336  10.827  67.869  1.00  0.00    -0.185 C  
HETATM    4  C   UNL     1      -8.667   8.947  67.455  1.00  0.00    -0.124 C  
ENDROOT
BRANCH   3   5
HETATM    5  N   UNL     1     -11.606  11.554  67.695  1.00  0.00    -0.515 NA 
HETATM    6  C   UNL     1     -10.650  13.837  64.692  1.00  0.00    -0.443 C  
HETATM    7  C   UNL     1     -11.641  12.138  66.316  1.00  0.00    -0.360 C  
HETATM    8  C   UNL     1     -11.777  12.692  68.637  1.00  0.00    -0.325 C  
HETATM    9  C   UNL     1     -10.804  13.876  68.392  1.00  0.00    -0.254 C  
HETATM   10  C   UNL     1     -10.615  13.284  66.108  1.00  0.00    -0.287 C  
HETATM   11  C   UNL     1     -11.139  15.051  69.302  1.00  0.00    -0.280 C  
HETATM   12  O   UNL     1     -10.879  14.349  67.033  1.00  0.00    -0.288 OA 
ENDBRANCH   3   5
BRANCH   4  13
HETATM   13  C   UNL     1      -8.623   8.607  68.928  1.00  0.00    -0.130 A  
HETATM   14  C   UNL     1      -9.287   7.163  70.769  1.00  0.00    -0.160 A  
HETATM   15  C   UNL     1      -8.248   7.649  71.582  1.00  0.00    -0.115 A  
HETATM   16  C   UNL     1      -7.454   8.682  71.057  1.00  0.00    -0.093 A  
HETATM   17  C   UNL     1      -7.631   9.148  69.748  1.00  0.00    -0.079 A  
HETATM   18  C   UNL     1      -9.486   7.647  69.468  1.00  0.00    -0.152 A  
BRANCH  15  19
HETATM   19  C   UNL     1      -7.988   7.036  72.972  1.00  0.00    -0.112 C  
HETATM   20  C   UNL     1      -7.045   5.811  72.938  1.00  0.00    -0.085 C  
HETATM   21  C   UNL     1      -7.295   8.093  73.870  1.00  0.00    -0.207 C  
BRANCH  19  22
HETATM   22  C   UNL     1      -9.325   6.624  73.668  1.00  0.00    -0.173 C  
HETATM   23  C   UNL     1     -10.357   5.951  72.768  1.00  0.00    -0.222 C  
ENDBRANCH  19  22
ENDBRANCH  15  19
ENDBRANCH   4  13
TORSDOF 4
ENDMDL
MODEL      147
REMARK 921   NORMALIZED FREE ENERGY PREDICTED BY IDOCK:   -3.14 KCAL/MOL
REMARK 922        TOTAL FREE ENERGY PREDICTED BY IDOCK:   -4.18 KCAL/MOL
REMARK 923 INTER-LIGAND FREE ENERGY PREDICTED BY IDOCK:   -4.31 KCAL/MOL
REMARK 924 INTRA-LIGAND FREE ENERGY PREDICTED BY IDOCK:    0.14 KCAL/MOL
REMARK 927      BINDING AFFINITY PREDICTED BY RF-SCORE:    0.00 PKD
ROOT
HETATM    1  C   UNL     1      -8.915  13.699  68.003  1.00  0.00    -0.188 C  
HETATM    2  C   UNL     1      -8.909  14.908  68.940  1.00  0.00    -0.184 C  
HETATM    3  C   UNL     1     -10.271  12.952  68.036  1.00  0.00    -0.229 C  
HETATM    4  C   UNL     1      -7.759  12.729  68.394  1.00  0.00    -0.132 C  
ENDROOT
BRANCH   3   5
HETATM    5  N   UNL     1     -11.511  13.638  67.630  1.00  0.00    -0.307 NA 
HETATM    6  C   UNL     1     -12.018  12.046  64.115  1.00  0.00    -0.461 C  
HETATM    7  C   UNL     1     -12.157  12.851  66.531  1.00  0.00    -0.305 C  
HETATM    8  C   UNL     1     -11.288  15.005  67.090  1.00  0.00    -0.320 C  
HETATM    9  C   UNL     1     -10.552  15.042  65.725  1.00  0.00    -0.339 C  
HETATM   10  C   UNL     1     -11.357  12.877  65.202  1.00  0.00    -0.298 C  
HETATM   11  C   UNL     1     -10.491  16.462  65.177  1.00  0.00    -0.218 C  
HETATM   12  O   UNL     1     -11.223  14.230  64.741  1.00  0.00    -0.359 OA 
ENDBRANCH   3   5
BRANCH   4  13
HETATM   13  C   UNL     1      -7.702  11.497  67.519  1.00  0.00    -0.132 A  
HETATM   14  C   UNL     1      -7.965  10.461  65.334  1.00  0.00    -0.147 A  
HETATM   15  C   UNL     1      -7.207   9.343  65.725  1.00  0.00    -0.095 A  
HETATM   16  C   UNL     1      -6.772   9.299  67.060  1.00  0.00    -0.076 A  
HETATM   17  C   UNL     1      -7.007  10.362  67.942  1.00  0.00    -0.082 A  
HETATM   18  C   UNL     1      -8.227  11.514  66.222  1.00  0.00    -0.044 A  
BRANCH  15  19
HETATM   19  C   UNL     1      -6.850   8.243  64.706  1.00  0.00    -0.067 C  
HETATM   20  C   UNL     1      -6.322   8.795  63.362  1.00  0.00    -0.089 C  
HETATM   21  C   UNL     1      -5.716   7.361  65.290  1.00  0.00    -0.037 C  
BRANCH  19  22
HETATM   22  C   UNL     1      -8.075   7.314  64.423  1.00  0.00    -0.065 C  
HETATM   23  C   UNL     1      -8.450   6.357  65.550  1.00  0.00    -0.141 C  
ENDBRANCH  19  22
ENDBRANCH  15  19
ENDBRANCH   4  13
TORSDOF 4
ENDMDL
MODEL      148
REMARK 921   NORMALIZED FREE ENERGY PREDICTED BY IDOCK:   -2.97 KCAL/MOL
REMARK 922        TOTAL FREE ENERGY PREDICTED BY IDOCK:   -3.97 KCAL/MOL
REMARK 923 INTER-LIGAND FREE ENERGY PREDICTED BY IDOCK:   -4.12 KCAL/MOL
REMARK 924 INTRA-LIGAND FREE ENERGY PREDICTED BY IDOCK:    0.15 KCAL/MOL
REMARK 927      BINDING AFFINITY PREDICTED BY RF-SCORE:    0.00 PKD
ROOT
HETATM    1  C   UNL     1      -9.063   9.076  70.271  1.00  0.00    -0.227 C  
HETATM    2  C   UNL     1      -8.292   7.887  70.847  1.00  0.00    -0.115 C  
HETATM    3  C   UNL     1     -10.585   8.950  70.521  1.00  0.00    -0.220 C  
HETATM    4  C   UNL     1      -8.778   9.193  68.743  1.00  0.00    -0.132 C  
ENDROOT
BRANCH   3   5
HETATM    5  N   UNL     1     -11.115   8.902  71.896  1.00  0.00    -0.358 NA 
HETATM    6  C   UNL     1     -14.409   6.929  71.259  1.00  0.00    -0.094 C  
HETATM    7  C   UNL     1     -12.122   7.797  71.984  1.00  0.00    -0.311 C  
HETATM    8  C   UNL     1     -11.820  10.145  72.308  1.00  0.00     1.110 C  
HETATM    9  C   UNL     1     -13.154  10.401  71.560  1.00  0.00    -0.431 C  
HETATM   10  C   UNL     1     -13.418   8.080  71.178  1.00  0.00    -0.022 C  
HETATM   11  C   UNL     1     -13.879  11.610  72.139  1.00  0.00     0.241 C  
HETATM   12  O   UNL     1     -14.046   9.274  71.668  1.00  0.00    -0.285 OA 
ENDBRANCH   3   5
BRANCH   4  13
HETATM   13  C   UNL     1      -9.514  10.342  68.092  1.00  0.00    -0.155 A  
HETATM   14  C   UNL     1     -10.979  12.275  68.286  1.00  0.00    -0.268 A  
HETATM   15  C   UNL     1     -10.573  12.762  67.031  1.00  0.00    -0.253 A  
HETATM   16  C   UNL     1      -9.685  11.964  66.291  1.00  0.00    -0.247 A  
HETATM   17  C   UNL     1      -9.155  10.778  66.815  1.00  0.00    -0.167 A  
HETATM   18  C   UNL     1     -10.473  11.073  68.803  1.00  0.00    -0.222 A  
BRANCH  15  19
HETATM   19  C   UNL     1     -11.067  14.131  66.525  1.00  0.00    -0.318 C  
HETATM   20  C   UNL     1     -11.609  15.044  67.649  1.00  0.00    -0.327 C  
HETATM   21  C   UNL     1      -9.879  14.892  65.882  1.00  0.00    -0.362 C  
BRANCH  19  22
HETATM   22  C   UNL     1     -12.172  13.966  65.432  1.00  0.00    -0.463 C  
HETATM   23  C   UNL     1     -12.534  12.528  65.074  1.00  0.00    -0.494 C  
ENDBRANCH  19  22
ENDBRANCH  15  19
ENDBRANCH   4  13
TORSDOF 4
ENDMDL
MODEL      149
REMARK 921   NORMALIZED FREE ENERGY PREDICTED BY IDOCK:   -2.84 KCAL/MOL
REMARK 922        TOTAL FREE ENERGY PREDICTED BY IDOCK:   -3.81 KCAL/MOL
REMARK 923 INTER-LIGAND FREE ENERGY PREDICTED BY IDOCK:   -3.57 KCAL/MOL
REMARK 924 INTRA-LIGAND FREE ENERGY PREDICTED BY IDOCK:   -0.24 KCAL/MOL
REMARK 927      BINDING AFFINITY PREDICTED BY RF-SCORE:    0.00 PKD
ROOT
HETATM    1  C   UNL     1      -9.677   4.495  72.626  1.00  0.00    -0.189 C  
HETATM    2  C   UNL     1     -10.277   4.255  74.012  1.00  0.00    -0.245 C  
HETATM    3  C   UNL     1     -10.264   5.762  71.956  1.00  0.00    -0.201 C  
HETATM    4  C   UNL     1      -9.925   3.247  71.725  1.00  0.00    -0.192 C  
ENDROOT
BRANCH   3   5
HETATM    5  N   UNL     1     -10.089   7.086  72.580  1.00  0.00    -0.173 NA 
HETATM    6  C   UNL     1     -11.088   9.358  69.582  1.00  0.00    -0.163 C  
HETATM    7  C   UNL     1     -10.861   8.095  71.787  1.00  0.00    -0.256 C  
HETATM    8  C   UNL     1      -8.678   7.556  72.597  1.00  0.00    -0.126 C  
HETATM    9  C   UNL     1      -8.097   7.886  71.197  1.00  0.00    -0.092 C  
HETATM   10  C   UNL     1     -10.268   8.353  70.376  1.00  0.00    -0.197 C  
HETATM   11  C   UNL     1      -6.704   8.493  71.316  1.00  0.00    -0.066 C  
HETATM   12  O   UNL     1      -8.921   8.837  70.494  1.00  0.00    -0.149 OA 
ENDBRANCH   3   5
BRANCH   4  13
HETATM   13  C   UNL     1      -9.370   3.409  70.328  1.00  0.00    -0.243 A  
HETATM   14  C   UNL     1      -9.176   2.604  68.040  1.00  0.00    -0.254 A  
HETATM   15  C   UNL     1      -8.733   3.860  67.590  1.00  0.00    -0.121 A  
HETATM   16  C   UNL     1      -8.543   4.858  68.561  1.00  0.00    -0.099 A  
HETATM   17  C   UNL     1      -8.865   4.641  69.907  1.00  0.00    -0.129 A  
HETATM   18  C   UNL     1      -9.472   2.374  69.391  1.00  0.00    -0.126 A  
BRANCH  15  19
HETATM   19  C   UNL     1      -8.505   4.119  66.088  1.00  0.00    -0.109 C  
HETATM   20  C   UNL     1      -7.204   4.897  65.787  1.00  0.00    -0.076 C  
HETATM   21  C   UNL     1      -8.378   2.759  65.354  1.00  0.00    -0.095 C  
BRANCH  19  22
HETATM   22  C   UNL     1      -9.710   4.888  65.457  1.00  0.00    -0.129 C  
HETATM   23  C   UNL     1     -10.740   4.022  64.737  1.00  0.00    -0.140 C  
ENDBRANCH  19  22
ENDBRANCH  15  19
ENDBRANCH   4  13
TORSDOF 4
ENDMDL
MODEL      150
REMARK 921   NORMALIZED FREE ENERGY PREDICTED BY IDOCK:   -2.52 KCAL/MOL
REMARK 922        TOTAL FREE ENERGY PREDICTED BY IDOCK:   -3.41 KCAL/MOL
REMARK 923 INTER-LIGAND FREE ENERGY PREDICTED BY IDOCK:   -3.23 KCAL/MOL
REMARK 924 INTRA-LIGAND FREE ENERGY PREDICTED BY IDOCK:   -0.18 KCAL/MOL
REMARK 927      BINDING AFFINITY PREDICTED BY RF-SCORE:    0.00 PKD
ROOT
HETATM    1  C   UNL     1      -8.356   7.852  71.789  1.00  0.00    -0.144 C  
HETATM    2  C   UNL     1      -8.578   6.620  72.668  1.00  0.00    -0.126 C  
HETATM    3  C   UNL     1      -8.777   7.596  70.321  1.00  0.00    -0.144 C  
HETATM    4  C   UNL     1      -6.857   8.276  71.851  1.00  0.00    -0.084 C  
ENDROOT
BRANCH   3   5
HETATM    5  N   UNL     1     -10.173   7.255  69.993  1.00  0.00    -0.197 NA 
HETATM    6  C   UNL     1     -10.370   8.707  66.388  1.00  0.00    -0.127 C  
HETATM    7  C   UNL     1     -10.337   7.284  68.504  1.00  0.00    -0.189 C  
HETATM    8  C   UNL     1     -11.167   8.215  70.543  1.00  0.00    -0.247 C  
HETATM    9  C   UNL     1     -11.120   9.625  69.897  1.00  0.00    -0.235 C  
HETATM   10  C   UNL     1     -10.232   8.711  67.902  1.00  0.00    -0.219 C  
HETATM   11  C   UNL     1     -12.257  10.498  70.413  1.00  0.00    -0.415 C  
HETATM   12  O   UNL     1     -11.249   9.553  68.463  1.00  0.00    -0.055 OA 
ENDBRANCH   3   5
BRANCH   4  13
HETATM   13  C   UNL     1      -6.551   9.485  70.998  1.00  0.00    -0.061 A  
HETATM   14  C   UNL     1      -7.292  11.185  69.422  1.00  0.00    -0.062 A  
HETATM   15  C   UNL     1      -6.180  11.997  69.709  1.00  0.00    -0.136 A  
HETATM   16  C   UNL     1      -5.222  11.481  70.598  1.00  0.00    -0.121 A  
HETATM   17  C   UNL     1      -5.408  10.250  71.240  1.00  0.00    -0.076 A  
HETATM   18  C   UNL     1      -7.467   9.939  70.041  1.00  0.00    -0.173 A  
BRANCH  15  19
HETATM   19  C   UNL     1      -6.057  13.403  69.091  1.00  0.00    -0.093 C  
HETATM   20  C   UNL     1      -5.508  13.395  67.646  1.00  0.00    -0.033 C  
HETATM   21  C   UNL     1      -7.465  14.049  69.018  1.00  0.00    -0.060 C  
BRANCH  19  22
HETATM   22  C   UNL     1      -5.154  14.330  69.968  1.00  0.00    -0.089 C  
HETATM   23  C   UNL     1      -5.692  15.738  70.206  1.00  0.00    -0.149 C  
ENDBRANCH  19  22
ENDBRANCH  15  19
ENDBRANCH   4  13
TORSDOF 4
ENDMDL
MODEL      151
REMARK 921   NORMALIZED FREE ENERGY PREDICTED BY IDOCK:   -2.22 KCAL/MOL
REMARK 922        TOTAL FREE ENERGY PREDICTED BY IDOCK:   -3.05 KCAL/MOL
REMARK 923 INTER-LIGAND FREE ENERGY PREDICTED BY IDOCK:   -3.45 KCAL/MOL
REMARK 924 INTRA-LIGAND FREE ENERGY PREDICTED BY IDOCK:    0.40 KCAL/MOL
REMARK 927      BINDING AFFINITY PREDICTED BY RF-SCORE:    0.00 PKD
ROOT
HETATM    1  C   UNL     1      -8.945  10.055  68.295  1.00  0.00    -0.119 C  
HETATM    2  C   UNL     1      -9.316  11.254  67.419  1.00  0.00    -0.168 C  
HETATM    3  C   UNL     1      -8.294   8.919  67.469  1.00  0.00    -0.109 C  
HETATM    4  C   UNL     1     -10.217   9.527  69.025  1.00  0.00    -0.211 C  
ENDROOT
BRANCH   3   5
HETATM    5  N   UNL     1      -7.030   9.151  66.746  1.00  0.00    -0.080 NA 
HETATM    6  C   UNL     1      -8.306   8.845  63.082  1.00  0.00    -0.185 C  
HETATM    7  C   UNL     1      -7.349   9.551  65.338  1.00  0.00    -0.099 C  
HETATM    8  C   UNL     1      -6.166   7.944  66.653  1.00  0.00    -0.050 C  
HETATM    9  C   UNL     1      -6.737   6.816  65.754  1.00  0.00    -0.052 C  
HETATM   10  C   UNL     1      -7.964   8.403  64.496  1.00  0.00    -0.146 C  
HETATM   11  C   UNL     1      -5.731   5.682  65.599  1.00  0.00    -0.014 C  
HETATM   12  O   UNL     1      -7.047   7.300  64.432  1.00  0.00    -0.056 OA 
ENDBRANCH   3   5
BRANCH   4  13
HETATM   13  C   UNL     1      -9.937   8.331  69.906  1.00  0.00    -0.190 A  
HETATM   14  C   UNL     1      -8.934   7.392  71.914  1.00  0.00    -0.140 A  
HETATM   15  C   UNL     1      -9.734   6.239  71.827  1.00  0.00    -0.168 A  
HETATM   16  C   UNL     1     -10.578   6.129  70.709  1.00  0.00    -0.299 A  
HETATM   17  C   UNL     1     -10.686   7.161  69.768  1.00  0.00    -0.257 A  
HETATM   18  C   UNL     1      -9.018   8.415  70.959  1.00  0.00    -0.199 A  
BRANCH  15  19
HETATM   19  C   UNL     1      -9.695   5.172  72.938  1.00  0.00    -0.169 C  
HETATM   20  C   UNL     1     -10.833   4.131  72.832  1.00  0.00    -0.207 C  
HETATM   21  C   UNL     1      -8.368   4.377  72.829  1.00  0.00    -0.105 C  
BRANCH  19  22
HETATM   22  C   UNL     1      -9.741   5.829  74.355  1.00  0.00    -0.210 C  
HETATM   23  C   UNL     1      -8.908   7.096  74.521  1.00  0.00    -0.215 C  
ENDBRANCH  19  22
ENDBRANCH  15  19
ENDBRANCH   4  13
TORSDOF 4
ENDMDL
MODEL      152
REMARK 921   NORMALIZED FREE ENERGY PREDICTED BY IDOCK:   -2.20 KCAL/MOL
REMARK 922        TOTAL FREE ENERGY PREDICTED BY IDOCK:   -3.01 KCAL/MOL
REMARK 923 INTER-LIGAND FREE ENERGY PREDICTED BY IDOCK:   -2.95 KCAL/MOL
REMARK 924 INTRA-LIGAND FREE ENERGY PREDICTED BY IDOCK:   -0.07 KCAL/MOL
REMARK 927      BINDING AFFINITY PREDICTED BY RF-SCORE:    0.00 PKD
ROOT
HETATM    1  C   UNL     1     -10.713   5.530  72.265  1.00  0.00    -0.285 C  
HETATM    2  C   UNL     1     -11.658   4.736  73.170  1.00  0.00    -0.288 C  
HETATM    3  C   UNL     1      -9.591   6.225  73.074  1.00  0.00    -0.153 C  
HETATM    4  C   UNL     1     -11.528   6.586  71.458  1.00  0.00    -0.351 C  
ENDROOT
BRANCH   3   5
HETATM    5  N   UNL     1      -8.634   5.428  73.861  1.00  0.00    -0.116 NA 
HETATM    6  C   UNL     1      -5.642   7.915  73.966  1.00  0.00    -0.065 C  
HETATM    7  C   UNL     1      -7.599   6.348  74.434  1.00  0.00    -0.098 C  
HETATM    8  C   UNL     1      -7.896   4.417  73.058  1.00  0.00    -0.091 C  
HETATM    9  C   UNL     1      -6.900   5.018  72.031  1.00  0.00    -0.053 C  
HETATM   10  C   UNL     1      -6.661   6.962  73.361  1.00  0.00    -0.067 C  
HETATM   11  C   UNL     1      -6.087   3.921  71.356  1.00  0.00    -0.014 C  
HETATM   12  O   UNL     1      -5.967   5.916  72.664  1.00  0.00    -0.035 OA 
ENDBRANCH   3   5
BRANCH   4  13
HETATM   13  C   UNL     1     -10.663   7.424  70.544  1.00  0.00    -0.247 A  
HETATM   14  C   UNL     1     -10.456   8.894  68.616  1.00  0.00    -0.223 A  
HETATM   15  C   UNL     1      -9.198   9.352  69.046  1.00  0.00    -0.145 A  
HETATM   16  C   UNL     1      -8.661   8.759  70.202  1.00  0.00    -0.153 A  
HETATM   17  C   UNL     1      -9.385   7.818  70.945  1.00  0.00    -0.157 A  
HETATM   18  C   UNL     1     -11.171   7.931  69.342  1.00  0.00     0.181 A  
BRANCH  15  19
HETATM   19  C   UNL     1      -8.473  10.479  68.287  1.00  0.00    -0.123 C  
HETATM   20  C   UNL     1      -8.164  10.130  66.813  1.00  0.00    -0.122 C  
HETATM   21  C   UNL     1      -9.384  11.734  68.255  1.00  0.00    -0.193 C  
BRANCH  19  22
HETATM   22  C   UNL     1      -7.141  10.878  69.001  1.00  0.00    -0.095 C  
HETATM   23  C   UNL     1      -6.426  12.098  68.428  1.00  0.00    -0.056 C  
ENDBRANCH  19  22
ENDBRANCH  15  19
ENDBRANCH   4  13
TORSDOF 4
ENDMDL
MODEL      153
REMARK 921   NORMALIZED FREE ENERGY PREDICTED BY IDOCK:   -1.71 KCAL/MOL
REMARK 922        TOTAL FREE ENERGY PREDICTED BY IDOCK:   -2.42 KCAL/MOL
REMARK 923 INTER-LIGAND FREE ENERGY PREDICTED BY IDOCK:   -6.06 KCAL/MOL
REMARK 924 INTRA-LIGAND FREE ENERGY PREDICTED BY IDOCK:    3.64 KCAL/MOL
REMARK 927      BINDING AFFINITY PREDICTED BY RF-SCORE:    0.00 PKD
ROOT
HETATM    1  C   UNL     1     -10.641  14.543  68.273  1.00  0.00    -0.241 C  
HETATM    2  C   UNL     1     -11.523  13.417  68.818  1.00  0.00    -0.344 C  
HETATM    3  C   UNL     1      -9.271  14.015  67.782  1.00  0.00    -0.195 C  
HETATM    4  C   UNL     1     -10.436  15.626  69.375  1.00  0.00    -0.253 C  
ENDROOT
BRANCH   3   5
HETATM    5  N   UNL     1      -9.198  13.034  66.684  1.00  0.00    -0.241 NA 
HETATM    6  C   UNL     1     -12.717  13.557  65.105  1.00  0.00    -0.453 C  
HETATM    7  C   UNL     1     -10.233  13.384  65.659  1.00  0.00    -0.292 C  
HETATM    8  C   UNL     1      -9.485  11.639  67.110  1.00  0.00    -0.176 C  
HETATM    9  C   UNL     1     -10.955  11.390  67.539  1.00  0.00    -0.260 C  
HETATM   10  C   UNL     1     -11.688  13.165  66.153  1.00  0.00    -0.381 C  
HETATM   11  C   UNL     1     -11.197   9.912  67.821  1.00  0.00    -0.075 C  
HETATM   12  O   UNL     1     -11.881  11.787  66.507  1.00  0.00    -0.550 OA 
ENDBRANCH   3   5
BRANCH   4  13
HETATM   13  C   UNL     1      -9.563  16.773  68.919  1.00  0.00    -0.249 A  
HETATM   14  C   UNL     1      -7.353  17.762  68.677  1.00  0.00    -0.269 A  
HETATM   15  C   UNL     1      -7.818  18.671  67.711  1.00  0.00    -0.261 A  
HETATM   16  C   UNL     1      -9.194  18.655  67.427  1.00  0.00    -0.292 A  
HETATM   17  C   UNL     1     -10.052  17.716  68.013  1.00  0.00    -0.343 A  
HETATM   18  C   UNL     1      -8.214  16.838  69.287  1.00  0.00     0.017 A  
BRANCH  15  19
HETATM   19  C   UNL     1      -6.838  19.611  66.983  1.00  0.00    -0.219 C  
HETATM   20  C   UNL     1      -7.374  20.133  65.630  1.00  0.00    -0.283 C  
HETATM   21  C   UNL     1      -6.589  20.863  67.865  1.00  0.00    -0.358 C  
BRANCH  19  22
HETATM   22  C   UNL     1      -5.458  18.916  66.745  1.00  0.00    -0.154 C  
HETATM   23  C   UNL     1      -5.428  17.876  65.629  1.00  0.00    -0.189 C  
ENDBRANCH  19  22
ENDBRANCH  15  19
ENDBRANCH   4  13
TORSDOF 4
ENDMDL
MODEL      154
REMARK 921   NORMALIZED FREE ENERGY PREDICTED BY IDOCK:   -1.46 KCAL/MOL
REMARK 922        TOTAL FREE ENERGY PREDICTED BY IDOCK:   -2.10 KCAL/MOL
REMARK 923 INTER-LIGAND FREE ENERGY PREDICTED BY IDOCK:   -6.55 KCAL/MOL
REMARK 924 INTRA-LIGAND FREE ENERGY PREDICTED BY IDOCK:    4.45 KCAL/MOL
REMARK 927      BINDING AFFINITY PREDICTED BY RF-SCORE:    0.00 PKD
ROOT
HETATM    1  C   UNL     1     -10.967  14.917  67.952  1.00  0.00    -0.288 C  
HETATM    2  C   UNL     1     -11.266  16.399  68.186  1.00  0.00    -0.273 C  
HETATM    3  C   UNL     1     -11.225  14.502  66.483  1.00  0.00    -0.344 C  
HETATM    4  C   UNL     1     -11.835  14.050  68.915  1.00  0.00    -0.390 C  
ENDROOT
BRANCH   3   5
HETATM    5  N   UNL     1     -10.464  15.127  65.386  1.00  0.00    -0.360 NA 
HETATM    6  C   UNL     1      -7.126  15.868  67.245  1.00  0.00    -0.242 C  
HETATM    7  C   UNL     1      -9.005  15.064  65.718  1.00  0.00     0.355 C  
HETATM    8  C   UNL     1     -10.785  16.564  65.179  1.00  0.00    -0.244 C  
HETATM    9  C   UNL     1     -10.326  17.495  66.332  1.00  0.00    -0.334 C  
HETATM   10  C   UNL     1      -8.605  15.974  66.910  1.00  0.00    -0.231 C  
HETATM   11  C   UNL     1     -10.564  18.957  65.977  1.00  0.00    -0.470 C  
HETATM   12  O   UNL     1      -8.919  17.342  66.605  1.00  0.00    -0.236 OA 
ENDBRANCH   3   5
BRANCH   4  13
HETATM   13  C   UNL     1     -11.607  12.566  68.739  1.00  0.00    -0.366 A  
HETATM   14  C   UNL     1     -10.638  10.727  67.475  1.00  0.00    -0.280 A  
HETATM   15  C   UNL     1     -10.766   9.851  68.568  1.00  0.00    -0.260 A  
HETATM   16  C   UNL     1     -11.398  10.352  69.719  1.00  0.00    -0.353 A  
HETATM   17  C   UNL     1     -11.803  11.690  69.808  1.00  0.00    -0.428 A  
HETATM   18  C   UNL     1     -11.068  12.059  67.551  1.00  0.00    -0.331 A  
BRANCH  15  19
HETATM   19  C   UNL     1     -10.199   8.420  68.497  1.00  0.00    -0.228 C  
HETATM   20  C   UNL     1     -10.553   7.683  67.185  1.00  0.00    -0.410 C  
HETATM   21  C   UNL     1      -8.651   8.486  68.555  1.00  0.00    -0.138 C  
BRANCH  19  22
HETATM   22  C   UNL     1     -10.683   7.558  69.707  1.00  0.00    -0.249 C  
HETATM   23  C   UNL     1     -11.388   6.254  69.346  1.00  0.00    -0.448 C  
ENDBRANCH  19  22
ENDBRANCH  15  19
ENDBRANCH   4  13
TORSDOF 4
ENDMDL
MODEL      155
REMARK 921   NORMALIZED FREE ENERGY PREDICTED BY IDOCK:   -1.42 KCAL/MOL
REMARK 922        TOTAL FREE ENERGY PREDICTED BY IDOCK:   -2.05 KCAL/MOL
REMARK 923 INTER-LIGAND FREE ENERGY PREDICTED BY IDOCK:   -4.29 KCAL/MOL
REMARK 924 INTRA-LIGAND FREE ENERGY PREDICTED BY IDOCK:    2.24 KCAL/MOL
REMARK 927      BINDING AFFINITY PREDICTED BY RF-SCORE:    0.00 PKD
ROOT
HETATM    1  C   UNL     1      -8.289  12.856  67.345  1.00  0.00    -0.190 C  
HETATM    2  C   UNL     1      -7.669  14.241  67.152  1.00  0.00    -0.046 C  
HETATM    3  C   UNL     1      -9.696  12.939  67.985  1.00  0.00    -0.224 C  
HETATM    4  C   UNL     1      -7.348  11.980  68.228  1.00  0.00    -0.095 C  
ENDROOT
BRANCH   3   5
HETATM    5  N   UNL     1     -10.788  13.650  67.298  1.00  0.00    -0.282 NA 
HETATM    6  C   UNL     1      -9.211  17.200  67.064  1.00  0.00    -0.251 C  
HETATM    7  C   UNL     1     -10.235  14.896  66.678  1.00  0.00    -0.261 C  
HETATM    8  C   UNL     1     -11.882  14.085  68.208  1.00  0.00    -0.371 C  
HETATM    9  C   UNL     1     -11.477  15.202  69.206  1.00  0.00    -0.311 C  
HETATM   10  C   UNL     1      -9.798  15.961  67.720  1.00  0.00    -0.222 C  
HETATM   11  C   UNL     1     -12.685  15.687  69.998  1.00  0.00    -0.082 C  
HETATM   12  O   UNL     1     -10.923  16.345  68.525  1.00  0.00    -0.320 OA 
ENDBRANCH   3   5
BRANCH   4  13
HETATM   13  C   UNL     1      -7.895  10.593  68.476  1.00  0.00    -0.115 A  
HETATM   14  C   UNL     1      -9.801   9.094  68.678  1.00  0.00    -0.175 A  
HETATM   15  C   UNL     1      -8.985   7.962  68.501  1.00  0.00    -0.133 A  
HETATM   16  C   UNL     1      -7.601   8.182  68.391  1.00  0.00    -0.105 A  
HETATM   17  C   UNL     1      -7.065   9.476  68.369  1.00  0.00    -0.071 A  
HETATM   18  C   UNL     1      -9.265  10.389  68.685  1.00  0.00    -0.164 A  
BRANCH  15  19
HETATM   19  C   UNL     1      -9.606   6.556  68.400  1.00  0.00    -0.122 C  
HETATM   20  C   UNL     1     -11.048   6.558  67.844  1.00  0.00    -0.352 C  
HETATM   21  C   UNL     1      -8.763   5.700  67.418  1.00  0.00    -0.107 C  
BRANCH  19  22
HETATM   22  C   UNL     1      -9.599   5.833  69.785  1.00  0.00    -0.199 C  
HETATM   23  C   UNL     1      -8.598   4.690  69.927  1.00  0.00    -0.096 C  
ENDBRANCH  19  22
ENDBRANCH  15  19
ENDBRANCH   4  13
TORSDOF 4
ENDMDL
MODEL      156
REMARK 921   NORMALIZED FREE ENERGY PREDICTED BY IDOCK:   -1.30 KCAL/MOL
REMARK 922        TOTAL FREE ENERGY PREDICTED BY IDOCK:   -1.91 KCAL/MOL
REMARK 923 INTER-LIGAND FREE ENERGY PREDICTED BY IDOCK:   -1.84 KCAL/MOL
REMARK 924 INTRA-LIGAND FREE ENERGY PREDICTED BY IDOCK:   -0.07 KCAL/MOL
REMARK 927      BINDING AFFINITY PREDICTED BY RF-SCORE:    0.00 PKD
ROOT
HETATM    1  C   UNL     1      -5.877   6.691  70.251  1.00  0.00    -0.023 C  
HETATM    2  C   UNL     1      -5.172   5.337  70.343  1.00  0.00    -0.004 C  
HETATM    3  C   UNL     1      -7.161   6.732  71.115  1.00  0.00    -0.075 C  
HETATM    4  C   UNL     1      -6.223   7.001  68.762  1.00  0.00    -0.027 C  
ENDROOT
BRANCH   3   5
HETATM    5  N   UNL     1      -7.084   6.545  72.575  1.00  0.00    -0.073 NA 
HETATM    6  C   UNL     1      -8.204   2.826  72.820  1.00  0.00    -0.070 C  
HETATM    7  C   UNL     1      -7.008   5.079  72.869  1.00  0.00    -0.081 C  
HETATM    8  C   UNL     1      -8.274   7.058  73.305  1.00  0.00    -0.108 C  
HETATM    9  C   UNL     1      -9.578   6.259  73.043  1.00  0.00    -0.153 C  
HETATM   10  C   UNL     1      -8.320   4.317  72.543  1.00  0.00    -0.101 C  
HETATM   11  C   UNL     1     -10.709   6.757  73.934  1.00  0.00    -0.141 C  
HETATM   12  O   UNL     1      -9.402   4.855  73.318  1.00  0.00    -0.124 OA 
ENDBRANCH   3   5
BRANCH   4  13
HETATM   13  C   UNL     1      -6.934   8.322  68.585  1.00  0.00    -0.068 A  
HETATM   14  C   UNL     1      -6.950  10.600  67.728  1.00  0.00    -0.078 A  
HETATM   15  C   UNL     1      -8.350  10.675  67.831  1.00  0.00    -0.120 A  
HETATM   16  C   UNL     1      -9.011   9.570  68.396  1.00  0.00    -0.127 A  
HETATM   17  C   UNL     1      -8.317   8.409  68.757  1.00  0.00    -0.116 A  
HETATM   18  C   UNL     1      -6.248   9.449  68.116  1.00  0.00    -0.053 A  
BRANCH  15  19
HETATM   19  C   UNL     1      -9.109  11.910  67.310  1.00  0.00    -0.178 C  
HETATM   20  C   UNL     1      -9.302  13.011  68.379  1.00  0.00    -0.149 C  
HETATM   21  C   UNL     1      -8.293  12.558  66.161  1.00  0.00     0.560 C  
BRANCH  19  22
HETATM   22  C   UNL     1     -10.508  11.515  66.735  1.00  0.00    -0.275 C  
HETATM   23  C   UNL     1     -10.483  10.712  65.438  1.00  0.00    -0.254 C  
ENDBRANCH  19  22
ENDBRANCH  15  19
ENDBRANCH   4  13
TORSDOF 4
ENDMDL
MODEL      157
REMARK 921   NORMALIZED FREE ENERGY PREDICTED BY IDOCK:   -0.85 KCAL/MOL
REMARK 922        TOTAL FREE ENERGY PREDICTED BY IDOCK:   -1.36 KCAL/MOL
REMARK 923 INTER-LIGAND FREE ENERGY PREDICTED BY IDOCK:   -2.70 KCAL/MOL
REMARK 924 INTRA-LIGAND FREE ENERGY PREDICTED BY IDOCK:    1.35 KCAL/MOL
REMARK 927      BINDING AFFINITY PREDICTED BY RF-SCORE:    0.00 PKD
ROOT
HETATM    1  C   UNL     1      -8.691  14.679  68.788  1.00  0.00    -0.166 C  
HETATM    2  C   UNL     1      -9.562  15.390  69.825  1.00  0.00    -0.190 C  
HETATM    3  C   UNL     1      -8.101  15.670  67.755  1.00  0.00    -0.146 C  
HETATM    4  C   UNL     1      -9.531  13.584  68.062  1.00  0.00    -0.220 C  
ENDROOT
BRANCH   3   5
HETATM    5  N   UNL     1      -7.203  16.755  68.190  1.00  0.00    -0.159 NA 
HETATM    6  C   UNL     1      -9.813  19.595  68.709  1.00  0.00    -0.519 C  
HETATM    7  C   UNL     1      -8.015  17.795  68.898  1.00  0.00    -0.172 C  
HETATM    8  C   UNL     1      -6.520  17.450  67.067  1.00  0.00    -0.169 C  
HETATM    9  C   UNL     1      -7.463  18.285  66.162  1.00  0.00    -0.256 C  
HETATM   10  C   UNL     1      -8.979  18.568  67.959  1.00  0.00    -0.301 C  
HETATM   11  C   UNL     1      -6.669  19.075  65.130  1.00  0.00    -0.135 C  
HETATM   12  O   UNL     1      -8.229  19.234  66.932  1.00  0.00    -0.261 OA 
ENDBRANCH   3   5
BRANCH   4  13
HETATM   13  C   UNL     1      -8.744  12.839  67.008  1.00  0.00    -0.197 A  
HETATM   14  C   UNL     1      -6.803  11.510  66.387  1.00  0.00     0.061 A  
HETATM   15  C   UNL     1      -7.430  11.066  65.210  1.00  0.00     0.331 A  
HETATM   16  C   UNL     1      -8.699  11.597  64.920  1.00  0.00     0.517 A  
HETATM   17  C   UNL     1      -9.351  12.461  65.809  1.00  0.00    -0.018 A  
HETATM   18  C   UNL     1      -7.441  12.398  67.265  1.00  0.00    -0.135 A  
BRANCH  15  19
HETATM   19  C   UNL     1      -6.752  10.016  64.309  1.00  0.00    -0.128 C  
HETATM   20  C   UNL     1      -5.208  10.094  64.326  1.00  0.00    -0.107 C  
HETATM   21  C   UNL     1      -7.121   8.598  64.817  1.00  0.00    -0.077 C  
BRANCH  19  22
HETATM   22  C   UNL     1      -7.246  10.134  62.830  1.00  0.00    -0.139 C  
HETATM   23  C   UNL     1      -8.407  11.096  62.599  1.00  0.00    -0.117 C  
ENDBRANCH  19  22
ENDBRANCH  15  19
ENDBRANCH   4  13
TORSDOF 4
ENDMDL
MODEL      158
REMARK 921   NORMALIZED FREE ENERGY PREDICTED BY IDOCK:   -0.27 KCAL/MOL
REMARK 922        TOTAL FREE ENERGY PREDICTED BY IDOCK:   -0.64 KCAL/MOL
REMARK 923 INTER-LIGAND FREE ENERGY PREDICTED BY IDOCK:   -0.16 KCAL/MOL
REMARK 924 INTRA-LIGAND FREE ENERGY PREDICTED BY IDOCK:   -0.48 KCAL/MOL
REMARK 927      BINDING AFFINITY PREDICTED BY RF-SCORE:    0.00 PKD
ROOT
HETATM    1  C   UNL     1     -10.361  18.170  66.879  1.00  0.00    -0.386 C  
HETATM    2  C   UNL     1     -10.095  18.835  65.528  1.00  0.00     0.386 C  
HETATM    3  C   UNL     1      -9.046  17.822  67.618  1.00  0.00    -0.246 C  
HETATM    4  C   UNL     1     -11.216  16.883  66.669  1.00  0.00     0.499 C  
ENDROOT
BRANCH   3   5
HETATM    5  N   UNL     1      -8.101  18.885  68.002  1.00  0.00    -0.283 NA 
HETATM    6  C   UNL     1      -5.140  18.017  65.631  1.00  0.00    -0.219 C  
HETATM    7  C   UNL     1      -7.092  19.049  66.907  1.00  0.00    -0.205 C  
HETATM    8  C   UNL     1      -7.332  18.583  69.238  1.00  0.00    -0.065 C  
HETATM    9  C   UNL     1      -6.316  17.420  69.092  1.00  0.00    -0.234 C  
HETATM   10  C   UNL     1      -6.132  17.838  66.768  1.00  0.00    -0.159 C  
HETATM   11  C   UNL     1      -5.474  17.270  70.353  1.00  0.00    -0.239 C  
HETATM   12  O   UNL     1      -5.409  17.645  67.994  1.00  0.00    -0.133 OA 
ENDBRANCH   3   5
BRANCH   4  13
HETATM   13  C   UNL     1     -11.515  16.156  67.960  1.00  0.00    -0.163 A  
HETATM   14  C   UNL     1     -13.024  15.708  69.815  1.00  0.00     0.415 A  
HETATM   15  C   UNL     1     -12.339  14.525  70.143  1.00  0.00    -0.398 A  
HETATM   16  C   UNL     1     -11.186  14.225  69.398  1.00  0.00    -0.313 A  
HETATM   17  C   UNL     1     -10.785  15.021  68.318  1.00  0.00    -0.253 A  
HETATM   18  C   UNL     1     -12.609  16.523  68.753  1.00  0.00     1.973 A  
BRANCH  15  19
HETATM   19  C   UNL     1     -12.868  13.595  71.252  1.00  0.00    -0.424 C  
HETATM   20  C   UNL     1     -12.061  13.682  72.567  1.00  0.00     0.856 C  
HETATM   21  C   UNL     1     -14.321  14.005  71.605  1.00  0.00    -0.266 C  
BRANCH  19  22
HETATM   22  C   UNL     1     -12.898  12.106  70.776  1.00  0.00    -0.109 C  
HETATM   23  C   UNL     1     -12.490  11.073  71.822  1.00  0.00    -0.195 C  
ENDBRANCH  19  22
ENDBRANCH  15  19
ENDBRANCH   4  13
TORSDOF 4
ENDMDL
MODEL      159
REMARK 921   NORMALIZED FREE ENERGY PREDICTED BY IDOCK:    1.44 KCAL/MOL
REMARK 922        TOTAL FREE ENERGY PREDICTED BY IDOCK:    1.47 KCAL/MOL
REMARK 923 INTER-LIGAND FREE ENERGY PREDICTED BY IDOCK:   -0.53 KCAL/MOL
REMARK 924 INTRA-LIGAND FREE ENERGY PREDICTED BY IDOCK:    2.00 KCAL/MOL
REMARK 927      BINDING AFFINITY PREDICTED BY RF-SCORE:    0.00 PKD
ROOT
HETATM    1  C   UNL     1      -8.447  12.759  67.338  1.00  0.00    -0.191 C  
HETATM    2  C   UNL     1      -8.604  14.002  66.461  1.00  0.00     0.156 C  
HETATM    3  C   UNL     1      -9.817  12.188  67.777  1.00  0.00    -0.199 C  
HETATM    4  C   UNL     1      -7.585  13.108  68.589  1.00  0.00    -0.089 C  
ENDROOT
BRANCH   3   5
HETATM    5  N   UNL     1     -10.785  11.712  66.772  1.00  0.00    -0.248 NA 
HETATM    6  C   UNL     1      -9.295   8.190  66.048  1.00  0.00    -0.184 C  
HETATM    7  C   UNL     1     -10.700  10.218  66.695  1.00  0.00    -0.113 C  
HETATM    8  C   UNL     1     -10.518  12.218  65.400  1.00  0.00    -0.269 C  
HETATM    9  C   UNL     1      -9.224  11.659  64.752  1.00  0.00     0.111 C  
HETATM   10  C   UNL     1      -9.367   9.708  66.086  1.00  0.00    -0.194 C  
HETATM   11  C   UNL     1      -9.102  12.113  63.303  1.00  0.00     0.800 C  
HETATM   12  O   UNL     1      -9.214  10.217  64.752  1.00  0.00    -0.199 OA 
ENDBRANCH   3   5
BRANCH   4  13
HETATM   13  C   UNL     1      -7.391  11.931  69.518  1.00  0.00     0.286 A  
HETATM   14  C   UNL     1      -8.157   9.788  70.378  1.00  0.00    -0.134 A  
HETATM   15  C   UNL     1      -6.885   9.495  70.902  1.00  0.00    -0.083 A  
HETATM   16  C   UNL     1      -5.899  10.488  70.783  1.00  0.00    -0.093 A  
HETATM   17  C   UNL     1      -6.143  11.683  70.093  1.00  0.00    -0.155 A  
HETATM   18  C   UNL     1      -8.413  10.995  69.713  1.00  0.00     0.687 A  
BRANCH  15  19
HETATM   19  C   UNL     1      -6.599   8.124  71.545  1.00  0.00    -0.049 C  
HETATM   20  C   UNL     1      -6.717   6.943  70.554  1.00  0.00    -0.053 C  
HETATM   21  C   UNL     1      -5.140   8.106  72.071  1.00  0.00    -0.035 C  
BRANCH  19  22
HETATM   22  C   UNL     1      -7.545   7.859  72.760  1.00  0.00    -0.142 C  
HETATM   23  C   UNL     1      -6.884   7.918  74.134  1.00  0.00    -0.135 C  
ENDBRANCH  19  22
ENDBRANCH  15  19
ENDBRANCH   4  13
TORSDOF 4
ENDMDL
MODEL      160
REMARK 921   NORMALIZED FREE ENERGY PREDICTED BY IDOCK:    1.85 KCAL/MOL
REMARK 922        TOTAL FREE ENERGY PREDICTED BY IDOCK:    1.97 KCAL/MOL
REMARK 923 INTER-LIGAND FREE ENERGY PREDICTED BY IDOCK:   -3.05 KCAL/MOL
REMARK 924 INTRA-LIGAND FREE ENERGY PREDICTED BY IDOCK:    5.03 KCAL/MOL
REMARK 927      BINDING AFFINITY PREDICTED BY RF-SCORE:    0.00 PKD
ROOT
HETATM    1  C   UNL     1     -10.837  15.440  68.269  1.00  0.00    -0.269 C  
HETATM    2  C   UNL     1     -11.443  16.844  68.314  1.00  0.00     0.188 C  
HETATM    3  C   UNL     1     -10.093  15.177  66.938  1.00  0.00    -0.255 C  
HETATM    4  C   UNL     1     -11.962  14.379  68.474  1.00  0.00    -0.333 C  
ENDROOT
BRANCH   3   5
HETATM    5  N   UNL     1      -8.933  16.003  66.554  1.00  0.00    -0.262 NA 
HETATM    6  C   UNL     1      -8.569  18.155  69.776  1.00  0.00     1.273 C  
HETATM    7  C   UNL     1      -8.315  16.567  67.796  1.00  0.00    -0.170 C  
HETATM    8  C   UNL     1      -9.286  17.165  65.696  1.00  0.00     0.305 C  
HETATM    9  C   UNL     1     -10.118  18.261  66.413  1.00  0.00    -0.396 C  
HETATM   10  C   UNL     1      -9.207  17.622  68.503  1.00  0.00    -0.281 C  
HETATM   11  C   UNL     1     -10.313  19.473  65.511  1.00  0.00    -0.162 C  
HETATM   12  O   UNL     1      -9.464  18.719  67.614  1.00  0.00    -0.294 OA 
ENDBRANCH   3   5
BRANCH   4  13
HETATM   13  C   UNL     1     -11.447  12.959  68.431  1.00  0.00    -0.347 A  
HETATM   14  C   UNL     1      -9.938  11.301  67.486  1.00  0.00    -0.203 A  
HETATM   15  C   UNL     1     -10.127  10.440  68.582  1.00  0.00    -0.188 A  
HETATM   16  C   UNL     1     -11.054  10.842  69.558  1.00  0.00    -0.334 A  
HETATM   17  C   UNL     1     -11.697  12.085  69.491  1.00  0.00    -0.408 A  
HETATM   18  C   UNL     1     -10.601  12.533  67.400  1.00  0.00    -0.242 A  
BRANCH  15  19
HETATM   19  C   UNL     1      -9.316   9.136  68.703  1.00  0.00    -0.135 C  
HETATM   20  C   UNL     1      -9.678   8.299  69.952  1.00  0.00    -0.180 C  
HETATM   21  C   UNL     1      -9.616   8.237  67.476  1.00  0.00    -0.194 C  
BRANCH  19  22
HETATM   22  C   UNL     1      -7.779   9.423  68.717  1.00  0.00    -0.080 C  
HETATM   23  C   UNL     1      -7.191   9.918  67.399  1.00  0.00    -0.086 C  
ENDBRANCH  19  22
ENDBRANCH  15  19
ENDBRANCH   4  13
TORSDOF 4
ENDMDL
MODEL      161
REMARK 921   NORMALIZED FREE ENERGY PREDICTED BY IDOCK:    2.70 KCAL/MOL
REMARK 922        TOTAL FREE ENERGY PREDICTED BY IDOCK:    3.03 KCAL/MOL
REMARK 923 INTER-LIGAND FREE ENERGY PREDICTED BY IDOCK:    3.68 KCAL/MOL
REMARK 924 INTRA-LIGAND FREE ENERGY PREDICTED BY IDOCK:   -0.64 KCAL/MOL
REMARK 927      BINDING AFFINITY PREDICTED BY RF-SCORE:    0.00 PKD
ROOT
HETATM    1  C   UNL     1      -8.013  14.380  70.193  1.00  0.00     0.960 C  
HETATM    2  C   UNL     1      -8.758  15.164  71.274  1.00  0.00     3.487 C  
HETATM    3  C   UNL     1      -7.553  15.296  69.032  1.00  0.00    -0.172 C  
HETATM    4  C   UNL     1      -8.928  13.241  69.648  1.00  0.00     1.810 C  
ENDROOT
BRANCH   3   5
HETATM    5  N   UNL     1      -6.615  16.405  69.281  1.00  0.00    -0.195 NA 
HETATM    6  C   UNL     1      -8.930  19.420  68.445  1.00  0.00    -0.403 C  
HETATM    7  C   UNL     1      -7.403  17.662  69.487  1.00  0.00     0.227 C  
HETATM    8  C   UNL     1      -5.690  16.670  68.148  1.00  0.00    -0.116 C  
HETATM    9  C   UNL     1      -6.379  17.238  66.879  1.00  0.00    -0.190 C  
HETATM   10  C   UNL     1      -8.114  18.161  68.201  1.00  0.00    -0.281 C  
HETATM   11  C   UNL     1      -5.348  17.614  65.822  1.00  0.00    -0.142 C  
HETATM   12  O   UNL     1      -7.141  18.425  67.178  1.00  0.00    -0.197 OA 
ENDBRANCH   3   5
BRANCH   4  13
HETATM   13  C   UNL     1      -8.267  12.422  68.563  1.00  0.00    -0.086 A  
HETATM   14  C   UNL     1      -6.521  10.877  67.868  1.00  0.00    -0.062 A  
HETATM   15  C   UNL     1      -7.230  10.531  66.705  1.00  0.00    -0.119 A  
HETATM   16  C   UNL     1      -8.432  11.216  66.460  1.00  0.00    -0.165 A  
HETATM   17  C   UNL     1      -8.949  12.139  67.378  1.00  0.00    -0.180 A  
HETATM   18  C   UNL     1      -7.020  11.823  68.775  1.00  0.00    -0.103 A  
BRANCH  15  19
HETATM   19  C   UNL     1      -6.710   9.420  65.772  1.00  0.00    -0.077 C  
HETATM   20  C   UNL     1      -7.796   8.844  64.834  1.00  0.00    -0.121 C  
HETATM   21  C   UNL     1      -5.609  10.008  64.851  1.00  0.00    -0.094 C  
BRANCH  19  22
HETATM   22  C   UNL     1      -6.073   8.248  66.586  1.00  0.00    -0.053 C  
HETATM   23  C   UNL     1      -6.709   6.877  66.374  1.00  0.00    -0.052 C  
ENDBRANCH  19  22
ENDBRANCH  15  19
ENDBRANCH   4  13
TORSDOF 4
ENDMDL
MODEL      162
REMARK 921   NORMALIZED FREE ENERGY PREDICTED BY IDOCK:    5.27 KCAL/MOL
REMARK 922        TOTAL FREE ENERGY PREDICTED BY IDOCK:    6.20 KCAL/MOL
REMARK 923 INTER-LIGAND FREE ENERGY PREDICTED BY IDOCK:    6.40 KCAL/MOL
REMARK 924 INTRA-LIGAND FREE ENERGY PREDICTED BY IDOCK:   -0.21 KCAL/MOL
REMARK 927      BINDING AFFINITY PREDICTED BY RF-SCORE:    0.00 PKD
ROOT
HETATM    1  C   UNL     1     -10.693  18.173  66.570  1.00  0.00    -0.173 C  
HETATM    2  C   UNL     1     -10.666  18.849  65.198  1.00  0.00     0.807 C  
HETATM    3  C   UNL     1      -9.269  17.822  67.066  1.00  0.00    -0.255 C  
HETATM    4  C   UNL     1     -11.570  16.885  66.501  1.00  0.00     1.344 C  
ENDROOT
BRANCH   3   5
HETATM    5  N   UNL     1      -8.272  18.885  67.288  1.00  0.00    -0.268 NA 
HETATM    6  C   UNL     1      -5.328  17.474  65.170  1.00  0.00     0.622 C  
HETATM    7  C   UNL     1      -7.239  18.808  66.206  1.00  0.00    -0.251 C  
HETATM    8  C   UNL     1      -7.540  18.757  68.576  1.00  0.00    -0.327 C  
HETATM    9  C   UNL     1      -6.588  17.535  68.652  1.00  0.00    -0.206 C  
HETATM   10  C   UNL     1      -6.346  17.542  66.297  1.00  0.00    -0.244 C  
HETATM   11  C   UNL     1      -5.775  17.558  69.941  1.00  0.00    -0.250 C  
HETATM   12  O   UNL     1      -5.654  17.524  67.555  1.00  0.00    -0.126 OA 
ENDBRANCH   3   5
BRANCH   4  13
HETATM   13  C   UNL     1     -11.639  16.149  67.820  1.00  0.00     0.075 A  
HETATM   14  C   UNL     1     -10.507  15.062  69.679  1.00  0.00    -0.226 A  
HETATM   15  C   UNL     1     -11.654  15.153  70.487  1.00  0.00    -0.340 A  
HETATM   16  C   UNL     1     -12.813  15.683  69.896  1.00  0.00     0.143 A  
HETATM   17  C   UNL     1     -12.805  16.183  68.587  1.00  0.00     2.054 A  
HETATM   18  C   UNL     1     -10.503  15.534  68.359  1.00  0.00    -0.240 A  
BRANCH  15  19
HETATM   19  C   UNL     1     -11.609  14.716  71.964  1.00  0.00    -0.004 C  
HETATM   20  C   UNL     1     -12.515  13.502  72.275  1.00  0.00     0.072 C  
HETATM   21  C   UNL     1     -10.163  14.282  72.319  1.00  0.00     5.194 C  
BRANCH  19  22
HETATM   22  C   UNL     1     -11.999  15.893  72.915  1.00  0.00    -0.609 C  
HETATM   23  C   UNL     1     -12.944  15.532  74.057  1.00  0.00    -0.389 C  
ENDBRANCH  19  22
ENDBRANCH  15  19
ENDBRANCH   4  13
TORSDOF 4
ENDMDL
MODEL      163
REMARK 921   NORMALIZED FREE ENERGY PREDICTED BY IDOCK:    8.51 KCAL/MOL
REMARK 922        TOTAL FREE ENERGY PREDICTED BY IDOCK:   10.20 KCAL/MOL
REMARK 923 INTER-LIGAND FREE ENERGY PREDICTED BY IDOCK:   10.88 KCAL/MOL
REMARK 924 INTRA-LIGAND FREE ENERGY PREDICTED BY IDOCK:   -0.68 KCAL/MOL
REMARK 927      BINDING AFFINITY PREDICTED BY RF-SCORE:    0.00 PKD
ROOT
HETATM    1  C   UNL     1     -10.260  17.738  65.671  1.00  0.00    -0.020 C  
HETATM    2  C   UNL     1     -10.569  19.054  64.955  1.00  0.00     1.272 C  
HETATM    3  C   UNL     1      -9.604  17.974  67.053  1.00  0.00    -0.287 C  
HETATM    4  C   UNL     1      -9.329  16.862  64.777  1.00  0.00     3.370 C  
ENDROOT
BRANCH   3   5
HETATM    5  N   UNL     1     -10.324  18.712  68.105  1.00  0.00    -0.372 NA 
HETATM    6  C   UNL     1      -7.408  19.285  70.617  1.00  0.00     1.372 C  
HETATM    7  C   UNL     1      -9.326  19.449  68.944  1.00  0.00    -0.361 C  
HETATM    8  C   UNL     1     -11.087  17.836  69.034  1.00  0.00     0.839 C  
HETATM    9  C   UNL     1     -10.201  16.947  69.946  1.00  0.00     0.188 C  
HETATM   10  C   UNL     1      -8.431  18.513  69.800  1.00  0.00     1.098 C  
HETATM   11  C   UNL     1     -11.052  16.191  70.960  1.00  0.00    -0.178 C  
HETATM   12  O   UNL     1      -9.249  17.735  70.688  1.00  0.00     3.380 OA 
ENDBRANCH   3   5
BRANCH   4  13
HETATM   13  C   UNL     1      -8.967  15.543  65.419  1.00  0.00     0.876 A  
HETATM   14  C   UNL     1      -7.657  14.287  67.040  1.00  0.00     0.175 A  
HETATM   15  C   UNL     1      -8.538  13.194  66.970  1.00  0.00    -0.168 A  
HETATM   16  C   UNL     1      -9.592  13.280  66.045  1.00  0.00    -0.174 A  
HETATM   17  C   UNL     1      -9.810  14.438  65.289  1.00  0.00    -0.216 A  
HETATM   18  C   UNL     1      -7.855  15.438  66.263  1.00  0.00     0.725 A  
BRANCH  15  19
HETATM   19  C   UNL     1      -8.357  11.980  67.902  1.00  0.00    -0.155 C  
HETATM   20  C   UNL     1      -7.929  10.693  67.161  1.00  0.00    -0.121 C  
HETATM   21  C   UNL     1      -7.230  12.289  68.922  1.00  0.00    -0.069 C  
BRANCH  19  22
HETATM   22  C   UNL     1      -9.662  11.687  68.711  1.00  0.00    -0.107 C  
HETATM   23  C   UNL     1     -10.227  10.278  68.560  1.00  0.00    -0.192 C  
ENDBRANCH  19  22
ENDBRANCH  15  19
ENDBRANCH   4  13
TORSDOF 4
ENDMDL
MODEL      164
REMARK 921   NORMALIZED FREE ENERGY PREDICTED BY IDOCK:    8.53 KCAL/MOL
REMARK 922        TOTAL FREE ENERGY PREDICTED BY IDOCK:   10.22 KCAL/MOL
REMARK 923 INTER-LIGAND FREE ENERGY PREDICTED BY IDOCK:    8.23 KCAL/MOL
REMARK 924 INTRA-LIGAND FREE ENERGY PREDICTED BY IDOCK:    1.99 KCAL/MOL
REMARK 927      BINDING AFFINITY PREDICTED BY RF-SCORE:    0.00 PKD
ROOT
HETATM    1  C   UNL     1      -9.440  10.363  67.786  1.00  0.00    -0.159 C  
HETATM    2  C   UNL     1      -8.366   9.613  66.997  1.00  0.00    -0.117 C  
HETATM    3  C   UNL     1     -10.544  10.931  66.860  1.00  0.00    -0.261 C  
HETATM    4  C   UNL     1      -8.781  11.515  68.604  1.00  0.00    -0.103 C  
ENDROOT
BRANCH   3   5
HETATM    5  N   UNL     1     -11.368  10.026  66.039  1.00  0.00     0.950 NA 
HETATM    6  C   UNL     1      -8.554   7.998  64.274  1.00  0.00     0.196 C  
HETATM    7  C   UNL     1     -10.534   8.848  65.638  1.00  0.00     1.386 C  
HETATM    8  C   UNL     1     -11.854  10.644  64.776  1.00  0.00     2.444 C  
HETATM    9  C   UNL     1     -10.739  10.940  63.739  1.00  0.00    -0.086 C  
HETATM   10  C   UNL     1      -9.402   9.206  64.639  1.00  0.00     0.164 C  
HETATM   11  C   UNL     1     -11.335  11.436  62.427  1.00  0.00     1.758 C  
HETATM   12  O   UNL     1      -9.967   9.760  63.441  1.00  0.00     0.412 OA 
ENDBRANCH   3   5
BRANCH   4  13
HETATM   13  C   UNL     1      -9.780  12.315  69.407  1.00  0.00     0.885 A  
HETATM   14  C   UNL     1     -10.751  14.463  70.009  1.00  0.00     0.120 A  
HETATM   15  C   UNL     1     -11.898  13.845  70.540  1.00  0.00    -0.317 A  
HETATM   16  C   UNL     1     -11.917  12.440  70.559  1.00  0.00    -0.284 A  
HETATM   17  C   UNL     1     -10.880  11.686  69.994  1.00  0.00     0.410 A  
HETATM   18  C   UNL     1      -9.699  13.711  69.468  1.00  0.00     0.879 A  
BRANCH  15  19
HETATM   19  C   UNL     1     -13.083  14.691  71.041  1.00  0.00    -0.427 C  
HETATM   20  C   UNL     1     -13.949  15.276  69.901  1.00  0.00     1.929 C  
HETATM   21  C   UNL     1     -14.025  13.793  71.885  1.00  0.00    -0.464 C  
BRANCH  19  22
HETATM   22  C   UNL     1     -12.597  15.862  71.956  1.00  0.00    -0.517 C  
HETATM   23  C   UNL     1     -11.915  15.442  73.255  1.00  0.00    -0.566 C  
ENDBRANCH  19  22
ENDBRANCH  15  19
ENDBRANCH   4  13
TORSDOF 4
ENDMDL
MODEL      165
REMARK 921   NORMALIZED FREE ENERGY PREDICTED BY IDOCK:   12.16 KCAL/MOL
REMARK 922        TOTAL FREE ENERGY PREDICTED BY IDOCK:   14.70 KCAL/MOL
REMARK 923 INTER-LIGAND FREE ENERGY PREDICTED BY IDOCK:   15.22 KCAL/MOL
REMARK 924 INTRA-LIGAND FREE ENERGY PREDICTED BY IDOCK:   -0.52 KCAL/MOL
REMARK 927      BINDING AFFINITY PREDICTED BY RF-SCORE:    0.00 PKD
ROOT
HETATM    1  C   UNL     1     -12.502  16.836  68.033  1.00  0.00     2.377 C  
HETATM    2  C   UNL     1     -14.020  16.660  67.959  1.00  0.00     8.381 C  
HETATM    3  C   UNL     1     -11.822  15.663  68.780  1.00  0.00    -0.321 C  
HETATM    4  C   UNL     1     -12.167  18.187  68.736  1.00  0.00     5.418 C  
ENDROOT
BRANCH   3   5
HETATM    5  N   UNL     1     -11.927  14.287  68.263  1.00  0.00    -0.335 NA 
HETATM    6  C   UNL     1      -8.238  13.134  68.718  1.00  0.00     0.098 C  
HETATM    7  C   UNL     1     -10.763  13.493  68.770  1.00  0.00    -0.238 C  
HETATM    8  C   UNL     1     -11.877  14.202  66.779  1.00  0.00    -0.425 C  
HETATM    9  C   UNL     1     -10.502  14.571  66.163  1.00  0.00    -0.298 C  
HETATM   10  C   UNL     1      -9.405  13.934  68.162  1.00  0.00    -0.203 C  
HETATM   11  C   UNL     1     -10.495  14.321  64.660  1.00  0.00    -0.325 C  
HETATM   12  O   UNL     1      -9.438  13.784  66.735  1.00  0.00    -0.257 OA 
ENDBRANCH   3   5
BRANCH   4  13
HETATM   13  C   UNL     1     -10.681  18.434  68.860  1.00  0.00     0.407 A  
HETATM   14  C   UNL     1      -8.808  19.405  70.072  1.00  0.00     1.037 A  
HETATM   15  C   UNL     1      -7.890  18.577  69.404  1.00  0.00     0.211 A  
HETATM   16  C   UNL     1      -8.399  17.734  68.401  1.00  0.00    -0.295 A  
HETATM   17  C   UNL     1      -9.773  17.655  68.140  1.00  0.00    -0.310 A  
HETATM   18  C   UNL     1     -10.181  19.350  69.793  1.00  0.00     0.359 A  
BRANCH  15  19
HETATM   19  C   UNL     1      -6.399  18.585  69.794  1.00  0.00    -0.160 C  
HETATM   20  C   UNL     1      -5.444  18.532  68.579  1.00  0.00    -0.181 C  
HETATM   21  C   UNL     1      -6.079  19.905  70.541  1.00  0.00    -0.331 C  
BRANCH  19  22
HETATM   22  C   UNL     1      -6.059  17.400  70.755  1.00  0.00     0.781 C  
HETATM   23  C   UNL     1      -5.178  16.304  70.163  1.00  0.00    -0.168 C  
ENDBRANCH  19  22
ENDBRANCH  15  19
ENDBRANCH   4  13
TORSDOF 4
ENDMDL
MODEL      166
REMARK 921   NORMALIZED FREE ENERGY PREDICTED BY IDOCK:   19.49 KCAL/MOL
REMARK 922        TOTAL FREE ENERGY PREDICTED BY IDOCK:   23.75 KCAL/MOL
REMARK 923 INTER-LIGAND FREE ENERGY PREDICTED BY IDOCK:   20.11 KCAL/MOL
REMARK 924 INTRA-LIGAND FREE ENERGY PREDICTED BY IDOCK:    3.64 KCAL/MOL
REMARK 927      BINDING AFFINITY PREDICTED BY RF-SCORE:    0.00 PKD
ROOT
HETATM    1  C   UNL     1      -7.422  13.719  67.757  1.00  0.00    -0.168 C  
HETATM    2  C   UNL     1      -7.543  14.490  66.441  1.00  0.00     1.671 C  
HETATM    3  C   UNL     1      -8.187  14.420  68.906  1.00  0.00    -0.082 C  
HETATM    4  C   UNL     1      -5.917  13.560  68.133  1.00  0.00    -0.115 C  
ENDROOT
BRANCH   3   5
HETATM    5  N   UNL     1      -9.645  14.618  68.821  1.00  0.00    -0.214 NA 
HETATM    6  C   UNL     1     -10.713  11.087  67.580  1.00  0.00    -0.289 C  
HETATM    7  C   UNL     1     -10.312  13.277  68.825  1.00  0.00    -0.140 C  
HETATM    8  C   UNL     1     -10.083  15.300  67.575  1.00  0.00    -0.232 C  
HETATM    9  C   UNL     1      -9.893  14.460  66.285  1.00  0.00    -0.304 C  
HETATM   10  C   UNL     1     -10.050  12.455  67.535  1.00  0.00    -0.202 C  
HETATM   11  C   UNL     1     -10.495  15.170  65.079  1.00  0.00    -0.418 C  
HETATM   12  O   UNL     1     -10.537  13.174  66.392  1.00  0.00    -0.280 OA 
ENDBRANCH   3   5
BRANCH   4  13
HETATM   13  C   UNL     1      -5.710  12.816  69.432  1.00  0.00    -0.090 A  
HETATM   14  C   UNL     1      -6.035  12.664  71.838  1.00  0.00     1.476 A  
HETATM   15  C   UNL     1      -5.745  11.288  71.834  1.00  0.00     0.807 A  
HETATM   16  C   UNL     1      -5.361  10.719  70.608  1.00  0.00    -0.093 A  
HETATM   17  C   UNL     1      -5.352  11.467  69.424  1.00  0.00    -0.044 A  
HETATM   18  C   UNL     1      -6.000  13.423  70.660  1.00  0.00    -0.105 A  
BRANCH  15  19
HETATM   19  C   UNL     1      -5.884  10.454  73.122  1.00  0.00     1.127 C  
HETATM   20  C   UNL     1      -5.257   9.045  73.014  1.00  0.00    -0.076 C  
HETATM   21  C   UNL     1      -5.137  11.175  74.274  1.00  0.00     0.247 C  
BRANCH  19  22
HETATM   22  C   UNL     1      -7.382  10.309  73.545  1.00  0.00     4.963 C  
HETATM   23  C   UNL     1      -7.965  11.488  74.317  1.00  0.00    12.668 C  
ENDBRANCH  19  22
ENDBRANCH  15  19
ENDBRANCH   4  13
TORSDOF 4
ENDMDL
MODEL      167
REMARK 921   NORMALIZED FREE ENERGY PREDICTED BY IDOCK:   52.94 KCAL/MOL
REMARK 922        TOTAL FREE ENERGY PREDICTED BY IDOCK:   65.01 KCAL/MOL
REMARK 923 INTER-LIGAND FREE ENERGY PREDICTED BY IDOCK:   65.93 KCAL/MOL
REMARK 924 INTRA-LIGAND FREE ENERGY PREDICTED BY IDOCK:   -0.92 KCAL/MOL
REMARK 927      BINDING AFFINITY PREDICTED BY RF-SCORE:    0.00 PKD
ROOT
HETATM    1  C   UNL     1     -12.033  16.067  68.022  1.00  0.00     0.333 C  
HETATM    2  C   UNL     1     -13.315  15.732  67.258  1.00  0.00     4.978 C  
HETATM    3  C   UNL     1     -11.533  14.866  68.861  1.00  0.00    -0.299 C  
HETATM    4  C   UNL     1     -12.280  17.300  68.943  1.00  0.00     2.971 C  
ENDROOT
BRANCH   3   5
HETATM    5  N   UNL     1     -11.156  13.601  68.205  1.00  0.00    -0.247 NA 
HETATM    6  C   UNL     1      -8.208  12.523  70.507  1.00  0.00     5.707 C  
HETATM    7  C   UNL     1     -10.369  12.774  69.174  1.00  0.00     0.191 C  
HETATM    8  C   UNL     1     -10.289  13.785  67.010  1.00  0.00    -0.260 C  
HETATM    9  C   UNL     1      -8.864  14.309  67.328  1.00  0.00    -0.214 C  
HETATM   10  C   UNL     1      -8.972  13.366  69.498  1.00  0.00     1.391 C  
HETATM   11  C   UNL     1      -8.000  14.331  66.073  1.00  0.00     2.351 C  
HETATM   12  O   UNL     1      -8.196  13.472  68.294  1.00  0.00    -0.146 OA 
ENDBRANCH   3   5
BRANCH   4  13
HETATM   13  C   UNL     1     -11.060  17.691  69.745  1.00  0.00     1.329 A  
HETATM   14  C   UNL     1     -10.006  18.097  71.900  1.00  0.00     6.228 A  
HETATM   15  C   UNL     1      -8.721  17.989  71.341  1.00  0.00     9.511 A  
HETATM   16  C   UNL     1      -8.641  17.807  69.950  1.00  0.00     1.728 A  
HETATM   17  C   UNL     1      -9.790  17.650  69.165  1.00  0.00    -0.145 A  
HETATM   18  C   UNL     1     -11.160  17.969  71.114  1.00  0.00     2.885 A  
BRANCH  15  19
HETATM   19  C   UNL     1      -7.469  18.036  72.238  1.00  0.00     9.645 C  
HETATM   20  C   UNL     1      -6.352  18.954  71.690  1.00  0.00     1.381 C  
HETATM   21  C   UNL     1      -7.861  18.610  73.624  1.00  0.00     8.513 C  
BRANCH  19  22
HETATM   22  C   UNL     1      -6.881  16.606  72.466  1.00  0.00     7.354 C  
HETATM   23  C   UNL     1      -5.454  16.395  71.970  1.00  0.00     0.747 C  
ENDBRANCH  19  22
ENDBRANCH  15  19
ENDBRANCH   4  13
TORSDOF 4
ENDMDL
