MODEL        1
REMARK 921   NORMALIZED FREE ENERGY PREDICTED BY IDOCK:   -7.68 KCAL/MOL
REMARK 922        TOTAL FREE ENERGY PREDICTED BY IDOCK:   -8.49 KCAL/MOL
REMARK 923 INTER-LIGAND FREE ENERGY PREDICTED BY IDOCK:   -8.13 KCAL/MOL
REMARK 924 INTRA-LIGAND FREE ENERGY PREDICTED BY IDOCK:   -0.36 KCAL/MOL
REMARK 927      BINDING AFFINITY PREDICTED BY RF-SCORE:    0.00 PKD
ROOT
HETATM    1 CL   UNL     1     -12.307  14.180  63.994  1.00  0.00    -0.417 Cl 
HETATM    2  C   UNL     1     -11.954  13.895  65.653  1.00  0.00    -0.392 A  
HETATM    3  C   UNL     1     -11.607  14.964  66.475  1.00  0.00    -0.254 A  
HETATM    4  C   UNL     1     -11.339  14.742  67.833  1.00  0.00    -0.331 A  
HETATM    5  C   UNL     1     -11.427  13.451  68.349  1.00  0.00    -0.316 A  
HETATM    6  C   UNL     1     -11.749  12.376  67.516  1.00  0.00    -0.425 A  
HETATM    7  O   UNL     1     -11.181  13.171  69.669  1.00  0.00    -0.153 OA 
HETATM    8  C   UNL     1     -12.075  13.785  70.515  1.00  0.00    -0.345 A  
HETATM    9  C   UNL     1     -12.024  12.602  66.165  1.00  0.00    -0.458 A  
HETATM   10  C   UNL     1     -12.872  12.940  71.297  1.00  0.00    -0.361 A  
HETATM   11  C   UNL     1     -13.812  13.485  72.168  1.00  0.00    -0.628 A  
HETATM   12  C   UNL     1     -13.934  14.869  72.271  1.00  0.00    -0.602 A  
HETATM   13  C   UNL     1     -13.118  15.705  71.499  1.00  0.00    -0.561 A  
HETATM   14  C   UNL     1     -12.179  15.181  70.602  1.00  0.00    -0.351 A  
HETATM   15  N   UNL     1     -11.360  16.095  69.911  1.00  0.00    -0.330 NA 
HETATM   16  H   UNL     1     -11.065  16.943  70.395  1.00  0.00     0.000 HD 
HETATM   17  C   UNL     1     -10.961  15.910  68.684  1.00  0.00    -0.320 C  
ENDROOT
BRANCH  17  18
HETATM   18  N   UNL     1     -10.169  16.872  68.078  1.00  0.00    -0.295 NA 
HETATM   19  C   UNL     1     -10.640  18.242  67.873  1.00  0.00    -0.370 C  
HETATM   20  C   UNL     1      -9.744  19.270  68.585  1.00  0.00    -0.429 C  
HETATM   21  N   UNL     1      -8.313  19.118  68.254  1.00  0.00    -0.322 NA 
HETATM   22  C   UNL     1      -7.896  17.741  68.584  1.00  0.00    -0.278 C  
HETATM   23  H   UNL     1      -7.730  19.822  68.707  1.00  0.00     0.000 HD 
HETATM   24  C   UNL     1      -8.733  16.661  67.864  1.00  0.00    -0.193 C  
ENDBRANCH  17  18
TORSDOF 1
ENDMDL
MODEL        2
REMARK 921   NORMALIZED FREE ENERGY PREDICTED BY IDOCK:   -7.50 KCAL/MOL
REMARK 922        TOTAL FREE ENERGY PREDICTED BY IDOCK:   -8.30 KCAL/MOL
REMARK 923 INTER-LIGAND FREE ENERGY PREDICTED BY IDOCK:   -8.19 KCAL/MOL
REMARK 924 INTRA-LIGAND FREE ENERGY PREDICTED BY IDOCK:   -0.11 KCAL/MOL
REMARK 927      BINDING AFFINITY PREDICTED BY RF-SCORE:    0.00 PKD
ROOT
HETATM    1 CL   UNL     1     -12.184  14.221  64.104  1.00  0.00    -0.475 Cl 
HETATM    2  C   UNL     1     -11.895  13.908  65.771  1.00  0.00    -0.378 A  
HETATM    3  C   UNL     1     -11.555  14.960  66.618  1.00  0.00    -0.265 A  
HETATM    4  C   UNL     1     -11.338  14.715  67.982  1.00  0.00    -0.329 A  
HETATM    5  C   UNL     1     -11.470  13.420  68.478  1.00  0.00    -0.310 A  
HETATM    6  C   UNL     1     -11.784  12.363  67.619  1.00  0.00    -0.412 A  
HETATM    7  O   UNL     1     -11.276  13.119  69.800  1.00  0.00    -0.110 OA 
HETATM    8  C   UNL     1     -12.185  13.741  70.623  1.00  0.00    -0.363 A  
HETATM    9  C   UNL     1     -12.008  12.611  66.263  1.00  0.00    -0.439 A  
HETATM   10  C   UNL     1     -13.026  12.902  71.367  1.00  0.00    -0.362 A  
HETATM   11  C   UNL     1     -13.984  13.455  72.212  1.00  0.00    -0.605 A  
HETATM   12  C   UNL     1     -14.081  14.840  72.329  1.00  0.00    -0.587 A  
HETATM   13  C   UNL     1     -13.223  15.668  71.597  1.00  0.00    -0.554 A  
HETATM   14  C   UNL     1     -12.264  15.137  70.726  1.00  0.00    -0.340 A  
HETATM   15  N   UNL     1     -11.404  16.042  70.076  1.00  0.00    -0.342 NA 
HETATM   16  H   UNL     1     -11.109  16.879  70.580  1.00  0.00     0.000 HD 
HETATM   17  C   UNL     1     -10.967  15.865  68.860  1.00  0.00    -0.290 C  
ENDROOT
BRANCH  17  18
HETATM   18  N   UNL     1     -10.136  16.818  68.294  1.00  0.00    -0.261 NA 
HETATM   19  C   UNL     1      -8.761  16.507  67.901  1.00  0.00    -0.188 C  
HETATM   20  C   UNL     1      -8.526  16.738  66.399  1.00  0.00    -0.303 C  
HETATM   21  N   UNL     1      -8.944  18.080  65.947  1.00  0.00    -0.486 NA 
HETATM   22  C   UNL     1     -10.366  18.273  66.291  1.00  0.00    -0.405 C  
HETATM   23  H   UNL     1      -8.758  18.235  64.957  1.00  0.00     0.000 HD 
HETATM   24  C   UNL     1     -10.659  18.096  67.798  1.00  0.00    -0.389 C  
ENDBRANCH  17  18
TORSDOF 1
ENDMDL
MODEL        3
REMARK 921   NORMALIZED FREE ENERGY PREDICTED BY IDOCK:   -7.30 KCAL/MOL
REMARK 922        TOTAL FREE ENERGY PREDICTED BY IDOCK:   -8.08 KCAL/MOL
REMARK 923 INTER-LIGAND FREE ENERGY PREDICTED BY IDOCK:   -7.72 KCAL/MOL
REMARK 924 INTRA-LIGAND FREE ENERGY PREDICTED BY IDOCK:   -0.36 KCAL/MOL
REMARK 927      BINDING AFFINITY PREDICTED BY RF-SCORE:    0.00 PKD
ROOT
HETATM    1 CL   UNL     1     -12.272  16.321  72.206  1.00  0.00    -0.545 Cl 
HETATM    2  C   UNL     1     -12.564  14.666  71.840  1.00  0.00    -0.339 A  
HETATM    3  C   UNL     1     -11.834  14.048  70.828  1.00  0.00    -0.289 A  
HETATM    4  C   UNL     1     -12.052  12.693  70.539  1.00  0.00    -0.360 A  
HETATM    5  C   UNL     1     -12.996  11.976  71.270  1.00  0.00    -0.217 A  
HETATM    6  C   UNL     1     -13.746  12.607  72.267  1.00  0.00    -0.429 A  
HETATM    7  O   UNL     1     -13.250  10.649  71.038  1.00  0.00    -0.332 OA 
HETATM    8  C   UNL     1     -12.158   9.851  71.285  1.00  0.00    -0.394 A  
HETATM    9  C   UNL     1     -13.521  13.954  72.559  1.00  0.00    -0.676 A  
HETATM   10  C   UNL     1     -12.305   8.893  72.296  1.00  0.00    -0.430 A  
HETATM   11  C   UNL     1     -11.239   8.055  72.617  1.00  0.00    -0.462 A  
HETATM   12  C   UNL     1     -10.044   8.162  71.910  1.00  0.00    -0.285 A  
HETATM   13  C   UNL     1      -9.915   9.109  70.887  1.00  0.00    -0.357 A  
HETATM   14  C   UNL     1     -10.965   9.976  70.559  1.00  0.00    -0.326 A  
HETATM   15  N   UNL     1     -10.768  10.855  69.478  1.00  0.00    -0.340 NA 
HETATM   16  H   UNL     1     -10.215  10.532  68.684  1.00  0.00     0.000 HD 
HETATM   17  C   UNL     1     -11.257  12.063  69.441  1.00  0.00    -0.196 C  
ENDROOT
BRANCH  17  18
HETATM   18  N   UNL     1     -10.998  12.866  68.342  1.00  0.00    -0.246 NA 
HETATM   19  C   UNL     1      -9.650  13.345  68.037  1.00  0.00    -0.219 C  
HETATM   20  C   UNL     1      -9.171  12.874  66.653  1.00  0.00    -0.221 C  
HETATM   21  N   UNL     1     -10.130  13.182  65.573  1.00  0.00    -0.368 NA 
HETATM   22  C   UNL     1     -11.433  12.578  65.911  1.00  0.00    -0.373 C  
HETATM   23  H   UNL     1      -9.792  12.892  64.656  1.00  0.00     0.000 HD 
HETATM   24  C   UNL     1     -11.988  13.048  67.274  1.00  0.00    -0.321 C  
ENDBRANCH  17  18
TORSDOF 1
ENDMDL
MODEL        4
REMARK 921   NORMALIZED FREE ENERGY PREDICTED BY IDOCK:   -7.22 KCAL/MOL
REMARK 922        TOTAL FREE ENERGY PREDICTED BY IDOCK:   -8.00 KCAL/MOL
REMARK 923 INTER-LIGAND FREE ENERGY PREDICTED BY IDOCK:   -8.08 KCAL/MOL
REMARK 924 INTRA-LIGAND FREE ENERGY PREDICTED BY IDOCK:    0.08 KCAL/MOL
REMARK 927      BINDING AFFINITY PREDICTED BY RF-SCORE:    0.00 PKD
ROOT
HETATM    1 CL   UNL     1     -11.873  10.577  70.940  1.00  0.00    -0.446 Cl 
HETATM    2  C   UNL     1     -11.824  11.880  69.818  1.00  0.00    -0.340 A  
HETATM    3  C   UNL     1     -11.800  13.190  70.288  1.00  0.00    -0.299 A  
HETATM    4  C   UNL     1     -11.738  14.256  69.379  1.00  0.00    -0.363 A  
HETATM    5  C   UNL     1     -11.698  13.993  68.012  1.00  0.00    -0.359 A  
HETATM    6  C   UNL     1     -11.750  12.678  67.543  1.00  0.00    -0.429 A  
HETATM    7  O   UNL     1     -11.632  14.992  67.075  1.00  0.00    -0.331 OA 
HETATM    8  C   UNL     1     -10.476  15.731  67.170  1.00  0.00    -0.309 A  
HETATM    9  C   UNL     1     -11.802  11.617  68.450  1.00  0.00    -0.346 A  
HETATM   10  C   UNL     1      -9.628  15.705  66.056  1.00  0.00    -0.386 A  
HETATM   11  C   UNL     1      -8.431  16.415  66.080  1.00  0.00    -0.329 A  
HETATM   12  C   UNL     1      -8.099  17.167  67.205  1.00  0.00    -0.215 A  
HETATM   13  C   UNL     1      -8.964  17.202  68.305  1.00  0.00    -0.248 A  
HETATM   14  C   UNL     1     -10.164  16.481  68.313  1.00  0.00    -0.268 A  
HETATM   15  N   UNL     1     -11.000  16.623  69.437  1.00  0.00    -0.282 NA 
HETATM   16  H   UNL     1     -11.043  17.532  69.898  1.00  0.00     0.000 HD 
HETATM   17  C   UNL     1     -11.722  15.650  69.918  1.00  0.00    -0.362 C  
ENDROOT
BRANCH  17  18
HETATM   18  N   UNL     1     -12.504  15.877  71.039  1.00  0.00    -0.412 NA 
HETATM   19  C   UNL     1     -13.897  15.435  71.110  1.00  0.00    -0.365 C  
HETATM   20  C   UNL     1     -14.132  14.457  72.273  1.00  0.00    -0.516 C  
HETATM   21  N   UNL     1     -13.644  14.971  73.569  1.00  0.00    -0.475 NA 
HETATM   22  C   UNL     1     -12.210  15.296  73.438  1.00  0.00    -0.482 C  
HETATM   23  H   UNL     1     -13.830  14.328  74.339  1.00  0.00     0.000 HD 
HETATM   24  C   UNL     1     -11.915  16.310  72.311  1.00  0.00    -0.520 C  
ENDBRANCH  17  18
TORSDOF 1
ENDMDL
MODEL        5
REMARK 921   NORMALIZED FREE ENERGY PREDICTED BY IDOCK:   -6.99 KCAL/MOL
REMARK 922        TOTAL FREE ENERGY PREDICTED BY IDOCK:   -7.76 KCAL/MOL
REMARK 923 INTER-LIGAND FREE ENERGY PREDICTED BY IDOCK:   -7.47 KCAL/MOL
REMARK 924 INTRA-LIGAND FREE ENERGY PREDICTED BY IDOCK:   -0.29 KCAL/MOL
REMARK 927      BINDING AFFINITY PREDICTED BY RF-SCORE:    0.00 PKD
ROOT
HETATM    1 CL   UNL     1     -11.997  13.380  65.655  1.00  0.00    -0.408 Cl 
HETATM    2  C   UNL     1     -11.563  12.480  67.056  1.00  0.00    -0.368 A  
HETATM    3  C   UNL     1     -12.123  12.813  68.286  1.00  0.00    -0.152 A  
HETATM    4  C   UNL     1     -11.790  12.070  69.428  1.00  0.00    -0.384 A  
HETATM    5  C   UNL     1     -10.903  11.001  69.319  1.00  0.00    -0.238 A  
HETATM    6  C   UNL     1     -10.323  10.687  68.086  1.00  0.00    -0.203 A  
HETATM    7  O   UNL     1     -10.543  10.234  70.396  1.00  0.00    -0.278 OA 
HETATM    8  C   UNL     1     -11.607   9.555  70.942  1.00  0.00    -0.326 A  
HETATM    9  C   UNL     1     -10.663  11.423  66.950  1.00  0.00    -0.308 A  
HETATM   10  C   UNL     1     -11.531   8.157  70.918  1.00  0.00    -0.288 A  
HETATM   11  C   UNL     1     -12.576   7.397  71.437  1.00  0.00    -0.405 A  
HETATM   12  C   UNL     1     -13.678   8.037  72.000  1.00  0.00    -0.321 A  
HETATM   13  C   UNL     1     -13.735   9.435  72.037  1.00  0.00    -0.466 A  
HETATM   14  C   UNL     1     -12.706  10.221  71.504  1.00  0.00    -0.452 A  
HETATM   15  N   UNL     1     -12.819  11.618  71.639  1.00  0.00    -0.383 NA 
HETATM   16  H   UNL     1     -13.248  11.991  72.486  1.00  0.00     0.000 HD 
HETATM   17  C   UNL     1     -12.402  12.459  70.734  1.00  0.00    -0.286 C  
ENDROOT
BRANCH  17  18
HETATM   18  N   UNL     1     -12.569  13.818  70.944  1.00  0.00    -0.353 NA 
HETATM   19  C   UNL     1     -13.859  14.385  71.339  1.00  0.00    -0.337 C  
HETATM   20  C   UNL     1     -13.776  15.118  72.689  1.00  0.00    -0.486 C  
HETATM   21  N   UNL     1     -12.690  16.117  72.739  1.00  0.00    -0.434 NA 
HETATM   22  C   UNL     1     -11.414  15.444  72.429  1.00  0.00    -0.378 C  
HETATM   23  H   UNL     1     -12.661  16.619  73.627  1.00  0.00     0.000 HD 
HETATM   24  C   UNL     1     -11.421  14.724  71.062  1.00  0.00    -0.216 C  
ENDBRANCH  17  18
TORSDOF 1
ENDMDL
MODEL        6
REMARK 921   NORMALIZED FREE ENERGY PREDICTED BY IDOCK:   -6.95 KCAL/MOL
REMARK 922        TOTAL FREE ENERGY PREDICTED BY IDOCK:   -7.71 KCAL/MOL
REMARK 923 INTER-LIGAND FREE ENERGY PREDICTED BY IDOCK:   -7.36 KCAL/MOL
REMARK 924 INTRA-LIGAND FREE ENERGY PREDICTED BY IDOCK:   -0.35 KCAL/MOL
REMARK 927      BINDING AFFINITY PREDICTED BY RF-SCORE:    0.00 PKD
ROOT
HETATM    1 CL   UNL     1     -14.401  14.516  71.464  1.00  0.00    -0.507 Cl 
HETATM    2  C   UNL     1     -12.949  15.181  70.823  1.00  0.00    -0.414 A  
HETATM    3  C   UNL     1     -12.639  14.983  69.480  1.00  0.00    -0.027 A  
HETATM    4  C   UNL     1     -11.468  15.540  68.946  1.00  0.00    -0.362 A  
HETATM    5  C   UNL     1     -10.627  16.290  69.765  1.00  0.00    -0.316 A  
HETATM    6  C   UNL     1     -10.928  16.463  71.119  1.00  0.00     0.247 A  
HETATM    7  O   UNL     1      -9.471  16.863  69.301  1.00  0.00    -0.186 OA 
HETATM    8  C   UNL     1      -9.704  17.811  68.332  1.00  0.00    -0.333 A  
HETATM    9  C   UNL     1     -12.099  15.914  71.646  1.00  0.00    -0.554 A  
HETATM   10  C   UNL     1      -9.303  19.119  68.633  1.00  0.00    -0.439 A  
HETATM   11  C   UNL     1      -9.518  20.139  67.710  1.00  0.00    -0.479 A  
HETATM   12  C   UNL     1     -10.107  19.844  66.483  1.00  0.00    -0.607 A  
HETATM   13  C   UNL     1     -10.487  18.530  66.185  1.00  0.00    -0.447 A  
HETATM   14  C   UNL     1     -10.299  17.491  67.103  1.00  0.00    -0.330 A  
HETATM   15  N   UNL     1     -10.655  16.191  66.695  1.00  0.00    -0.302 NA 
HETATM   16  H   UNL     1     -10.509  15.932  65.719  1.00  0.00     0.000 HD 
HETATM   17  C   UNL     1     -11.161  15.302  67.503  1.00  0.00    -0.324 C  
ENDROOT
BRANCH  17  18
HETATM   18  N   UNL     1     -11.496  14.051  67.010  1.00  0.00    -0.333 NA 
HETATM   19  C   UNL     1     -12.608  13.862  66.078  1.00  0.00    -0.423 C  
HETATM   20  C   UNL     1     -12.144  13.251  64.745  1.00  0.00    -0.409 C  
HETATM   21  N   UNL     1     -11.348  12.019  64.919  1.00  0.00    -0.322 NA 
HETATM   22  C   UNL     1     -10.194  12.322  65.787  1.00  0.00    -0.255 C  
HETATM   23  H   UNL     1     -11.070  11.605  64.030  1.00  0.00     0.000 HD 
HETATM   24  C   UNL     1     -10.600  12.900  67.161  1.00  0.00    -0.238 C  
ENDBRANCH  17  18
TORSDOF 1
ENDMDL
MODEL        7
REMARK 921   NORMALIZED FREE ENERGY PREDICTED BY IDOCK:   -6.93 KCAL/MOL
REMARK 922        TOTAL FREE ENERGY PREDICTED BY IDOCK:   -7.69 KCAL/MOL
REMARK 923 INTER-LIGAND FREE ENERGY PREDICTED BY IDOCK:   -7.34 KCAL/MOL
REMARK 924 INTRA-LIGAND FREE ENERGY PREDICTED BY IDOCK:   -0.35 KCAL/MOL
REMARK 927      BINDING AFFINITY PREDICTED BY RF-SCORE:    0.00 PKD
ROOT
HETATM    1 CL   UNL     1      -6.714  16.689  66.701  1.00  0.00    -0.241 Cl 
HETATM    2  C   UNL     1      -8.317  16.360  67.232  1.00  0.00    -0.177 A  
HETATM    3  C   UNL     1      -8.956  15.199  66.806  1.00  0.00    -0.293 A  
HETATM    4  C   UNL     1     -10.255  14.913  67.251  1.00  0.00    -0.241 A  
HETATM    5  C   UNL     1     -10.893  15.795  68.121  1.00  0.00    -0.307 A  
HETATM    6  C   UNL     1     -10.259  16.973  68.524  1.00  0.00    -0.324 A  
HETATM    7  O   UNL     1     -12.159  15.569  68.595  1.00  0.00    -0.271 OA 
HETATM    8  C   UNL     1     -12.240  14.434  69.367  1.00  0.00    -0.266 A  
HETATM    9  C   UNL     1      -8.962  17.251  68.086  1.00  0.00    -0.254 A  
HETATM   10  C   UNL     1     -12.620  14.617  70.703  1.00  0.00    -0.419 A  
HETATM   11  C   UNL     1     -12.711  13.518  71.554  1.00  0.00    -0.412 A  
HETATM   12  C   UNL     1     -12.446  12.243  71.061  1.00  0.00    -0.361 A  
HETATM   13  C   UNL     1     -12.086  12.069  69.719  1.00  0.00    -0.317 A  
HETATM   14  C   UNL     1     -11.970  13.160  68.848  1.00  0.00    -0.277 A  
HETATM   15  N   UNL     1     -11.662  12.886  67.502  1.00  0.00    -0.358 NA 
HETATM   16  H   UNL     1     -12.042  12.039  67.079  1.00  0.00     0.000 HD 
HETATM   17  C   UNL     1     -10.914  13.662  66.768  1.00  0.00    -0.292 C  
ENDROOT
BRANCH  17  18
HETATM   18  N   UNL     1     -10.651  13.305  65.456  1.00  0.00    -0.281 NA 
HETATM   19  C   UNL     1      -9.812  12.154  65.123  1.00  0.00    -0.180 C  
HETATM   20  C   UNL     1     -10.574  11.109  64.289  1.00  0.00    -0.357 C  
HETATM   21  N   UNL     1     -11.227  11.686  63.097  1.00  0.00    -0.795 NA 
HETATM   22  C   UNL     1     -12.129  12.770  63.530  1.00  0.00    -0.559 C  
HETATM   23  H   UNL     1     -11.705  10.982  62.534  1.00  0.00     0.000 HD 
HETATM   24  C   UNL     1     -11.411  13.874  64.338  1.00  0.00    -0.361 C  
ENDBRANCH  17  18
TORSDOF 1
ENDMDL
MODEL        8
REMARK 921   NORMALIZED FREE ENERGY PREDICTED BY IDOCK:   -6.86 KCAL/MOL
REMARK 922        TOTAL FREE ENERGY PREDICTED BY IDOCK:   -7.63 KCAL/MOL
REMARK 923 INTER-LIGAND FREE ENERGY PREDICTED BY IDOCK:   -7.36 KCAL/MOL
REMARK 924 INTRA-LIGAND FREE ENERGY PREDICTED BY IDOCK:   -0.27 KCAL/MOL
REMARK 927      BINDING AFFINITY PREDICTED BY RF-SCORE:    0.00 PKD
ROOT
HETATM    1 CL   UNL     1      -9.253  17.197  68.695  1.00  0.00    -0.263 Cl 
HETATM    2  C   UNL     1     -10.265  15.841  69.007  1.00  0.00    -0.224 A  
HETATM    3  C   UNL     1     -10.429  14.867  68.027  1.00  0.00    -0.246 A  
HETATM    4  C   UNL     1     -11.235  13.748  68.282  1.00  0.00    -0.301 A  
HETATM    5  C   UNL     1     -11.863  13.621  69.519  1.00  0.00    -0.337 A  
HETATM    6  C   UNL     1     -11.718  14.615  70.491  1.00  0.00    -0.345 A  
HETATM    7  O   UNL     1     -12.659  12.550  69.831  1.00  0.00     0.019 OA 
HETATM    8  C   UNL     1     -11.967  11.361  69.835  1.00  0.00    -0.359 A  
HETATM    9  C   UNL     1     -10.908  15.724  70.237  1.00  0.00    -0.363 A  
HETATM   10  C   UNL     1     -11.916  10.676  71.056  1.00  0.00    -0.442 A  
HETATM   11  C   UNL     1     -11.222   9.472  71.146  1.00  0.00    -0.446 A  
HETATM   12  C   UNL     1     -10.606   8.947  70.013  1.00  0.00    -0.234 A  
HETATM   13  C   UNL     1     -10.680   9.630  68.793  1.00  0.00    -0.234 A  
HETATM   14  C   UNL     1     -11.355  10.851  68.681  1.00  0.00    -0.295 A  
HETATM   15  N   UNL     1     -11.430  11.437  67.403  1.00  0.00    -0.499 NA 
HETATM   16  H   UNL     1     -11.516  10.824  66.592  1.00  0.00     0.000 HD 
HETATM   17  C   UNL     1     -11.395  12.725  67.205  1.00  0.00    -0.314 C  
ENDROOT
BRANCH  17  18
HETATM   18  N   UNL     1     -11.459  13.213  65.910  1.00  0.00    -0.322 NA 
HETATM   19  C   UNL     1     -10.292  13.215  65.027  1.00  0.00    -0.330 C  
HETATM   20  C   UNL     1     -10.535  12.391  63.751  1.00  0.00    -0.443 C  
HETATM   21  N   UNL     1     -11.771  12.776  63.041  1.00  0.00    -0.789 NA 
HETATM   22  C   UNL     1     -12.910  12.649  63.971  1.00  0.00    -0.164 C  
HETATM   23  H   UNL     1     -11.909  12.245  62.181  1.00  0.00     0.000 HD 
HETATM   24  C   UNL     1     -12.743  13.491  65.256  1.00  0.00    -0.427 C  
ENDBRANCH  17  18
TORSDOF 1
ENDMDL
MODEL        9
REMARK 921   NORMALIZED FREE ENERGY PREDICTED BY IDOCK:   -6.80 KCAL/MOL
REMARK 922        TOTAL FREE ENERGY PREDICTED BY IDOCK:   -7.56 KCAL/MOL
REMARK 923 INTER-LIGAND FREE ENERGY PREDICTED BY IDOCK:   -7.23 KCAL/MOL
REMARK 924 INTRA-LIGAND FREE ENERGY PREDICTED BY IDOCK:   -0.33 KCAL/MOL
REMARK 927      BINDING AFFINITY PREDICTED BY RF-SCORE:    0.00 PKD
ROOT
HETATM    1 CL   UNL     1     -13.490  15.598  71.919  1.00  0.00    -0.556 Cl 
HETATM    2  C   UNL     1     -12.942  14.154  71.162  1.00  0.00    -0.349 A  
HETATM    3  C   UNL     1     -12.261  14.231  69.951  1.00  0.00    -0.407 A  
HETATM    4  C   UNL     1     -11.792  13.059  69.338  1.00  0.00    -0.380 A  
HETATM    5  C   UNL     1     -12.011  11.828  69.952  1.00  0.00    -0.332 A  
HETATM    6  C   UNL     1     -12.719  11.753  71.155  1.00  0.00    -0.405 A  
HETATM    7  O   UNL     1     -11.574  10.649  69.407  1.00  0.00    -0.259 OA 
HETATM    8  C   UNL     1     -10.203  10.585  69.314  1.00  0.00    -0.225 A  
HETATM    9  C   UNL     1     -13.177  12.922  71.767  1.00  0.00    -0.479 A  
HETATM   10  C   UNL     1      -9.577   9.568  70.046  1.00  0.00    -0.272 A  
HETATM   11  C   UNL     1      -8.190   9.447  70.016  1.00  0.00    -0.171 A  
HETATM   12  C   UNL     1      -7.439  10.324  69.238  1.00  0.00    -0.112 A  
HETATM   13  C   UNL     1      -8.076  11.325  68.495  1.00  0.00    -0.148 A  
HETATM   14  C   UNL     1      -9.467  11.479  68.523  1.00  0.00    -0.174 A  
HETATM   15  N   UNL     1     -10.027  12.473  67.698  1.00  0.00    -0.198 NA 
HETATM   16  H   UNL     1      -9.594  12.653  66.791  1.00  0.00     0.000 HD 
HETATM   17  C   UNL     1     -11.072  13.176  68.034  1.00  0.00    -0.263 C  
ENDROOT
BRANCH  17  18
HETATM   18  N   UNL     1     -11.545  14.146  67.165  1.00  0.00    -0.356 NA 
HETATM   19  C   UNL     1     -10.838  15.410  66.960  1.00  0.00    -0.320 C  
HETATM   20  C   UNL     1     -10.421  15.604  65.493  1.00  0.00    -0.404 C  
HETATM   21  N   UNL     1     -11.540  15.433  64.545  1.00  0.00    -0.603 NA 
HETATM   22  C   UNL     1     -12.131  14.096  64.750  1.00  0.00    -0.441 C  
HETATM   23  H   UNL     1     -11.260  15.592  63.577  1.00  0.00     0.000 HD 
HETATM   24  C   UNL     1     -12.611  13.857  66.199  1.00  0.00    -0.380 C  
ENDBRANCH  17  18
TORSDOF 1
ENDMDL
MODEL       10
REMARK 921   NORMALIZED FREE ENERGY PREDICTED BY IDOCK:   -6.70 KCAL/MOL
REMARK 922        TOTAL FREE ENERGY PREDICTED BY IDOCK:   -7.45 KCAL/MOL
REMARK 923 INTER-LIGAND FREE ENERGY PREDICTED BY IDOCK:   -7.34 KCAL/MOL
REMARK 924 INTRA-LIGAND FREE ENERGY PREDICTED BY IDOCK:   -0.11 KCAL/MOL
REMARK 927      BINDING AFFINITY PREDICTED BY RF-SCORE:    0.00 PKD
ROOT
HETATM    1 CL   UNL     1     -12.577  15.890  71.629  1.00  0.00    -0.499 Cl 
HETATM    2  C   UNL     1     -12.666  14.185  71.415  1.00  0.00    -0.364 A  
HETATM    3  C   UNL     1     -11.836  13.566  70.486  1.00  0.00    -0.254 A  
HETATM    4  C   UNL     1     -11.887  12.174  70.321  1.00  0.00    -0.339 A  
HETATM    5  C   UNL     1     -12.769  11.423  71.095  1.00  0.00    -0.377 A  
HETATM    6  C   UNL     1     -13.621  12.051  72.008  1.00  0.00    -0.230 A  
HETATM    7  O   UNL     1     -12.864  10.060  70.984  1.00  0.00    -0.347 OA 
HETATM    8  C   UNL     1     -11.697   9.419  71.333  1.00  0.00    -0.378 A  
HETATM    9  C   UNL     1     -13.561  13.436  72.175  1.00  0.00    -0.660 A  
HETATM   10  C   UNL     1     -11.770   8.548  72.427  1.00  0.00    -0.429 A  
HETATM   11  C   UNL     1     -10.628   7.873  72.852  1.00  0.00    -0.434 A  
HETATM   12  C   UNL     1      -9.428   8.052  72.167  1.00  0.00    -0.264 A  
HETATM   13  C   UNL     1      -9.372   8.911  71.063  1.00  0.00    -0.313 A  
HETATM   14  C   UNL     1     -10.501   9.615  70.628  1.00  0.00    -0.312 A  
HETATM   15  N   UNL     1     -10.367  10.409  69.473  1.00  0.00    -0.233 NA 
HETATM   16  H   UNL     1      -9.753  10.080  68.727  1.00  0.00     0.000 HD 
HETATM   17  C   UNL     1     -10.988  11.543  69.309  1.00  0.00    -0.208 C  
ENDROOT
BRANCH  17  18
HETATM   18  N   UNL     1     -10.783  12.265  68.145  1.00  0.00    -0.208 NA 
HETATM   19  C   UNL     1     -11.858  12.494  67.179  1.00  0.00    -0.316 C  
HETATM   20  C   UNL     1     -12.137  13.993  66.973  1.00  0.00    -0.420 C  
HETATM   21  N   UNL     1     -10.923  14.767  66.648  1.00  0.00    -0.321 NA 
HETATM   22  C   UNL     1      -9.930  14.562  67.720  1.00  0.00    -0.225 C  
HETATM   23  H   UNL     1     -11.121  15.754  66.484  1.00  0.00     0.000 HD 
HETATM   24  C   UNL     1      -9.576  13.075  67.946  1.00  0.00    -0.215 C  
ENDBRANCH  17  18
TORSDOF 1
ENDMDL
MODEL       11
REMARK 921   NORMALIZED FREE ENERGY PREDICTED BY IDOCK:   -6.61 KCAL/MOL
REMARK 922        TOTAL FREE ENERGY PREDICTED BY IDOCK:   -7.36 KCAL/MOL
REMARK 923 INTER-LIGAND FREE ENERGY PREDICTED BY IDOCK:   -7.00 KCAL/MOL
REMARK 924 INTRA-LIGAND FREE ENERGY PREDICTED BY IDOCK:   -0.36 KCAL/MOL
REMARK 927      BINDING AFFINITY PREDICTED BY RF-SCORE:    0.00 PKD
ROOT
HETATM    1 CL   UNL     1      -5.912  13.207  67.526  1.00  0.00    -0.130 Cl 
HETATM    2  C   UNL     1      -7.232  14.166  68.070  1.00  0.00    -0.143 A  
HETATM    3  C   UNL     1      -8.511  13.914  67.581  1.00  0.00    -0.193 A  
HETATM    4  C   UNL     1      -9.596  14.678  68.037  1.00  0.00    -0.212 A  
HETATM    5  C   UNL     1      -9.382  15.681  68.979  1.00  0.00    -0.243 A  
HETATM    6  C   UNL     1      -8.093  15.949  69.447  1.00  0.00    -0.178 A  
HETATM    7  O   UNL     1     -10.401  16.458  69.467  1.00  0.00    -0.280 OA 
HETATM    8  C   UNL     1     -11.337  15.727  70.161  1.00  0.00    -0.355 A  
HETATM    9  C   UNL     1      -7.016  15.181  68.998  1.00  0.00    -0.131 A  
HETATM   10  C   UNL     1     -11.497  16.050  71.515  1.00  0.00    -0.459 A  
HETATM   11  C   UNL     1     -12.414  15.345  72.291  1.00  0.00    -0.455 A  
HETATM   12  C   UNL     1     -13.183  14.342  71.706  1.00  0.00    -0.435 A  
HETATM   13  C   UNL     1     -13.029  14.041  70.348  1.00  0.00    -0.124 A  
HETATM   14  C   UNL     1     -12.100  14.722  69.551  1.00  0.00    -0.290 A  
HETATM   15  N   UNL     1     -12.055  14.395  68.182  1.00  0.00    -0.567 NA 
HETATM   16  H   UNL     1     -12.928  14.154  67.712  1.00  0.00     0.000 HD 
HETATM   17  C   UNL     1     -10.953  14.386  67.486  1.00  0.00    -0.293 C  
ENDROOT
BRANCH  17  18
HETATM   18  N   UNL     1     -11.002  14.036  66.146  1.00  0.00    -0.293 NA 
HETATM   19  C   UNL     1     -11.434  12.708  65.710  1.00  0.00    -0.358 C  
HETATM   20  C   UNL     1     -12.666  12.777  64.792  1.00  0.00    -0.393 C  
HETATM   21  N   UNL     1     -12.490  13.705  63.657  1.00  0.00    -0.834 NA 
HETATM   22  C   UNL     1     -12.156  15.041  64.187  1.00  0.00    -0.223 C  
HETATM   23  H   UNL     1     -13.300  13.722  63.037  1.00  0.00     0.000 HD 
HETATM   24  C   UNL     1     -10.899  15.044  65.085  1.00  0.00    -0.407 C  
ENDBRANCH  17  18
TORSDOF 1
ENDMDL
MODEL       12
REMARK 921   NORMALIZED FREE ENERGY PREDICTED BY IDOCK:   -6.61 KCAL/MOL
REMARK 922        TOTAL FREE ENERGY PREDICTED BY IDOCK:   -7.36 KCAL/MOL
REMARK 923 INTER-LIGAND FREE ENERGY PREDICTED BY IDOCK:   -7.03 KCAL/MOL
REMARK 924 INTRA-LIGAND FREE ENERGY PREDICTED BY IDOCK:   -0.33 KCAL/MOL
REMARK 927      BINDING AFFINITY PREDICTED BY RF-SCORE:    0.00 PKD
ROOT
HETATM    1 CL   UNL     1     -10.899  19.275  67.308  1.00  0.00    -0.586 Cl 
HETATM    2  C   UNL     1     -10.266  17.742  67.761  1.00  0.00    -0.361 A  
HETATM    3  C   UNL     1     -11.026  16.895  68.562  1.00  0.00    -0.290 A  
HETATM    4  C   UNL     1     -10.525  15.634  68.918  1.00  0.00    -0.220 A  
HETATM    5  C   UNL     1      -9.270  15.239  68.462  1.00  0.00    -0.200 A  
HETATM    6  C   UNL     1      -8.498  16.103  67.680  1.00  0.00    -0.178 A  
HETATM    7  O   UNL     1      -8.728  14.019  68.771  1.00  0.00    -0.134 OA 
HETATM    8  C   UNL     1      -9.462  12.971  68.267  1.00  0.00    -0.208 A  
HETATM    9  C   UNL     1      -9.003  17.354  67.320  1.00  0.00    -0.241 A  
HETATM   10  C   UNL     1      -8.811  12.146  67.340  1.00  0.00    -0.181 A  
HETATM   11  C   UNL     1      -9.492  11.072  66.772  1.00  0.00    -0.203 A  
HETATM   12  C   UNL     1     -10.808  10.814  67.149  1.00  0.00    -0.335 A  
HETATM   13  C   UNL     1     -11.442  11.634  68.091  1.00  0.00    -0.382 A  
HETATM   14  C   UNL     1     -10.785  12.730  68.662  1.00  0.00    -0.246 A  
HETATM   15  N   UNL     1     -11.479  13.463  69.644  1.00  0.00    -0.434 NA 
HETATM   16  H   UNL     1     -12.102  12.960  70.276  1.00  0.00     0.000 HD 
HETATM   17  C   UNL     1     -11.365  14.754  69.786  1.00  0.00    -0.283 C  
ENDROOT
BRANCH  17  18
HETATM   18  N   UNL     1     -12.099  15.395  70.771  1.00  0.00    -0.333 NA 
HETATM   19  C   UNL     1     -13.553  15.263  70.858  1.00  0.00    -0.340 C  
HETATM   20  C   UNL     1     -13.997  14.664  72.204  1.00  0.00    -0.492 C  
HETATM   21  N   UNL     1     -13.432  15.374  73.368  1.00  0.00    -0.609 NA 
HETATM   22  C   UNL     1     -11.960  15.373  73.253  1.00  0.00    -0.454 C  
HETATM   23  H   UNL     1     -13.754  14.988  74.255  1.00  0.00     0.000 HD 
HETATM   24  C   UNL     1     -11.451  16.004  71.938  1.00  0.00    -0.315 C  
ENDBRANCH  17  18
TORSDOF 1
ENDMDL
MODEL       13
REMARK 921   NORMALIZED FREE ENERGY PREDICTED BY IDOCK:   -6.56 KCAL/MOL
REMARK 922        TOTAL FREE ENERGY PREDICTED BY IDOCK:   -7.30 KCAL/MOL
REMARK 923 INTER-LIGAND FREE ENERGY PREDICTED BY IDOCK:   -6.95 KCAL/MOL
REMARK 924 INTRA-LIGAND FREE ENERGY PREDICTED BY IDOCK:   -0.35 KCAL/MOL
REMARK 927      BINDING AFFINITY PREDICTED BY RF-SCORE:    0.00 PKD
ROOT
HETATM    1 CL   UNL     1     -10.411  10.720  64.158  1.00  0.00    -0.424 Cl 
HETATM    2  C   UNL     1     -10.237  10.499  65.855  1.00  0.00    -0.245 A  
HETATM    3  C   UNL     1     -10.667  11.497  66.724  1.00  0.00    -0.311 A  
HETATM    4  C   UNL     1     -10.548  11.315  68.110  1.00  0.00    -0.225 A  
HETATM    5  C   UNL     1     -10.003  10.132  68.603  1.00  0.00    -0.170 A  
HETATM    6  C   UNL     1      -9.547   9.143  67.726  1.00  0.00    -0.173 A  
HETATM    7  O   UNL     1      -9.864   9.893  69.946  1.00  0.00    -0.229 OA 
HETATM    8  C   UNL     1     -11.072   9.845  70.601  1.00  0.00    -0.340 A  
HETATM    9  C   UNL     1      -9.675   9.324  66.348  1.00  0.00    -0.325 A  
HETATM   10  C   UNL     1     -11.397   8.629  71.218  1.00  0.00    -0.341 A  
HETATM   11  C   UNL     1     -12.610   8.495  71.889  1.00  0.00    -0.400 A  
HETATM   12  C   UNL     1     -13.479   9.581  71.963  1.00  0.00    -0.522 A  
HETATM   13  C   UNL     1     -13.136  10.797  71.360  1.00  0.00    -0.469 A  
HETATM   14  C   UNL     1     -11.931  10.951  70.663  1.00  0.00    -0.368 A  
HETATM   15  N   UNL     1     -11.641  12.226  70.141  1.00  0.00    -0.537 NA 
HETATM   16  H   UNL     1     -11.938  13.047  70.669  1.00  0.00     0.000 HD 
HETATM   17  C   UNL     1     -11.012  12.410  69.014  1.00  0.00    -0.197 C  
ENDROOT
BRANCH  17  18
HETATM   18  N   UNL     1     -10.783  13.702  68.569  1.00  0.00    -0.250 NA 
HETATM   19  C   UNL     1     -11.879  14.646  68.345  1.00  0.00    -0.295 C  
HETATM   20  C   UNL     1     -11.742  15.904  69.221  1.00  0.00    -0.353 C  
HETATM   21  N   UNL     1     -10.419  16.549  69.104  1.00  0.00    -0.296 NA 
HETATM   22  C   UNL     1      -9.379  15.558  69.443  1.00  0.00    -0.279 C  
HETATM   23  H   UNL     1     -10.347  17.398  69.665  1.00  0.00     0.000 HD 
HETATM   24  C   UNL     1      -9.438  14.287  68.566  1.00  0.00    -0.206 C  
ENDBRANCH  17  18
TORSDOF 1
ENDMDL
MODEL       14
REMARK 921   NORMALIZED FREE ENERGY PREDICTED BY IDOCK:   -6.53 KCAL/MOL
REMARK 922        TOTAL FREE ENERGY PREDICTED BY IDOCK:   -7.27 KCAL/MOL
REMARK 923 INTER-LIGAND FREE ENERGY PREDICTED BY IDOCK:   -7.17 KCAL/MOL
REMARK 924 INTRA-LIGAND FREE ENERGY PREDICTED BY IDOCK:   -0.10 KCAL/MOL
REMARK 927      BINDING AFFINITY PREDICTED BY RF-SCORE:    0.00 PKD
ROOT
HETATM    1 CL   UNL     1      -6.436  13.310  67.457  1.00  0.00    -0.171 Cl 
HETATM    2  C   UNL     1      -7.739  14.222  68.112  1.00  0.00    -0.141 A  
HETATM    3  C   UNL     1      -9.049  13.834  67.848  1.00  0.00    -0.193 A  
HETATM    4  C   UNL     1     -10.116  14.560  68.397  1.00  0.00    -0.241 A  
HETATM    5  C   UNL     1      -9.853  15.664  69.205  1.00  0.00    -0.269 A  
HETATM    6  C   UNL     1      -8.537  16.067  69.446  1.00  0.00    -0.150 A  
HETATM    7  O   UNL     1     -10.852  16.411  69.774  1.00  0.00    -0.329 OA 
HETATM    8  C   UNL     1     -11.612  15.688  70.664  1.00  0.00    -0.367 A  
HETATM    9  C   UNL     1      -7.476  15.337  68.905  1.00  0.00    -0.147 A  
HETATM   10  C   UNL     1     -11.599  16.129  71.993  1.00  0.00    -0.477 A  
HETATM   11  C   UNL     1     -12.331  15.441  72.958  1.00  0.00    -0.535 A  
HETATM   12  C   UNL     1     -13.089  14.333  72.587  1.00  0.00    -0.567 A  
HETATM   13  C   UNL     1     -13.110  13.913  71.252  1.00  0.00    -0.385 A  
HETATM   14  C   UNL     1     -12.368  14.576  70.267  1.00  0.00    -0.349 A  
HETATM   15  N   UNL     1     -12.496  14.121  68.941  1.00  0.00    -0.490 NA 
HETATM   16  H   UNL     1     -13.404  13.773  68.632  1.00  0.00     0.000 HD 
HETATM   17  C   UNL     1     -11.511  14.121  68.087  1.00  0.00    -0.310 C  
ENDROOT
BRANCH  17  18
HETATM   18  N   UNL     1     -11.724  13.639  66.806  1.00  0.00    -0.370 NA 
HETATM   19  C   UNL     1     -11.662  14.511  65.633  1.00  0.00    -0.335 C  
HETATM   20  C   UNL     1     -10.583  14.058  64.635  1.00  0.00    -0.395 C  
HETATM   21  N   UNL     1     -10.700  12.633  64.264  1.00  0.00    -0.355 NA 
HETATM   22  C   UNL     1     -10.652  11.819  65.494  1.00  0.00    -0.276 C  
HETATM   23  H   UNL     1      -9.998  12.349  63.581  1.00  0.00     0.000 HD 
HETATM   24  C   UNL     1     -11.743  12.200  66.520  1.00  0.00    -0.321 C  
ENDBRANCH  17  18
TORSDOF 1
ENDMDL
MODEL       15
REMARK 921   NORMALIZED FREE ENERGY PREDICTED BY IDOCK:   -6.48 KCAL/MOL
REMARK 922        TOTAL FREE ENERGY PREDICTED BY IDOCK:   -7.23 KCAL/MOL
REMARK 923 INTER-LIGAND FREE ENERGY PREDICTED BY IDOCK:   -7.74 KCAL/MOL
REMARK 924 INTRA-LIGAND FREE ENERGY PREDICTED BY IDOCK:    0.51 KCAL/MOL
REMARK 927      BINDING AFFINITY PREDICTED BY RF-SCORE:    0.00 PKD
ROOT
HETATM    1 CL   UNL     1     -13.197  14.574  72.950  1.00  0.00    -0.584 Cl 
HETATM    2  C   UNL     1     -12.255  14.428  71.519  1.00  0.00    -0.334 A  
HETATM    3  C   UNL     1     -12.379  13.289  70.728  1.00  0.00    -0.425 A  
HETATM    4  C   UNL     1     -11.630  13.173  69.548  1.00  0.00    -0.347 A  
HETATM    5  C   UNL     1     -10.769  14.203  69.176  1.00  0.00    -0.194 A  
HETATM    6  C   UNL     1     -10.627  15.333  69.987  1.00  0.00    -0.288 A  
HETATM    7  O   UNL     1     -10.014  14.152  68.033  1.00  0.00    -0.216 OA 
HETATM    8  C   UNL     1     -10.783  14.113  66.893  1.00  0.00    -0.286 A  
HETATM    9  C   UNL     1     -11.380  15.450  71.157  1.00  0.00    -0.427 A  
HETATM   10  C   UNL     1     -10.632  15.185  66.006  1.00  0.00    -0.329 A  
HETATM   11  C   UNL     1     -11.386  15.227  64.836  1.00  0.00    -0.387 A  
HETATM   12  C   UNL     1     -12.267  14.187  64.547  1.00  0.00    -0.468 A  
HETATM   13  C   UNL     1     -12.395  13.110  65.432  1.00  0.00    -0.532 A  
HETATM   14  C   UNL     1     -11.662  13.055  66.624  1.00  0.00    -0.381 A  
HETATM   15  N   UNL     1     -11.810  11.906  67.424  1.00  0.00    -0.611 NA 
HETATM   16  H   UNL     1     -11.946  11.006  66.962  1.00  0.00     0.000 HD 
HETATM   17  C   UNL     1     -11.782  11.934  68.727  1.00  0.00    -0.321 C  
ENDROOT
BRANCH  17  18
HETATM   18  N   UNL     1     -11.952  10.755  69.435  1.00  0.00    -0.303 NA 
HETATM   19  C   UNL     1     -10.844   9.827  69.665  1.00  0.00    -0.250 C  
HETATM   20  C   UNL     1     -10.576   9.614  71.165  1.00  0.00    -0.257 C  
HETATM   21  N   UNL     1     -11.786   9.235  71.921  1.00  0.00    -0.373 NA 
HETATM   22  C   UNL     1     -12.815  10.273  71.715  1.00  0.00    -0.460 C  
HETATM   23  H   UNL     1     -11.593   9.068  72.909  1.00  0.00     0.000 HD 
HETATM   24  C   UNL     1     -13.160  10.502  70.227  1.00  0.00     0.034 C  
ENDBRANCH  17  18
TORSDOF 1
ENDMDL
MODEL       16
REMARK 921   NORMALIZED FREE ENERGY PREDICTED BY IDOCK:   -6.35 KCAL/MOL
REMARK 922        TOTAL FREE ENERGY PREDICTED BY IDOCK:   -7.09 KCAL/MOL
REMARK 923 INTER-LIGAND FREE ENERGY PREDICTED BY IDOCK:   -6.73 KCAL/MOL
REMARK 924 INTRA-LIGAND FREE ENERGY PREDICTED BY IDOCK:   -0.36 KCAL/MOL
REMARK 927      BINDING AFFINITY PREDICTED BY RF-SCORE:    0.00 PKD
ROOT
HETATM    1 CL   UNL     1     -13.265  10.892  71.871  1.00  0.00    -0.565 Cl 
HETATM    2  C   UNL     1     -12.402  11.667  70.601  1.00  0.00    -0.344 A  
HETATM    3  C   UNL     1     -11.854  10.902  69.576  1.00  0.00    -0.404 A  
HETATM    4  C   UNL     1     -11.167  11.529  68.526  1.00  0.00    -0.315 A  
HETATM    5  C   UNL     1     -11.044  12.917  68.517  1.00  0.00    -0.267 A  
HETATM    6  C   UNL     1     -11.573  13.680  69.562  1.00  0.00    -0.361 A  
HETATM    7  O   UNL     1     -10.390  13.589  67.518  1.00  0.00    -0.234 OA 
HETATM    8  C   UNL     1     -10.996  13.434  66.293  1.00  0.00    -0.288 A  
HETATM    9  C   UNL     1     -12.263  13.053  70.602  1.00  0.00    -0.390 A  
HETATM   10  C   UNL     1     -11.479  14.601  65.687  1.00  0.00    -0.340 A  
HETATM   11  C   UNL     1     -12.119  14.527  64.452  1.00  0.00    -0.492 A  
HETATM   12  C   UNL     1     -12.251  13.293  63.819  1.00  0.00    -0.508 A  
HETATM   13  C   UNL     1     -11.746  12.136  64.424  1.00  0.00    -0.430 A  
HETATM   14  C   UNL     1     -11.116  12.182  65.673  1.00  0.00    -0.316 A  
HETATM   15  N   UNL     1     -10.587  10.979  66.179  1.00  0.00    -0.250 NA 
HETATM   16  H   UNL     1     -10.185  10.311  65.520  1.00  0.00     0.000 HD 
HETATM   17  C   UNL     1     -10.584  10.677  67.447  1.00  0.00    -0.256 C  
ENDROOT
BRANCH  17  18
HETATM   18  N   UNL     1     -10.055   9.462  67.852  1.00  0.00    -0.183 NA 
HETATM   19  C   UNL     1     -10.587   8.188  67.367  1.00  0.00    -0.255 C  
HETATM   20  C   UNL     1      -9.519   7.363  66.627  1.00  0.00    -0.187 C  
HETATM   21  N   UNL     1      -8.280   7.187  67.410  1.00  0.00    -0.115 NA 
HETATM   22  C   UNL     1      -7.756   8.519  67.772  1.00  0.00    -0.103 C  
HETATM   23  H   UNL     1      -7.589   6.615  66.925  1.00  0.00     0.000 HD 
HETATM   24  C   UNL     1      -8.771   9.380  68.557  1.00  0.00    -0.128 C  
ENDBRANCH  17  18
TORSDOF 1
ENDMDL
MODEL       17
REMARK 921   NORMALIZED FREE ENERGY PREDICTED BY IDOCK:   -6.32 KCAL/MOL
REMARK 922        TOTAL FREE ENERGY PREDICTED BY IDOCK:   -7.06 KCAL/MOL
REMARK 923 INTER-LIGAND FREE ENERGY PREDICTED BY IDOCK:   -6.69 KCAL/MOL
REMARK 924 INTRA-LIGAND FREE ENERGY PREDICTED BY IDOCK:   -0.36 KCAL/MOL
REMARK 927      BINDING AFFINITY PREDICTED BY RF-SCORE:    0.00 PKD
ROOT
HETATM    1 CL   UNL     1     -13.744   9.330  72.515  1.00  0.00    -0.507 Cl 
HETATM    2  C   UNL     1     -12.945  10.447  71.479  1.00  0.00    -0.458 A  
HETATM    3  C   UNL     1     -12.095   9.973  70.484  1.00  0.00    -0.338 A  
HETATM    4  C   UNL     1     -11.457  10.876  69.622  1.00  0.00    -0.377 A  
HETATM    5  C   UNL     1     -11.683  12.243  69.769  1.00  0.00    -0.298 A  
HETATM    6  C   UNL     1     -12.516  12.717  70.786  1.00  0.00    -0.357 A  
HETATM    7  O   UNL     1     -11.093  13.175  68.955  1.00  0.00    -0.249 OA 
HETATM    8  C   UNL     1     -11.478  13.049  67.640  1.00  0.00    -0.324 A  
HETATM    9  C   UNL     1     -13.157  11.814  71.638  1.00  0.00    -0.443 A  
HETATM   10  C   UNL     1     -12.154  14.142  67.083  1.00  0.00    -0.432 A  
HETATM   11  C   UNL     1     -12.590  14.086  65.762  1.00  0.00    -0.512 A  
HETATM   12  C   UNL     1     -12.327  12.951  64.998  1.00  0.00    -0.541 A  
HETATM   13  C   UNL     1     -11.633  11.872  65.559  1.00  0.00    -0.281 A  
HETATM   14  C   UNL     1     -11.201  11.897  66.891  1.00  0.00    -0.325 A  
HETATM   15  N   UNL     1     -10.459  10.793  67.354  1.00  0.00    -0.211 NA 
HETATM   16  H   UNL     1      -9.822  10.330  66.705  1.00  0.00     0.000 HD 
HETATM   17  C   UNL     1     -10.545  10.334  68.570  1.00  0.00    -0.213 C  
ENDROOT
BRANCH  17  18
HETATM   18  N   UNL     1      -9.788   9.232  68.933  1.00  0.00    -0.161 NA 
HETATM   19  C   UNL     1     -10.001   7.916  68.330  1.00  0.00    -0.180 C  
HETATM   20  C   UNL     1      -8.740   7.398  67.618  1.00  0.00    -0.125 C  
HETATM   21  N   UNL     1      -7.538   7.430  68.474  1.00  0.00    -0.111 NA 
HETATM   22  C   UNL     1      -7.338   8.810  68.957  1.00  0.00    -0.073 C  
HETATM   23  H   UNL     1      -6.713   7.058  68.003  1.00  0.00     0.000 HD 
HETATM   24  C   UNL     1      -8.558   9.371  69.721  1.00  0.00    -0.175 C  
ENDBRANCH  17  18
TORSDOF 1
ENDMDL
MODEL       18
REMARK 921   NORMALIZED FREE ENERGY PREDICTED BY IDOCK:   -6.30 KCAL/MOL
REMARK 922        TOTAL FREE ENERGY PREDICTED BY IDOCK:   -7.03 KCAL/MOL
REMARK 923 INTER-LIGAND FREE ENERGY PREDICTED BY IDOCK:   -6.93 KCAL/MOL
REMARK 924 INTRA-LIGAND FREE ENERGY PREDICTED BY IDOCK:   -0.11 KCAL/MOL
REMARK 927      BINDING AFFINITY PREDICTED BY RF-SCORE:    0.00 PKD
ROOT
HETATM    1 CL   UNL     1     -13.784   9.333  72.589  1.00  0.00    -0.464 Cl 
HETATM    2  C   UNL     1     -12.982  10.471  71.579  1.00  0.00    -0.460 A  
HETATM    3  C   UNL     1     -12.077  10.022  70.621  1.00  0.00    -0.381 A  
HETATM    4  C   UNL     1     -11.436  10.942  69.780  1.00  0.00    -0.390 A  
HETATM    5  C   UNL     1     -11.715  12.301  69.908  1.00  0.00    -0.273 A  
HETATM    6  C   UNL     1     -12.603  12.751  70.889  1.00  0.00    -0.342 A  
HETATM    7  O   UNL     1     -11.125  13.249  69.113  1.00  0.00    -0.253 OA 
HETATM    8  C   UNL     1     -11.452  13.103  67.785  1.00  0.00    -0.313 A  
HETATM    9  C   UNL     1     -13.246  11.832  71.720  1.00  0.00    -0.434 A  
HETATM   10  C   UNL     1     -12.142  14.169  67.194  1.00  0.00    -0.432 A  
HETATM   11  C   UNL     1     -12.523  14.091  65.857  1.00  0.00    -0.513 A  
HETATM   12  C   UNL     1     -12.191  12.963  65.111  1.00  0.00    -0.519 A  
HETATM   13  C   UNL     1     -11.484  11.911  65.707  1.00  0.00    -0.326 A  
HETATM   14  C   UNL     1     -11.107  11.957  67.054  1.00  0.00    -0.302 A  
HETATM   15  N   UNL     1     -10.346  10.882  67.553  1.00  0.00    -0.193 NA 
HETATM   16  H   UNL     1      -9.668  10.438  66.933  1.00  0.00     0.000 HD 
HETATM   17  C   UNL     1     -10.465  10.426  68.768  1.00  0.00    -0.199 C  
ENDROOT
BRANCH  17  18
HETATM   18  N   UNL     1      -9.686   9.353  69.168  1.00  0.00    -0.160 NA 
HETATM   19  C   UNL     1      -8.683   9.479  70.226  1.00  0.00    -0.235 C  
HETATM   20  C   UNL     1      -8.967   8.532  71.405  1.00  0.00    -0.204 C  
HETATM   21  N   UNL     1      -9.161   7.130  70.986  1.00  0.00    -0.150 NA 
HETATM   22  C   UNL     1     -10.255   7.079  69.996  1.00  0.00    -0.194 C  
HETATM   23  H   UNL     1      -9.320   6.504  71.776  1.00  0.00     0.000 HD 
HETATM   24  C   UNL     1     -10.006   7.979  68.766  1.00  0.00    -0.189 C  
ENDBRANCH  17  18
TORSDOF 1
ENDMDL
MODEL       19
REMARK 921   NORMALIZED FREE ENERGY PREDICTED BY IDOCK:   -6.29 KCAL/MOL
REMARK 922        TOTAL FREE ENERGY PREDICTED BY IDOCK:   -7.02 KCAL/MOL
REMARK 923 INTER-LIGAND FREE ENERGY PREDICTED BY IDOCK:   -6.91 KCAL/MOL
REMARK 924 INTRA-LIGAND FREE ENERGY PREDICTED BY IDOCK:   -0.11 KCAL/MOL
REMARK 927      BINDING AFFINITY PREDICTED BY RF-SCORE:    0.00 PKD
ROOT
HETATM    1 CL   UNL     1     -10.278  10.476  64.128  1.00  0.00    -0.373 Cl 
HETATM    2  C   UNL     1     -10.084  10.318  65.830  1.00  0.00    -0.255 A  
HETATM    3  C   UNL     1     -10.563  11.318  66.671  1.00  0.00    -0.309 A  
HETATM    4  C   UNL     1     -10.428  11.187  68.060  1.00  0.00    -0.217 A  
HETATM    5  C   UNL     1      -9.816  10.051  68.587  1.00  0.00    -0.160 A  
HETATM    6  C   UNL     1      -9.311   9.062  67.738  1.00  0.00    -0.156 A  
HETATM    7  O   UNL     1      -9.658   9.862  69.935  1.00  0.00    -0.222 OA 
HETATM    8  C   UNL     1     -10.858   9.769  70.600  1.00  0.00    -0.329 A  
HETATM    9  C   UNL     1      -9.455   9.192  66.355  1.00  0.00    -0.288 A  
HETATM   10  C   UNL     1     -11.112   8.557  71.256  1.00  0.00    -0.320 A  
HETATM   11  C   UNL     1     -12.312   8.378  71.939  1.00  0.00    -0.395 A  
HETATM   12  C   UNL     1     -13.239   9.416  71.985  1.00  0.00    -0.529 A  
HETATM   13  C   UNL     1     -12.967  10.630  71.343  1.00  0.00    -0.545 A  
HETATM   14  C   UNL     1     -11.776  10.828  70.633  1.00  0.00    -0.342 A  
HETATM   15  N   UNL     1     -11.559  12.100  70.069  1.00  0.00    -0.515 NA 
HETATM   16  H   UNL     1     -11.899  12.919  70.574  1.00  0.00     0.000 HD 
HETATM   17  C   UNL     1     -10.947  12.283  68.933  1.00  0.00    -0.219 C  
ENDROOT
BRANCH  17  18
HETATM   18  N   UNL     1     -10.792  13.571  68.447  1.00  0.00    -0.258 NA 
HETATM   19  C   UNL     1      -9.472  14.174  68.266  1.00  0.00    -0.211 C  
HETATM   20  C   UNL     1      -9.217  14.574  66.803  1.00  0.00    -0.267 C  
HETATM   21  N   UNL     1     -10.294  15.410  66.236  1.00  0.00    -0.281 NA 
HETATM   22  C   UNL     1     -11.573  14.686  66.367  1.00  0.00    -0.339 C  
HETATM   23  H   UNL     1     -10.103  15.695  65.275  1.00  0.00     0.000 HD 
HETATM   24  C   UNL     1     -11.906  14.295  67.824  1.00  0.00    -0.379 C  
ENDBRANCH  17  18
TORSDOF 1
ENDMDL
MODEL       20
REMARK 921   NORMALIZED FREE ENERGY PREDICTED BY IDOCK:   -6.27 KCAL/MOL
REMARK 922        TOTAL FREE ENERGY PREDICTED BY IDOCK:   -7.00 KCAL/MOL
REMARK 923 INTER-LIGAND FREE ENERGY PREDICTED BY IDOCK:   -6.99 KCAL/MOL
REMARK 924 INTRA-LIGAND FREE ENERGY PREDICTED BY IDOCK:   -0.01 KCAL/MOL
REMARK 927      BINDING AFFINITY PREDICTED BY RF-SCORE:    0.00 PKD
ROOT
HETATM    1 CL   UNL     1     -10.357  20.298  67.861  1.00  0.00    -0.456 Cl 
HETATM    2  C   UNL     1     -10.101  18.620  67.579  1.00  0.00    -0.360 A  
HETATM    3  C   UNL     1     -10.976  17.690  68.134  1.00  0.00    -0.089 A  
HETATM    4  C   UNL     1     -10.786  16.322  67.891  1.00  0.00    -0.330 A  
HETATM    5  C   UNL     1      -9.723  15.907  67.091  1.00  0.00    -0.224 A  
HETATM    6  C   UNL     1      -8.831  16.842  66.559  1.00  0.00    -0.305 A  
HETATM    7  O   UNL     1      -9.488  14.585  66.813  1.00  0.00    -0.245 OA 
HETATM    8  C   UNL     1     -10.512  14.004  66.102  1.00  0.00    -0.297 A  
HETATM    9  C   UNL     1      -9.028  18.204  66.796  1.00  0.00    -0.289 A  
HETATM   10  C   UNL     1     -10.186  13.518  64.829  1.00  0.00    -0.355 A  
HETATM   11  C   UNL     1     -11.171  12.930  64.040  1.00  0.00    -0.458 A  
HETATM   12  C   UNL     1     -12.467  12.807  64.534  1.00  0.00    -0.501 A  
HETATM   13  C   UNL     1     -12.777  13.279  65.816  1.00  0.00    -0.300 A  
HETATM   14  C   UNL     1     -11.809  13.892  66.621  1.00  0.00    -0.420 A  
HETATM   15  N   UNL     1     -12.195  14.281  67.918  1.00  0.00    -0.595 NA 
HETATM   16  H   UNL     1     -12.865  13.699  68.421  1.00  0.00     0.000 HD 
HETATM   17  C   UNL     1     -11.739  15.350  68.508  1.00  0.00    -0.338 C  
ENDROOT
BRANCH  17  18
HETATM   18  N   UNL     1     -12.187  15.665  69.781  1.00  0.00    -0.332 NA 
HETATM   19  C   UNL     1     -13.527  15.298  70.240  1.00  0.00     0.213 C  
HETATM   20  C   UNL     1     -13.481  14.385  71.477  1.00  0.00    -0.368 C  
HETATM   21  N   UNL     1     -12.648  14.930  72.567  1.00  0.00    -0.342 NA 
HETATM   22  C   UNL     1     -11.289  15.176  72.047  1.00  0.00    -0.271 C  
HETATM   23  H   UNL     1     -12.647  14.332  73.394  1.00  0.00     0.000 HD 
HETATM   24  C   UNL     1     -11.266  16.124  70.827  1.00  0.00    -0.328 C  
ENDBRANCH  17  18
TORSDOF 1
ENDMDL
MODEL       21
REMARK 921   NORMALIZED FREE ENERGY PREDICTED BY IDOCK:   -6.25 KCAL/MOL
REMARK 922        TOTAL FREE ENERGY PREDICTED BY IDOCK:   -6.98 KCAL/MOL
REMARK 923 INTER-LIGAND FREE ENERGY PREDICTED BY IDOCK:   -6.88 KCAL/MOL
REMARK 924 INTRA-LIGAND FREE ENERGY PREDICTED BY IDOCK:   -0.10 KCAL/MOL
REMARK 927      BINDING AFFINITY PREDICTED BY RF-SCORE:    0.00 PKD
ROOT
HETATM    1 CL   UNL     1      -6.981  16.100  67.183  1.00  0.00    -0.234 Cl 
HETATM    2  C   UNL     1      -8.565  16.147  67.851  1.00  0.00    -0.168 A  
HETATM    3  C   UNL     1      -9.402  15.043  67.713  1.00  0.00    -0.186 A  
HETATM    4  C   UNL     1     -10.687  15.067  68.274  1.00  0.00    -0.253 A  
HETATM    5  C   UNL     1     -11.114  16.197  68.968  1.00  0.00    -0.336 A  
HETATM    6  C   UNL     1     -10.281  17.314  69.080  1.00  0.00    -0.283 A  
HETATM    7  O   UNL     1     -12.356  16.279  69.542  1.00  0.00    -0.003 OA 
HETATM    8  C   UNL     1     -12.539  15.351  70.540  1.00  0.00    -0.423 A  
HETATM    9  C   UNL     1      -8.998  17.284  68.529  1.00  0.00    -0.273 A  
HETATM   10  C   UNL     1     -12.776  15.858  71.824  1.00  0.00    -0.466 A  
HETATM   11  C   UNL     1     -12.957  14.982  72.892  1.00  0.00    -0.561 A  
HETATM   12  C   UNL     1     -12.926  13.608  72.667  1.00  0.00    -0.359 A  
HETATM   13  C   UNL     1     -12.707  13.112  71.376  1.00  0.00    -0.390 A  
HETATM   14  C   UNL     1     -12.504  13.971  70.290  1.00  0.00    -0.338 A  
HETATM   15  N   UNL     1     -12.352  13.387  69.018  1.00  0.00    -0.133 NA 
HETATM   16  H   UNL     1     -12.887  12.545  68.804  1.00  0.00     0.000 HD 
HETATM   17  C   UNL     1     -11.561  13.868  68.100  1.00  0.00    -0.335 C  
ENDROOT
BRANCH  17  18
HETATM   18  N   UNL     1     -11.463  13.217  66.881  1.00  0.00    -0.324 NA 
HETATM   19  C   UNL     1     -11.811  13.877  65.623  1.00  0.00    -0.371 C  
HETATM   20  C   UNL     1     -10.618  13.929  64.652  1.00  0.00    -0.412 C  
HETATM   21  N   UNL     1      -9.992  12.610  64.434  1.00  0.00    -0.574 NA 
HETATM   22  C   UNL     1      -9.580  12.061  65.741  1.00  0.00    -0.213 C  
HETATM   23  H   UNL     1      -9.221  12.649  63.767  1.00  0.00     0.000 HD 
HETATM   24  C   UNL     1     -10.747  11.943  66.747  1.00  0.00    -0.246 C  
ENDBRANCH  17  18
TORSDOF 1
ENDMDL
MODEL       22
REMARK 921   NORMALIZED FREE ENERGY PREDICTED BY IDOCK:   -6.20 KCAL/MOL
REMARK 922        TOTAL FREE ENERGY PREDICTED BY IDOCK:   -6.92 KCAL/MOL
REMARK 923 INTER-LIGAND FREE ENERGY PREDICTED BY IDOCK:   -6.56 KCAL/MOL
REMARK 924 INTRA-LIGAND FREE ENERGY PREDICTED BY IDOCK:   -0.36 KCAL/MOL
REMARK 927      BINDING AFFINITY PREDICTED BY RF-SCORE:    0.00 PKD
ROOT
HETATM    1 CL   UNL     1     -12.268  12.663  63.403  1.00  0.00    -0.636 Cl 
HETATM    2  C   UNL     1     -11.342  11.998  64.691  1.00  0.00    -0.318 A  
HETATM    3  C   UNL     1     -11.439  12.553  65.964  1.00  0.00    -0.423 A  
HETATM    4  C   UNL     1     -10.703  12.002  67.023  1.00  0.00    -0.280 A  
HETATM    5  C   UNL     1      -9.884  10.899  66.792  1.00  0.00    -0.195 A  
HETATM    6  C   UNL     1      -9.768  10.362  65.506  1.00  0.00    -0.307 A  
HETATM    7  O   UNL     1      -9.144  10.313  67.786  1.00  0.00    -0.134 OA 
HETATM    8  C   UNL     1      -9.928   9.774  68.779  1.00  0.00    -0.169 A  
HETATM    9  C   UNL     1     -10.508  10.907  64.455  1.00  0.00    -0.393 A  
HETATM   10  C   UNL     1      -9.827   8.390  68.968  1.00  0.00    -0.184 A  
HETATM   11  C   UNL     1     -10.600   7.766  69.944  1.00  0.00    -0.239 A  
HETATM   12  C   UNL     1     -11.448   8.529  70.742  1.00  0.00    -0.281 A  
HETATM   13  C   UNL     1     -11.527   9.915  70.558  1.00  0.00    -0.391 A  
HETATM   14  C   UNL     1     -10.775  10.563  69.571  1.00  0.00    -0.255 A  
HETATM   15  N   UNL     1     -10.871  11.966  69.497  1.00  0.00    -0.460 NA 
HETATM   16  H   UNL     1     -10.983  12.491  70.365  1.00  0.00     0.000 HD 
HETATM   17  C   UNL     1     -10.825  12.627  68.375  1.00  0.00    -0.245 C  
ENDROOT
BRANCH  17  18
HETATM   18  N   UNL     1     -10.944  14.007  68.397  1.00  0.00    -0.243 NA 
HETATM   19  C   UNL     1     -12.146  14.670  68.903  1.00  0.00    -0.216 C  
HETATM   20  C   UNL     1     -11.835  15.596  70.091  1.00  0.00    -0.364 C  
HETATM   21  N   UNL     1     -10.748  16.554  69.809  1.00  0.00    -0.326 NA 
HETATM   22  C   UNL     1      -9.546  15.799  69.404  1.00  0.00    -0.284 C  
HETATM   23  H   UNL     1     -10.568  17.183  70.592  1.00  0.00     0.000 HD 
HETATM   24  C   UNL     1      -9.785  14.881  68.184  1.00  0.00    -0.214 C  
ENDBRANCH  17  18
TORSDOF 1
ENDMDL
MODEL       23
REMARK 921   NORMALIZED FREE ENERGY PREDICTED BY IDOCK:   -6.19 KCAL/MOL
REMARK 922        TOTAL FREE ENERGY PREDICTED BY IDOCK:   -6.91 KCAL/MOL
REMARK 923 INTER-LIGAND FREE ENERGY PREDICTED BY IDOCK:   -6.57 KCAL/MOL
REMARK 924 INTRA-LIGAND FREE ENERGY PREDICTED BY IDOCK:   -0.34 KCAL/MOL
REMARK 927      BINDING AFFINITY PREDICTED BY RF-SCORE:    0.00 PKD
ROOT
HETATM    1 CL   UNL     1     -12.411  16.301  72.581  1.00  0.00    -0.547 Cl 
HETATM    2  C   UNL     1     -11.892  15.643  71.079  1.00  0.00    -0.400 A  
HETATM    3  C   UNL     1     -10.969  16.341  70.306  1.00  0.00    -0.314 A  
HETATM    4  C   UNL     1     -10.525  15.799  69.090  1.00  0.00    -0.240 A  
HETATM    5  C   UNL     1     -11.011  14.564  68.670  1.00  0.00    -0.251 A  
HETATM    6  C   UNL     1     -11.959  13.879  69.436  1.00  0.00    -0.402 A  
HETATM    7  O   UNL     1     -10.613  13.980  67.495  1.00  0.00    -0.257 OA 
HETATM    8  C   UNL     1      -9.270  13.682  67.482  1.00  0.00    -0.218 A  
HETATM    9  C   UNL     1     -12.392  14.416  70.650  1.00  0.00    -0.422 A  
HETATM   10  C   UNL     1      -8.937  12.327  67.354  1.00  0.00    -0.183 A  
HETATM   11  C   UNL     1      -7.598  11.942  67.348  1.00  0.00    -0.151 A  
HETATM   12  C   UNL     1      -6.603  12.911  67.443  1.00  0.00    -0.132 A  
HETATM   13  C   UNL     1      -6.947  14.263  67.551  1.00  0.00    -0.177 A  
HETATM   14  C   UNL     1      -8.285  14.675  67.579  1.00  0.00    -0.188 A  
HETATM   15  N   UNL     1      -8.539  16.059  67.629  1.00  0.00    -0.164 NA 
HETATM   16  H   UNL     1      -7.908  16.686  67.129  1.00  0.00     0.000 HD 
HETATM   17  C   UNL     1      -9.540  16.579  68.282  1.00  0.00    -0.223 C  
ENDROOT
BRANCH  17  18
HETATM   18  N   UNL     1      -9.703  17.955  68.288  1.00  0.00    -0.310 NA 
HETATM   19  C   UNL     1      -8.647  18.855  68.754  1.00  0.00    -0.301 C  
HETATM   20  C   UNL     1      -8.199  19.833  67.655  1.00  0.00    -0.305 C  
HETATM   21  N   UNL     1      -9.324  20.566  67.040  1.00  0.00    -0.581 NA 
HETATM   22  C   UNL     1     -10.291  19.587  66.508  1.00  0.00    -0.482 C  
HETATM   23  H   UNL     1      -9.016  21.234  66.333  1.00  0.00     0.000 HD 
HETATM   24  C   UNL     1     -10.811  18.600  67.577  1.00  0.00    -0.317 C  
ENDBRANCH  17  18
TORSDOF 1
ENDMDL
MODEL       24
REMARK 921   NORMALIZED FREE ENERGY PREDICTED BY IDOCK:   -6.16 KCAL/MOL
REMARK 922        TOTAL FREE ENERGY PREDICTED BY IDOCK:   -6.88 KCAL/MOL
REMARK 923 INTER-LIGAND FREE ENERGY PREDICTED BY IDOCK:   -6.57 KCAL/MOL
REMARK 924 INTRA-LIGAND FREE ENERGY PREDICTED BY IDOCK:   -0.31 KCAL/MOL
REMARK 927      BINDING AFFINITY PREDICTED BY RF-SCORE:    0.00 PKD
ROOT
HETATM    1 CL   UNL     1     -12.771  11.844  63.335  1.00  0.00    -0.655 Cl 
HETATM    2  C   UNL     1     -12.048  12.802  64.567  1.00  0.00    -0.414 A  
HETATM    3  C   UNL     1     -11.509  12.182  65.691  1.00  0.00    -0.408 A  
HETATM    4  C   UNL     1     -10.899  12.955  66.689  1.00  0.00    -0.288 A  
HETATM    5  C   UNL     1     -10.835  14.339  66.544  1.00  0.00    -0.304 A  
HETATM    6  C   UNL     1     -11.401  14.960  65.427  1.00  0.00    -0.346 A  
HETATM    7  O   UNL     1     -10.248  15.148  67.482  1.00  0.00    -0.236 OA 
HETATM    8  C   UNL     1      -8.902  14.900  67.627  1.00  0.00    -0.181 A  
HETATM    9  C   UNL     1     -12.000  14.187  64.431  1.00  0.00    -0.478 A  
HETATM   10  C   UNL     1      -8.039  15.959  67.318  1.00  0.00    -0.213 A  
HETATM   11  C   UNL     1      -6.661  15.782  67.424  1.00  0.00    -0.228 A  
HETATM   12  C   UNL     1      -6.156  14.560  67.862  1.00  0.00    -0.161 A  
HETATM   13  C   UNL     1      -7.029  13.515  68.187  1.00  0.00    -0.118 A  
HETATM   14  C   UNL     1      -8.417  13.662  68.070  1.00  0.00    -0.174 A  
HETATM   15  N   UNL     1      -9.221  12.580  68.476  1.00  0.00    -0.373 NA 
HETATM   16  H   UNL     1      -8.915  12.019  69.272  1.00  0.00     0.000 HD 
HETATM   17  C   UNL     1     -10.338  12.258  67.886  1.00  0.00    -0.208 C  
ENDROOT
BRANCH  17  18
HETATM   18  N   UNL     1     -11.056  11.166  68.344  1.00  0.00    -0.225 NA 
HETATM   19  C   UNL     1     -10.630   9.793  68.073  1.00  0.00    -0.243 C  
HETATM   20  C   UNL     1     -10.369   9.005  69.368  1.00  0.00    -0.213 C  
HETATM   21  N   UNL     1     -11.500   9.060  70.316  1.00  0.00    -0.430 NA 
HETATM   22  C   UNL     1     -11.798  10.475  70.614  1.00  0.00    -0.360 C  
HETATM   23  H   UNL     1     -11.330   8.512  71.159  1.00  0.00     0.000 HD 
HETATM   24  C   UNL     1     -12.112  11.310  69.353  1.00  0.00    -0.315 C  
ENDBRANCH  17  18
TORSDOF 1
ENDMDL
MODEL       25
REMARK 921   NORMALIZED FREE ENERGY PREDICTED BY IDOCK:   -6.03 KCAL/MOL
REMARK 922        TOTAL FREE ENERGY PREDICTED BY IDOCK:   -6.75 KCAL/MOL
REMARK 923 INTER-LIGAND FREE ENERGY PREDICTED BY IDOCK:   -6.39 KCAL/MOL
REMARK 924 INTRA-LIGAND FREE ENERGY PREDICTED BY IDOCK:   -0.36 KCAL/MOL
REMARK 927      BINDING AFFINITY PREDICTED BY RF-SCORE:    0.00 PKD
ROOT
HETATM    1 CL   UNL     1     -11.454  11.350  63.334  1.00  0.00    -0.299 Cl 
HETATM    2  C   UNL     1     -11.602  12.410  64.680  1.00  0.00    -0.343 A  
HETATM    3  C   UNL     1     -10.946  12.106  65.869  1.00  0.00    -0.332 A  
HETATM    4  C   UNL     1     -11.044  12.976  66.964  1.00  0.00    -0.311 A  
HETATM    5  C   UNL     1     -11.798  14.142  66.849  1.00  0.00    -0.431 A  
HETATM    6  C   UNL     1     -12.478  14.431  65.663  1.00  0.00    -0.345 A  
HETATM    7  O   UNL     1     -11.929  15.035  67.881  1.00  0.00    -0.291 OA 
HETATM    8  C   UNL     1     -10.730  15.606  68.242  1.00  0.00    -0.283 A  
HETATM    9  C   UNL     1     -12.371  13.567  64.572  1.00  0.00    -0.406 A  
HETATM   10  C   UNL     1     -10.635  16.996  68.092  1.00  0.00    -0.369 A  
HETATM   11  C   UNL     1      -9.448  17.647  68.421  1.00  0.00    -0.298 A  
HETATM   12  C   UNL     1      -8.375  16.913  68.920  1.00  0.00    -0.208 A  
HETATM   13  C   UNL     1      -8.489  15.527  69.084  1.00  0.00    -0.248 A  
HETATM   14  C   UNL     1      -9.664  14.846  68.743  1.00  0.00    -0.225 A  
HETATM   15  N   UNL     1      -9.710  13.462  68.997  1.00  0.00    -0.396 NA 
HETATM   16  H   UNL     1      -9.232  13.105  69.825  1.00  0.00     0.000 HD 
HETATM   17  C   UNL     1     -10.333  12.615  68.227  1.00  0.00    -0.241 C  
ENDROOT
BRANCH  17  18
HETATM   18  N   UNL     1     -10.312  11.267  68.548  1.00  0.00    -0.195 NA 
HETATM   19  C   UNL     1      -9.084  10.476  68.477  1.00  0.00    -0.154 C  
HETATM   20  C   UNL     1      -8.713   9.866  69.840  1.00  0.00    -0.201 C  
HETATM   21  N   UNL     1      -9.824   9.115  70.458  1.00  0.00    -0.214 NA 
HETATM   22  C   UNL     1     -10.989  10.013  70.585  1.00  0.00    -0.322 C  
HETATM   23  H   UNL     1      -9.561   8.689  71.347  1.00  0.00     0.000 HD 
HETATM   24  C   UNL     1     -11.436  10.624  69.238  1.00  0.00    -0.281 C  
ENDBRANCH  17  18
TORSDOF 1
ENDMDL
MODEL       26
REMARK 921   NORMALIZED FREE ENERGY PREDICTED BY IDOCK:   -6.01 KCAL/MOL
REMARK 922        TOTAL FREE ENERGY PREDICTED BY IDOCK:   -6.72 KCAL/MOL
REMARK 923 INTER-LIGAND FREE ENERGY PREDICTED BY IDOCK:   -6.36 KCAL/MOL
REMARK 924 INTRA-LIGAND FREE ENERGY PREDICTED BY IDOCK:   -0.36 KCAL/MOL
REMARK 927      BINDING AFFINITY PREDICTED BY RF-SCORE:    0.00 PKD
ROOT
HETATM    1 CL   UNL     1     -11.926  16.452  73.117  1.00  0.00    -0.590 Cl 
HETATM    2  C   UNL     1     -11.938  15.679  71.580  1.00  0.00    -0.430 A  
HETATM    3  C   UNL     1     -11.042  16.089  70.598  1.00  0.00    -0.352 A  
HETATM    4  C   UNL     1     -11.032  15.448  69.350  1.00  0.00    -0.276 A  
HETATM    5  C   UNL     1     -11.920  14.403  69.107  1.00  0.00    -0.322 A  
HETATM    6  C   UNL     1     -12.837  14.012  70.087  1.00  0.00    -0.079 A  
HETATM    7  O   UNL     1     -11.956  13.735  67.911  1.00  0.00    -0.362 OA 
HETATM    8  C   UNL     1     -10.784  13.067  67.643  1.00  0.00    -0.227 A  
HETATM    9  C   UNL     1     -12.839  14.646  71.331  1.00  0.00    -0.400 A  
HETATM   10  C   UNL     1     -10.875  11.674  67.527  1.00  0.00    -0.287 A  
HETATM   11  C   UNL     1      -9.729  10.925  67.271  1.00  0.00    -0.189 A  
HETATM   12  C   UNL     1      -8.506  11.571  67.108  1.00  0.00    -0.158 A  
HETATM   13  C   UNL     1      -8.430  12.965  67.207  1.00  0.00    -0.197 A  
HETATM   14  C   UNL     1      -9.564  13.739  67.482  1.00  0.00    -0.219 A  
HETATM   15  N   UNL     1      -9.406  15.138  67.504  1.00  0.00    -0.196 NA 
HETATM   16  H   UNL     1      -8.745  15.562  66.852  1.00  0.00     0.000 HD 
HETATM   17  C   UNL     1     -10.062  15.919  68.316  1.00  0.00    -0.224 C  
ENDROOT
BRANCH  17  18
HETATM   18  N   UNL     1      -9.830  17.284  68.278  1.00  0.00    -0.289 NA 
HETATM   19  C   UNL     1      -8.520  17.854  68.596  1.00  0.00    -0.266 C  
HETATM   20  C   UNL     1      -7.938  18.650  67.415  1.00  0.00    -0.236 C  
HETATM   21  N   UNL     1      -8.871  19.663  66.884  1.00  0.00    -0.315 NA 
HETATM   22  C   UNL     1     -10.126  18.991  66.495  1.00  0.00    -0.403 C  
HETATM   23  H   UNL     1      -8.466  20.205  66.121  1.00  0.00     0.000 HD 
HETATM   24  C   UNL     1     -10.783  18.208  67.653  1.00  0.00    -0.343 C  
ENDBRANCH  17  18
TORSDOF 1
ENDMDL
MODEL       27
REMARK 921   NORMALIZED FREE ENERGY PREDICTED BY IDOCK:   -6.00 KCAL/MOL
REMARK 922        TOTAL FREE ENERGY PREDICTED BY IDOCK:   -6.71 KCAL/MOL
REMARK 923 INTER-LIGAND FREE ENERGY PREDICTED BY IDOCK:   -6.35 KCAL/MOL
REMARK 924 INTRA-LIGAND FREE ENERGY PREDICTED BY IDOCK:   -0.36 KCAL/MOL
REMARK 927      BINDING AFFINITY PREDICTED BY RF-SCORE:    0.00 PKD
ROOT
HETATM    1 CL   UNL     1     -13.011  10.532  70.351  1.00  0.00    -0.302 Cl 
HETATM    2  C   UNL     1     -11.494  10.751  69.570  1.00  0.00    -0.294 A  
HETATM    3  C   UNL     1     -11.388  11.653  68.516  1.00  0.00    -0.332 A  
HETATM    4  C   UNL     1     -10.149  11.852  67.889  1.00  0.00    -0.199 A  
HETATM    5  C   UNL     1      -9.034  11.145  68.331  1.00  0.00    -0.165 A  
HETATM    6  C   UNL     1      -9.150  10.219  69.372  1.00  0.00    -0.203 A  
HETATM    7  O   UNL     1      -7.796  11.298  67.763  1.00  0.00    -0.109 OA 
HETATM    8  C   UNL     1      -7.298  12.571  67.915  1.00  0.00    -0.115 A  
HETATM    9  C   UNL     1     -10.383  10.029  70.000  1.00  0.00    -0.323 A  
HETATM   10  C   UNL     1      -6.110  12.690  68.647  1.00  0.00    -0.067 A  
HETATM   11  C   UNL     1      -5.550  13.948  68.860  1.00  0.00    -0.082 A  
HETATM   12  C   UNL     1      -6.165  15.075  68.319  1.00  0.00    -0.124 A  
HETATM   13  C   UNL     1      -7.342  14.942  67.573  1.00  0.00    -0.229 A  
HETATM   14  C   UNL     1      -7.935  13.691  67.362  1.00  0.00    -0.166 A  
HETATM   15  N   UNL     1      -9.083  13.645  66.548  1.00  0.00    -0.441 NA 
HETATM   16  H   UNL     1      -9.144  14.287  65.758  1.00  0.00     0.000 HD 
HETATM   17  C   UNL     1     -10.073  12.823  66.756  1.00  0.00    -0.236 C  
ENDROOT
BRANCH  17  18
HETATM   18  N   UNL     1     -11.172  12.858  65.912  1.00  0.00    -0.286 NA 
HETATM   19  C   UNL     1     -12.065  14.016  65.858  1.00  0.00    -0.428 C  
HETATM   20  C   UNL     1     -12.118  14.636  64.451  1.00  0.00    -0.462 C  
HETATM   21  N   UNL     1     -12.420  13.649  63.395  1.00  0.00    -1.016 NA 
HETATM   22  C   UNL     1     -11.415  12.570  63.455  1.00  0.00    -0.496 C  
HETATM   23  H   UNL     1     -12.482  14.074  62.470  1.00  0.00     0.000 HD 
HETATM   24  C   UNL     1     -11.345  11.878  64.835  1.00  0.00    -0.277 C  
ENDBRANCH  17  18
TORSDOF 1
ENDMDL
MODEL       28
REMARK 921   NORMALIZED FREE ENERGY PREDICTED BY IDOCK:   -5.99 KCAL/MOL
REMARK 922        TOTAL FREE ENERGY PREDICTED BY IDOCK:   -6.70 KCAL/MOL
REMARK 923 INTER-LIGAND FREE ENERGY PREDICTED BY IDOCK:   -6.38 KCAL/MOL
REMARK 924 INTRA-LIGAND FREE ENERGY PREDICTED BY IDOCK:   -0.32 KCAL/MOL
REMARK 927      BINDING AFFINITY PREDICTED BY RF-SCORE:    0.00 PKD
ROOT
HETATM    1 CL   UNL     1      -7.665  16.068  68.184  1.00  0.00    -0.131 Cl 
HETATM    2  C   UNL     1      -9.023  15.052  68.472  1.00  0.00    -0.186 A  
HETATM    3  C   UNL     1      -9.176  13.884  67.732  1.00  0.00    -0.197 A  
HETATM    4  C   UNL     1     -10.269  13.040  67.976  1.00  0.00    -0.233 A  
HETATM    5  C   UNL     1     -11.192  13.379  68.962  1.00  0.00    -0.275 A  
HETATM    6  C   UNL     1     -11.051  14.567  69.685  1.00  0.00    -0.264 A  
HETATM    7  O   UNL     1     -12.278  12.594  69.251  1.00  0.00    -0.197 OA 
HETATM    8  C   UNL     1     -11.923  11.354  69.729  1.00  0.00    -0.353 A  
HETATM    9  C   UNL     1      -9.956  15.401  69.446  1.00  0.00    -0.272 A  
HETATM   10  C   UNL     1     -12.342  11.046  71.029  1.00  0.00    -0.490 A  
HETATM   11  C   UNL     1     -12.008   9.816  71.590  1.00  0.00    -0.454 A  
HETATM   12  C   UNL     1     -11.281   8.892  70.842  1.00  0.00    -0.334 A  
HETATM   13  C   UNL     1     -10.884   9.204  69.537  1.00  0.00    -0.194 A  
HETATM   14  C   UNL     1     -11.190  10.441  68.957  1.00  0.00    -0.234 A  
HETATM   15  N   UNL     1     -10.804  10.645  67.619  1.00  0.00    -0.270 NA 
HETATM   16  H   UNL     1     -10.836   9.852  66.978  1.00  0.00     0.000 HD 
HETATM   17  C   UNL     1     -10.407  11.798  67.157  1.00  0.00    -0.215 C  
ENDROOT
BRANCH  17  18
HETATM   18  N   UNL     1     -10.029  11.902  65.828  1.00  0.00    -0.231 NA 
HETATM   19  C   UNL     1      -9.031  11.011  65.237  1.00  0.00    -0.163 C  
HETATM   20  C   UNL     1      -9.604  10.206  64.058  1.00  0.00    -0.257 C  
HETATM   21  N   UNL     1     -10.263  11.054  63.045  1.00  0.00    -0.688 NA 
HETATM   22  C   UNL     1     -11.321  11.843  63.705  1.00  0.00    -0.450 C  
HETATM   23  H   UNL     1     -10.614  10.516  62.253  1.00  0.00     0.000 HD 
HETATM   24  C   UNL     1     -10.797  12.708  64.873  1.00  0.00    -0.298 C  
ENDBRANCH  17  18
TORSDOF 1
ENDMDL
MODEL       29
REMARK 921   NORMALIZED FREE ENERGY PREDICTED BY IDOCK:   -5.92 KCAL/MOL
REMARK 922        TOTAL FREE ENERGY PREDICTED BY IDOCK:   -6.63 KCAL/MOL
REMARK 923 INTER-LIGAND FREE ENERGY PREDICTED BY IDOCK:   -6.52 KCAL/MOL
REMARK 924 INTRA-LIGAND FREE ENERGY PREDICTED BY IDOCK:   -0.11 KCAL/MOL
REMARK 927      BINDING AFFINITY PREDICTED BY RF-SCORE:    0.00 PKD
ROOT
HETATM    1 CL   UNL     1     -12.535  12.986  69.849  1.00  0.00    -0.141 Cl 
HETATM    2  C   UNL     1     -11.372  14.079  69.205  1.00  0.00    -0.273 A  
HETATM    3  C   UNL     1     -11.443  14.446  67.865  1.00  0.00    -0.346 A  
HETATM    4  C   UNL     1     -10.512  15.353  67.338  1.00  0.00    -0.277 A  
HETATM    5  C   UNL     1      -9.524  15.882  68.166  1.00  0.00    -0.203 A  
HETATM    6  C   UNL     1      -9.439  15.490  69.505  1.00  0.00    -0.269 A  
HETATM    7  O   UNL     1      -8.589  16.775  67.713  1.00  0.00    -0.194 OA 
HETATM    8  C   UNL     1      -9.149  17.958  67.290  1.00  0.00    -0.251 A  
HETATM    9  C   UNL     1     -10.373  14.593  70.028  1.00  0.00     0.188 A  
HETATM   10  C   UNL     1      -8.766  19.111  67.986  1.00  0.00    -0.347 A  
HETATM   11  C   UNL     1      -9.301  20.346  67.628  1.00  0.00    -0.453 A  
HETATM   12  C   UNL     1     -10.194  20.426  66.563  1.00  0.00    -0.365 A  
HETATM   13  C   UNL     1     -10.555  19.270  65.861  1.00  0.00    -0.521 A  
HETATM   14  C   UNL     1     -10.046  18.014  66.214  1.00  0.00    -0.363 A  
HETATM   15  N   UNL     1     -10.417  16.915  65.415  1.00  0.00    -0.642 NA 
HETATM   16  H   UNL     1     -10.538  17.063  64.413  1.00  0.00     0.000 HD 
HETATM   17  C   UNL     1     -10.613  15.719  65.893  1.00  0.00    -0.339 C  
ENDROOT
BRANCH  17  18
HETATM   18  N   UNL     1     -10.991  14.700  65.034  1.00  0.00    -0.380 NA 
HETATM   19  C   UNL     1     -10.156  13.517  64.824  1.00  0.00    -0.240 C  
HETATM   20  C   UNL     1     -10.887  12.220  65.211  1.00  0.00    -0.293 C  
HETATM   21  N   UNL     1     -12.210  12.088  64.569  1.00  0.00    -0.290 NA 
HETATM   22  C   UNL     1     -13.022  13.271  64.914  1.00  0.00    -0.128 C  
HETATM   23  H   UNL     1     -12.675  11.212  64.808  1.00  0.00     0.000 HD 
HETATM   24  C   UNL     1     -12.358  14.606  64.509  1.00  0.00    -0.398 C  
ENDBRANCH  17  18
TORSDOF 1
ENDMDL
MODEL       30
REMARK 921   NORMALIZED FREE ENERGY PREDICTED BY IDOCK:   -5.92 KCAL/MOL
REMARK 922        TOTAL FREE ENERGY PREDICTED BY IDOCK:   -6.62 KCAL/MOL
REMARK 923 INTER-LIGAND FREE ENERGY PREDICTED BY IDOCK:   -6.51 KCAL/MOL
REMARK 924 INTRA-LIGAND FREE ENERGY PREDICTED BY IDOCK:   -0.11 KCAL/MOL
REMARK 927      BINDING AFFINITY PREDICTED BY RF-SCORE:    0.00 PKD
ROOT
HETATM    1 CL   UNL     1      -9.814  19.926  69.394  1.00  0.00    -0.294 Cl 
HETATM    2  C   UNL     1      -9.909  18.847  68.058  1.00  0.00    -0.352 A  
HETATM    3  C   UNL     1      -9.119  17.702  68.044  1.00  0.00    -0.267 A  
HETATM    4  C   UNL     1      -9.207  16.806  66.968  1.00  0.00    -0.238 A  
HETATM    5  C   UNL     1     -10.090  17.071  65.924  1.00  0.00    -0.263 A  
HETATM    6  C   UNL     1     -10.862  18.236  65.929  1.00  0.00    -0.008 A  
HETATM    7  O   UNL     1     -10.226  16.233  64.847  1.00  0.00    -0.507 OA 
HETATM    8  C   UNL     1     -10.701  14.992  65.201  1.00  0.00    -0.415 A  
HETATM    9  C   UNL     1     -10.779  19.122  67.006  1.00  0.00    -0.542 A  
HETATM   10  C   UNL     1     -11.933  14.618  64.649  1.00  0.00    -0.472 A  
HETATM   11  C   UNL     1     -12.489  13.382  64.970  1.00  0.00    -0.479 A  
HETATM   12  C   UNL     1     -11.801  12.518  65.818  1.00  0.00    -0.494 A  
HETATM   13  C   UNL     1     -10.561  12.893  66.348  1.00  0.00    -0.285 A  
HETATM   14  C   UNL     1      -9.990  14.138  66.056  1.00  0.00    -0.322 A  
HETATM   15  N   UNL     1      -8.713  14.407  66.584  1.00  0.00    -0.439 NA 
HETATM   16  H   UNL     1      -8.047  13.637  66.661  1.00  0.00     0.000 HD 
HETATM   17  C   UNL     1      -8.338  15.591  66.980  1.00  0.00    -0.232 C  
ENDROOT
BRANCH  17  18
HETATM   18  N   UNL     1      -7.066  15.760  67.502  1.00  0.00    -0.168 NA 
HETATM   19  C   UNL     1      -6.065  16.596  66.840  1.00  0.00    -0.134 C  
HETATM   20  C   UNL     1      -5.592  17.750  67.741  1.00  0.00    -0.139 C  
HETATM   21  N   UNL     1      -5.146  17.298  69.073  1.00  0.00    -0.148 NA 
HETATM   22  C   UNL     1      -6.248  16.551  69.712  1.00  0.00    -0.205 C  
HETATM   23  H   UNL     1      -4.807  18.065  69.653  1.00  0.00     0.000 HD 
HETATM   24  C   UNL     1      -6.738  15.351  68.872  1.00  0.00    -0.113 C  
ENDBRANCH  17  18
TORSDOF 1
ENDMDL
MODEL       31
REMARK 921   NORMALIZED FREE ENERGY PREDICTED BY IDOCK:   -5.80 KCAL/MOL
REMARK 922        TOTAL FREE ENERGY PREDICTED BY IDOCK:   -6.50 KCAL/MOL
REMARK 923 INTER-LIGAND FREE ENERGY PREDICTED BY IDOCK:   -6.22 KCAL/MOL
REMARK 924 INTRA-LIGAND FREE ENERGY PREDICTED BY IDOCK:   -0.29 KCAL/MOL
REMARK 927      BINDING AFFINITY PREDICTED BY RF-SCORE:    0.00 PKD
ROOT
HETATM    1 CL   UNL     1      -9.193   9.464  70.850  1.00  0.00    -0.291 Cl 
HETATM    2  C   UNL     1     -10.141  10.376  69.740  1.00  0.00    -0.157 A  
HETATM    3  C   UNL     1     -10.578  11.649  70.095  1.00  0.00     1.052 A  
HETATM    4  C   UNL     1     -11.333  12.406  69.187  1.00  0.00    -0.327 A  
HETATM    5  C   UNL     1     -11.635  11.877  67.935  1.00  0.00    -0.323 A  
HETATM    6  C   UNL     1     -11.217  10.587  67.592  1.00  0.00    -0.338 A  
HETATM    7  O   UNL     1     -12.364  12.569  67.003  1.00  0.00    -0.403 OA 
HETATM    8  C   UNL     1     -11.735  13.719  66.587  1.00  0.00    -0.394 A  
HETATM    9  C   UNL     1     -10.459   9.839  68.495  1.00  0.00    -0.239 A  
HETATM   10  C   UNL     1     -11.403  13.789  65.228  1.00  0.00    -0.310 A  
HETATM   11  C   UNL     1     -10.750  14.915  64.732  1.00  0.00    -0.365 A  
HETATM   12  C   UNL     1     -10.455  15.973  65.588  1.00  0.00    -0.416 A  
HETATM   13  C   UNL     1     -10.809  15.900  66.941  1.00  0.00    -0.240 A  
HETATM   14  C   UNL     1     -11.449  14.772  67.468  1.00  0.00    -0.354 A  
HETATM   15  N   UNL     1     -11.821  14.810  68.825  1.00  0.00    -0.420 NA 
HETATM   16  H   UNL     1     -12.128  15.700  69.219  1.00  0.00     0.000 HD 
HETATM   17  C   UNL     1     -11.793  13.765  69.604  1.00  0.00    -0.333 C  
ENDROOT
BRANCH  17  18
HETATM   18  N   UNL     1     -12.162  13.900  70.932  1.00  0.00    -0.358 NA 
HETATM   19  C   UNL     1     -11.611  14.955  71.784  1.00  0.00    -0.275 C  
HETATM   20  C   UNL     1     -12.708  15.879  72.338  1.00  0.00    -0.444 C  
HETATM   21  N   UNL     1     -13.803  15.144  73.002  1.00  0.00    -0.548 NA 
HETATM   22  C   UNL     1     -14.369  14.174  72.044  1.00  0.00    -0.512 C  
HETATM   23  H   UNL     1     -14.511  15.766  73.391  1.00  0.00     0.000 HD 
HETATM   24  C   UNL     1     -13.320  13.188  71.484  1.00  0.00    -0.222 C  
ENDBRANCH  17  18
TORSDOF 1
ENDMDL
MODEL       32
REMARK 921   NORMALIZED FREE ENERGY PREDICTED BY IDOCK:   -5.78 KCAL/MOL
REMARK 922        TOTAL FREE ENERGY PREDICTED BY IDOCK:   -6.48 KCAL/MOL
REMARK 923 INTER-LIGAND FREE ENERGY PREDICTED BY IDOCK:   -6.37 KCAL/MOL
REMARK 924 INTRA-LIGAND FREE ENERGY PREDICTED BY IDOCK:   -0.11 KCAL/MOL
REMARK 927      BINDING AFFINITY PREDICTED BY RF-SCORE:    0.00 PKD
ROOT
HETATM    1 CL   UNL     1      -6.661   8.879  70.463  1.00  0.00    -0.044 Cl 
HETATM    2  C   UNL     1      -8.157   9.611  70.033  1.00  0.00    -0.178 A  
HETATM    3  C   UNL     1      -9.314   9.266  70.727  1.00  0.00    -0.322 A  
HETATM    4  C   UNL     1     -10.533   9.875  70.396  1.00  0.00    -0.347 A  
HETATM    5  C   UNL     1     -10.574  10.823  69.376  1.00  0.00    -0.221 A  
HETATM    6  C   UNL     1      -9.416  11.146  68.664  1.00  0.00    -0.196 A  
HETATM    7  O   UNL     1     -11.734  11.456  69.010  1.00  0.00    -0.286 OA 
HETATM    8  C   UNL     1     -12.257  12.227  70.021  1.00  0.00    -0.196 A  
HETATM    9  C   UNL     1      -8.202  10.545  69.001  1.00  0.00    -0.145 A  
HETATM   10  C   UNL     1     -12.353  13.602  69.767  1.00  0.00    -0.285 A  
HETATM   11  C   UNL     1     -12.858  14.453  70.747  1.00  0.00    -0.417 A  
HETATM   12  C   UNL     1     -13.288  13.925  71.962  1.00  0.00    -0.523 A  
HETATM   13  C   UNL     1     -13.206  12.547  72.197  1.00  0.00    -0.508 A  
HETATM   14  C   UNL     1     -12.684  11.673  71.236  1.00  0.00    -0.340 A  
HETATM   15  N   UNL     1     -12.695  10.297  71.534  1.00  0.00    -0.414 NA 
HETATM   16  H   UNL     1     -13.477   9.924  72.073  1.00  0.00     0.000 HD 
HETATM   17  C   UNL     1     -11.757   9.476  71.155  1.00  0.00    -0.363 C  
ENDROOT
BRANCH  17  18
HETATM   18  N   UNL     1     -11.843   8.139  71.509  1.00  0.00    -0.283 NA 
HETATM   19  C   UNL     1     -12.000   7.085  70.506  1.00  0.00    -0.266 C  
HETATM   20  C   UNL     1     -10.841   6.074  70.548  1.00  0.00    -0.314 C  
HETATM   21  N   UNL     1     -10.599   5.527  71.898  1.00  0.00    -0.228 NA 
HETATM   22  C   UNL     1     -10.350   6.649  72.825  1.00  0.00    -0.203 C  
HETATM   23  H   UNL     1      -9.849   4.837  71.912  1.00  0.00     0.000 HD 
HETATM   24  C   UNL     1     -11.502   7.678  72.859  1.00  0.00    -0.290 C  
ENDBRANCH  17  18
TORSDOF 1
ENDMDL
MODEL       33
REMARK 921   NORMALIZED FREE ENERGY PREDICTED BY IDOCK:   -5.76 KCAL/MOL
REMARK 922        TOTAL FREE ENERGY PREDICTED BY IDOCK:   -6.46 KCAL/MOL
REMARK 923 INTER-LIGAND FREE ENERGY PREDICTED BY IDOCK:   -6.20 KCAL/MOL
REMARK 924 INTRA-LIGAND FREE ENERGY PREDICTED BY IDOCK:   -0.26 KCAL/MOL
REMARK 927      BINDING AFFINITY PREDICTED BY RF-SCORE:    0.00 PKD
ROOT
HETATM    1 CL   UNL     1     -11.891  16.557  72.997  1.00  0.00    -0.542 Cl 
HETATM    2  C   UNL     1     -11.999  15.567  71.595  1.00  0.00    -0.408 A  
HETATM    3  C   UNL     1     -11.065  15.718  70.574  1.00  0.00    -0.383 A  
HETATM    4  C   UNL     1     -11.134  14.900  69.437  1.00  0.00    -0.296 A  
HETATM    5  C   UNL     1     -12.138  13.939  69.342  1.00  0.00    -0.337 A  
HETATM    6  C   UNL     1     -13.091  13.809  70.357  1.00  0.00     0.083 A  
HETATM    7  O   UNL     1     -12.256  13.107  68.259  1.00  0.00    -0.247 OA 
HETATM    8  C   UNL     1     -11.169  12.276  68.110  1.00  0.00    -0.269 A  
HETATM    9  C   UNL     1     -13.014  14.619  71.491  1.00  0.00    -0.410 A  
HETATM   10  C   UNL     1     -11.421  10.901  68.203  1.00  0.00    -0.368 A  
HETATM   11  C   UNL     1     -10.371   9.995  68.079  1.00  0.00    -0.238 A  
HETATM   12  C   UNL     1      -9.082  10.465  67.837  1.00  0.00    -0.132 A  
HETATM   13  C   UNL     1      -8.845  11.840  67.727  1.00  0.00    -0.163 A  
HETATM   14  C   UNL     1      -9.881  12.772  67.867  1.00  0.00    -0.223 A  
HETATM   15  N   UNL     1      -9.562  14.130  67.681  1.00  0.00    -0.212 NA 
HETATM   16  H   UNL     1      -8.859  14.373  66.982  1.00  0.00     0.000 HD 
HETATM   17  C   UNL     1     -10.120  15.095  68.357  1.00  0.00    -0.225 C  
ENDROOT
BRANCH  17  18
HETATM   18  N   UNL     1      -9.732  16.403  68.118  1.00  0.00    -0.225 NA 
HETATM   19  C   UNL     1      -8.323  16.789  68.046  1.00  0.00    -0.200 C  
HETATM   20  C   UNL     1      -7.963  17.401  66.681  1.00  0.00    -0.258 C  
HETATM   21  N   UNL     1      -8.864  18.503  66.285  1.00  0.00    -0.454 NA 
HETATM   22  C   UNL     1     -10.252  18.002  66.286  1.00  0.00    -0.381 C  
HETATM   23  H   UNL     1      -8.600  18.921  65.393  1.00  0.00     0.000 HD 
HETATM   24  C   UNL     1     -10.687  17.413  67.647  1.00  0.00    -0.310 C  
ENDBRANCH  17  18
TORSDOF 1
ENDMDL
MODEL       34
REMARK 921   NORMALIZED FREE ENERGY PREDICTED BY IDOCK:   -5.73 KCAL/MOL
REMARK 922        TOTAL FREE ENERGY PREDICTED BY IDOCK:   -6.43 KCAL/MOL
REMARK 923 INTER-LIGAND FREE ENERGY PREDICTED BY IDOCK:   -6.43 KCAL/MOL
REMARK 924 INTRA-LIGAND FREE ENERGY PREDICTED BY IDOCK:    0.00 KCAL/MOL
REMARK 927      BINDING AFFINITY PREDICTED BY RF-SCORE:    0.00 PKD
ROOT
HETATM    1 CL   UNL     1     -10.917   9.974  68.199  1.00  0.00    -0.301 Cl 
HETATM    2  C   UNL     1     -10.039  11.407  67.834  1.00  0.00    -0.183 A  
HETATM    3  C   UNL     1     -10.483  12.243  66.813  1.00  0.00    -0.242 A  
HETATM    4  C   UNL     1      -9.784  13.424  66.524  1.00  0.00    -0.284 A  
HETATM    5  C   UNL     1      -8.651  13.751  67.266  1.00  0.00    -0.212 A  
HETATM    6  C   UNL     1      -8.192  12.895  68.271  1.00  0.00    -0.153 A  
HETATM    7  O   UNL     1      -7.927  14.893  67.035  1.00  0.00    -0.207 OA 
HETATM    8  C   UNL     1      -8.656  16.036  67.268  1.00  0.00    -0.184 A  
HETATM    9  C   UNL     1      -8.895  11.725  68.562  1.00  0.00    -0.122 A  
HETATM   10  C   UNL     1      -8.180  16.880  68.280  1.00  0.00    -0.222 A  
HETATM   11  C   UNL     1      -8.870  18.050  68.587  1.00  0.00    -0.272 A  
HETATM   12  C   UNL     1     -10.015  18.383  67.867  1.00  0.00    -0.370 A  
HETATM   13  C   UNL     1     -10.470  17.542  66.844  1.00  0.00    -0.285 A  
HETATM   14  C   UNL     1      -9.805  16.351  66.529  1.00  0.00    -0.274 A  
HETATM   15  N   UNL     1     -10.299  15.598  65.447  1.00  0.00    -0.381 NA 
HETATM   16  H   UNL     1     -10.688  16.096  64.646  1.00  0.00     0.000 HD 
HETATM   17  C   UNL     1     -10.283  14.295  65.417  1.00  0.00    -0.371 C  
ENDROOT
BRANCH  17  18
HETATM   18  N   UNL     1     -10.806  13.636  64.316  1.00  0.00    -0.353 NA 
HETATM   19  C   UNL     1     -10.060  12.589  63.618  1.00  0.00    -0.179 C  
HETATM   20  C   UNL     1     -10.809  11.245  63.627  1.00  0.00    -0.333 C  
HETATM   21  N   UNL     1     -12.200  11.355  63.143  1.00  0.00    -0.853 NA 
HETATM   22  C   UNL     1     -12.908  12.356  63.965  1.00  0.00    -0.267 C  
HETATM   23  H   UNL     1     -12.680  10.455  63.126  1.00  0.00     0.000 HD 
HETATM   24  C   UNL     1     -12.225  13.742  63.960  1.00  0.00    -0.380 C  
ENDBRANCH  17  18
TORSDOF 1
ENDMDL
MODEL       35
REMARK 921   NORMALIZED FREE ENERGY PREDICTED BY IDOCK:   -5.72 KCAL/MOL
REMARK 922        TOTAL FREE ENERGY PREDICTED BY IDOCK:   -6.42 KCAL/MOL
REMARK 923 INTER-LIGAND FREE ENERGY PREDICTED BY IDOCK:   -6.10 KCAL/MOL
REMARK 924 INTRA-LIGAND FREE ENERGY PREDICTED BY IDOCK:   -0.32 KCAL/MOL
REMARK 927      BINDING AFFINITY PREDICTED BY RF-SCORE:    0.00 PKD
ROOT
HETATM    1 CL   UNL     1     -10.896  19.965  65.336  1.00  0.00    -0.348 Cl 
HETATM    2  C   UNL     1     -10.309  18.870  66.526  1.00  0.00    -0.431 A  
HETATM    3  C   UNL     1     -10.228  17.513  66.229  1.00  0.00    -0.356 A  
HETATM    4  C   UNL     1      -9.730  16.617  67.186  1.00  0.00    -0.250 A  
HETATM    5  C   UNL     1      -9.318  17.097  68.428  1.00  0.00    -0.273 A  
HETATM    6  C   UNL     1      -9.427  18.457  68.732  1.00  0.00    -0.317 A  
HETATM    7  O   UNL     1      -8.819  16.273  69.403  1.00  0.00    -0.204 OA 
HETATM    8  C   UNL     1      -7.647  15.659  69.027  1.00  0.00    -0.187 A  
HETATM    9  C   UNL     1      -9.915  19.347  67.774  1.00  0.00    -0.484 A  
HETATM   10  C   UNL     1      -6.516  15.954  69.799  1.00  0.00    -0.163 A  
HETATM   11  C   UNL     1      -5.288  15.384  69.473  1.00  0.00    -0.099 A  
HETATM   12  C   UNL     1      -5.201  14.504  68.397  1.00  0.00    -0.105 A  
HETATM   13  C   UNL     1      -6.342  14.200  67.645  1.00  0.00    -0.129 A  
HETATM   14  C   UNL     1      -7.584  14.775  67.940  1.00  0.00    -0.139 A  
HETATM   15  N   UNL     1      -8.689  14.366  67.169  1.00  0.00    -0.216 NA 
HETATM   16  H   UNL     1      -8.730  13.397  66.855  1.00  0.00     0.000 HD 
HETATM   17  C   UNL     1      -9.664  15.166  66.837  1.00  0.00    -0.239 C  
ENDROOT
BRANCH  17  18
HETATM   18  N   UNL     1     -10.704  14.680  66.061  1.00  0.00    -0.302 NA 
HETATM   19  C   UNL     1     -10.540  14.409  64.633  1.00  0.00    -0.306 C  
HETATM   20  C   UNL     1     -10.815  12.934  64.293  1.00  0.00    -0.397 C  
HETATM   21  N   UNL     1     -12.115  12.455  64.805  1.00  0.00    -0.419 NA 
HETATM   22  C   UNL     1     -12.156  12.673  66.264  1.00  0.00    -0.289 C  
HETATM   23  H   UNL     1     -12.302  11.485  64.550  1.00  0.00     0.000 HD 
HETATM   24  C   UNL     1     -11.929  14.147  66.667  1.00  0.00    -0.444 C  
ENDBRANCH  17  18
TORSDOF 1
ENDMDL
MODEL       36
REMARK 921   NORMALIZED FREE ENERGY PREDICTED BY IDOCK:   -5.69 KCAL/MOL
REMARK 922        TOTAL FREE ENERGY PREDICTED BY IDOCK:   -6.38 KCAL/MOL
REMARK 923 INTER-LIGAND FREE ENERGY PREDICTED BY IDOCK:   -6.30 KCAL/MOL
REMARK 924 INTRA-LIGAND FREE ENERGY PREDICTED BY IDOCK:   -0.08 KCAL/MOL
REMARK 927      BINDING AFFINITY PREDICTED BY RF-SCORE:    0.00 PKD
ROOT
HETATM    1 CL   UNL     1      -6.609  14.311  67.420  1.00  0.00    -0.078 Cl 
HETATM    2  C   UNL     1      -8.259  14.204  67.895  1.00  0.00    -0.155 A  
HETATM    3  C   UNL     1      -9.008  13.089  67.528  1.00  0.00    -0.193 A  
HETATM    4  C   UNL     1     -10.347  12.985  67.930  1.00  0.00    -0.233 A  
HETATM    5  C   UNL     1     -10.916  13.999  68.696  1.00  0.00    -0.263 A  
HETATM    6  C   UNL     1     -10.169  15.130  69.039  1.00  0.00    -0.241 A  
HETATM    7  O   UNL     1     -12.218  13.954  69.123  1.00  0.00    -0.356 OA 
HETATM    8  C   UNL     1     -12.458  12.901  69.975  1.00  0.00    -0.015 A  
HETATM    9  C   UNL     1      -8.833  15.227  68.645  1.00  0.00    -0.188 A  
HETATM   10  C   UNL     1     -12.869  13.233  71.273  1.00  0.00    -0.398 A  
HETATM   11  C   UNL     1     -13.117  12.224  72.200  1.00  0.00    -0.406 A  
HETATM   12  C   UNL     1     -12.979  10.892  71.820  1.00  0.00    -0.557 A  
HETATM   13  C   UNL     1     -12.587  10.570  70.515  1.00  0.00    -0.423 A  
HETATM   14  C   UNL     1     -12.313  11.567  69.570  1.00  0.00    -0.124 A  
HETATM   15  N   UNL     1     -11.984  11.152  68.266  1.00  0.00    -0.692 NA 
HETATM   16  H   UNL     1     -12.440  10.320  67.891  1.00  0.00     0.000 HD 
HETATM   17  C   UNL     1     -11.124  11.778  67.512  1.00  0.00    -0.272 C  
ENDROOT
BRANCH  17  18
HETATM   18  N   UNL     1     -10.850  11.289  66.246  1.00  0.00    -0.264 NA 
HETATM   19  C   UNL     1     -11.277  11.993  65.037  1.00  0.00    -0.320 C  
HETATM   20  C   UNL     1     -10.085  12.380  64.145  1.00  0.00    -0.295 C  
HETATM   21  N   UNL     1      -9.195  11.242  63.841  1.00  0.00    -0.396 NA 
HETATM   22  C   UNL     1      -8.730  10.653  65.112  1.00  0.00    -0.186 C  
HETATM   23  H   UNL     1      -8.424  11.501  63.226  1.00  0.00     0.000 HD 
HETATM   24  C   UNL     1      -9.885  10.203  66.035  1.00  0.00    -0.246 C  
ENDBRANCH  17  18
TORSDOF 1
ENDMDL
MODEL       37
REMARK 921   NORMALIZED FREE ENERGY PREDICTED BY IDOCK:   -5.68 KCAL/MOL
REMARK 922        TOTAL FREE ENERGY PREDICTED BY IDOCK:   -6.38 KCAL/MOL
REMARK 923 INTER-LIGAND FREE ENERGY PREDICTED BY IDOCK:   -6.02 KCAL/MOL
REMARK 924 INTRA-LIGAND FREE ENERGY PREDICTED BY IDOCK:   -0.36 KCAL/MOL
REMARK 927      BINDING AFFINITY PREDICTED BY RF-SCORE:    0.00 PKD
ROOT
HETATM    1 CL   UNL     1     -12.765  14.800  70.842  1.00  0.00    -0.381 Cl 
HETATM    2  C   UNL     1     -12.589  13.090  70.925  1.00  0.00    -0.280 A  
HETATM    3  C   UNL     1     -11.594  12.466  70.179  1.00  0.00    -0.159 A  
HETATM    4  C   UNL     1     -11.430  11.076  70.258  1.00  0.00    -0.363 A  
HETATM    5  C   UNL     1     -12.266  10.331  71.088  1.00  0.00    -0.397 A  
HETATM    6  C   UNL     1     -13.281  10.958  71.815  1.00  0.00    -0.513 A  
HETATM    7  O   UNL     1     -12.153   8.971  71.211  1.00  0.00    -0.295 OA 
HETATM    8  C   UNL     1     -10.946   8.587  71.747  1.00  0.00    -0.306 A  
HETATM    9  C   UNL     1     -13.436  12.344  71.740  1.00  0.00    -0.261 A  
HETATM   10  C   UNL     1     -10.997   7.905  72.969  1.00  0.00    -0.398 A  
HETATM   11  C   UNL     1      -9.817   7.496  73.585  1.00  0.00    -0.348 A  
HETATM   12  C   UNL     1      -8.595   7.747  72.965  1.00  0.00    -0.218 A  
HETATM   13  C   UNL     1      -8.556   8.412  71.733  1.00  0.00    -0.234 A  
HETATM   14  C   UNL     1      -9.728   8.850  71.104  1.00  0.00    -0.274 A  
HETATM   15  N   UNL     1      -9.599   9.457  69.840  1.00  0.00    -0.196 NA 
HETATM   16  H   UNL     1      -8.876   9.112  69.208  1.00  0.00     0.000 HD 
HETATM   17  C   UNL     1     -10.357  10.437  69.437  1.00  0.00    -0.237 C  
ENDROOT
BRANCH  17  18
HETATM   18  N   UNL     1     -10.148  10.984  68.181  1.00  0.00    -0.174 NA 
HETATM   19  C   UNL     1      -8.943  11.751  67.865  1.00  0.00    -0.180 C  
HETATM   20  C   UNL     1      -8.143  11.117  66.714  1.00  0.00    -0.155 C  
HETATM   21  N   UNL     1      -8.965  10.852  65.516  1.00  0.00    -0.196 NA 
HETATM   22  C   UNL     1     -10.100   9.991  65.902  1.00  0.00    -0.249 C  
HETATM   23  H   UNL     1      -8.421  10.458  64.748  1.00  0.00     0.000 HD 
HETATM   24  C   UNL     1     -10.968  10.596  67.028  1.00  0.00    -0.208 C  
ENDBRANCH  17  18
TORSDOF 1
ENDMDL
MODEL       38
REMARK 921   NORMALIZED FREE ENERGY PREDICTED BY IDOCK:   -5.67 KCAL/MOL
REMARK 922        TOTAL FREE ENERGY PREDICTED BY IDOCK:   -6.36 KCAL/MOL
REMARK 923 INTER-LIGAND FREE ENERGY PREDICTED BY IDOCK:   -7.27 KCAL/MOL
REMARK 924 INTRA-LIGAND FREE ENERGY PREDICTED BY IDOCK:    0.91 KCAL/MOL
REMARK 927      BINDING AFFINITY PREDICTED BY RF-SCORE:    0.00 PKD
ROOT
HETATM    1 CL   UNL     1      -7.940   7.639  69.608  1.00  0.00    -0.121 Cl 
HETATM    2  C   UNL     1      -9.180   8.760  69.201  1.00  0.00    -0.149 A  
HETATM    3  C   UNL     1     -10.106   9.139  70.168  1.00  0.00    -0.233 A  
HETATM    4  C   UNL     1     -11.107  10.069  69.850  1.00  0.00    -0.336 A  
HETATM    5  C   UNL     1     -11.161  10.608  68.567  1.00  0.00    -0.282 A  
HETATM    6  C   UNL     1     -10.245  10.204  67.591  1.00  0.00    -0.246 A  
HETATM    7  O   UNL     1     -12.111  11.523  68.196  1.00  0.00    -0.604 OA 
HETATM    8  C   UNL     1     -12.016  12.700  68.903  1.00  0.00    -0.242 A  
HETATM    9  C   UNL     1      -9.245   9.285  67.913  1.00  0.00    -0.140 A  
HETATM   10  C   UNL     1     -11.743  13.853  68.156  1.00  0.00    -0.388 A  
HETATM   11  C   UNL     1     -11.616  15.081  68.800  1.00  0.00    -0.357 A  
HETATM   12  C   UNL     1     -11.788  15.155  70.180  1.00  0.00    -0.351 A  
HETATM   13  C   UNL     1     -12.080  13.999  70.914  1.00  0.00    -0.404 A  
HETATM   14  C   UNL     1     -12.194  12.750  70.292  1.00  0.00    -0.277 A  
HETATM   15  N   UNL     1     -12.549  11.652  71.099  1.00  0.00    -0.378 NA 
HETATM   16  H   UNL     1     -13.198  11.807  71.871  1.00  0.00     0.000 HD 
HETATM   17  C   UNL     1     -12.090  10.447  70.909  1.00  0.00    -0.374 C  
ENDROOT
BRANCH  17  18
HETATM   18  N   UNL     1     -12.483   9.430  71.764  1.00  0.00    -0.366 NA 
HETATM   19  C   UNL     1     -13.879   9.003  71.866  1.00  0.00    -0.423 C  
HETATM   20  C   UNL     1     -14.055   7.519  71.501  1.00  0.00    -0.427 C  
HETATM   21  N   UNL     1     -13.144   6.628  72.247  1.00  0.00    -0.526 NA 
HETATM   22  C   UNL     1     -11.755   7.065  72.009  1.00  0.00    -0.295 C  
HETATM   23  H   UNL     1     -13.288   5.644  72.020  1.00  0.00     0.000 HD 
HETATM   24  C   UNL     1     -11.504   8.539  72.398  1.00  0.00    -0.349 C  
ENDBRANCH  17  18
TORSDOF 1
ENDMDL
MODEL       39
REMARK 921   NORMALIZED FREE ENERGY PREDICTED BY IDOCK:   -5.61 KCAL/MOL
REMARK 922        TOTAL FREE ENERGY PREDICTED BY IDOCK:   -6.30 KCAL/MOL
REMARK 923 INTER-LIGAND FREE ENERGY PREDICTED BY IDOCK:   -5.98 KCAL/MOL
REMARK 924 INTRA-LIGAND FREE ENERGY PREDICTED BY IDOCK:   -0.32 KCAL/MOL
REMARK 927      BINDING AFFINITY PREDICTED BY RF-SCORE:    0.00 PKD
ROOT
HETATM    1 CL   UNL     1      -8.320   4.186  72.357  1.00  0.00    -0.098 Cl 
HETATM    2  C   UNL     1      -9.072   4.838  70.953  1.00  0.00    -0.134 A  
HETATM    3  C   UNL     1      -9.818   6.008  71.055  1.00  0.00    -0.220 A  
HETATM    4  C   UNL     1     -10.416   6.557  69.912  1.00  0.00    -0.258 A  
HETATM    5  C   UNL     1     -10.254   5.925  68.681  1.00  0.00    -0.192 A  
HETATM    6  C   UNL     1      -9.528   4.734  68.587  1.00  0.00    -0.208 A  
HETATM    7  O   UNL     1     -10.810   6.414  67.527  1.00  0.00    -0.276 OA 
HETATM    8  C   UNL     1     -10.313   7.650  67.184  1.00  0.00    -0.315 A  
HETATM    9  C   UNL     1      -8.926   4.195  69.726  1.00  0.00    -0.156 A  
HETATM   10  C   UNL     1      -9.635   7.728  65.960  1.00  0.00    -0.006 A  
HETATM   11  C   UNL     1      -9.089   8.941  65.548  1.00  0.00    -0.248 A  
HETATM   12  C   UNL     1      -9.244  10.072  66.346  1.00  0.00    -0.191 A  
HETATM   13  C   UNL     1      -9.941   9.987  67.558  1.00  0.00    -0.232 A  
HETATM   14  C   UNL     1     -10.482   8.775  68.003  1.00  0.00    -0.204 A  
HETATM   15  N   UNL     1     -11.218   8.794  69.203  1.00  0.00    -0.413 NA 
HETATM   16  H   UNL     1     -11.781   9.618  69.414  1.00  0.00     0.000 HD 
HETATM   17  C   UNL     1     -11.216   7.810  70.058  1.00  0.00    -0.117 C  
ENDROOT
BRANCH  17  18
HETATM   18  N   UNL     1     -11.959   7.923  71.223  1.00  0.00    -0.296 NA 
HETATM   19  C   UNL     1     -11.808   9.064  72.127  1.00  0.00    -0.313 C  
HETATM   20  C   UNL     1     -13.125   9.839  72.299  1.00  0.00    -0.356 C  
HETATM   21  N   UNL     1     -14.260   8.974  72.678  1.00  0.00    -0.930 NA 
HETATM   22  C   UNL     1     -14.405   7.913  71.663  1.00  0.00    -0.479 C  
HETATM   23  H   UNL     1     -15.122   9.501  72.819  1.00  0.00     0.000 HD 
HETATM   24  C   UNL     1     -13.125   7.070  71.475  1.00  0.00    -0.339 C  
ENDBRANCH  17  18
TORSDOF 1
ENDMDL
MODEL       40
REMARK 921   NORMALIZED FREE ENERGY PREDICTED BY IDOCK:   -5.60 KCAL/MOL
REMARK 922        TOTAL FREE ENERGY PREDICTED BY IDOCK:   -6.29 KCAL/MOL
REMARK 923 INTER-LIGAND FREE ENERGY PREDICTED BY IDOCK:   -5.93 KCAL/MOL
REMARK 924 INTRA-LIGAND FREE ENERGY PREDICTED BY IDOCK:   -0.36 KCAL/MOL
REMARK 927      BINDING AFFINITY PREDICTED BY RF-SCORE:    0.00 PKD
ROOT
HETATM    1 CL   UNL     1      -9.034  16.135  66.222  1.00  0.00    -0.352 Cl 
HETATM    2  C   UNL     1      -9.940  14.748  66.684  1.00  0.00    -0.264 A  
HETATM    3  C   UNL     1      -9.378  13.483  66.543  1.00  0.00    -0.227 A  
HETATM    4  C   UNL     1     -10.104  12.349  66.938  1.00  0.00    -0.230 A  
HETATM    5  C   UNL     1     -11.381  12.502  67.471  1.00  0.00    -0.312 A  
HETATM    6  C   UNL     1     -11.953  13.772  67.586  1.00  0.00    -0.392 A  
HETATM    7  O   UNL     1     -12.138  11.434  67.879  1.00  0.00    -0.646 OA 
HETATM    8  C   UNL     1     -11.565  10.749  68.926  1.00  0.00    -0.291 A  
HETATM    9  C   UNL     1     -11.225  14.900  67.200  1.00  0.00    -0.345 A  
HETATM   10  C   UNL     1     -12.294  10.718  70.121  1.00  0.00    -0.401 A  
HETATM   11  C   UNL     1     -11.775  10.058  71.232  1.00  0.00    -0.452 A  
HETATM   12  C   UNL     1     -10.544   9.412  71.136  1.00  0.00    -0.403 A  
HETATM   13  C   UNL     1      -9.833   9.434  69.930  1.00  0.00    -0.235 A  
HETATM   14  C   UNL     1     -10.325  10.107  68.805  1.00  0.00    -0.194 A  
HETATM   15  N   UNL     1      -9.571  10.025  67.619  1.00  0.00    -0.147 NA 
HETATM   16  H   UNL     1      -9.078   9.155  67.416  1.00  0.00     0.000 HD 
HETATM   17  C   UNL     1      -9.474  11.005  66.765  1.00  0.00    -0.182 C  
ENDROOT
BRANCH  17  18
HETATM   18  N   UNL     1      -8.696  10.841  65.630  1.00  0.00    -0.187 NA 
HETATM   19  C   UNL     1      -7.243  10.686  65.706  1.00  0.00    -0.104 C  
HETATM   20  C   UNL     1      -6.775   9.350  65.104  1.00  0.00    -0.080 C  
HETATM   21  N   UNL     1      -7.290   9.118  63.740  1.00  0.00    -0.099 NA 
HETATM   22  C   UNL     1      -8.763   9.191  63.772  1.00  0.00    -0.125 C  
HETATM   23  H   UNL     1      -6.951   8.244  63.338  1.00  0.00     0.000 HD 
HETATM   24  C   UNL     1      -9.295  10.531  64.328  1.00  0.00    -0.267 C  
ENDBRANCH  17  18
TORSDOF 1
ENDMDL
MODEL       41
REMARK 921   NORMALIZED FREE ENERGY PREDICTED BY IDOCK:   -5.58 KCAL/MOL
REMARK 922        TOTAL FREE ENERGY PREDICTED BY IDOCK:   -6.26 KCAL/MOL
REMARK 923 INTER-LIGAND FREE ENERGY PREDICTED BY IDOCK:   -5.90 KCAL/MOL
REMARK 924 INTRA-LIGAND FREE ENERGY PREDICTED BY IDOCK:   -0.36 KCAL/MOL
REMARK 927      BINDING AFFINITY PREDICTED BY RF-SCORE:    0.00 PKD
ROOT
HETATM    1 CL   UNL     1      -8.470   7.871  65.136  1.00  0.00    -0.130 Cl 
HETATM    2  C   UNL     1      -8.736   8.421  66.744  1.00  0.00    -0.128 A  
HETATM    3  C   UNL     1      -9.492   9.570  66.961  1.00  0.00    -0.197 A  
HETATM    4  C   UNL     1      -9.730  10.013  68.270  1.00  0.00    -0.155 A  
HETATM    5  C   UNL     1      -9.209   9.294  69.344  1.00  0.00    -0.159 A  
HETATM    6  C   UNL     1      -8.428   8.157  69.122  1.00  0.00    -0.135 A  
HETATM    7  O   UNL     1      -9.411   9.673  70.646  1.00  0.00    -0.244 OA 
HETATM    8  C   UNL     1     -10.738   9.638  71.007  1.00  0.00    -0.323 A  
HETATM    9  C   UNL     1      -8.199   7.714  67.817  1.00  0.00    -0.119 A  
HETATM   10  C   UNL     1     -11.079   8.751  72.036  1.00  0.00    -0.441 A  
HETATM   11  C   UNL     1     -12.405   8.646  72.449  1.00  0.00    -0.426 A  
HETATM   12  C   UNL     1     -13.377   9.444  71.850  1.00  0.00    -0.508 A  
HETATM   13  C   UNL     1     -13.022  10.341  70.836  1.00  0.00    -0.456 A  
HETATM   14  C   UNL     1     -11.699  10.451  70.390  1.00  0.00    -0.331 A  
HETATM   15  N   UNL     1     -11.423  11.422  69.408  1.00  0.00    -0.282 NA 
HETATM   16  H   UNL     1     -11.941  12.301  69.435  1.00  0.00     0.000 HD 
HETATM   17  C   UNL     1     -10.539  11.254  68.466  1.00  0.00    -0.199 C  
ENDROOT
BRANCH  17  18
HETATM   18  N   UNL     1     -10.345  12.258  67.531  1.00  0.00    -0.202 NA 
HETATM   19  C   UNL     1     -11.390  12.641  66.581  1.00  0.00    -0.326 C  
HETATM   20  C   UNL     1     -11.790  14.118  66.731  1.00  0.00    -0.425 C  
HETATM   21  N   UNL     1     -10.636  15.038  66.689  1.00  0.00    -0.295 NA 
HETATM   22  C   UNL     1      -9.679  14.644  67.742  1.00  0.00    -0.215 C  
HETATM   23  H   UNL     1     -10.913  16.017  66.760  1.00  0.00     0.000 HD 
HETATM   24  C   UNL     1      -9.206  13.179  67.619  1.00  0.00    -0.207 C  
ENDBRANCH  17  18
TORSDOF 1
ENDMDL
MODEL       42
REMARK 921   NORMALIZED FREE ENERGY PREDICTED BY IDOCK:   -5.56 KCAL/MOL
REMARK 922        TOTAL FREE ENERGY PREDICTED BY IDOCK:   -6.24 KCAL/MOL
REMARK 923 INTER-LIGAND FREE ENERGY PREDICTED BY IDOCK:   -6.14 KCAL/MOL
REMARK 924 INTRA-LIGAND FREE ENERGY PREDICTED BY IDOCK:   -0.11 KCAL/MOL
REMARK 927      BINDING AFFINITY PREDICTED BY RF-SCORE:    0.00 PKD
ROOT
HETATM    1 CL   UNL     1     -11.607  17.198  73.155  1.00  0.00     0.240 Cl 
HETATM    2  C   UNL     1     -12.194  15.734  72.469  1.00  0.00    -0.472 A  
HETATM    3  C   UNL     1     -11.483  15.126  71.438  1.00  0.00    -0.405 A  
HETATM    4  C   UNL     1     -11.944  13.921  70.888  1.00  0.00    -0.310 A  
HETATM    5  C   UNL     1     -13.109  13.341  71.383  1.00  0.00    -0.277 A  
HETATM    6  C   UNL     1     -13.835  13.968  72.401  1.00  0.00    -0.653 A  
HETATM    7  O   UNL     1     -13.608  12.162  70.892  1.00  0.00     0.616 OA 
HETATM    8  C   UNL     1     -12.755  11.102  71.094  1.00  0.00    -0.408 A  
HETATM    9  C   UNL     1     -13.369  15.163  72.952  1.00  0.00    -0.603 A  
HETATM   10  C   UNL     1     -13.238  10.061  71.896  1.00  0.00    -0.557 A  
HETATM   11  C   UNL     1     -12.429   8.959  72.161  1.00  0.00    -0.459 A  
HETATM   12  C   UNL     1     -11.155   8.891  71.604  1.00  0.00    -0.420 A  
HETATM   13  C   UNL     1     -10.689   9.928  70.787  1.00  0.00    -0.350 A  
HETATM   14  C   UNL     1     -11.476  11.056  70.522  1.00  0.00    -0.145 A  
HETATM   15  N   UNL     1     -10.951  12.021  69.642  1.00  0.00    -0.459 NA 
HETATM   16  H   UNL     1     -10.378  11.705  68.859  1.00  0.00     0.000 HD 
HETATM   17  C   UNL     1     -11.161  13.301  69.777  1.00  0.00     0.039 C  
ENDROOT
BRANCH  17  18
HETATM   18  N   UNL     1     -10.591  14.180  68.871  1.00  0.00    -0.247 NA 
HETATM   19  C   UNL     1     -11.406  15.016  67.989  1.00  0.00    -0.327 C  
HETATM   20  C   UNL     1     -11.143  16.515  68.213  1.00  0.00    -0.321 C  
HETATM   21  N   UNL     1      -9.711  16.867  68.147  1.00  0.00    -0.247 NA 
HETATM   22  C   UNL     1      -8.978  16.053  69.135  1.00  0.00    -0.252 C  
HETATM   23  H   UNL     1      -9.548  17.867  68.267  1.00  0.00     0.000 HD 
HETATM   24  C   UNL     1      -9.169  14.533  68.935  1.00  0.00    -0.118 C  
ENDBRANCH  17  18
TORSDOF 1
ENDMDL
MODEL       43
REMARK 921   NORMALIZED FREE ENERGY PREDICTED BY IDOCK:   -5.50 KCAL/MOL
REMARK 922        TOTAL FREE ENERGY PREDICTED BY IDOCK:   -6.18 KCAL/MOL
REMARK 923 INTER-LIGAND FREE ENERGY PREDICTED BY IDOCK:   -5.99 KCAL/MOL
REMARK 924 INTRA-LIGAND FREE ENERGY PREDICTED BY IDOCK:   -0.20 KCAL/MOL
REMARK 927      BINDING AFFINITY PREDICTED BY RF-SCORE:    0.00 PKD
ROOT
HETATM    1 CL   UNL     1     -13.748  12.809  72.130  1.00  0.00    -0.537 Cl 
HETATM    2  C   UNL     1     -12.532  13.746  71.354  1.00  0.00    -0.318 A  
HETATM    3  C   UNL     1     -11.925  13.262  70.199  1.00  0.00    -0.388 A  
HETATM    4  C   UNL     1     -10.948  14.030  69.549  1.00  0.00    -0.138 A  
HETATM    5  C   UNL     1     -10.597  15.276  70.065  1.00  0.00    -0.270 A  
HETATM    6  C   UNL     1     -11.190  15.747  71.241  1.00  0.00    -0.376 A  
HETATM    7  O   UNL     1      -9.654  16.075  69.474  1.00  0.00    -0.254 OA 
HETATM    8  C   UNL     1     -10.020  16.478  68.211  1.00  0.00    -0.250 A  
HETATM    9  C   UNL     1     -12.168  14.983  71.881  1.00  0.00    -0.427 A  
HETATM   10  C   UNL     1     -10.171  17.858  68.019  1.00  0.00    -0.381 A  
HETATM   11  C   UNL     1     -10.555  18.345  66.771  1.00  0.00    -0.367 A  
HETATM   12  C   UNL     1     -10.760  17.456  65.719  1.00  0.00    -0.120 A  
HETATM   13  C   UNL     1     -10.586  16.081  65.917  1.00  0.00    -0.338 A  
HETATM   14  C   UNL     1     -10.220  15.565  67.166  1.00  0.00    -0.260 A  
HETATM   15  N   UNL     1     -10.009  14.176  67.259  1.00  0.00    -0.246 NA 
HETATM   16  H   UNL     1      -9.600  13.692  66.459  1.00  0.00     0.000 HD 
HETATM   17  C   UNL     1     -10.310  13.477  68.317  1.00  0.00    -0.252 C  
ENDROOT
BRANCH  17  18
HETATM   18  N   UNL     1     -10.083  12.110  68.313  1.00  0.00    -0.206 NA 
HETATM   19  C   UNL     1     -11.050  11.168  67.750  1.00  0.00    -0.285 C  
HETATM   20  C   UNL     1     -10.448  10.345  66.598  1.00  0.00    -0.215 C  
HETATM   21  N   UNL     1      -9.176   9.687  66.960  1.00  0.00    -0.140 NA 
HETATM   22  C   UNL     1      -8.226  10.718  67.421  1.00  0.00    -0.116 C  
HETATM   23  H   UNL     1      -8.799   9.120  66.201  1.00  0.00     0.000 HD 
HETATM   24  C   UNL     1      -8.758  11.551  68.608  1.00  0.00    -0.103 C  
ENDBRANCH  17  18
TORSDOF 1
ENDMDL
MODEL       44
REMARK 921   NORMALIZED FREE ENERGY PREDICTED BY IDOCK:   -5.50 KCAL/MOL
REMARK 922        TOTAL FREE ENERGY PREDICTED BY IDOCK:   -6.18 KCAL/MOL
REMARK 923 INTER-LIGAND FREE ENERGY PREDICTED BY IDOCK:   -5.86 KCAL/MOL
REMARK 924 INTRA-LIGAND FREE ENERGY PREDICTED BY IDOCK:   -0.32 KCAL/MOL
REMARK 927      BINDING AFFINITY PREDICTED BY RF-SCORE:    0.00 PKD
ROOT
HETATM    1 CL   UNL     1      -8.519   8.293  63.329  1.00  0.00    -0.034 Cl 
HETATM    2  C   UNL     1      -8.595   9.069  64.863  1.00  0.00    -0.180 A  
HETATM    3  C   UNL     1      -9.581  10.022  65.101  1.00  0.00    -0.356 A  
HETATM    4  C   UNL     1      -9.662  10.643  66.356  1.00  0.00    -0.241 A  
HETATM    5  C   UNL     1      -8.755  10.297  67.355  1.00  0.00    -0.128 A  
HETATM    6  C   UNL     1      -7.749   9.360  67.102  1.00  0.00    -0.091 A  
HETATM    7  O   UNL     1      -8.785  10.865  68.602  1.00  0.00    -0.142 OA 
HETATM    8  C   UNL     1      -9.947  10.584  69.282  1.00  0.00    -0.213 A  
HETATM    9  C   UNL     1      -7.676   8.737  65.855  1.00  0.00    -0.094 A  
HETATM   10  C   UNL     1      -9.810   9.862  70.475  1.00  0.00    -0.122 A  
HETATM   11  C   UNL     1     -10.941   9.525  71.214  1.00  0.00    -0.440 A  
HETATM   12  C   UNL     1     -12.198   9.932  70.773  1.00  0.00    -0.380 A  
HETATM   13  C   UNL     1     -12.322  10.670  69.590  1.00  0.00    -0.209 A  
HETATM   14  C   UNL     1     -11.202  11.004  68.819  1.00  0.00    -0.266 A  
HETATM   15  N   UNL     1     -11.414  11.800  67.676  1.00  0.00    -0.375 NA 
HETATM   16  H   UNL     1     -12.140  12.516  67.711  1.00  0.00     0.000 HD 
HETATM   17  C   UNL     1     -10.728  11.667  66.576  1.00  0.00    -0.272 C  
ENDROOT
BRANCH  17  18
HETATM   18  N   UNL     1     -11.017  12.484  65.495  1.00  0.00    -0.279 NA 
HETATM   19  C   UNL     1     -12.374  12.607  64.962  1.00  0.00    -0.497 C  
HETATM   20  C   UNL     1     -12.886  14.057  65.022  1.00  0.00    -0.258 C  
HETATM   21  N   UNL     1     -11.956  15.025  64.408  1.00  0.00    -0.609 NA 
HETATM   22  C   UNL     1     -10.642  14.904  65.070  1.00  0.00    -0.422 C  
HETATM   23  H   UNL     1     -12.316  15.979  64.426  1.00  0.00     0.000 HD 
HETATM   24  C   UNL     1     -10.055  13.477  65.004  1.00  0.00    -0.256 C  
ENDBRANCH  17  18
TORSDOF 1
ENDMDL
MODEL       45
REMARK 921   NORMALIZED FREE ENERGY PREDICTED BY IDOCK:   -5.45 KCAL/MOL
REMARK 922        TOTAL FREE ENERGY PREDICTED BY IDOCK:   -6.13 KCAL/MOL
REMARK 923 INTER-LIGAND FREE ENERGY PREDICTED BY IDOCK:   -6.05 KCAL/MOL
REMARK 924 INTRA-LIGAND FREE ENERGY PREDICTED BY IDOCK:   -0.08 KCAL/MOL
REMARK 927      BINDING AFFINITY PREDICTED BY RF-SCORE:    0.00 PKD
ROOT
HETATM    1 CL   UNL     1     -10.996  12.913  63.606  1.00  0.00    -0.392 Cl 
HETATM    2  C   UNL     1     -10.687  12.494  65.245  1.00  0.00    -0.286 A  
HETATM    3  C   UNL     1     -10.690  13.488  66.220  1.00  0.00    -0.288 A  
HETATM    4  C   UNL     1     -10.460  13.151  67.562  1.00  0.00    -0.229 A  
HETATM    5  C   UNL     1     -10.234  11.820  67.907  1.00  0.00    -0.191 A  
HETATM    6  C   UNL     1     -10.204  10.829  66.922  1.00  0.00    -0.274 A  
HETATM    7  O   UNL     1     -10.007  11.427  69.201  1.00  0.00    -0.121 OA 
HETATM    8  C   UNL     1     -11.085  11.666  70.022  1.00  0.00     0.164 A  
HETATM    9  C   UNL     1     -10.442  11.167  65.588  1.00  0.00    -0.308 A  
HETATM   10  C   UNL     1     -11.676  10.543  70.613  1.00  0.00    -0.453 A  
HETATM   11  C   UNL     1     -12.781  10.700  71.446  1.00  0.00    -0.545 A  
HETATM   12  C   UNL     1     -13.273  11.977  71.703  1.00  0.00    -0.361 A  
HETATM   13  C   UNL     1     -12.662  13.095  71.122  1.00  0.00    -0.386 A  
HETATM   14  C   UNL     1     -11.562  12.962  70.266  1.00  0.00     0.029 A  
HETATM   15  N   UNL     1     -10.974  14.143  69.776  1.00  0.00    -0.455 NA 
HETATM   16  H   UNL     1     -10.947  14.961  70.385  1.00  0.00     0.000 HD 
HETATM   17  C   UNL     1     -10.462  14.243  68.581  1.00  0.00    -0.249 C  
ENDROOT
BRANCH  17  18
HETATM   18  N   UNL     1      -9.918  15.452  68.176  1.00  0.00    -0.220 NA 
HETATM   19  C   UNL     1      -8.535  15.558  67.713  1.00  0.00    -0.152 C  
HETATM   20  C   UNL     1      -8.450  16.085  66.270  1.00  0.00    -0.302 C  
HETATM   21  N   UNL     1      -9.204  17.339  66.067  1.00  0.00    -0.514 NA 
HETATM   22  C   UNL     1     -10.608  17.115  66.462  1.00  0.00    -0.172 C  
HETATM   23  H   UNL     1      -9.118  17.696  65.116  1.00  0.00     0.000 HD 
HETATM   24  C   UNL     1     -10.760  16.625  67.920  1.00  0.00    -0.344 C  
ENDBRANCH  17  18
TORSDOF 1
ENDMDL
MODEL       46
REMARK 921   NORMALIZED FREE ENERGY PREDICTED BY IDOCK:   -5.45 KCAL/MOL
REMARK 922        TOTAL FREE ENERGY PREDICTED BY IDOCK:   -6.13 KCAL/MOL
REMARK 923 INTER-LIGAND FREE ENERGY PREDICTED BY IDOCK:   -5.77 KCAL/MOL
REMARK 924 INTRA-LIGAND FREE ENERGY PREDICTED BY IDOCK:   -0.36 KCAL/MOL
REMARK 927      BINDING AFFINITY PREDICTED BY RF-SCORE:    0.00 PKD
ROOT
HETATM    1 CL   UNL     1      -6.012   7.084  70.961  1.00  0.00    -0.035 Cl 
HETATM    2  C   UNL     1      -7.172   7.342  69.718  1.00  0.00    -0.082 A  
HETATM    3  C   UNL     1      -8.402   7.912  70.034  1.00  0.00    -0.121 A  
HETATM    4  C   UNL     1      -9.345   8.145  69.022  1.00  0.00    -0.147 A  
HETATM    5  C   UNL     1      -9.038   7.806  67.706  1.00  0.00    -0.134 A  
HETATM    6  C   UNL     1      -7.813   7.208  67.397  1.00  0.00    -0.112 A  
HETATM    7  O   UNL     1      -9.915   8.013  66.673  1.00  0.00    -0.245 OA 
HETATM    8  C   UNL     1     -10.195   9.345  66.476  1.00  0.00    -0.238 A  
HETATM    9  C   UNL     1      -6.873   6.986  68.405  1.00  0.00    -0.074 A  
HETATM   10  C   UNL     1      -9.829   9.880  65.234  1.00  0.00    -0.373 A  
HETATM   11  C   UNL     1     -10.064  11.225  64.963  1.00  0.00    -0.331 A  
HETATM   12  C   UNL     1     -10.686  12.022  65.922  1.00  0.00    -0.314 A  
HETATM   13  C   UNL     1     -11.065  11.472  67.153  1.00  0.00    -0.355 A  
HETATM   14  C   UNL     1     -10.822  10.127  67.456  1.00  0.00    -0.290 A  
HETATM   15  N   UNL     1     -11.291   9.645  68.693  1.00  0.00    -0.482 NA 
HETATM   16  H   UNL     1     -12.171  10.014  69.056  1.00  0.00     0.000 HD 
HETATM   17  C   UNL     1     -10.658   8.751  69.398  1.00  0.00    -0.209 C  
ENDROOT
BRANCH  17  18
HETATM   18  N   UNL     1     -11.187   8.346  70.613  1.00  0.00    -0.258 NA 
HETATM   19  C   UNL     1     -11.423   9.292  71.705  1.00  0.00    -0.398 C  
HETATM   20  C   UNL     1     -12.905   9.336  72.117  1.00  0.00    -0.408 C  
HETATM   21  N   UNL     1     -13.465   8.000  72.405  1.00  0.00    -0.536 NA 
HETATM   22  C   UNL     1     -13.275   7.142  71.220  1.00  0.00    -0.272 C  
HETATM   23  H   UNL     1     -14.439   8.041  72.706  1.00  0.00     0.000 HD 
HETATM   24  C   UNL     1     -11.798   7.024  70.783  1.00  0.00    -0.355 C  
ENDBRANCH  17  18
TORSDOF 1
ENDMDL
MODEL       47
REMARK 921   NORMALIZED FREE ENERGY PREDICTED BY IDOCK:   -5.43 KCAL/MOL
REMARK 922        TOTAL FREE ENERGY PREDICTED BY IDOCK:   -6.11 KCAL/MOL
REMARK 923 INTER-LIGAND FREE ENERGY PREDICTED BY IDOCK:   -6.00 KCAL/MOL
REMARK 924 INTRA-LIGAND FREE ENERGY PREDICTED BY IDOCK:   -0.11 KCAL/MOL
REMARK 927      BINDING AFFINITY PREDICTED BY RF-SCORE:    0.00 PKD
ROOT
HETATM    1 CL   UNL     1     -12.594  12.031  63.448  1.00  0.00    -0.681 Cl 
HETATM    2  C   UNL     1     -11.950  12.695  64.898  1.00  0.00    -0.406 A  
HETATM    3  C   UNL     1     -10.721  12.245  65.373  1.00  0.00    -0.320 A  
HETATM    4  C   UNL     1     -10.180  12.797  66.543  1.00  0.00    -0.261 A  
HETATM    5  C   UNL     1     -10.878  13.794  67.220  1.00  0.00    -0.285 A  
HETATM    6  C   UNL     1     -12.125  14.224  66.755  1.00  0.00    -0.446 A  
HETATM    7  O   UNL     1     -10.401  14.376  68.365  1.00  0.00    -0.231 OA 
HETATM    8  C   UNL     1      -9.225  15.059  68.161  1.00  0.00    -0.183 A  
HETATM    9  C   UNL     1     -12.657  13.679  65.585  1.00  0.00    -0.531 A  
HETATM   10  C   UNL     1      -9.256  16.437  68.411  1.00  0.00    -0.217 A  
HETATM   11  C   UNL     1      -8.109  17.203  68.213  1.00  0.00    -0.239 A  
HETATM   12  C   UNL     1      -6.934  16.585  67.791  1.00  0.00    -0.160 A  
HETATM   13  C   UNL     1      -6.909  15.204  67.562  1.00  0.00    -0.203 A  
HETATM   14  C   UNL     1      -8.054  14.416  67.736  1.00  0.00    -0.168 A  
HETATM   15  N   UNL     1      -7.922  13.028  67.542  1.00  0.00    -0.166 NA 
HETATM   16  H   UNL     1      -7.047  12.580  67.817  1.00  0.00     0.000 HD 
HETATM   17  C   UNL     1      -8.862  12.286  67.028  1.00  0.00    -0.205 C  
ENDROOT
BRANCH  17  18
HETATM   18  N   UNL     1      -8.639  10.929  66.859  1.00  0.00    -0.133 NA 
HETATM   19  C   UNL     1      -9.393   9.923  67.608  1.00  0.00    -0.140 C  
HETATM   20  C   UNL     1     -10.171   8.977  66.677  1.00  0.00    -0.263 C  
HETATM   21  N   UNL     1      -9.326   8.373  65.628  1.00  0.00    -0.425 NA 
HETATM   22  C   UNL     1      -8.682   9.455  64.858  1.00  0.00    -0.190 C  
HETATM   23  H   UNL     1      -9.843   7.725  65.034  1.00  0.00     0.000 HD 
HETATM   24  C   UNL     1      -7.849  10.415  65.735  1.00  0.00    -0.150 C  
ENDBRANCH  17  18
TORSDOF 1
ENDMDL
MODEL       48
REMARK 921   NORMALIZED FREE ENERGY PREDICTED BY IDOCK:   -5.43 KCAL/MOL
REMARK 922        TOTAL FREE ENERGY PREDICTED BY IDOCK:   -6.11 KCAL/MOL
REMARK 923 INTER-LIGAND FREE ENERGY PREDICTED BY IDOCK:   -6.00 KCAL/MOL
REMARK 924 INTRA-LIGAND FREE ENERGY PREDICTED BY IDOCK:   -0.11 KCAL/MOL
REMARK 927      BINDING AFFINITY PREDICTED BY RF-SCORE:    0.00 PKD
ROOT
HETATM    1 CL   UNL     1     -12.035  13.072  63.211  1.00  0.00    -0.601 Cl 
HETATM    2  C   UNL     1     -11.134  12.185  64.377  1.00  0.00    -0.333 A  
HETATM    3  C   UNL     1     -10.923  12.730  65.640  1.00  0.00    -0.302 A  
HETATM    4  C   UNL     1     -10.207  12.004  66.604  1.00  0.00    -0.229 A  
HETATM    5  C   UNL     1      -9.717  10.739  66.287  1.00  0.00    -0.205 A  
HETATM    6  C   UNL     1      -9.908  10.207  65.009  1.00  0.00    -0.392 A  
HETATM    7  O   UNL     1      -9.015   9.979  67.185  1.00  0.00    -0.134 OA 
HETATM    8  C   UNL     1      -9.766   9.633  68.285  1.00  0.00    -0.146 A  
HETATM    9  C   UNL     1     -10.628  10.928  64.055  1.00  0.00    -0.310 A  
HETATM   10  C   UNL     1      -9.978   8.263  68.486  1.00  0.00    -0.206 A  
HETATM   11  C   UNL     1     -10.741   7.832  69.568  1.00  0.00    -0.200 A  
HETATM   12  C   UNL     1     -11.265   8.768  70.457  1.00  0.00    -0.278 A  
HETATM   13  C   UNL     1     -11.030  10.133  70.258  1.00  0.00    -0.380 A  
HETATM   14  C   UNL     1     -10.283  10.593  69.166  1.00  0.00    -0.220 A  
HETATM   15  N   UNL     1     -10.046  11.978  69.078  1.00  0.00    -0.416 NA 
HETATM   16  H   UNL     1      -9.910  12.503  69.942  1.00  0.00     0.000 HD 
HETATM   17  C   UNL     1      -9.992  12.623  67.946  1.00  0.00    -0.228 C  
ENDROOT
BRANCH  17  18
HETATM   18  N   UNL     1      -9.769  13.990  67.956  1.00  0.00    -0.215 NA 
HETATM   19  C   UNL     1      -8.585  14.584  67.335  1.00  0.00    -0.201 C  
HETATM   20  C   UNL     1      -8.957  15.578  66.222  1.00  0.00    -0.327 C  
HETATM   21  N   UNL     1      -9.928  16.601  66.660  1.00  0.00    -0.270 NA 
HETATM   22  C   UNL     1     -11.130  15.919  67.177  1.00  0.00    -0.148 C  
HETATM   23  H   UNL     1     -10.146  17.273  65.924  1.00  0.00     0.000 HD 
HETATM   24  C   UNL     1     -10.826  14.937  68.330  1.00  0.00    -0.257 C  
ENDBRANCH  17  18
TORSDOF 1
ENDMDL
MODEL       49
REMARK 921   NORMALIZED FREE ENERGY PREDICTED BY IDOCK:   -5.40 KCAL/MOL
REMARK 922        TOTAL FREE ENERGY PREDICTED BY IDOCK:   -6.08 KCAL/MOL
REMARK 923 INTER-LIGAND FREE ENERGY PREDICTED BY IDOCK:   -6.01 KCAL/MOL
REMARK 924 INTRA-LIGAND FREE ENERGY PREDICTED BY IDOCK:   -0.07 KCAL/MOL
REMARK 927      BINDING AFFINITY PREDICTED BY RF-SCORE:    0.00 PKD
ROOT
HETATM    1 CL   UNL     1      -6.897   7.351  69.405  1.00  0.00    -0.051 Cl 
HETATM    2  C   UNL     1      -8.297   8.246  68.958  1.00  0.00    -0.120 A  
HETATM    3  C   UNL     1      -9.326   8.415  69.880  1.00  0.00    -0.155 A  
HETATM    4  C   UNL     1     -10.461   9.161  69.530  1.00  0.00    -0.226 A  
HETATM    5  C   UNL     1     -10.545   9.730  68.261  1.00  0.00    -0.229 A  
HETATM    6  C   UNL     1      -9.521   9.535  67.329  1.00  0.00    -0.170 A  
HETATM    7  O   UNL     1     -11.625  10.474  67.861  1.00  0.00    -0.461 OA 
HETATM    8  C   UNL     1     -11.782  11.620  68.605  1.00  0.00    -0.325 A  
HETATM    9  C   UNL     1      -8.389   8.799  67.683  1.00  0.00    -0.114 A  
HETATM   10  C   UNL     1     -11.684  12.831  67.908  1.00  0.00    -0.408 A  
HETATM   11  C   UNL     1     -11.816  14.037  68.593  1.00  0.00    -0.396 A  
HETATM   12  C   UNL     1     -12.070  14.026  69.962  1.00  0.00    -0.412 A  
HETATM   13  C   UNL     1     -12.186  12.809  70.645  1.00  0.00    -0.374 A  
HETATM   14  C   UNL     1     -12.038  11.585  69.983  1.00  0.00    -0.331 A  
HETATM   15  N   UNL     1     -12.230  10.411  70.737  1.00  0.00    -0.328 NA 
HETATM   16  H   UNL     1     -12.936  10.417  71.474  1.00  0.00     0.000 HD 
HETATM   17  C   UNL     1     -11.550   9.316  70.540  1.00  0.00    -0.217 C  
ENDROOT
BRANCH  17  18
HETATM   18  N   UNL     1     -11.796   8.213  71.342  1.00  0.00    -0.289 NA 
HETATM   19  C   UNL     1     -12.155   6.913  70.776  1.00  0.00    -0.349 C  
HETATM   20  C   UNL     1     -11.145   5.819  71.160  1.00  0.00    -0.187 C  
HETATM   21  N   UNL     1     -10.897   5.744  72.614  1.00  0.00    -0.238 NA 
HETATM   22  C   UNL     1     -10.442   7.067  73.084  1.00  0.00    -0.303 C  
HETATM   23  H   UNL     1     -10.248   4.998  72.862  1.00  0.00     0.000 HD 
HETATM   24  C   UNL     1     -11.439   8.204  72.765  1.00  0.00    -0.329 C  
ENDBRANCH  17  18
TORSDOF 1
ENDMDL
MODEL       50
REMARK 921   NORMALIZED FREE ENERGY PREDICTED BY IDOCK:   -5.32 KCAL/MOL
REMARK 922        TOTAL FREE ENERGY PREDICTED BY IDOCK:   -6.00 KCAL/MOL
REMARK 923 INTER-LIGAND FREE ENERGY PREDICTED BY IDOCK:   -5.66 KCAL/MOL
REMARK 924 INTRA-LIGAND FREE ENERGY PREDICTED BY IDOCK:   -0.33 KCAL/MOL
REMARK 927      BINDING AFFINITY PREDICTED BY RF-SCORE:    0.00 PKD
ROOT
HETATM    1 CL   UNL     1     -10.728   4.722  65.811  1.00  0.00    -0.307 Cl 
HETATM    2  C   UNL     1     -10.506   5.604  67.271  1.00  0.00    -0.258 A  
HETATM    3  C   UNL     1     -10.443   6.994  67.230  1.00  0.00    -0.363 A  
HETATM    4  C   UNL     1     -10.283   7.721  68.419  1.00  0.00    -0.230 A  
HETATM    5  C   UNL     1     -10.193   7.043  69.632  1.00  0.00    -0.202 A  
HETATM    6  C   UNL     1     -10.229   5.646  69.666  1.00  0.00    -0.321 A  
HETATM    7  O   UNL     1     -10.041   7.697  70.828  1.00  0.00    -0.189 OA 
HETATM    8  C   UNL     1     -11.113   8.503  71.129  1.00  0.00    -0.260 A  
HETATM    9  C   UNL     1     -10.396   4.926  68.482  1.00  0.00    -0.035 A  
HETATM   10  C   UNL     1     -11.824   8.182  72.293  1.00  0.00    -0.441 A  
HETATM   11  C   UNL     1     -12.933   8.942  72.659  1.00  0.00    -0.334 A  
HETATM   12  C   UNL     1     -13.309  10.031  71.876  1.00  0.00    -0.516 A  
HETATM   13  C   UNL     1     -12.580  10.354  70.726  1.00  0.00    -0.462 A  
HETATM   14  C   UNL     1     -11.474   9.595  70.326  1.00  0.00    -0.233 A  
HETATM   15  N   UNL     1     -10.764  10.028  69.190  1.00  0.00    -0.210 NA 
HETATM   16  H   UNL     1     -10.677  11.032  69.026  1.00  0.00     0.000 HD 
HETATM   17  C   UNL     1     -10.212   9.211  68.338  1.00  0.00    -0.200 C  
ENDROOT
BRANCH  17  18
HETATM   18  N   UNL     1      -9.546   9.728  67.238  1.00  0.00    -0.153 NA 
HETATM   19  C   UNL     1     -10.194  10.653  66.308  1.00  0.00    -0.245 C  
HETATM   20  C   UNL     1      -9.460  12.003  66.234  1.00  0.00    -0.229 C  
HETATM   21  N   UNL     1      -8.016  11.863  65.964  1.00  0.00    -0.242 NA 
HETATM   22  C   UNL     1      -7.422  11.000  67.004  1.00  0.00    -0.127 C  
HETATM   23  H   UNL     1      -7.543  12.763  65.889  1.00  0.00     0.000 HD 
HETATM   24  C   UNL     1      -8.090   9.610  67.097  1.00  0.00    -0.110 C  
ENDBRANCH  17  18
TORSDOF 1
ENDMDL
MODEL       51
REMARK 921   NORMALIZED FREE ENERGY PREDICTED BY IDOCK:   -5.32 KCAL/MOL
REMARK 922        TOTAL FREE ENERGY PREDICTED BY IDOCK:   -5.99 KCAL/MOL
REMARK 923 INTER-LIGAND FREE ENERGY PREDICTED BY IDOCK:   -5.63 KCAL/MOL
REMARK 924 INTRA-LIGAND FREE ENERGY PREDICTED BY IDOCK:   -0.36 KCAL/MOL
REMARK 927      BINDING AFFINITY PREDICTED BY RF-SCORE:    0.00 PKD
ROOT
HETATM    1 CL   UNL     1      -7.588  10.050  62.506  1.00  0.00    -0.125 Cl 
HETATM    2  C   UNL     1      -8.908  10.558  63.484  1.00  0.00    -0.202 A  
HETATM    3  C   UNL     1      -8.981  10.140  64.810  1.00  0.00    -0.236 A  
HETATM    4  C   UNL     1     -10.043  10.568  65.620  1.00  0.00    -0.333 A  
HETATM    5  C   UNL     1     -11.016  11.413  65.088  1.00  0.00    -0.192 A  
HETATM    6  C   UNL     1     -10.954  11.808  63.749  1.00  0.00    -0.500 A  
HETATM    7  O   UNL     1     -12.075  11.869  65.829  1.00  0.00    -0.451 OA 
HETATM    8  C   UNL     1     -11.680  12.658  66.885  1.00  0.00    -0.383 A  
HETATM    9  C   UNL     1      -9.890  11.387  62.948  1.00  0.00    -0.314 A  
HETATM   10  C   UNL     1     -12.132  13.984  66.872  1.00  0.00    -0.465 A  
HETATM   11  C   UNL     1     -11.763  14.850  67.898  1.00  0.00    -0.344 A  
HETATM   12  C   UNL     1     -10.969  14.382  68.942  1.00  0.00    -0.269 A  
HETATM   13  C   UNL     1     -10.539  13.050  68.955  1.00  0.00    -0.079 A  
HETATM   14  C   UNL     1     -10.880  12.164  67.926  1.00  0.00    -0.217 A  
HETATM   15  N   UNL     1     -10.456  10.828  68.051  1.00  0.00    -0.183 NA 
HETATM   16  H   UNL     1     -10.429  10.412  68.983  1.00  0.00     0.000 HD 
HETATM   17  C   UNL     1     -10.095  10.094  67.036  1.00  0.00    -0.223 C  
ENDROOT
BRANCH  17  18
HETATM   18  N   UNL     1      -9.675   8.792  67.255  1.00  0.00    -0.171 NA 
HETATM   19  C   UNL     1      -8.508   8.487  68.083  1.00  0.00    -0.134 C  
HETATM   20  C   UNL     1      -8.871   7.600  69.286  1.00  0.00    -0.136 C  
HETATM   21  N   UNL     1      -9.616   6.384  68.904  1.00  0.00    -0.127 NA 
HETATM   22  C   UNL     1     -10.828   6.785  68.163  1.00  0.00    -0.228 C  
HETATM   23  H   UNL     1      -9.828   5.788  69.704  1.00  0.00     0.000 HD 
HETATM   24  C   UNL     1     -10.524   7.645  66.915  1.00  0.00    -0.318 C  
ENDBRANCH  17  18
TORSDOF 1
ENDMDL
MODEL       52
REMARK 921   NORMALIZED FREE ENERGY PREDICTED BY IDOCK:   -5.28 KCAL/MOL
REMARK 922        TOTAL FREE ENERGY PREDICTED BY IDOCK:   -5.95 KCAL/MOL
REMARK 923 INTER-LIGAND FREE ENERGY PREDICTED BY IDOCK:   -5.84 KCAL/MOL
REMARK 924 INTRA-LIGAND FREE ENERGY PREDICTED BY IDOCK:   -0.11 KCAL/MOL
REMARK 927      BINDING AFFINITY PREDICTED BY RF-SCORE:    0.00 PKD
ROOT
HETATM    1 CL   UNL     1     -10.652   9.124  71.222  1.00  0.00    -0.372 Cl 
HETATM    2  C   UNL     1     -10.809  10.368  70.044  1.00  0.00    -0.289 A  
HETATM    3  C   UNL     1      -9.838  10.503  69.055  1.00  0.00    -0.224 A  
HETATM    4  C   UNL     1      -9.971  11.501  68.079  1.00  0.00    -0.197 A  
HETATM    5  C   UNL     1     -11.077  12.347  68.106  1.00  0.00    -0.247 A  
HETATM    6  C   UNL     1     -12.035  12.226  69.117  1.00  0.00    -0.303 A  
HETATM    7  O   UNL     1     -11.266  13.338  67.178  1.00  0.00    -0.281 OA 
HETATM    8  C   UNL     1     -11.423  12.846  65.904  1.00  0.00    -0.346 A  
HETATM    9  C   UNL     1     -11.905  11.226  70.083  1.00  0.00    -0.449 A  
HETATM   10  C   UNL     1     -12.649  13.113  65.281  1.00  0.00    -0.531 A  
HETATM   11  C   UNL     1     -12.892  12.635  63.996  1.00  0.00    -0.262 A  
HETATM   12  C   UNL     1     -11.902  11.916  63.331  1.00  0.00    -0.512 A  
HETATM   13  C   UNL     1     -10.672  11.672  63.955  1.00  0.00    -0.459 A  
HETATM   14  C   UNL     1     -10.411  12.125  65.253  1.00  0.00    -0.276 A  
HETATM   15  N   UNL     1      -9.127  11.886  65.779  1.00  0.00    -0.416 NA 
HETATM   16  H   UNL     1      -8.329  11.920  65.144  1.00  0.00     0.000 HD 
HETATM   17  C   UNL     1      -8.907  11.623  67.037  1.00  0.00    -0.177 C  
ENDROOT
BRANCH  17  18
HETATM   18  N   UNL     1      -7.610  11.385  67.462  1.00  0.00    -0.111 NA 
HETATM   19  C   UNL     1      -6.942  12.260  68.426  1.00  0.00    -0.082 C  
HETATM   20  C   UNL     1      -6.522  11.502  69.696  1.00  0.00    -0.129 C  
HETATM   21  N   UNL     1      -5.736  10.285  69.411  1.00  0.00    -0.037 NA 
HETATM   22  C   UNL     1      -6.523   9.414  68.516  1.00  0.00    -0.053 C  
HETATM   23  H   UNL     1      -5.437   9.805  70.259  1.00  0.00     0.000 HD 
HETATM   24  C   UNL     1      -6.938  10.108  67.200  1.00  0.00    -0.087 C  
ENDBRANCH  17  18
TORSDOF 1
ENDMDL
MODEL       53
REMARK 921   NORMALIZED FREE ENERGY PREDICTED BY IDOCK:   -5.20 KCAL/MOL
REMARK 922        TOTAL FREE ENERGY PREDICTED BY IDOCK:   -5.86 KCAL/MOL
REMARK 923 INTER-LIGAND FREE ENERGY PREDICTED BY IDOCK:   -5.58 KCAL/MOL
REMARK 924 INTRA-LIGAND FREE ENERGY PREDICTED BY IDOCK:   -0.28 KCAL/MOL
REMARK 927      BINDING AFFINITY PREDICTED BY RF-SCORE:    0.00 PKD
ROOT
HETATM    1 CL   UNL     1     -11.757  12.734  69.060  1.00  0.00    -0.353 Cl 
HETATM    2  C   UNL     1     -11.769  11.204  69.848  1.00  0.00    -0.355 A  
HETATM    3  C   UNL     1     -11.002  10.162  69.335  1.00  0.00    -0.285 A  
HETATM    4  C   UNL     1     -10.990   8.919  69.984  1.00  0.00    -0.217 A  
HETATM    5  C   UNL     1     -11.746   8.740  71.140  1.00  0.00    -0.291 A  
HETATM    6  C   UNL     1     -12.537   9.781  71.636  1.00  0.00    -0.509 A  
HETATM    7  O   UNL     1     -11.772   7.551  71.822  1.00  0.00    -0.266 OA 
HETATM    8  C   UNL     1     -10.542   7.207  72.332  1.00  0.00    -0.226 A  
HETATM    9  C   UNL     1     -12.540  11.020  70.993  1.00  0.00    -0.512 A  
HETATM   10  C   UNL     1     -10.455   7.102  73.726  1.00  0.00    -0.371 A  
HETATM   11  C   UNL     1      -9.240   6.773  74.321  1.00  0.00    -0.246 A  
HETATM   12  C   UNL     1      -8.127   6.525  73.522  1.00  0.00    -0.113 A  
HETATM   13  C   UNL     1      -8.230   6.614  72.128  1.00  0.00    -0.105 A  
HETATM   14  C   UNL     1      -9.435   6.963  71.507  1.00  0.00    -0.155 A  
HETATM   15  N   UNL     1      -9.463   6.969  70.099  1.00  0.00    -0.162 NA 
HETATM   16  H   UNL     1      -8.909   6.273  69.600  1.00  0.00     0.000 HD 
HETATM   17  C   UNL     1     -10.162   7.820  69.402  1.00  0.00    -0.208 C  
ENDROOT
BRANCH  17  18
HETATM   18  N   UNL     1     -10.116   7.762  68.019  1.00  0.00    -0.178 NA 
HETATM   19  C   UNL     1      -8.981   8.291  67.261  1.00  0.00    -0.137 C  
HETATM   20  C   UNL     1      -8.298   7.204  66.414  1.00  0.00    -0.125 C  
HETATM   21  N   UNL     1      -9.243   6.461  65.556  1.00  0.00    -0.366 NA 
HETATM   22  C   UNL     1     -10.296   5.876  66.409  1.00  0.00    -0.111 C  
HETATM   23  H   UNL     1      -8.778   5.762  64.977  1.00  0.00     0.000 HD 
HETATM   24  C   UNL     1     -11.049   6.928  67.254  1.00  0.00    -0.285 C  
ENDBRANCH  17  18
TORSDOF 1
ENDMDL
MODEL       54
REMARK 921   NORMALIZED FREE ENERGY PREDICTED BY IDOCK:   -5.18 KCAL/MOL
REMARK 922        TOTAL FREE ENERGY PREDICTED BY IDOCK:   -5.85 KCAL/MOL
REMARK 923 INTER-LIGAND FREE ENERGY PREDICTED BY IDOCK:   -5.77 KCAL/MOL
REMARK 924 INTRA-LIGAND FREE ENERGY PREDICTED BY IDOCK:   -0.08 KCAL/MOL
REMARK 927      BINDING AFFINITY PREDICTED BY RF-SCORE:    0.00 PKD
ROOT
HETATM    1 CL   UNL     1     -12.141  13.054  63.343  1.00  0.00    -0.630 Cl 
HETATM    2  C   UNL     1     -11.163  11.945  64.222  1.00  0.00    -0.357 A  
HETATM    3  C   UNL     1     -11.116  12.022  65.611  1.00  0.00    -0.361 A  
HETATM    4  C   UNL     1     -10.337  11.108  66.335  1.00  0.00    -0.300 A  
HETATM    5  C   UNL     1      -9.620  10.126  65.655  1.00  0.00    -0.243 A  
HETATM    6  C   UNL     1      -9.649  10.068  64.259  1.00  0.00    -0.301 A  
HETATM    7  O   UNL     1      -8.846   9.201  66.306  1.00  0.00    -0.136 OA 
HETATM    8  C   UNL     1      -9.582   8.379  67.127  1.00  0.00    -0.179 A  
HETATM    9  C   UNL     1     -10.432  10.975  63.541  1.00  0.00    -0.365 A  
HETATM   10  C   UNL     1      -9.564   7.013  66.815  1.00  0.00    -0.221 A  
HETATM   11  C   UNL     1     -10.297   6.117  67.589  1.00  0.00    -0.250 A  
HETATM   12  C   UNL     1     -11.021   6.585  68.684  1.00  0.00    -0.363 A  
HETATM   13  C   UNL     1     -11.015   7.949  68.998  1.00  0.00     0.073 A  
HETATM   14  C   UNL     1     -10.302   8.872  68.224  1.00  0.00    -0.206 A  
HETATM   15  N   UNL     1     -10.304  10.215  68.648  1.00  0.00    -0.178 NA 
HETATM   16  H   UNL     1     -10.307  10.407  69.650  1.00  0.00     0.000 HD 
HETATM   17  C   UNL     1     -10.303  11.225  67.824  1.00  0.00    -0.182 C  
ENDROOT
BRANCH  17  18
HETATM   18  N   UNL     1     -10.321  12.514  68.332  1.00  0.00    -0.228 NA 
HETATM   19  C   UNL     1      -9.293  13.495  67.984  1.00  0.00    -0.213 C  
HETATM   20  C   UNL     1      -9.890  14.738  67.303  1.00  0.00    -0.230 C  
HETATM   21  N   UNL     1     -10.999  15.341  68.069  1.00  0.00    -0.288 NA 
HETATM   22  C   UNL     1     -12.036  14.313  68.288  1.00  0.00    -0.311 C  
HETATM   23  H   UNL     1     -11.370  16.180  67.624  1.00  0.00     0.000 HD 
HETATM   24  C   UNL     1     -11.504  13.055  69.010  1.00  0.00    -0.303 C  
ENDBRANCH  17  18
TORSDOF 1
ENDMDL
MODEL       55
REMARK 921   NORMALIZED FREE ENERGY PREDICTED BY IDOCK:   -5.18 KCAL/MOL
REMARK 922        TOTAL FREE ENERGY PREDICTED BY IDOCK:   -5.84 KCAL/MOL
REMARK 923 INTER-LIGAND FREE ENERGY PREDICTED BY IDOCK:   -5.74 KCAL/MOL
REMARK 924 INTRA-LIGAND FREE ENERGY PREDICTED BY IDOCK:   -0.10 KCAL/MOL
REMARK 927      BINDING AFFINITY PREDICTED BY RF-SCORE:    0.00 PKD
ROOT
HETATM    1 CL   UNL     1     -10.781  21.062  69.425  1.00  0.00     0.585 Cl 
HETATM    2  C   UNL     1     -10.215  19.848  68.346  1.00  0.00    -0.433 A  
HETATM    3  C   UNL     1      -8.989  19.234  68.584  1.00  0.00    -0.419 A  
HETATM    4  C   UNL     1      -8.532  18.228  67.720  1.00  0.00    -0.256 A  
HETATM    5  C   UNL     1      -9.313  17.851  66.631  1.00  0.00    -0.286 A  
HETATM    6  C   UNL     1     -10.531  18.489  66.379  1.00  0.00    -0.443 A  
HETATM    7  O   UNL     1      -8.923  16.872  65.753  1.00  0.00    -0.524 OA 
HETATM    8  C   UNL     1      -8.808  15.640  66.354  1.00  0.00    -0.330 A  
HETATM    9  C   UNL     1     -10.988  19.483  67.246  1.00  0.00    -0.460 A  
HETATM   10  C   UNL     1      -9.658  14.634  65.875  1.00  0.00    -0.303 A  
HETATM   11  C   UNL     1      -9.613  13.362  66.441  1.00  0.00    -0.265 A  
HETATM   12  C   UNL     1      -8.704  13.096  67.462  1.00  0.00    -0.201 A  
HETATM   13  C   UNL     1      -7.846  14.103  67.920  1.00  0.00    -0.157 A  
HETATM   14  C   UNL     1      -7.886  15.394  67.380  1.00  0.00    -0.188 A  
HETATM   15  N   UNL     1      -6.946  16.327  67.859  1.00  0.00    -0.131 NA 
HETATM   16  H   UNL     1      -6.014  15.994  68.106  1.00  0.00     0.000 HD 
HETATM   17  C   UNL     1      -7.208  17.596  68.002  1.00  0.00    -0.216 C  
ENDROOT
BRANCH  17  18
HETATM   18  N   UNL     1      -6.225  18.439  68.496  1.00  0.00    -0.198 NA 
HETATM   19  C   UNL     1      -5.613  19.479  67.668  1.00  0.00    -0.180 C  
HETATM   20  C   UNL     1      -5.826  20.883  68.258  1.00  0.00    -0.344 C  
HETATM   21  N   UNL     1      -5.416  20.985  69.672  1.00  0.00    -0.424 NA 
HETATM   22  C   UNL     1      -6.153  19.972  70.452  1.00  0.00    -0.349 C  
HETATM   23  H   UNL     1      -5.533  21.926  70.047  1.00  0.00     0.000 HD 
HETATM   24  C   UNL     1      -5.944  18.532  69.932  1.00  0.00    -0.223 C  
ENDBRANCH  17  18
TORSDOF 1
ENDMDL
MODEL       56
REMARK 921   NORMALIZED FREE ENERGY PREDICTED BY IDOCK:   -5.12 KCAL/MOL
REMARK 922        TOTAL FREE ENERGY PREDICTED BY IDOCK:   -5.78 KCAL/MOL
REMARK 923 INTER-LIGAND FREE ENERGY PREDICTED BY IDOCK:   -5.47 KCAL/MOL
REMARK 924 INTRA-LIGAND FREE ENERGY PREDICTED BY IDOCK:   -0.31 KCAL/MOL
REMARK 927      BINDING AFFINITY PREDICTED BY RF-SCORE:    0.00 PKD
ROOT
HETATM    1 CL   UNL     1     -13.991   8.851  72.567  1.00  0.00    -0.499 Cl 
HETATM    2  C   UNL     1     -12.820   9.607  71.559  1.00  0.00    -0.392 A  
HETATM    3  C   UNL     1     -11.715   8.880  71.126  1.00  0.00    -0.356 A  
HETATM    4  C   UNL     1     -10.767   9.483  70.287  1.00  0.00    -0.315 A  
HETATM    5  C   UNL     1     -10.944  10.807  69.890  1.00  0.00    -0.239 A  
HETATM    6  C   UNL     1     -12.041  11.542  70.349  1.00  0.00    -0.471 A  
HETATM    7  O   UNL     1     -10.057  11.451  69.068  1.00  0.00    -0.181 OA 
HETATM    8  C   UNL     1      -9.980  10.877  67.820  1.00  0.00    -0.176 A  
HETATM    9  C   UNL     1     -12.987  10.936  71.177  1.00  0.00    -0.449 A  
HETATM   10  C   UNL     1     -10.358  11.686  66.740  1.00  0.00    -0.257 A  
HETATM   11  C   UNL     1     -10.323  11.173  65.446  1.00  0.00    -0.331 A  
HETATM   12  C   UNL     1      -9.888   9.867  65.234  1.00  0.00    -0.373 A  
HETATM   13  C   UNL     1      -9.494   9.074  66.319  1.00  0.00    -0.306 A  
HETATM   14  C   UNL     1      -9.538   9.560  67.631  1.00  0.00    -0.136 A  
HETATM   15  N   UNL     1      -9.067   8.714  68.654  1.00  0.00    -0.139 NA 
HETATM   16  H   UNL     1      -8.278   8.100  68.450  1.00  0.00     0.000 HD 
HETATM   17  C   UNL     1      -9.589   8.677  69.847  1.00  0.00    -0.172 C  
ENDROOT
BRANCH  17  18
HETATM   18  N   UNL     1      -9.069   7.801  70.787  1.00  0.00    -0.148 NA 
HETATM   19  C   UNL     1      -8.903   6.375  70.503  1.00  0.00    -0.144 C  
HETATM   20  C   UNL     1      -7.435   5.931  70.626  1.00  0.00    -0.087 C  
HETATM   21  N   UNL     1      -6.820   6.319  71.911  1.00  0.00    -0.067 NA 
HETATM   22  C   UNL     1      -6.940   7.781  72.071  1.00  0.00    -0.067 C  
HETATM   23  H   UNL     1      -5.856   5.995  71.996  1.00  0.00     0.000 HD 
HETATM   24  C   UNL     1      -8.400   8.283  72.000  1.00  0.00    -0.165 C  
ENDBRANCH  17  18
TORSDOF 1
ENDMDL
MODEL       57
REMARK 921   NORMALIZED FREE ENERGY PREDICTED BY IDOCK:   -5.09 KCAL/MOL
REMARK 922        TOTAL FREE ENERGY PREDICTED BY IDOCK:   -5.75 KCAL/MOL
REMARK 923 INTER-LIGAND FREE ENERGY PREDICTED BY IDOCK:   -5.44 KCAL/MOL
REMARK 924 INTRA-LIGAND FREE ENERGY PREDICTED BY IDOCK:   -0.31 KCAL/MOL
REMARK 927      BINDING AFFINITY PREDICTED BY RF-SCORE:    0.00 PKD
ROOT
HETATM    1 CL   UNL     1     -10.384   6.593  68.287  1.00  0.00    -0.190 Cl 
HETATM    2  C   UNL     1     -10.278   8.275  67.942  1.00  0.00    -0.220 A  
HETATM    3  C   UNL     1      -9.734   8.695  66.732  1.00  0.00    -0.298 A  
HETATM    4  C   UNL     1      -9.663  10.064  66.435  1.00  0.00    -0.266 A  
HETATM    5  C   UNL     1     -10.144  10.992  67.355  1.00  0.00    -0.186 A  
HETATM    6  C   UNL     1     -10.666  10.568  68.581  1.00  0.00    -0.247 A  
HETATM    7  O   UNL     1     -10.108  12.342  67.122  1.00  0.00    -0.211 OA 
HETATM    8  C   UNL     1     -10.878  12.713  66.043  1.00  0.00    -0.277 A  
HETATM    9  C   UNL     1     -10.742   9.204  68.870  1.00  0.00    -0.167 A  
HETATM   10  C   UNL     1     -11.943  13.582  66.310  1.00  0.00    -0.457 A  
HETATM   11  C   UNL     1     -12.778  13.992  65.274  1.00  0.00    -0.468 A  
HETATM   12  C   UNL     1     -12.530  13.553  63.975  1.00  0.00    -0.294 A  
HETATM   13  C   UNL     1     -11.451  12.699  63.717  1.00  0.00    -0.539 A  
HETATM   14  C   UNL     1     -10.609  12.258  64.745  1.00  0.00    -0.297 A  
HETATM   15  N   UNL     1      -9.513  11.450  64.385  1.00  0.00    -0.376 NA 
HETATM   16  H   UNL     1      -9.045  11.634  63.497  1.00  0.00     0.000 HD 
HETATM   17  C   UNL     1      -9.065  10.479  65.131  1.00  0.00    -0.197 C  
ENDROOT
BRANCH  17  18
HETATM   18  N   UNL     1      -7.990   9.725  64.688  1.00  0.00    -0.132 NA 
HETATM   19  C   UNL     1      -8.132   8.726  63.629  1.00  0.00    -0.169 C  
HETATM   20  C   UNL     1      -7.233   9.038  62.421  1.00  0.00    -0.097 C  
HETATM   21  N   UNL     1      -5.821   9.259  62.792  1.00  0.00    -0.089 NA 
HETATM   22  C   UNL     1      -5.759  10.348  63.786  1.00  0.00    -0.135 C  
HETATM   23  H   UNL     1      -5.227   9.436  61.982  1.00  0.00     0.000 HD 
HETATM   24  C   UNL     1      -6.610  10.073  65.046  1.00  0.00    -0.124 C  
ENDBRANCH  17  18
TORSDOF 1
ENDMDL
MODEL       58
REMARK 921   NORMALIZED FREE ENERGY PREDICTED BY IDOCK:   -5.04 KCAL/MOL
REMARK 922        TOTAL FREE ENERGY PREDICTED BY IDOCK:   -5.69 KCAL/MOL
REMARK 923 INTER-LIGAND FREE ENERGY PREDICTED BY IDOCK:   -5.59 KCAL/MOL
REMARK 924 INTRA-LIGAND FREE ENERGY PREDICTED BY IDOCK:   -0.10 KCAL/MOL
REMARK 927      BINDING AFFINITY PREDICTED BY RF-SCORE:    0.00 PKD
ROOT
HETATM    1 CL   UNL     1     -11.546  16.391  70.780  1.00  0.00    -0.280 Cl 
HETATM    2  C   UNL     1     -11.375  15.027  69.746  1.00  0.00    -0.283 A  
HETATM    3  C   UNL     1     -10.474  15.078  68.686  1.00  0.00    -0.238 A  
HETATM    4  C   UNL     1     -10.314  13.962  67.852  1.00  0.00    -0.240 A  
HETATM    5  C   UNL     1     -11.057  12.809  68.095  1.00  0.00    -0.256 A  
HETATM    6  C   UNL     1     -11.980  12.771  69.144  1.00  0.00    -0.296 A  
HETATM    7  O   UNL     1     -10.942  11.685  67.319  1.00  0.00    -0.236 OA 
HETATM    8  C   UNL     1      -9.685  11.129  67.377  1.00  0.00    -0.173 A  
HETATM    9  C   UNL     1     -12.131  13.881  69.978  1.00  0.00    -0.411 A  
HETATM   10  C   UNL     1      -9.605   9.828  67.891  1.00  0.00    -0.158 A  
HETATM   11  C   UNL     1      -8.366   9.201  67.997  1.00  0.00    -0.120 A  
HETATM   12  C   UNL     1      -7.220   9.865  67.567  1.00  0.00    -0.089 A  
HETATM   13  C   UNL     1      -7.314  11.158  67.037  1.00  0.00    -0.128 A  
HETATM   14  C   UNL     1      -8.545  11.817  66.938  1.00  0.00    -0.177 A  
HETATM   15  N   UNL     1      -8.554  13.090  66.338  1.00  0.00    -0.405 NA 
HETATM   16  H   UNL     1      -7.909  13.268  65.567  1.00  0.00     0.000 HD 
HETATM   17  C   UNL     1      -9.345  14.054  66.718  1.00  0.00    -0.277 C  
ENDROOT
BRANCH  17  18
HETATM   18  N   UNL     1      -9.273  15.281  66.079  1.00  0.00    -0.312 NA 
HETATM   19  C   UNL     1     -10.377  15.794  65.266  1.00  0.00    -0.357 C  
HETATM   20  C   UNL     1     -10.910  17.135  65.800  1.00  0.00    -0.039 C  
HETATM   21  N   UNL     1      -9.848  18.142  65.996  1.00  0.00    -0.544 NA 
HETATM   22  C   UNL     1      -8.829  17.583  66.906  1.00  0.00    -0.251 C  
HETATM   23  H   UNL     1     -10.214  19.036  66.322  1.00  0.00     0.000 HD 
HETATM   24  C   UNL     1      -8.224  16.254  66.401  1.00  0.00    -0.319 C  
ENDBRANCH  17  18
TORSDOF 1
ENDMDL
MODEL       59
REMARK 921   NORMALIZED FREE ENERGY PREDICTED BY IDOCK:   -5.02 KCAL/MOL
REMARK 922        TOTAL FREE ENERGY PREDICTED BY IDOCK:   -5.68 KCAL/MOL
REMARK 923 INTER-LIGAND FREE ENERGY PREDICTED BY IDOCK:   -5.31 KCAL/MOL
REMARK 924 INTRA-LIGAND FREE ENERGY PREDICTED BY IDOCK:   -0.36 KCAL/MOL
REMARK 927      BINDING AFFINITY PREDICTED BY RF-SCORE:    0.00 PKD
ROOT
HETATM    1 CL   UNL     1     -13.401  10.948  71.835  1.00  0.00    -0.496 Cl 
HETATM    2  C   UNL     1     -11.963  10.658  70.936  1.00  0.00    -0.363 A  
HETATM    3  C   UNL     1     -11.609  11.528  69.909  1.00  0.00    -0.387 A  
HETATM    4  C   UNL     1     -10.427  11.310  69.186  1.00  0.00    -0.191 A  
HETATM    5  C   UNL     1      -9.615  10.224  69.507  1.00  0.00    -0.202 A  
HETATM    6  C   UNL     1      -9.988   9.338  70.521  1.00  0.00    -0.307 A  
HETATM    7  O   UNL     1      -8.446   9.961  68.841  1.00  0.00    -0.114 OA 
HETATM    8  C   UNL     1      -7.513  10.960  68.995  1.00  0.00    -0.124 A  
HETATM    9  C   UNL     1     -11.161   9.562  71.244  1.00  0.00    -0.452 A  
HETATM   10  C   UNL     1      -6.316  10.600  69.627  1.00  0.00    -0.085 A  
HETATM   11  C   UNL     1      -5.327  11.558  69.835  1.00  0.00    -0.070 A  
HETATM   12  C   UNL     1      -5.528  12.862  69.388  1.00  0.00    -0.080 A  
HETATM   13  C   UNL     1      -6.720  13.206  68.740  1.00  0.00    -0.100 A  
HETATM   14  C   UNL     1      -7.738  12.266  68.537  1.00  0.00    -0.118 A  
HETATM   15  N   UNL     1      -8.877  12.685  67.823  1.00  0.00    -0.169 NA 
HETATM   16  H   UNL     1      -8.754  13.355  67.064  1.00  0.00     0.000 HD 
HETATM   17  C   UNL     1     -10.080  12.259  68.085  1.00  0.00    -0.211 C  
ENDROOT
BRANCH  17  18
HETATM   18  N   UNL     1     -11.146  12.738  67.340  1.00  0.00    -0.263 NA 
HETATM   19  C   UNL     1     -11.552  14.143  67.390  1.00  0.00    -0.372 C  
HETATM   20  C   UNL     1     -11.472  14.814  66.008  1.00  0.00    -0.316 C  
HETATM   21  N   UNL     1     -12.190  14.064  64.959  1.00  0.00    -0.412 NA 
HETATM   22  C   UNL     1     -11.651  12.691  64.906  1.00  0.00    -0.334 C  
HETATM   23  H   UNL     1     -12.157  14.531  64.052  1.00  0.00     0.000 HD 
HETATM   24  C   UNL     1     -11.743  11.948  66.258  1.00  0.00    -0.147 C  
ENDBRANCH  17  18
TORSDOF 1
ENDMDL
MODEL       60
REMARK 921   NORMALIZED FREE ENERGY PREDICTED BY IDOCK:   -5.01 KCAL/MOL
REMARK 922        TOTAL FREE ENERGY PREDICTED BY IDOCK:   -5.66 KCAL/MOL
REMARK 923 INTER-LIGAND FREE ENERGY PREDICTED BY IDOCK:   -5.56 KCAL/MOL
REMARK 924 INTRA-LIGAND FREE ENERGY PREDICTED BY IDOCK:   -0.10 KCAL/MOL
REMARK 927      BINDING AFFINITY PREDICTED BY RF-SCORE:    0.00 PKD
ROOT
HETATM    1 CL   UNL     1      -6.349   6.547  70.868  1.00  0.00    -0.046 Cl 
HETATM    2  C   UNL     1      -7.498   6.994  69.669  1.00  0.00    -0.098 A  
HETATM    3  C   UNL     1      -8.679   7.625  70.051  1.00  0.00    -0.142 A  
HETATM    4  C   UNL     1      -9.611   8.011  69.077  1.00  0.00    -0.156 A  
HETATM    5  C   UNL     1      -9.344   7.763  67.733  1.00  0.00    -0.143 A  
HETATM    6  C   UNL     1      -8.170   7.104  67.355  1.00  0.00    -0.116 A  
HETATM    7  O   UNL     1     -10.212   8.120  66.734  1.00  0.00    -0.280 OA 
HETATM    8  C   UNL     1     -10.393   9.481  66.653  1.00  0.00    -0.210 A  
HETATM    9  C   UNL     1      -7.240   6.729  68.326  1.00  0.00    -0.088 A  
HETATM   10  C   UNL     1     -10.000  10.090  65.455  1.00  0.00    -0.364 A  
HETATM   11  C   UNL     1     -10.137  11.467  65.300  1.00  0.00    -0.314 A  
HETATM   12  C   UNL     1     -10.688  12.224  66.332  1.00  0.00    -0.284 A  
HETATM   13  C   UNL     1     -11.095  11.602  67.518  1.00  0.00    -0.333 A  
HETATM   14  C   UNL     1     -10.951  10.222  67.705  1.00  0.00    -0.300 A  
HETATM   15  N   UNL     1     -11.443   9.674  68.905  1.00  0.00    -0.456 NA 
HETATM   16  H   UNL     1     -12.288  10.075  69.311  1.00  0.00     0.000 HD 
HETATM   17  C   UNL     1     -10.871   8.679  69.523  1.00  0.00    -0.129 C  
ENDROOT
BRANCH  17  18
HETATM   18  N   UNL     1     -11.417   8.214  70.708  1.00  0.00    -0.277 NA 
HETATM   19  C   UNL     1     -12.015   6.882  70.813  1.00  0.00    -0.373 C  
HETATM   20  C   UNL     1     -11.306   6.016  71.868  1.00  0.00    -0.279 C  
HETATM   21  N   UNL     1     -11.193   6.680  73.182  1.00  0.00    -0.482 NA 
HETATM   22  C   UNL     1     -10.491   7.966  73.002  1.00  0.00    -0.343 C  
HETATM   23  H   UNL     1     -10.748   6.088  73.883  1.00  0.00     0.000 HD 
HETATM   24  C   UNL     1     -11.181   8.900  71.983  1.00  0.00    -0.352 C  
ENDBRANCH  17  18
TORSDOF 1
ENDMDL
MODEL       61
REMARK 921   NORMALIZED FREE ENERGY PREDICTED BY IDOCK:   -4.97 KCAL/MOL
REMARK 922        TOTAL FREE ENERGY PREDICTED BY IDOCK:   -5.63 KCAL/MOL
REMARK 923 INTER-LIGAND FREE ENERGY PREDICTED BY IDOCK:   -5.26 KCAL/MOL
REMARK 924 INTRA-LIGAND FREE ENERGY PREDICTED BY IDOCK:   -0.36 KCAL/MOL
REMARK 927      BINDING AFFINITY PREDICTED BY RF-SCORE:    0.00 PKD
ROOT
HETATM    1 CL   UNL     1      -7.571   8.981  62.942  1.00  0.00    -0.105 Cl 
HETATM    2  C   UNL     1      -8.737  10.079  63.570  1.00  0.00    -0.222 A  
HETATM    3  C   UNL     1      -8.764  10.345  64.935  1.00  0.00    -0.197 A  
HETATM    4  C   UNL     1      -9.699  11.255  65.451  1.00  0.00    -0.271 A  
HETATM    5  C   UNL     1     -10.591  11.888  64.588  1.00  0.00    -0.306 A  
HETATM    6  C   UNL     1     -10.578  11.597  63.221  1.00  0.00    -0.420 A  
HETATM    7  O   UNL     1     -11.523  12.790  65.030  1.00  0.00    -0.303 OA 
HETATM    8  C   UNL     1     -10.953  13.911  65.585  1.00  0.00    -0.290 A  
HETATM    9  C   UNL     1      -9.641  10.697  62.709  1.00  0.00    -0.333 A  
HETATM   10  C   UNL     1     -11.228  15.128  64.948  1.00  0.00    -0.424 A  
HETATM   11  C   UNL     1     -10.675  16.308  65.440  1.00  0.00    -0.342 A  
HETATM   12  C   UNL     1      -9.872  16.269  66.577  1.00  0.00    -0.287 A  
HETATM   13  C   UNL     1      -9.619  15.050  67.217  1.00  0.00    -0.208 A  
HETATM   14  C   UNL     1     -10.148  13.848  66.731  1.00  0.00    -0.265 A  
HETATM   15  N   UNL     1      -9.892  12.679  67.472  1.00  0.00    -0.200 NA 
HETATM   16  H   UNL     1      -9.849  12.748  68.489  1.00  0.00     0.000 HD 
HETATM   17  C   UNL     1      -9.706  11.511  66.923  1.00  0.00    -0.186 C  
ENDROOT
BRANCH  17  18
HETATM   18  N   UNL     1      -9.443  10.417  67.731  1.00  0.00    -0.144 NA 
HETATM   19  C   UNL     1      -8.248  10.348  68.572  1.00  0.00    -0.119 C  
HETATM   20  C   UNL     1      -8.601  10.206  70.063  1.00  0.00     0.016 C  
HETATM   21  N   UNL     1      -9.537   9.096  70.332  1.00  0.00    -0.206 NA 
HETATM   22  C   UNL     1     -10.754   9.296  69.521  1.00  0.00    -0.222 C  
HETATM   23  H   UNL     1      -9.743   8.990  71.325  1.00  0.00     0.000 HD 
HETATM   24  C   UNL     1     -10.466   9.403  68.007  1.00  0.00    -0.228 C  
ENDBRANCH  17  18
TORSDOF 1
ENDMDL
MODEL       62
REMARK 921   NORMALIZED FREE ENERGY PREDICTED BY IDOCK:   -4.97 KCAL/MOL
REMARK 922        TOTAL FREE ENERGY PREDICTED BY IDOCK:   -5.62 KCAL/MOL
REMARK 923 INTER-LIGAND FREE ENERGY PREDICTED BY IDOCK:   -5.49 KCAL/MOL
REMARK 924 INTRA-LIGAND FREE ENERGY PREDICTED BY IDOCK:   -0.14 KCAL/MOL
REMARK 927      BINDING AFFINITY PREDICTED BY RF-SCORE:    0.00 PKD
ROOT
HETATM    1 CL   UNL     1     -10.715  11.943  65.500  1.00  0.00    -0.317 Cl 
HETATM    2  C   UNL     1     -10.784  13.640  65.772  1.00  0.00    -0.280 A  
HETATM    3  C   UNL     1     -10.721  14.130  67.073  1.00  0.00    -0.285 A  
HETATM    4  C   UNL     1     -10.756  15.513  67.301  1.00  0.00    -0.308 A  
HETATM    5  C   UNL     1     -10.849  16.386  66.219  1.00  0.00    -0.066 A  
HETATM    6  C   UNL     1     -10.940  15.889  64.916  1.00  0.00    -0.427 A  
HETATM    7  O   UNL     1     -10.883  17.747  66.376  1.00  0.00    -0.158 OA 
HETATM    8  C   UNL     1      -9.727  18.243  66.934  1.00  0.00    -0.315 A  
HETATM    9  C   UNL     1     -10.897  14.512  64.691  1.00  0.00    -0.351 A  
HETATM   10  C   UNL     1      -8.993  19.140  66.147  1.00  0.00    -0.232 A  
HETATM   11  C   UNL     1      -7.803  19.675  66.634  1.00  0.00    -0.306 A  
HETATM   12  C   UNL     1      -7.367  19.332  67.911  1.00  0.00    -0.289 A  
HETATM   13  C   UNL     1      -8.118  18.450  68.697  1.00  0.00    -0.319 A  
HETATM   14  C   UNL     1      -9.307  17.884  68.222  1.00  0.00    -0.286 A  
HETATM   15  N   UNL     1     -10.029  17.055  69.102  1.00  0.00    -0.258 NA 
HETATM   16  H   UNL     1     -10.031  17.287  70.096  1.00  0.00     0.000 HD 
HETATM   17  C   UNL     1     -10.694  16.004  68.711  1.00  0.00    -0.282 C  
ENDROOT
BRANCH  17  18
HETATM   18  N   UNL     1     -11.362  15.236  69.650  1.00  0.00    -0.268 NA 
HETATM   19  C   UNL     1     -10.803  14.983  70.979  1.00  0.00     0.009 C  
HETATM   20  C   UNL     1     -11.721  15.503  72.098  1.00  0.00    -0.476 C  
HETATM   21  N   UNL     1     -13.111  15.019  71.977  1.00  0.00    -0.326 NA 
HETATM   22  C   UNL     1     -13.632  15.404  70.651  1.00  0.00    -0.069 C  
HETATM   23  H   UNL     1     -13.706  15.345  72.739  1.00  0.00     0.000 HD 
HETATM   24  C   UNL     1     -12.774  14.873  69.482  1.00  0.00     0.124 C  
ENDBRANCH  17  18
TORSDOF 1
ENDMDL
MODEL       63
REMARK 921   NORMALIZED FREE ENERGY PREDICTED BY IDOCK:   -4.96 KCAL/MOL
REMARK 922        TOTAL FREE ENERGY PREDICTED BY IDOCK:   -5.61 KCAL/MOL
REMARK 923 INTER-LIGAND FREE ENERGY PREDICTED BY IDOCK:   -5.29 KCAL/MOL
REMARK 924 INTRA-LIGAND FREE ENERGY PREDICTED BY IDOCK:   -0.32 KCAL/MOL
REMARK 927      BINDING AFFINITY PREDICTED BY RF-SCORE:    0.00 PKD
ROOT
HETATM    1 CL   UNL     1      -6.436   8.012  73.469  1.00  0.00    -0.095 Cl 
HETATM    2  C   UNL     1      -7.574   7.086  72.572  1.00  0.00    -0.089 A  
HETATM    3  C   UNL     1      -8.668   7.720  71.990  1.00  0.00    -0.162 A  
HETATM    4  C   UNL     1      -9.589   6.975  71.239  1.00  0.00    -0.164 A  
HETATM    5  C   UNL     1      -9.396   5.604  71.079  1.00  0.00    -0.153 A  
HETATM    6  C   UNL     1      -8.311   4.967  71.687  1.00  0.00    -0.114 A  
HETATM    7  O   UNL     1     -10.257   4.823  70.353  1.00  0.00    -0.243 OA 
HETATM    8  C   UNL     1     -10.298   5.175  69.024  1.00  0.00    -0.135 A  
HETATM    9  C   UNL     1      -7.392   5.713  72.428  1.00  0.00    -0.095 A  
HETATM   10  C   UNL     1      -9.886   4.197  68.109  1.00  0.00    -0.084 A  
HETATM   11  C   UNL     1      -9.884   4.482  66.746  1.00  0.00    -0.242 A  
HETATM   12  C   UNL     1     -10.316   5.729  66.303  1.00  0.00    -0.131 A  
HETATM   13  C   UNL     1     -10.744   6.692  67.224  1.00  0.00    -0.427 A  
HETATM   14  C   UNL     1     -10.738   6.437  68.601  1.00  0.00    -0.285 A  
HETATM   15  N   UNL     1     -11.242   7.441  69.450  1.00  0.00    -0.456 NA 
HETATM   16  H   UNL     1     -12.026   8.005  69.122  1.00  0.00     0.000 HD 
HETATM   17  C   UNL     1     -10.756   7.685  70.635  1.00  0.00    -0.231 C  
ENDROOT
BRANCH  17  18
HETATM   18  N   UNL     1     -11.305   8.705  71.395  1.00  0.00    -0.266 NA 
HETATM   19  C   UNL     1     -11.437  10.068  70.880  1.00  0.00    -0.371 C  
HETATM   20  C   UNL     1     -12.902  10.536  70.859  1.00  0.00    -0.394 C  
HETATM   21  N   UNL     1     -13.583  10.364  72.158  1.00  0.00    -0.477 NA 
HETATM   22  C   UNL     1     -13.491   8.945  72.555  1.00  0.00    -0.412 C  
HETATM   23  H   UNL     1     -14.545  10.703  72.143  1.00  0.00     0.000 HD 
HETATM   24  C   UNL     1     -12.038   8.428  72.636  1.00  0.00    -0.257 C  
ENDBRANCH  17  18
TORSDOF 1
ENDMDL
MODEL       64
REMARK 921   NORMALIZED FREE ENERGY PREDICTED BY IDOCK:   -4.94 KCAL/MOL
REMARK 922        TOTAL FREE ENERGY PREDICTED BY IDOCK:   -5.59 KCAL/MOL
REMARK 923 INTER-LIGAND FREE ENERGY PREDICTED BY IDOCK:   -5.48 KCAL/MOL
REMARK 924 INTRA-LIGAND FREE ENERGY PREDICTED BY IDOCK:   -0.11 KCAL/MOL
REMARK 927      BINDING AFFINITY PREDICTED BY RF-SCORE:    0.00 PKD
ROOT
HETATM    1 CL   UNL     1      -9.955  20.439  67.674  1.00  0.00    -0.551 Cl 
HETATM    2  C   UNL     1      -9.930  18.873  66.964  1.00  0.00    -0.340 A  
HETATM    3  C   UNL     1      -9.065  17.905  67.466  1.00  0.00    -0.245 A  
HETATM    4  C   UNL     1      -9.055  16.619  66.906  1.00  0.00    -0.248 A  
HETATM    5  C   UNL     1      -9.916  16.322  65.852  1.00  0.00    -0.339 A  
HETATM    6  C   UNL     1     -10.764  17.304  65.333  1.00  0.00    -0.074 A  
HETATM    7  O   UNL     1      -9.957  15.083  65.266  1.00  0.00    -0.341 OA 
HETATM    8  C   UNL     1     -10.360  14.099  66.138  1.00  0.00    -0.300 A  
HETATM    9  C   UNL     1     -10.778  18.581  65.898  1.00  0.00    -0.237 A  
HETATM   10  C   UNL     1     -11.545  13.426  65.810  1.00  0.00    -0.358 A  
HETATM   11  C   UNL     1     -12.028  12.426  66.650  1.00  0.00    -0.300 A  
HETATM   12  C   UNL     1     -11.315  12.087  67.797  1.00  0.00    -0.370 A  
HETATM   13  C   UNL     1     -10.122  12.752  68.105  1.00  0.00    -0.239 A  
HETATM   14  C   UNL     1      -9.625  13.774  67.287  1.00  0.00    -0.237 A  
HETATM   15  N   UNL     1      -8.388  14.346  67.640  1.00  0.00    -0.165 NA 
HETATM   16  H   UNL     1      -7.676  13.745  68.055  1.00  0.00     0.000 HD 
HETATM   17  C   UNL     1      -8.108  15.607  67.464  1.00  0.00    -0.160 C  
ENDROOT
BRANCH  17  18
HETATM   18  N   UNL     1      -6.869  16.087  67.857  1.00  0.00    -0.131 NA 
HETATM   19  C   UNL     1      -5.928  16.669  66.900  1.00  0.00    -0.117 C  
HETATM   20  C   UNL     1      -5.581  18.127  67.249  1.00  0.00    -0.131 C  
HETATM   21  N   UNL     1      -5.132  18.297  68.645  1.00  0.00    -0.163 NA 
HETATM   22  C   UNL     1      -6.181  17.778  69.545  1.00  0.00    -0.238 C  
HETATM   23  H   UNL     1      -4.877  19.261  68.858  1.00  0.00     0.000 HD 
HETATM   24  C   UNL     1      -6.542  16.301  69.271  1.00  0.00    -0.197 C  
ENDBRANCH  17  18
TORSDOF 1
ENDMDL
MODEL       65
REMARK 921   NORMALIZED FREE ENERGY PREDICTED BY IDOCK:   -4.91 KCAL/MOL
REMARK 922        TOTAL FREE ENERGY PREDICTED BY IDOCK:   -5.56 KCAL/MOL
REMARK 923 INTER-LIGAND FREE ENERGY PREDICTED BY IDOCK:   -5.50 KCAL/MOL
REMARK 924 INTRA-LIGAND FREE ENERGY PREDICTED BY IDOCK:   -0.06 KCAL/MOL
REMARK 927      BINDING AFFINITY PREDICTED BY RF-SCORE:    0.00 PKD
ROOT
HETATM    1 CL   UNL     1     -11.856   8.218  71.322  1.00  0.00    -0.310 Cl 
HETATM    2  C   UNL     1     -11.428   9.495  70.252  1.00  0.00    -0.206 A  
HETATM    3  C   UNL     1     -10.586   9.234  69.174  1.00  0.00    -0.228 A  
HETATM    4  C   UNL     1     -10.250  10.265  68.285  1.00  0.00    -0.184 A  
HETATM    5  C   UNL     1     -10.766  11.543  68.488  1.00  0.00    -0.209 A  
HETATM    6  C   UNL     1     -11.588  11.808  69.587  1.00  0.00    -0.393 A  
HETATM    7  O   UNL     1     -10.479  12.591  67.652  1.00  0.00    -0.213 OA 
HETATM    8  C   UNL     1     -10.942  12.390  66.373  1.00  0.00    -0.276 A  
HETATM    9  C   UNL     1     -11.928  10.777  70.465  1.00  0.00    -0.456 A  
HETATM   10  C   UNL     1     -11.896  13.304  65.907  1.00  0.00    -0.436 A  
HETATM   11  C   UNL     1     -12.426  13.159  64.627  1.00  0.00    -0.433 A  
HETATM   12  C   UNL     1     -11.983  12.120  63.813  1.00  0.00    -0.607 A  
HETATM   13  C   UNL     1     -11.015  11.224  64.282  1.00  0.00    -0.358 A  
HETATM   14  C   UNL     1     -10.481  11.336  65.571  1.00  0.00    -0.265 A  
HETATM   15  N   UNL     1      -9.469  10.428  65.937  1.00  0.00    -0.179 NA 
HETATM   16  H   UNL     1      -8.805  10.128  65.223  1.00  0.00     0.000 HD 
HETATM   17  C   UNL     1      -9.338   9.952  67.143  1.00  0.00    -0.146 C  
ENDROOT
BRANCH  17  18
HETATM   18  N   UNL     1      -8.321   9.050  67.409  1.00  0.00    -0.111 NA 
HETATM   19  C   UNL     1      -7.352   9.273  68.482  1.00  0.00    -0.076 C  
HETATM   20  C   UNL     1      -7.381   8.145  69.527  1.00  0.00    -0.081 C  
HETATM   21  N   UNL     1      -7.251   6.801  68.931  1.00  0.00    -0.089 NA 
HETATM   22  C   UNL     1      -8.326   6.620  67.935  1.00  0.00    -0.119 C  
HETATM   23  H   UNL     1      -7.242   6.061  69.634  1.00  0.00     0.000 HD 
HETATM   24  C   UNL     1      -8.321   7.701  66.832  1.00  0.00    -0.124 C  
ENDBRANCH  17  18
TORSDOF 1
ENDMDL
MODEL       66
REMARK 921   NORMALIZED FREE ENERGY PREDICTED BY IDOCK:   -4.88 KCAL/MOL
REMARK 922        TOTAL FREE ENERGY PREDICTED BY IDOCK:   -5.52 KCAL/MOL
REMARK 923 INTER-LIGAND FREE ENERGY PREDICTED BY IDOCK:   -5.79 KCAL/MOL
REMARK 924 INTRA-LIGAND FREE ENERGY PREDICTED BY IDOCK:    0.27 KCAL/MOL
REMARK 927      BINDING AFFINITY PREDICTED BY RF-SCORE:    0.00 PKD
ROOT
HETATM    1 CL   UNL     1     -12.371  13.542  67.532  1.00  0.00    -0.216 Cl 
HETATM    2  C   UNL     1     -11.299  12.197  67.587  1.00  0.00    -0.314 A  
HETATM    3  C   UNL     1     -11.558  11.149  68.465  1.00  0.00    -0.385 A  
HETATM    4  C   UNL     1     -10.701  10.039  68.499  1.00  0.00    -0.264 A  
HETATM    5  C   UNL     1      -9.597   9.997  67.650  1.00  0.00    -0.148 A  
HETATM    6  C   UNL     1      -9.325  11.064  66.790  1.00  0.00    -0.199 A  
HETATM    7  O   UNL     1      -8.725   8.939  67.634  1.00  0.00    -0.124 OA 
HETATM    8  C   UNL     1      -9.325   7.766  67.240  1.00  0.00    -0.145 A  
HETATM    9  C   UNL     1     -10.185  12.163  66.751  1.00  0.00    -0.224 A  
HETATM   10  C   UNL     1      -8.830   7.177  66.070  1.00  0.00    -0.154 A  
HETATM   11  C   UNL     1      -9.396   5.995  65.597  1.00  0.00     0.087 A  
HETATM   12  C   UNL     1     -10.432   5.395  66.308  1.00  0.00    -0.277 A  
HETATM   13  C   UNL     1     -10.906   5.982  67.488  1.00  0.00    -0.393 A  
HETATM   14  C   UNL     1     -10.367   7.180  67.973  1.00  0.00    -0.194 A  
HETATM   15  N   UNL     1     -10.863   7.666  69.198  1.00  0.00    -0.404 NA 
HETATM   16  H   UNL     1     -11.126   6.991  69.917  1.00  0.00     0.000 HD 
HETATM   17  C   UNL     1     -11.004   8.935  69.459  1.00  0.00    -0.084 C  
ENDROOT
BRANCH  17  18
HETATM   18  N   UNL     1     -11.515   9.322  70.687  1.00  0.00    -0.272 NA 
HETATM   19  C   UNL     1     -12.835   9.941  70.813  1.00  0.00    -0.216 C  
HETATM   20  C   UNL     1     -13.773   9.118  71.712  1.00  0.00    -0.404 C  
HETATM   21  N   UNL     1     -13.181   8.798  73.026  1.00  0.00    -0.854 NA 
HETATM   22  C   UNL     1     -11.906   8.087  72.809  1.00  0.00    -0.243 C  
HETATM   23  H   UNL     1     -13.821   8.277  73.627  1.00  0.00     0.000 HD 
HETATM   24  C   UNL     1     -10.903   8.885  71.946  1.00  0.00    -0.363 C  
ENDBRANCH  17  18
TORSDOF 1
ENDMDL
MODEL       67
REMARK 921   NORMALIZED FREE ENERGY PREDICTED BY IDOCK:   -4.85 KCAL/MOL
REMARK 922        TOTAL FREE ENERGY PREDICTED BY IDOCK:   -5.50 KCAL/MOL
REMARK 923 INTER-LIGAND FREE ENERGY PREDICTED BY IDOCK:   -5.40 KCAL/MOL
REMARK 924 INTRA-LIGAND FREE ENERGY PREDICTED BY IDOCK:   -0.10 KCAL/MOL
REMARK 927      BINDING AFFINITY PREDICTED BY RF-SCORE:    0.00 PKD
ROOT
HETATM    1 CL   UNL     1     -10.829  11.318  63.156  1.00  0.00    -0.234 Cl 
HETATM    2  C   UNL     1     -11.001  12.639  64.243  1.00  0.00    -0.366 A  
HETATM    3  C   UNL     1     -10.106  12.780  65.300  1.00  0.00    -0.263 A  
HETATM    4  C   UNL     1     -10.227  13.866  66.178  1.00  0.00    -0.307 A  
HETATM    5  C   UNL     1     -11.243  14.799  65.982  1.00  0.00    -0.341 A  
HETATM    6  C   UNL     1     -12.157  14.639  64.936  1.00  0.00    -0.386 A  
HETATM    7  O   UNL     1     -11.411  15.884  66.803  1.00  0.00    -0.057 OA 
HETATM    8  C   UNL     1     -10.339  16.745  66.765  1.00  0.00    -0.293 A  
HETATM    9  C   UNL     1     -12.029  13.561  64.058  1.00  0.00    -0.501 A  
HETATM   10  C   UNL     1     -10.601  18.042  66.305  1.00  0.00    -0.262 A  
HETATM   11  C   UNL     1      -9.565  18.969  66.223  1.00  0.00    -0.367 A  
HETATM   12  C   UNL     1      -8.282  18.605  66.624  1.00  0.00    -0.289 A  
HETATM   13  C   UNL     1      -8.036  17.312  67.101  1.00  0.00    -0.229 A  
HETATM   14  C   UNL     1      -9.056  16.356  67.175  1.00  0.00    -0.205 A  
HETATM   15  N   UNL     1      -8.732  15.101  67.723  1.00  0.00    -0.162 NA 
HETATM   16  H   UNL     1      -8.054  15.064  68.486  1.00  0.00     0.000 HD 
HETATM   17  C   UNL     1      -9.254  13.982  67.306  1.00  0.00    -0.230 C  
ENDROOT
BRANCH  17  18
HETATM   18  N   UNL     1      -8.863  12.790  67.895  1.00  0.00    -0.177 NA 
HETATM   19  C   UNL     1      -9.819  11.914  68.573  1.00  0.00    -0.183 C  
HETATM   20  C   UNL     1      -9.873  10.517  67.932  1.00  0.00    -0.160 C  
HETATM   21  N   UNL     1      -8.543   9.890  67.796  1.00  0.00    -0.121 NA 
HETATM   22  C   UNL     1      -7.674  10.792  67.015  1.00  0.00    -0.121 C  
HETATM   23  H   UNL     1      -8.592   8.953  67.397  1.00  0.00     0.000 HD 
HETATM   24  C   UNL     1      -7.545  12.201  67.634  1.00  0.00    -0.140 C  
ENDBRANCH  17  18
TORSDOF 1
ENDMDL
MODEL       68
REMARK 921   NORMALIZED FREE ENERGY PREDICTED BY IDOCK:   -4.78 KCAL/MOL
REMARK 922        TOTAL FREE ENERGY PREDICTED BY IDOCK:   -5.43 KCAL/MOL
REMARK 923 INTER-LIGAND FREE ENERGY PREDICTED BY IDOCK:   -5.44 KCAL/MOL
REMARK 924 INTRA-LIGAND FREE ENERGY PREDICTED BY IDOCK:    0.02 KCAL/MOL
REMARK 927      BINDING AFFINITY PREDICTED BY RF-SCORE:    0.00 PKD
ROOT
HETATM    1 CL   UNL     1     -12.651  14.218  71.014  1.00  0.00    -0.405 Cl 
HETATM    2  C   UNL     1     -12.145  12.704  70.373  1.00  0.00    -0.300 A  
HETATM    3  C   UNL     1     -11.347  12.675  69.233  1.00  0.00    -0.306 A  
HETATM    4  C   UNL     1     -10.913  11.445  68.716  1.00  0.00    -0.272 A  
HETATM    5  C   UNL     1     -11.283  10.263  69.353  1.00  0.00    -0.239 A  
HETATM    6  C   UNL     1     -12.106  10.296  70.482  1.00  0.00    -0.401 A  
HETATM    7  O   UNL     1     -10.887   9.031  68.901  1.00  0.00    -0.163 OA 
HETATM    8  C   UNL     1      -9.522   8.864  68.946  1.00  0.00    -0.152 A  
HETATM    9  C   UNL     1     -12.530  11.522  70.999  1.00  0.00    -0.458 A  
HETATM   10  C   UNL     1      -9.049   7.840  69.776  1.00  0.00    -0.147 A  
HETATM   11  C   UNL     1      -7.679   7.617  69.889  1.00  0.00    -0.097 A  
HETATM   12  C   UNL     1      -6.792   8.400  69.155  1.00  0.00    -0.055 A  
HETATM   13  C   UNL     1      -7.277   9.409  68.313  1.00  0.00    -0.077 A  
HETATM   14  C   UNL     1      -8.648   9.665  68.197  1.00  0.00    -0.119 A  
HETATM   15  N   UNL     1      -9.049  10.657  67.283  1.00  0.00    -0.143 NA 
HETATM   16  H   UNL     1      -8.519  10.762  66.417  1.00  0.00     0.000 HD 
HETATM   17  C   UNL     1     -10.064  11.449  67.486  1.00  0.00    -0.183 C  
ENDROOT
BRANCH  17  18
HETATM   18  N   UNL     1     -10.377  12.409  66.537  1.00  0.00    -0.226 NA 
HETATM   19  C   UNL     1     -11.496  12.241  65.609  1.00  0.00    -0.368 C  
HETATM   20  C   UNL     1     -12.536  13.365  65.754  1.00  0.00    -0.439 C  
HETATM   21  N   UNL     1     -11.943  14.715  65.673  1.00  0.00    -0.292 NA 
HETATM   22  C   UNL     1     -10.896  14.834  66.706  1.00  0.00    -0.316 C  
HETATM   23  H   UNL     1     -12.643  15.454  65.740  1.00  0.00     0.000 HD 
HETATM   24  C   UNL     1      -9.797  13.755  66.587  1.00  0.00    -0.284 C  
ENDBRANCH  17  18
TORSDOF 1
ENDMDL
MODEL       69
REMARK 921   NORMALIZED FREE ENERGY PREDICTED BY IDOCK:   -4.76 KCAL/MOL
REMARK 922        TOTAL FREE ENERGY PREDICTED BY IDOCK:   -5.40 KCAL/MOL
REMARK 923 INTER-LIGAND FREE ENERGY PREDICTED BY IDOCK:   -5.44 KCAL/MOL
REMARK 924 INTRA-LIGAND FREE ENERGY PREDICTED BY IDOCK:    0.03 KCAL/MOL
REMARK 927      BINDING AFFINITY PREDICTED BY RF-SCORE:    0.00 PKD
ROOT
HETATM    1 CL   UNL     1      -6.539  12.762  67.566  1.00  0.00    -0.152 Cl 
HETATM    2  C   UNL     1      -8.211  13.074  67.820  1.00  0.00    -0.168 A  
HETATM    3  C   UNL     1      -9.014  12.089  68.388  1.00  0.00    -0.153 A  
HETATM    4  C   UNL     1     -10.374  12.344  68.618  1.00  0.00    -0.198 A  
HETATM    5  C   UNL     1     -10.908  13.585  68.278  1.00  0.00    -0.259 A  
HETATM    6  C   UNL     1     -10.104  14.561  67.683  1.00  0.00    -0.228 A  
HETATM    7  O   UNL     1     -12.227  13.896  68.483  1.00  0.00    -0.342 OA 
HETATM    8  C   UNL     1     -12.572  13.888  69.814  1.00  0.00    -0.062 A  
HETATM    9  C   UNL     1      -8.749  14.308  67.463  1.00  0.00    -0.204 A  
HETATM   10  C   UNL     1     -13.016  15.105  70.348  1.00  0.00    -0.296 A  
HETATM   11  C   UNL     1     -13.369  15.182  71.693  1.00  0.00    -0.521 A  
HETATM   12  C   UNL     1     -13.302  14.042  72.489  1.00  0.00    -0.639 A  
HETATM   13  C   UNL     1     -12.876  12.826  71.940  1.00  0.00    -0.306 A  
HETATM   14  C   UNL     1     -12.497  12.727  70.596  1.00  0.00    -0.246 A  
HETATM   15  N   UNL     1     -12.139  11.453  70.114  1.00  0.00    -0.344 NA 
HETATM   16  H   UNL     1     -12.633  10.639  70.482  1.00  0.00     0.000 HD 
HETATM   17  C   UNL     1     -11.209  11.262  69.222  1.00  0.00    -0.272 C  
ENDROOT
BRANCH  17  18
HETATM   18  N   UNL     1     -10.913   9.970  68.818  1.00  0.00    -0.220 NA 
HETATM   19  C   UNL     1     -10.811   9.608  67.404  1.00  0.00    -0.172 C  
HETATM   20  C   UNL     1      -9.419   9.057  67.050  1.00  0.00    -0.163 C  
HETATM   21  N   UNL     1      -8.988   7.960  67.938  1.00  0.00    -0.130 NA 
HETATM   22  C   UNL     1      -9.023   8.440  69.334  1.00  0.00    -0.153 C  
HETATM   23  H   UNL     1      -8.077   7.581  67.679  1.00  0.00     0.000 HD 
HETATM   24  C   UNL     1     -10.411   8.966  69.762  1.00  0.00    -0.207 C  
ENDBRANCH  17  18
TORSDOF 1
ENDMDL
MODEL       70
REMARK 921   NORMALIZED FREE ENERGY PREDICTED BY IDOCK:   -4.75 KCAL/MOL
REMARK 922        TOTAL FREE ENERGY PREDICTED BY IDOCK:   -5.39 KCAL/MOL
REMARK 923 INTER-LIGAND FREE ENERGY PREDICTED BY IDOCK:   -5.08 KCAL/MOL
REMARK 924 INTRA-LIGAND FREE ENERGY PREDICTED BY IDOCK:   -0.31 KCAL/MOL
REMARK 927      BINDING AFFINITY PREDICTED BY RF-SCORE:    0.00 PKD
ROOT
HETATM    1 CL   UNL     1     -12.359  14.776  71.551  1.00  0.00    -0.382 Cl 
HETATM    2  C   UNL     1     -11.721  14.567  69.967  1.00  0.00    -0.301 A  
HETATM    3  C   UNL     1     -11.402  13.289  69.519  1.00  0.00    -0.236 A  
HETATM    4  C   UNL     1     -10.901  13.109  68.221  1.00  0.00    -0.274 A  
HETATM    5  C   UNL     1     -10.731  14.214  67.391  1.00  0.00    -0.284 A  
HETATM    6  C   UNL     1     -11.027  15.499  67.854  1.00  0.00    -0.316 A  
HETATM    7  O   UNL     1     -10.251  14.103  66.111  1.00  0.00    -0.286 OA 
HETATM    8  C   UNL     1     -11.080  13.367  65.297  1.00  0.00    -0.291 A  
HETATM    9  C   UNL     1     -11.533  15.674  69.143  1.00  0.00    -0.365 A  
HETATM   10  C   UNL     1     -11.625  14.039  64.196  1.00  0.00    -0.289 A  
HETATM   11  C   UNL     1     -12.487  13.367  63.332  1.00  0.00    -0.229 A  
HETATM   12  C   UNL     1     -12.779  12.025  63.558  1.00  0.00    -0.567 A  
HETATM   13  C   UNL     1     -12.214  11.357  64.652  1.00  0.00     0.573 A  
HETATM   14  C   UNL     1     -11.360  12.016  65.545  1.00  0.00    -0.328 A  
HETATM   15  N   UNL     1     -10.790  11.252  66.581  1.00  0.00    -0.276 NA 
HETATM   16  H   UNL     1     -10.543  10.280  66.389  1.00  0.00     0.000 HD 
HETATM   17  C   UNL     1     -10.562  11.724  67.775  1.00  0.00    -0.200 C  
ENDROOT
BRANCH  17  18
HETATM   18  N   UNL     1     -10.012  10.893  68.738  1.00  0.00    -0.189 NA 
HETATM   19  C   UNL     1     -10.799   9.853  69.401  1.00  0.00    -0.237 C  
HETATM   20  C   UNL     1     -10.209   8.451  69.170  1.00  0.00    -0.211 C  
HETATM   21  N   UNL     1      -8.774   8.365  69.509  1.00  0.00    -0.135 NA 
HETATM   22  C   UNL     1      -8.042   9.377  68.724  1.00  0.00    -0.103 C  
HETATM   23  H   UNL     1      -8.399   7.425  69.381  1.00  0.00     0.000 HD 
HETATM   24  C   UNL     1      -8.562  10.815  68.947  1.00  0.00    -0.153 C  
ENDBRANCH  17  18
TORSDOF 1
ENDMDL
MODEL       71
REMARK 921   NORMALIZED FREE ENERGY PREDICTED BY IDOCK:   -4.75 KCAL/MOL
REMARK 922        TOTAL FREE ENERGY PREDICTED BY IDOCK:   -5.39 KCAL/MOL
REMARK 923 INTER-LIGAND FREE ENERGY PREDICTED BY IDOCK:   -5.02 KCAL/MOL
REMARK 924 INTRA-LIGAND FREE ENERGY PREDICTED BY IDOCK:   -0.36 KCAL/MOL
REMARK 927      BINDING AFFINITY PREDICTED BY RF-SCORE:    0.00 PKD
ROOT
HETATM    1 CL   UNL     1      -5.167  12.315  67.464  1.00  0.00    -0.095 Cl 
HETATM    2  C   UNL     1      -6.591  11.552  68.056  1.00  0.00    -0.058 A  
HETATM    3  C   UNL     1      -7.689  11.400  67.214  1.00  0.00    -0.145 A  
HETATM    4  C   UNL     1      -8.845  10.759  67.683  1.00  0.00    -0.132 A  
HETATM    5  C   UNL     1      -8.882  10.278  68.990  1.00  0.00    -0.168 A  
HETATM    6  C   UNL     1      -7.787  10.458  69.841  1.00  0.00    -0.050 A  
HETATM    7  O   UNL     1      -9.980   9.640  69.506  1.00  0.00    -0.184 OA 
HETATM    8  C   UNL     1     -10.263   8.463  68.852  1.00  0.00    -0.210 A  
HETATM    9  C   UNL     1      -6.635  11.088  69.368  1.00  0.00    -0.104 A  
HETATM   10  C   UNL     1     -10.200   7.295  69.621  1.00  0.00    -0.214 A  
HETATM   11  C   UNL     1     -10.458   6.061  69.028  1.00  0.00    -0.319 A  
HETATM   12  C   UNL     1     -10.802   6.004  67.680  1.00  0.00    -0.386 A  
HETATM   13  C   UNL     1     -10.881   7.181  66.925  1.00  0.00    -0.307 A  
HETATM   14  C   UNL     1     -10.608   8.431  67.493  1.00  0.00    -0.215 A  
HETATM   15  N   UNL     1     -10.771   9.566  66.676  1.00  0.00    -0.089 NA 
HETATM   16  H   UNL     1     -11.523   9.564  65.986  1.00  0.00     0.000 HD 
HETATM   17  C   UNL     1     -10.007  10.619  66.756  1.00  0.00    -0.209 C  
ENDROOT
BRANCH  17  18
HETATM   18  N   UNL     1     -10.232  11.685  65.899  1.00  0.00    -0.229 NA 
HETATM   19  C   UNL     1     -10.064  11.559  64.451  1.00  0.00    -0.282 C  
HETATM   20  C   UNL     1     -11.368  11.864  63.693  1.00  0.00    -0.450 C  
HETATM   21  N   UNL     1     -11.969  13.157  64.073  1.00  0.00    -0.431 NA 
HETATM   22  C   UNL     1     -12.198  13.161  65.531  1.00  0.00    -0.461 C  
HETATM   23  H   UNL     1     -12.817  13.365  63.545  1.00  0.00     0.000 HD 
HETATM   24  C   UNL     1     -10.913  12.903  66.350  1.00  0.00    -0.285 C  
ENDBRANCH  17  18
TORSDOF 1
ENDMDL
MODEL       72
REMARK 921   NORMALIZED FREE ENERGY PREDICTED BY IDOCK:   -4.75 KCAL/MOL
REMARK 922        TOTAL FREE ENERGY PREDICTED BY IDOCK:   -5.39 KCAL/MOL
REMARK 923 INTER-LIGAND FREE ENERGY PREDICTED BY IDOCK:   -5.02 KCAL/MOL
REMARK 924 INTRA-LIGAND FREE ENERGY PREDICTED BY IDOCK:   -0.36 KCAL/MOL
REMARK 927      BINDING AFFINITY PREDICTED BY RF-SCORE:    0.00 PKD
ROOT
HETATM    1 CL   UNL     1      -9.905   8.247  72.946  1.00  0.00    -0.337 Cl 
HETATM    2  C   UNL     1     -10.311   7.737  71.353  1.00  0.00    -0.197 A  
HETATM    3  C   UNL     1      -9.975   8.543  70.269  1.00  0.00    -0.196 A  
HETATM    4  C   UNL     1     -10.284   8.124  68.966  1.00  0.00    -0.228 A  
HETATM    5  C   UNL     1     -10.921   6.901  68.770  1.00  0.00    -0.157 A  
HETATM    6  C   UNL     1     -11.281   6.108  69.864  1.00  0.00    -0.484 A  
HETATM    7  O   UNL     1     -11.245   6.435  67.523  1.00  0.00    -0.347 OA 
HETATM    8  C   UNL     1     -10.137   6.210  66.739  1.00  0.00    -0.182 A  
HETATM    9  C   UNL     1     -10.965   6.524  71.159  1.00  0.00    -0.314 A  
HETATM   10  C   UNL     1      -9.931   4.890  66.319  1.00  0.00    -0.256 A  
HETATM   11  C   UNL     1      -8.823   4.578  65.535  1.00  0.00    -0.130 A  
HETATM   12  C   UNL     1      -7.943   5.588  65.154  1.00  0.00    -0.110 A  
HETATM   13  C   UNL     1      -8.170   6.908  65.563  1.00  0.00    -0.135 A  
HETATM   14  C   UNL     1      -9.265   7.244  66.368  1.00  0.00    -0.159 A  
HETATM   15  N   UNL     1      -9.449   8.604  66.681  1.00  0.00    -0.189 NA 
HETATM   16  H   UNL     1      -9.203   9.301  65.978  1.00  0.00     0.000 HD 
HETATM   17  C   UNL     1      -9.916   9.016  67.826  1.00  0.00    -0.187 C  
ENDROOT
BRANCH  17  18
HETATM   18  N   UNL     1     -10.048  10.377  68.053  1.00  0.00    -0.158 NA 
HETATM   19  C   UNL     1      -8.892  11.274  68.055  1.00  0.00    -0.148 C  
HETATM   20  C   UNL     1      -9.015  12.372  66.985  1.00  0.00    -0.209 C  
HETATM   21  N   UNL     1     -10.293  13.109  67.056  1.00  0.00    -0.247 NA 
HETATM   22  C   UNL     1     -11.402  12.143  66.945  1.00  0.00    -0.343 C  
HETATM   23  H   UNL     1     -10.353  13.854  66.362  1.00  0.00     0.000 HD 
HETATM   24  C   UNL     1     -11.358  11.037  68.023  1.00  0.00    -0.306 C  
ENDBRANCH  17  18
TORSDOF 1
ENDMDL
MODEL       73
REMARK 921   NORMALIZED FREE ENERGY PREDICTED BY IDOCK:   -4.72 KCAL/MOL
REMARK 922        TOTAL FREE ENERGY PREDICTED BY IDOCK:   -5.36 KCAL/MOL
REMARK 923 INTER-LIGAND FREE ENERGY PREDICTED BY IDOCK:   -4.99 KCAL/MOL
REMARK 924 INTRA-LIGAND FREE ENERGY PREDICTED BY IDOCK:   -0.36 KCAL/MOL
REMARK 927      BINDING AFFINITY PREDICTED BY RF-SCORE:    0.00 PKD
ROOT
HETATM    1 CL   UNL     1     -11.254  12.066  63.830  1.00  0.00    -0.448 Cl 
HETATM    2  C   UNL     1     -11.072  12.920  65.312  1.00  0.00    -0.284 A  
HETATM    3  C   UNL     1      -9.866  12.847  66.003  1.00  0.00    -0.256 A  
HETATM    4  C   UNL     1      -9.704  13.558  67.201  1.00  0.00    -0.244 A  
HETATM    5  C   UNL     1     -10.752  14.335  67.687  1.00  0.00    -0.258 A  
HETATM    6  C   UNL     1     -11.971  14.384  67.004  1.00  0.00    -0.424 A  
HETATM    7  O   UNL     1     -10.654  15.056  68.848  1.00  0.00    -0.227 OA 
HETATM    8  C   UNL     1      -9.692  16.038  68.781  1.00  0.00    -0.226 A  
HETATM    9  C   UNL     1     -12.127  13.682  65.808  1.00  0.00    -0.463 A  
HETATM   10  C   UNL     1     -10.140  17.357  68.924  1.00  0.00    -0.330 A  
HETATM   11  C   UNL     1      -9.230  18.409  68.853  1.00  0.00    -0.202 A  
HETATM   12  C   UNL     1      -7.877  18.136  68.665  1.00  0.00    -0.307 A  
HETATM   13  C   UNL     1      -7.438  16.813  68.542  1.00  0.00    -0.213 A  
HETATM   14  C   UNL     1      -8.335  15.739  68.592  1.00  0.00    -0.183 A  
HETATM   15  N   UNL     1      -7.798  14.440  68.521  1.00  0.00    -0.132 NA 
HETATM   16  H   UNL     1      -6.895  14.263  68.960  1.00  0.00     0.000 HD 
HETATM   17  C   UNL     1      -8.399  13.450  67.921  1.00  0.00    -0.166 C  
ENDROOT
BRANCH  17  18
HETATM   18  N   UNL     1      -7.788  12.207  67.887  1.00  0.00    -0.135 NA 
HETATM   19  C   UNL     1      -6.533  11.984  67.167  1.00  0.00    -0.142 C  
HETATM   20  C   UNL     1      -5.415  11.489  68.101  1.00  0.00    -0.042 C  
HETATM   21  N   UNL     1      -5.811  10.317  68.907  1.00  0.00    -0.041 NA 
HETATM   22  C   UNL     1      -7.023  10.661  69.677  1.00  0.00    -0.134 C  
HETATM   23  H   UNL     1      -5.054   9.978  69.501  1.00  0.00     0.000 HD 
HETATM   24  C   UNL     1      -8.198  11.125  68.788  1.00  0.00    -0.135 C  
ENDBRANCH  17  18
TORSDOF 1
ENDMDL
MODEL       74
REMARK 921   NORMALIZED FREE ENERGY PREDICTED BY IDOCK:   -4.69 KCAL/MOL
REMARK 922        TOTAL FREE ENERGY PREDICTED BY IDOCK:   -5.33 KCAL/MOL
REMARK 923 INTER-LIGAND FREE ENERGY PREDICTED BY IDOCK:   -5.22 KCAL/MOL
REMARK 924 INTRA-LIGAND FREE ENERGY PREDICTED BY IDOCK:   -0.11 KCAL/MOL
REMARK 927      BINDING AFFINITY PREDICTED BY RF-SCORE:    0.00 PKD
ROOT
HETATM    1 CL   UNL     1     -11.373  12.456  63.515  1.00  0.00    -0.532 Cl 
HETATM    2  C   UNL     1     -10.414  11.146  64.083  1.00  0.00    -0.377 A  
HETATM    3  C   UNL     1     -10.506  10.755  65.416  1.00  0.00    -0.272 A  
HETATM    4  C   UNL     1      -9.743   9.674  65.880  1.00  0.00    -0.343 A  
HETATM    5  C   UNL     1      -8.900   8.999  65.001  1.00  0.00    -0.170 A  
HETATM    6  C   UNL     1      -8.789   9.413  63.670  1.00  0.00    -0.198 A  
HETATM    7  O   UNL     1      -8.132   7.933  65.393  1.00  0.00    -0.115 OA 
HETATM    8  C   UNL     1      -8.888   6.861  65.807  1.00  0.00    -0.067 A  
HETATM    9  C   UNL     1      -9.557  10.484  63.208  1.00  0.00    -0.373 A  
HETATM   10  C   UNL     1      -8.750   5.681  65.065  1.00  0.00    -0.068 A  
HETATM   11  C   UNL     1      -9.494   4.555  65.411  1.00  0.00    -0.175 A  
HETATM   12  C   UNL     1     -10.349   4.607  66.509  1.00  0.00    -0.235 A  
HETATM   13  C   UNL     1     -10.465   5.786  67.255  1.00  0.00    -0.330 A  
HETATM   14  C   UNL     1      -9.743   6.936  66.915  1.00  0.00    -0.171 A  
HETATM   15  N   UNL     1      -9.875   8.058  67.757  1.00  0.00    -0.157 NA 
HETATM   16  H   UNL     1      -9.987   7.902  68.759  1.00  0.00     0.000 HD 
HETATM   17  C   UNL     1      -9.860   9.285  67.318  1.00  0.00    -0.182 C  
ENDROOT
BRANCH  17  18
HETATM   18  N   UNL     1     -10.013  10.328  68.218  1.00  0.00    -0.144 NA 
HETATM   19  C   UNL     1      -8.960  11.320  68.436  1.00  0.00    -0.167 C  
HETATM   20  C   UNL     1      -9.437  12.746  68.111  1.00  0.00    -0.219 C  
HETATM   21  N   UNL     1     -10.692  13.107  68.798  1.00  0.00    -0.313 NA 
HETATM   22  C   UNL     1     -11.727  12.115  68.445  1.00  0.00    -0.332 C  
HETATM   23  H   UNL     1     -10.985  14.064  68.599  1.00  0.00     0.000 HD 
HETATM   24  C   UNL     1     -11.322  10.664  68.789  1.00  0.00    -0.277 C  
ENDBRANCH  17  18
TORSDOF 1
ENDMDL
MODEL       75
REMARK 921   NORMALIZED FREE ENERGY PREDICTED BY IDOCK:   -4.68 KCAL/MOL
REMARK 922        TOTAL FREE ENERGY PREDICTED BY IDOCK:   -5.31 KCAL/MOL
REMARK 923 INTER-LIGAND FREE ENERGY PREDICTED BY IDOCK:   -5.22 KCAL/MOL
REMARK 924 INTRA-LIGAND FREE ENERGY PREDICTED BY IDOCK:   -0.09 KCAL/MOL
REMARK 927      BINDING AFFINITY PREDICTED BY RF-SCORE:    0.00 PKD
ROOT
HETATM    1 CL   UNL     1     -11.591  13.970  68.744  1.00  0.00    -0.343 Cl 
HETATM    2  C   UNL     1     -11.556  12.348  69.315  1.00  0.00    -0.319 A  
HETATM    3  C   UNL     1     -10.550  11.489  68.881  1.00  0.00    -0.236 A  
HETATM    4  C   UNL     1     -10.503  10.172  69.359  1.00  0.00    -0.254 A  
HETATM    5  C   UNL     1     -11.463   9.735  70.269  1.00  0.00    -0.255 A  
HETATM    6  C   UNL     1     -12.488  10.593  70.681  1.00  0.00    -0.462 A  
HETATM    7  O   UNL     1     -11.468   8.462  70.776  1.00  0.00    -0.273 OA 
HETATM    8  C   UNL     1     -10.346   8.186  71.522  1.00  0.00    -0.209 A  
HETATM    9  C   UNL     1     -12.527  11.906  70.210  1.00  0.00    -0.199 A  
HETATM   10  C   UNL     1     -10.558   7.882  72.873  1.00  0.00    -0.434 A  
HETATM   11  C   UNL     1      -9.471   7.606  73.700  1.00  0.00    -0.340 A  
HETATM   12  C   UNL     1      -8.184   7.611  73.168  1.00  0.00    -0.177 A  
HETATM   13  C   UNL     1      -7.985   7.897  71.812  1.00  0.00    -0.118 A  
HETATM   14  C   UNL     1      -9.059   8.196  70.965  1.00  0.00    -0.152 A  
HETATM   15  N   UNL     1      -8.773   8.412  69.604  1.00  0.00    -0.132 NA 
HETATM   16  H   UNL     1      -8.026   7.867  69.172  1.00  0.00     0.000 HD 
HETATM   17  C   UNL     1      -9.415   9.274  68.866  1.00  0.00    -0.154 C  
ENDROOT
BRANCH  17  18
HETATM   18  N   UNL     1      -9.053   9.432  67.538  1.00  0.00    -0.124 NA 
HETATM   19  C   UNL     1     -10.007   9.220  66.449  1.00  0.00    -0.286 C  
HETATM   20  C   UNL     1     -10.194  10.486  65.594  1.00  0.00    -0.246 C  
HETATM   21  N   UNL     1      -8.918  11.054  65.115  1.00  0.00    -0.298 NA 
HETATM   22  C   UNL     1      -8.057  11.331  66.281  1.00  0.00    -0.108 C  
HETATM   23  H   UNL     1      -9.053  11.875  64.526  1.00  0.00     0.000 HD 
HETATM   24  C   UNL     1      -7.796  10.084  67.156  1.00  0.00    -0.099 C  
ENDBRANCH  17  18
TORSDOF 1
ENDMDL
MODEL       76
REMARK 921   NORMALIZED FREE ENERGY PREDICTED BY IDOCK:   -4.63 KCAL/MOL
REMARK 922        TOTAL FREE ENERGY PREDICTED BY IDOCK:   -5.26 KCAL/MOL
REMARK 923 INTER-LIGAND FREE ENERGY PREDICTED BY IDOCK:   -5.27 KCAL/MOL
REMARK 924 INTRA-LIGAND FREE ENERGY PREDICTED BY IDOCK:    0.00 KCAL/MOL
REMARK 927      BINDING AFFINITY PREDICTED BY RF-SCORE:    0.00 PKD
ROOT
HETATM    1 CL   UNL     1      -9.274  18.648  65.964  1.00  0.00    -0.115 Cl 
HETATM    2  C   UNL     1      -9.137  17.153  66.803  1.00  0.00    -0.247 A  
HETATM    3  C   UNL     1      -9.327  15.959  66.113  1.00  0.00    -0.385 A  
HETATM    4  C   UNL     1      -9.197  14.735  66.786  1.00  0.00    -0.282 A  
HETATM    5  C   UNL     1      -8.873  14.727  68.141  1.00  0.00    -0.170 A  
HETATM    6  C   UNL     1      -8.710  15.929  68.836  1.00  0.00    -0.225 A  
HETATM    7  O   UNL     1      -8.727  13.565  68.853  1.00  0.00     0.031 OA 
HETATM    8  C   UNL     1      -7.686  12.792  68.394  1.00  0.00    -0.132 A  
HETATM    9  C   UNL     1      -8.833  17.145  68.162  1.00  0.00    -0.237 A  
HETATM   10  C   UNL     1      -6.643  12.554  69.299  1.00  0.00    -0.089 A  
HETATM   11  C   UNL     1      -5.545  11.793  68.906  1.00  0.00    -0.050 A  
HETATM   12  C   UNL     1      -5.506  11.254  67.623  1.00  0.00    -0.043 A  
HETATM   13  C   UNL     1      -6.562  11.482  66.733  1.00  0.00    -0.119 A  
HETATM   14  C   UNL     1      -7.668  12.259  67.098  1.00  0.00    -0.134 A  
HETATM   15  N   UNL     1      -8.711  12.385  66.160  1.00  0.00    -0.408 NA 
HETATM   16  H   UNL     1      -8.927  11.586  65.564  1.00  0.00     0.000 HD 
HETATM   17  C   UNL     1      -9.415  13.473  66.017  1.00  0.00    -0.088 C  
ENDROOT
BRANCH  17  18
HETATM   18  N   UNL     1     -10.413  13.513  65.057  1.00  0.00    -0.356 NA 
HETATM   19  C   UNL     1     -10.338  12.716  63.832  1.00  0.00    -0.377 C  
HETATM   20  C   UNL     1     -11.523  11.743  63.705  1.00  0.00    -0.431 C  
HETATM   21  N   UNL     1     -12.834  12.406  63.858  1.00  0.00    -0.763 NA 
HETATM   22  C   UNL     1     -12.863  13.100  65.160  1.00  0.00    -0.300 C  
HETATM   23  H   UNL     1     -13.614  11.759  63.744  1.00  0.00     0.000 HD 
HETATM   24  C   UNL     1     -11.718  14.124  65.331  1.00  0.00    -0.347 C  
ENDBRANCH  17  18
TORSDOF 1
ENDMDL
MODEL       77
REMARK 921   NORMALIZED FREE ENERGY PREDICTED BY IDOCK:   -4.58 KCAL/MOL
REMARK 922        TOTAL FREE ENERGY PREDICTED BY IDOCK:   -5.21 KCAL/MOL
REMARK 923 INTER-LIGAND FREE ENERGY PREDICTED BY IDOCK:   -5.10 KCAL/MOL
REMARK 924 INTRA-LIGAND FREE ENERGY PREDICTED BY IDOCK:   -0.11 KCAL/MOL
REMARK 927      BINDING AFFINITY PREDICTED BY RF-SCORE:    0.00 PKD
ROOT
HETATM    1 CL   UNL     1     -13.252  10.270  71.324  1.00  0.00    -0.459 Cl 
HETATM    2  C   UNL     1     -12.187  10.904  70.131  1.00  0.00    -0.343 A  
HETATM    3  C   UNL     1     -11.229  10.074  69.556  1.00  0.00    -0.254 A  
HETATM    4  C   UNL     1     -10.371  10.578  68.568  1.00  0.00    -0.199 A  
HETATM    5  C   UNL     1     -10.489  11.907  68.168  1.00  0.00    -0.207 A  
HETATM    6  C   UNL     1     -11.434  12.745  68.767  1.00  0.00    -0.347 A  
HETATM    7  O   UNL     1      -9.684  12.457  67.204  1.00  0.00    -0.201 OA 
HETATM    8  C   UNL     1      -9.850  11.863  65.975  1.00  0.00    -0.235 A  
HETATM    9  C   UNL     1     -12.292  12.238  69.745  1.00  0.00    -0.081 A  
HETATM   10  C   UNL     1     -10.315  12.690  64.944  1.00  0.00    -0.330 A  
HETATM   11  C   UNL     1     -10.523  12.160  63.673  1.00  0.00    -0.495 A  
HETATM   12  C   UNL     1     -10.242  10.817  63.432  1.00  0.00    -0.287 A  
HETATM   13  C   UNL     1      -9.759  10.005  64.466  1.00  0.00    -0.310 A  
HETATM   14  C   UNL     1      -9.560  10.509  65.756  1.00  0.00    -0.210 A  
HETATM   15  N   UNL     1      -9.014   9.637  66.718  1.00  0.00    -0.137 NA 
HETATM   16  H   UNL     1      -8.323   8.951  66.414  1.00  0.00     0.000 HD 
HETATM   17  C   UNL     1      -9.349   9.662  67.977  1.00  0.00    -0.132 C  
ENDROOT
BRANCH  17  18
HETATM   18  N   UNL     1      -8.772   8.754  68.850  1.00  0.00    -0.133 NA 
HETATM   19  C   UNL     1      -7.934   9.185  69.970  1.00  0.00    -0.113 C  
HETATM   20  C   UNL     1      -8.505   8.729  71.323  1.00  0.00    -0.186 C  
HETATM   21  N   UNL     1      -8.796   7.282  71.371  1.00  0.00    -0.130 NA 
HETATM   22  C   UNL     1      -9.725   6.951  70.272  1.00  0.00    -0.172 C  
HETATM   23  H   UNL     1      -9.146   6.984  72.281  1.00  0.00     0.000 HD 
HETATM   24  C   UNL     1      -9.186   7.347  68.879  1.00  0.00    -0.142 C  
ENDBRANCH  17  18
TORSDOF 1
ENDMDL
MODEL       78
REMARK 921   NORMALIZED FREE ENERGY PREDICTED BY IDOCK:   -4.57 KCAL/MOL
REMARK 922        TOTAL FREE ENERGY PREDICTED BY IDOCK:   -5.20 KCAL/MOL
REMARK 923 INTER-LIGAND FREE ENERGY PREDICTED BY IDOCK:   -5.27 KCAL/MOL
REMARK 924 INTRA-LIGAND FREE ENERGY PREDICTED BY IDOCK:    0.08 KCAL/MOL
REMARK 927      BINDING AFFINITY PREDICTED BY RF-SCORE:    0.00 PKD
ROOT
HETATM    1 CL   UNL     1      -5.776  10.334  68.322  1.00  0.00    -0.041 Cl 
HETATM    2  C   UNL     1      -7.384  10.920  68.149  1.00  0.00    -0.089 A  
HETATM    3  C   UNL     1      -8.367  10.501  69.041  1.00  0.00    -0.154 A  
HETATM    4  C   UNL     1      -9.675  10.991  68.919  1.00  0.00    -0.184 A  
HETATM    5  C   UNL     1      -9.979  11.896  67.904  1.00  0.00    -0.191 A  
HETATM    6  C   UNL     1      -8.995  12.292  66.993  1.00  0.00    -0.204 A  
HETATM    7  O   UNL     1     -11.237  12.414  67.735  1.00  0.00    -0.241 OA 
HETATM    8  C   UNL     1     -11.645  13.172  68.808  1.00  0.00    -0.308 A  
HETATM    9  C   UNL     1      -7.692  11.810  67.123  1.00  0.00    -0.162 A  
HETATM   10  C   UNL     1     -11.907  14.523  68.549  1.00  0.00    -0.355 A  
HETATM   11  C   UNL     1     -12.310  15.361  69.587  1.00  0.00    -0.250 A  
HETATM   12  C   UNL     1     -12.473  14.840  70.868  1.00  0.00    -0.396 A  
HETATM   13  C   UNL     1     -12.226  13.484  71.111  1.00  0.00    -0.283 A  
HETATM   14  C   UNL     1     -11.802  12.625  70.090  1.00  0.00    -0.249 A  
HETATM   15  N   UNL     1     -11.637  11.265  70.411  1.00  0.00    -0.472 NA 
HETATM   16  H   UNL     1     -12.276  10.844  71.086  1.00  0.00     0.000 HD 
HETATM   17  C   UNL     1     -10.707  10.515  69.889  1.00  0.00    -0.247 C  
ENDROOT
BRANCH  17  18
HETATM   18  N   UNL     1     -10.609   9.188  70.277  1.00  0.00    -0.210 NA 
HETATM   19  C   UNL     1     -11.099   8.726  71.576  1.00  0.00    -0.307 C  
HETATM   20  C   UNL     1     -12.187   7.648  71.430  1.00  0.00    -0.326 C  
HETATM   21  N   UNL     1     -11.778   6.529  70.558  1.00  0.00    -0.395 NA 
HETATM   22  C   UNL     1     -11.398   7.071  69.240  1.00  0.00     0.004 C  
HETATM   23  H   UNL     1     -12.494   5.805  70.491  1.00  0.00     0.000 HD 
HETATM   24  C   UNL     1     -10.276   8.130  69.317  1.00  0.00    -0.214 C  
ENDBRANCH  17  18
TORSDOF 1
ENDMDL
MODEL       79
REMARK 921   NORMALIZED FREE ENERGY PREDICTED BY IDOCK:   -4.53 KCAL/MOL
REMARK 922        TOTAL FREE ENERGY PREDICTED BY IDOCK:   -5.16 KCAL/MOL
REMARK 923 INTER-LIGAND FREE ENERGY PREDICTED BY IDOCK:   -5.71 KCAL/MOL
REMARK 924 INTRA-LIGAND FREE ENERGY PREDICTED BY IDOCK:    0.55 KCAL/MOL
REMARK 927      BINDING AFFINITY PREDICTED BY RF-SCORE:    0.00 PKD
ROOT
HETATM    1 CL   UNL     1     -12.114  12.879  69.057  1.00  0.00    -0.267 Cl 
HETATM    2  C   UNL     1     -11.061  11.520  69.010  1.00  0.00    -0.245 A  
HETATM    3  C   UNL     1     -11.490  10.302  69.528  1.00  0.00    -0.273 A  
HETATM    4  C   UNL     1     -10.644   9.184  69.474  1.00  0.00    -0.233 A  
HETATM    5  C   UNL     1      -9.382   9.304  68.898  1.00  0.00    -0.150 A  
HETATM    6  C   UNL     1      -8.944  10.537  68.404  1.00  0.00    -0.141 A  
HETATM    7  O   UNL     1      -8.512   8.249  68.811  1.00  0.00    -0.123 OA 
HETATM    8  C   UNL     1      -8.994   7.229  68.024  1.00  0.00    -0.131 A  
HETATM    9  C   UNL     1      -9.792  11.645  68.451  1.00  0.00    -0.202 A  
HETATM   10  C   UNL     1      -8.248   6.922  66.879  1.00  0.00    -0.113 A  
HETATM   11  C   UNL     1      -8.679   5.913  66.022  1.00  0.00    -0.148 A  
HETATM   12  C   UNL     1      -9.836   5.200  66.325  1.00  0.00    -0.209 A  
HETATM   13  C   UNL     1     -10.564   5.502  67.482  1.00  0.00    -0.252 A  
HETATM   14  C   UNL     1     -10.162   6.525  68.349  1.00  0.00    -0.172 A  
HETATM   15  N   UNL     1     -10.920   6.720  69.520  1.00  0.00    -0.291 NA 
HETATM   16  H   UNL     1     -11.324   5.903  69.979  1.00  0.00     0.000 HD 
HETATM   17  C   UNL     1     -11.133   7.893  70.047  1.00  0.00    -0.162 C  
ENDROOT
BRANCH  17  18
HETATM   18  N   UNL     1     -11.906   7.992  71.192  1.00  0.00    -0.289 NA 
HETATM   19  C   UNL     1     -11.738   9.090  72.144  1.00  0.00    -0.296 C  
HETATM   20  C   UNL     1     -13.029   9.911  72.308  1.00  0.00    -0.298 C  
HETATM   21  N   UNL     1     -14.208   9.078  72.621  1.00  0.00    -0.930 NA 
HETATM   22  C   UNL     1     -14.363   8.063  71.561  1.00  0.00    -0.434 C  
HETATM   23  H   UNL     1     -15.053   9.633  72.757  1.00  0.00     0.000 HD 
HETATM   24  C   UNL     1     -13.111   7.176  71.378  1.00  0.00    -0.352 C  
ENDBRANCH  17  18
TORSDOF 1
ENDMDL
MODEL       80
REMARK 921   NORMALIZED FREE ENERGY PREDICTED BY IDOCK:   -4.52 KCAL/MOL
REMARK 922        TOTAL FREE ENERGY PREDICTED BY IDOCK:   -5.15 KCAL/MOL
REMARK 923 INTER-LIGAND FREE ENERGY PREDICTED BY IDOCK:   -5.09 KCAL/MOL
REMARK 924 INTRA-LIGAND FREE ENERGY PREDICTED BY IDOCK:   -0.06 KCAL/MOL
REMARK 927      BINDING AFFINITY PREDICTED BY RF-SCORE:    0.00 PKD
ROOT
HETATM    1 CL   UNL     1     -12.983  14.147  65.084  1.00  0.00    -0.332 Cl 
HETATM    2  C   UNL     1     -11.672  13.089  65.432  1.00  0.00    -0.364 A  
HETATM    3  C   UNL     1     -10.825  13.374  66.499  1.00  0.00    -0.286 A  
HETATM    4  C   UNL     1      -9.767  12.505  66.802  1.00  0.00    -0.234 A  
HETATM    5  C   UNL     1      -9.576  11.360  66.031  1.00  0.00    -0.221 A  
HETATM    6  C   UNL     1     -10.412  11.092  64.943  1.00  0.00    -0.372 A  
HETATM    7  O   UNL     1      -8.563  10.470  66.279  1.00  0.00    -0.138 OA 
HETATM    8  C   UNL     1      -8.680   9.865  67.509  1.00  0.00    -0.121 A  
HETATM    9  C   UNL     1     -11.469  11.955  64.650  1.00  0.00    -0.345 A  
HETATM   10  C   UNL     1      -8.843   8.474  67.504  1.00  0.00    -0.139 A  
HETATM   11  C   UNL     1      -8.984   7.790  68.709  1.00  0.00    -0.141 A  
HETATM   12  C   UNL     1      -8.937   8.493  69.910  1.00  0.00    -0.145 A  
HETATM   13  C   UNL     1      -8.755   9.881  69.904  1.00  0.00    -0.225 A  
HETATM   14  C   UNL     1      -8.630  10.595  68.705  1.00  0.00    -0.150 A  
HETATM   15  N   UNL     1      -8.389  11.979  68.795  1.00  0.00    -0.351 NA 
HETATM   16  H   UNL     1      -7.809  12.322  69.561  1.00  0.00     0.000 HD 
HETATM   17  C   UNL     1      -8.872  12.845  67.949  1.00  0.00    -0.190 C  
ENDROOT
BRANCH  17  18
HETATM   18  N   UNL     1      -8.596  14.191  68.125  1.00  0.00    -0.167 NA 
HETATM   19  C   UNL     1      -7.680  14.913  67.241  1.00  0.00    -0.197 C  
HETATM   20  C   UNL     1      -8.373  16.089  66.531  1.00  0.00    -0.313 C  
HETATM   21  N   UNL     1      -9.077  16.993  67.462  1.00  0.00    -0.222 NA 
HETATM   22  C   UNL     1     -10.051  16.204  68.242  1.00  0.00    -0.232 C  
HETATM   23  H   UNL     1      -9.509  17.785  66.986  1.00  0.00     0.000 HD 
HETATM   24  C   UNL     1      -9.406  15.031  69.014  1.00  0.00    -0.206 C  
ENDBRANCH  17  18
TORSDOF 1
ENDMDL
MODEL       81
REMARK 921   NORMALIZED FREE ENERGY PREDICTED BY IDOCK:   -4.50 KCAL/MOL
REMARK 922        TOTAL FREE ENERGY PREDICTED BY IDOCK:   -5.13 KCAL/MOL
REMARK 923 INTER-LIGAND FREE ENERGY PREDICTED BY IDOCK:   -5.03 KCAL/MOL
REMARK 924 INTRA-LIGAND FREE ENERGY PREDICTED BY IDOCK:   -0.09 KCAL/MOL
REMARK 927      BINDING AFFINITY PREDICTED BY RF-SCORE:    0.00 PKD
ROOT
HETATM    1 CL   UNL     1      -5.882   7.413  73.810  1.00  0.00    -0.056 Cl 
HETATM    2  C   UNL     1      -7.138   7.801  72.701  1.00  0.00    -0.080 A  
HETATM    3  C   UNL     1      -8.378   7.180  72.825  1.00  0.00    -0.123 A  
HETATM    4  C   UNL     1      -9.414   7.508  71.937  1.00  0.00    -0.173 A  
HETATM    5  C   UNL     1      -9.191   8.455  70.941  1.00  0.00    -0.160 A  
HETATM    6  C   UNL     1      -7.937   9.056  70.803  1.00  0.00    -0.172 A  
HETATM    7  O   UNL     1     -10.164   8.821  70.047  1.00  0.00    -0.188 OA 
HETATM    8  C   UNL     1     -11.243   9.420  70.655  1.00  0.00    -0.284 A  
HETATM    9  C   UNL     1      -6.910   8.734  71.693  1.00  0.00    -0.085 A  
HETATM   10  C   UNL     1     -11.508  10.745  70.285  1.00  0.00    -0.406 A  
HETATM   11  C   UNL     1     -12.574  11.426  70.867  1.00  0.00    -0.453 A  
HETATM   12  C   UNL     1     -13.383  10.774  71.795  1.00  0.00    -0.429 A  
HETATM   13  C   UNL     1     -13.120   9.444  72.143  1.00  0.00    -0.526 A  
HETATM   14  C   UNL     1     -12.043   8.743  71.586  1.00  0.00    -0.337 A  
HETATM   15  N   UNL     1     -11.891   7.391  71.948  1.00  0.00    -0.287 NA 
HETATM   16  H   UNL     1     -12.730   6.833  72.104  1.00  0.00     0.000 HD 
HETATM   17  C   UNL     1     -10.729   6.817  72.093  1.00  0.00    -0.220 C  
ENDROOT
BRANCH  17  18
HETATM   18  N   UNL     1     -10.675   5.484  72.468  1.00  0.00    -0.228 NA 
HETATM   19  C   UNL     1     -10.005   4.478  71.643  1.00  0.00    -0.196 C  
HETATM   20  C   UNL     1      -8.857   3.787  72.398  1.00  0.00    -0.100 C  
HETATM   21  N   UNL     1      -9.268   3.248  73.709  1.00  0.00    -0.092 NA 
HETATM   22  C   UNL     1      -9.838   4.347  74.514  1.00  0.00    -0.168 C  
HETATM   23  H   UNL     1      -8.508   2.767  74.190  1.00  0.00     0.000 HD 
HETATM   24  C   UNL     1     -11.027   5.053  73.825  1.00  0.00    -0.269 C  
ENDBRANCH  17  18
TORSDOF 1
ENDMDL
MODEL       82
REMARK 921   NORMALIZED FREE ENERGY PREDICTED BY IDOCK:   -4.49 KCAL/MOL
REMARK 922        TOTAL FREE ENERGY PREDICTED BY IDOCK:   -5.11 KCAL/MOL
REMARK 923 INTER-LIGAND FREE ENERGY PREDICTED BY IDOCK:   -5.03 KCAL/MOL
REMARK 924 INTRA-LIGAND FREE ENERGY PREDICTED BY IDOCK:   -0.08 KCAL/MOL
REMARK 927      BINDING AFFINITY PREDICTED BY RF-SCORE:    0.00 PKD
ROOT
HETATM    1 CL   UNL     1      -8.636   5.516  65.379  1.00  0.00    -0.149 Cl 
HETATM    2  C   UNL     1      -8.683   6.538  66.762  1.00  0.00    -0.123 A  
HETATM    3  C   UNL     1      -9.032   7.877  66.614  1.00  0.00    -0.179 A  
HETATM    4  C   UNL     1      -9.093   8.711  67.740  1.00  0.00    -0.143 A  
HETATM    5  C   UNL     1      -8.805   8.188  68.999  1.00  0.00    -0.144 A  
HETATM    6  C   UNL     1      -8.428   6.850  69.139  1.00  0.00    -0.129 A  
HETATM    7  O   UNL     1      -8.852   8.950  70.137  1.00  0.00    -0.141 OA 
HETATM    8  C   UNL     1     -10.114   9.428  70.403  1.00  0.00    -0.255 A  
HETATM    9  C   UNL     1      -8.377   6.020  68.018  1.00  0.00    -0.116 A  
HETATM   10  C   UNL     1     -10.697   9.006  71.604  1.00  0.00    -0.441 A  
HETATM   11  C   UNL     1     -11.980   9.433  71.938  1.00  0.00    -0.416 A  
HETATM   12  C   UNL     1     -12.662  10.297  71.085  1.00  0.00    -0.502 A  
HETATM   13  C   UNL     1     -12.062  10.728  69.896  1.00  0.00    -0.410 A  
HETATM   14  C   UNL     1     -10.781  10.298  69.528  1.00  0.00    -0.249 A  
HETATM   15  N   UNL     1     -10.231  10.829  68.346  1.00  0.00    -0.168 NA 
HETATM   16  H   UNL     1     -10.444  11.797  68.104  1.00  0.00     0.000 HD 
HETATM   17  C   UNL     1      -9.464  10.145  67.544  1.00  0.00    -0.152 C  
ENDROOT
BRANCH  17  18
HETATM   18  N   UNL     1      -8.981  10.745  66.393  1.00  0.00    -0.162 NA 
HETATM   19  C   UNL     1      -7.548  10.824  66.107  1.00  0.00    -0.139 C  
HETATM   20  C   UNL     1      -7.185  10.116  64.791  1.00  0.00    -0.130 C  
HETATM   21  N   UNL     1      -8.006  10.562  63.648  1.00  0.00    -0.328 NA 
HETATM   22  C   UNL     1      -9.429  10.355  63.979  1.00  0.00    -0.299 C  
HETATM   23  H   UNL     1      -7.739  10.109  62.774  1.00  0.00     0.000 HD 
HETATM   24  C   UNL     1      -9.866  11.079  65.272  1.00  0.00    -0.259 C  
ENDBRANCH  17  18
TORSDOF 1
ENDMDL
MODEL       83
REMARK 921   NORMALIZED FREE ENERGY PREDICTED BY IDOCK:   -4.47 KCAL/MOL
REMARK 922        TOTAL FREE ENERGY PREDICTED BY IDOCK:   -5.10 KCAL/MOL
REMARK 923 INTER-LIGAND FREE ENERGY PREDICTED BY IDOCK:   -4.93 KCAL/MOL
REMARK 924 INTRA-LIGAND FREE ENERGY PREDICTED BY IDOCK:   -0.17 KCAL/MOL
REMARK 927      BINDING AFFINITY PREDICTED BY RF-SCORE:    0.00 PKD
ROOT
HETATM    1 CL   UNL     1     -12.653  14.819  71.444  1.00  0.00    -0.368 Cl 
HETATM    2  C   UNL     1     -11.871  14.130  70.075  1.00  0.00    -0.323 A  
HETATM    3  C   UNL     1     -10.880  14.852  69.416  1.00  0.00    -0.274 A  
HETATM    4  C   UNL     1     -10.224  14.288  68.312  1.00  0.00    -0.244 A  
HETATM    5  C   UNL     1     -10.569  13.007  67.887  1.00  0.00    -0.229 A  
HETATM    6  C   UNL     1     -11.584  12.297  68.535  1.00  0.00    -0.359 A  
HETATM    7  O   UNL     1      -9.962  12.400  66.819  1.00  0.00    -0.218 OA 
HETATM    8  C   UNL     1      -8.619  12.187  67.026  1.00  0.00    -0.191 A  
HETATM    9  C   UNL     1     -12.230  12.857  69.638  1.00  0.00    -0.203 A  
HETATM   10  C   UNL     1      -8.194  10.852  67.021  1.00  0.00    -0.134 A  
HETATM   11  C   UNL     1      -6.852  10.551  67.238  1.00  0.00    -0.082 A  
HETATM   12  C   UNL     1      -5.938  11.585  67.434  1.00  0.00    -0.082 A  
HETATM   13  C   UNL     1      -6.370  12.916  67.417  1.00  0.00    -0.119 A  
HETATM   14  C   UNL     1      -7.717  13.243  67.220  1.00  0.00    -0.088 A  
HETATM   15  N   UNL     1      -8.052  14.609  67.158  1.00  0.00    -0.280 NA 
HETATM   16  H   UNL     1      -7.388  15.253  66.728  1.00  0.00     0.000 HD 
HETATM   17  C   UNL     1      -9.170  15.093  67.623  1.00  0.00    -0.181 C  
ENDROOT
BRANCH  17  18
HETATM   18  N   UNL     1      -9.408  16.455  67.533  1.00  0.00    -0.213 NA 
HETATM   19  C   UNL     1      -8.354  17.440  67.774  1.00  0.00    -0.218 C  
HETATM   20  C   UNL     1      -8.109  18.332  66.544  1.00  0.00    -0.269 C  
HETATM   21  N   UNL     1      -9.344  18.953  66.025  1.00  0.00    -0.466 NA 
HETATM   22  C   UNL     1     -10.315  17.886  65.714  1.00  0.00    -0.180 C  
HETATM   23  H   UNL     1      -9.169  19.565  65.229  1.00  0.00     0.000 HD 
HETATM   24  C   UNL     1     -10.635  16.981  66.925  1.00  0.00    -0.208 C  
ENDBRANCH  17  18
TORSDOF 1
ENDMDL
MODEL       84
REMARK 921   NORMALIZED FREE ENERGY PREDICTED BY IDOCK:   -4.44 KCAL/MOL
REMARK 922        TOTAL FREE ENERGY PREDICTED BY IDOCK:   -5.06 KCAL/MOL
REMARK 923 INTER-LIGAND FREE ENERGY PREDICTED BY IDOCK:   -4.96 KCAL/MOL
REMARK 924 INTRA-LIGAND FREE ENERGY PREDICTED BY IDOCK:   -0.10 KCAL/MOL
REMARK 927      BINDING AFFINITY PREDICTED BY RF-SCORE:    0.00 PKD
ROOT
HETATM    1 CL   UNL     1      -8.950   3.238  70.048  1.00  0.00    -0.156 Cl 
HETATM    2  C   UNL     1      -9.490   4.588  69.128  1.00  0.00    -0.164 A  
HETATM    3  C   UNL     1      -9.673   5.817  69.755  1.00  0.00    -0.210 A  
HETATM    4  C   UNL     1     -10.093   6.927  69.007  1.00  0.00    -0.175 A  
HETATM    5  C   UNL     1     -10.320   6.788  67.640  1.00  0.00    -0.203 A  
HETATM    6  C   UNL     1     -10.161   5.546  67.019  1.00  0.00    -0.265 A  
HETATM    7  O   UNL     1     -10.726   7.836  66.855  1.00  0.00    -0.345 OA 
HETATM    8  C   UNL     1      -9.797   8.848  66.801  1.00  0.00    -0.241 A  
HETATM    9  C   UNL     1      -9.735   4.445  67.764  1.00  0.00    -0.191 A  
HETATM   10  C   UNL     1      -9.262   9.134  65.539  1.00  0.00    -0.287 A  
HETATM   11  C   UNL     1      -8.303  10.136  65.404  1.00  0.00    -0.159 A  
HETATM   12  C   UNL     1      -7.905  10.862  66.524  1.00  0.00    -0.152 A  
HETATM   13  C   UNL     1      -8.461  10.581  67.778  1.00  0.00    -0.114 A  
HETATM   14  C   UNL     1      -9.411   9.566  67.942  1.00  0.00    -0.132 A  
HETATM   15  N   UNL     1      -9.961   9.393  69.227  1.00  0.00    -0.173 NA 
HETATM   16  H   UNL     1     -10.112  10.220  69.806  1.00  0.00     0.000 HD 
HETATM   17  C   UNL     1     -10.287   8.229  69.714  1.00  0.00    -0.216 C  
ENDROOT
BRANCH  17  18
HETATM   18  N   UNL     1     -10.807   8.152  70.996  1.00  0.00    -0.231 NA 
HETATM   19  C   UNL     1     -12.135   7.594  71.258  1.00  0.00    -0.314 C  
HETATM   20  C   UNL     1     -12.072   6.379  72.198  1.00  0.00    -0.268 C  
HETATM   21  N   UNL     1     -11.326   6.648  73.443  1.00  0.00    -0.433 NA 
HETATM   22  C   UNL     1      -9.969   7.109  73.090  1.00  0.00    -0.228 C  
HETATM   23  H   UNL     1     -11.314   5.847  74.074  1.00  0.00     0.000 HD 
HETATM   24  C   UNL     1      -9.966   8.357  72.180  1.00  0.00    -0.306 C  
ENDBRANCH  17  18
TORSDOF 1
ENDMDL
MODEL       85
REMARK 921   NORMALIZED FREE ENERGY PREDICTED BY IDOCK:   -4.42 KCAL/MOL
REMARK 922        TOTAL FREE ENERGY PREDICTED BY IDOCK:   -5.04 KCAL/MOL
REMARK 923 INTER-LIGAND FREE ENERGY PREDICTED BY IDOCK:   -4.67 KCAL/MOL
REMARK 924 INTRA-LIGAND FREE ENERGY PREDICTED BY IDOCK:   -0.36 KCAL/MOL
REMARK 927      BINDING AFFINITY PREDICTED BY RF-SCORE:    0.00 PKD
ROOT
HETATM    1 CL   UNL     1      -6.696   5.019  74.213  1.00  0.00    -0.070 Cl 
HETATM    2  C   UNL     1      -7.755   6.167  73.492  1.00  0.00    -0.095 A  
HETATM    3  C   UNL     1      -8.393   5.855  72.295  1.00  0.00    -0.118 A  
HETATM    4  C   UNL     1      -9.274   6.778  71.712  1.00  0.00    -0.147 A  
HETATM    5  C   UNL     1      -9.506   7.999  72.341  1.00  0.00    -0.215 A  
HETATM    6  C   UNL     1      -8.842   8.320  73.529  1.00  0.00    -0.255 A  
HETATM    7  O   UNL     1     -10.358   8.939  71.824  1.00  0.00    -0.310 OA 
HETATM    8  C   UNL     1     -11.659   8.496  71.763  1.00  0.00    -0.312 A  
HETATM    9  C   UNL     1      -7.972   7.396  74.111  1.00  0.00    -0.178 A  
HETATM   10  C   UNL     1     -12.594   9.208  72.525  1.00  0.00    -0.311 A  
HETATM   11  C   UNL     1     -13.930   8.813  72.528  1.00  0.00    -0.430 A  
HETATM   12  C   UNL     1     -14.328   7.727  71.752  1.00  0.00    -0.594 A  
HETATM   13  C   UNL     1     -13.388   7.035  70.979  1.00  0.00    -0.079 A  
HETATM   14  C   UNL     1     -12.037   7.401  70.974  1.00  0.00    -0.298 A  
HETATM   15  N   UNL     1     -11.173   6.687  70.121  1.00  0.00    -0.331 NA 
HETATM   16  H   UNL     1     -11.534   6.368  69.221  1.00  0.00     0.000 HD 
HETATM   17  C   UNL     1      -9.935   6.414  70.423  1.00  0.00    -0.183 C  
ENDROOT
BRANCH  17  18
HETATM   18  N   UNL     1      -9.163   5.691  69.528  1.00  0.00    -0.127 NA 
HETATM   19  C   UNL     1      -9.509   4.324  69.139  1.00  0.00    -0.175 C  
HETATM   20  C   UNL     1      -9.742   4.198  67.623  1.00  0.00    -0.122 C  
HETATM   21  N   UNL     1      -8.629   4.741  66.819  1.00  0.00    -0.109 NA 
HETATM   22  C   UNL     1      -8.414   6.150  67.202  1.00  0.00    -0.104 C  
HETATM   23  H   UNL     1      -8.779   4.628  65.817  1.00  0.00     0.000 HD 
HETATM   24  C   UNL     1      -8.130   6.336  68.709  1.00  0.00    -0.109 C  
ENDBRANCH  17  18
TORSDOF 1
ENDMDL
MODEL       86
REMARK 921   NORMALIZED FREE ENERGY PREDICTED BY IDOCK:   -4.40 KCAL/MOL
REMARK 922        TOTAL FREE ENERGY PREDICTED BY IDOCK:   -5.02 KCAL/MOL
REMARK 923 INTER-LIGAND FREE ENERGY PREDICTED BY IDOCK:   -4.71 KCAL/MOL
REMARK 924 INTRA-LIGAND FREE ENERGY PREDICTED BY IDOCK:   -0.32 KCAL/MOL
REMARK 927      BINDING AFFINITY PREDICTED BY RF-SCORE:    0.00 PKD
ROOT
HETATM    1 CL   UNL     1      -6.752  13.611  67.984  1.00  0.00    -0.122 Cl 
HETATM    2  C   UNL     1      -8.259  12.805  68.182  1.00  0.00    -0.167 A  
HETATM    3  C   UNL     1      -8.283  11.419  68.314  1.00  0.00    -0.150 A  
HETATM    4  C   UNL     1      -9.506  10.757  68.496  1.00  0.00    -0.181 A  
HETATM    5  C   UNL     1     -10.687  11.495  68.547  1.00  0.00    -0.209 A  
HETATM    6  C   UNL     1     -10.660  12.883  68.386  1.00  0.00    -0.267 A  
HETATM    7  O   UNL     1     -11.912  10.907  68.727  1.00  0.00    -0.441 OA 
HETATM    8  C   UNL     1     -12.020  10.273  69.943  1.00  0.00    -0.150 A  
HETATM    9  C   UNL     1      -9.441  13.540  68.213  1.00  0.00    -0.212 A  
HETATM   10  C   UNL     1     -13.002  10.762  70.813  1.00  0.00    -0.348 A  
HETATM   11  C   UNL     1     -13.164  10.184  72.070  1.00  0.00    -0.534 A  
HETATM   12  C   UNL     1     -12.363   9.106  72.440  1.00  0.00    -0.310 A  
HETATM   13  C   UNL     1     -11.397   8.613  71.555  1.00  0.00    -0.358 A  
HETATM   14  C   UNL     1     -11.202   9.189  70.294  1.00  0.00    -0.218 A  
HETATM   15  N   UNL     1     -10.250   8.591  69.446  1.00  0.00    -0.206 NA 
HETATM   16  H   UNL     1     -10.144   7.576  69.475  1.00  0.00     0.000 HD 
HETATM   17  C   UNL     1      -9.497   9.268  68.626  1.00  0.00    -0.146 C  
ENDROOT
BRANCH  17  18
HETATM   18  N   UNL     1      -8.575   8.596  67.840  1.00  0.00    -0.136 NA 
HETATM   19  C   UNL     1      -7.598   7.672  68.416  1.00  0.00    -0.113 C  
HETATM   20  C   UNL     1      -7.746   6.251  67.848  1.00  0.00    -0.103 C  
HETATM   21  N   UNL     1      -7.743   6.215  66.372  1.00  0.00    -0.101 NA 
HETATM   22  C   UNL     1      -8.821   7.092  65.876  1.00  0.00    -0.103 C  
HETATM   23  H   UNL     1      -7.812   5.266  66.004  1.00  0.00     0.000 HD 
HETATM   24  C   UNL     1      -8.702   8.548  66.379  1.00  0.00    -0.133 C  
ENDBRANCH  17  18
TORSDOF 1
ENDMDL
MODEL       87
REMARK 921   NORMALIZED FREE ENERGY PREDICTED BY IDOCK:   -4.40 KCAL/MOL
REMARK 922        TOTAL FREE ENERGY PREDICTED BY IDOCK:   -5.02 KCAL/MOL
REMARK 923 INTER-LIGAND FREE ENERGY PREDICTED BY IDOCK:   -4.66 KCAL/MOL
REMARK 924 INTRA-LIGAND FREE ENERGY PREDICTED BY IDOCK:   -0.36 KCAL/MOL
REMARK 927      BINDING AFFINITY PREDICTED BY RF-SCORE:    0.00 PKD
ROOT
HETATM    1 CL   UNL     1     -12.238  15.477  70.963  1.00  0.00    -0.404 Cl 
HETATM    2  C   UNL     1     -11.540  14.715  69.589  1.00  0.00    -0.307 A  
HETATM    3  C   UNL     1     -10.235  15.027  69.219  1.00  0.00    -0.244 A  
HETATM    4  C   UNL     1      -9.652  14.394  68.112  1.00  0.00    -0.218 A  
HETATM    5  C   UNL     1     -10.385  13.453  67.393  1.00  0.00    -0.240 A  
HETATM    6  C   UNL     1     -11.705  13.162  67.751  1.00  0.00    -0.401 A  
HETATM    7  O   UNL     1      -9.870  12.797  66.306  1.00  0.00    -0.258 OA 
HETATM    8  C   UNL     1      -8.792  12.005  66.628  1.00  0.00    -0.191 A  
HETATM    9  C   UNL     1     -12.280  13.788  68.859  1.00  0.00    -0.235 A  
HETATM   10  C   UNL     1      -8.940  10.631  66.400  1.00  0.00    -0.176 A  
HETATM   11  C   UNL     1      -7.899   9.761  66.715  1.00  0.00    -0.102 A  
HETATM   12  C   UNL     1      -6.709  10.270  67.230  1.00  0.00    -0.073 A  
HETATM   13  C   UNL     1      -6.565  11.647  67.435  1.00  0.00    -0.106 A  
HETATM   14  C   UNL     1      -7.604  12.540  67.145  1.00  0.00    -0.085 A  
HETATM   15  N   UNL     1      -7.350  13.913  67.325  1.00  0.00    -0.330 NA 
HETATM   16  H   UNL     1      -6.413  14.265  67.123  1.00  0.00     0.000 HD 
HETATM   17  C   UNL     1      -8.252  14.759  67.739  1.00  0.00    -0.159 C  
ENDROOT
BRANCH  17  18
HETATM   18  N   UNL     1      -7.907  16.090  67.903  1.00  0.00    -0.135 NA 
HETATM   19  C   UNL     1      -6.899  16.512  68.876  1.00  0.00    -0.186 C  
HETATM   20  C   UNL     1      -5.723  17.242  68.204  1.00  0.00    -0.121 C  
HETATM   21  N   UNL     1      -6.153  18.352  67.331  1.00  0.00    -0.167 NA 
HETATM   22  C   UNL     1      -7.088  17.822  66.319  1.00  0.00    -0.294 C  
HETATM   23  H   UNL     1      -5.366  18.849  66.914  1.00  0.00     0.000 HD 
HETATM   24  C   UNL     1      -8.315  17.114  66.935  1.00  0.00    -0.224 C  
ENDBRANCH  17  18
TORSDOF 1
ENDMDL
MODEL       88
REMARK 921   NORMALIZED FREE ENERGY PREDICTED BY IDOCK:   -4.40 KCAL/MOL
REMARK 922        TOTAL FREE ENERGY PREDICTED BY IDOCK:   -5.02 KCAL/MOL
REMARK 923 INTER-LIGAND FREE ENERGY PREDICTED BY IDOCK:   -4.92 KCAL/MOL
REMARK 924 INTRA-LIGAND FREE ENERGY PREDICTED BY IDOCK:   -0.09 KCAL/MOL
REMARK 927      BINDING AFFINITY PREDICTED BY RF-SCORE:    0.00 PKD
ROOT
HETATM    1 CL   UNL     1     -10.377  20.108  68.689  1.00  0.00    -0.450 Cl 
HETATM    2  C   UNL     1      -9.850  18.612  68.023  1.00  0.00    -0.342 A  
HETATM    3  C   UNL     1      -8.496  18.411  67.772  1.00  0.00    -0.270 A  
HETATM    4  C   UNL     1      -8.057  17.186  67.249  1.00  0.00    -0.206 A  
HETATM    5  C   UNL     1      -8.983  16.179  66.987  1.00  0.00    -0.211 A  
HETATM    6  C   UNL     1     -10.345  16.394  67.214  1.00  0.00    -0.287 A  
HETATM    7  O   UNL     1      -8.616  14.959  66.480  1.00  0.00    -0.230 OA 
HETATM    8  C   UNL     1      -7.794  14.258  67.332  1.00  0.00    -0.187 A  
HETATM    9  C   UNL     1     -10.778  17.612  67.744  1.00  0.00    -0.336 A  
HETATM   10  C   UNL     1      -8.286  13.034  67.803  1.00  0.00    -0.168 A  
HETATM   11  C   UNL     1      -7.520  12.272  68.681  1.00  0.00    -0.100 A  
HETATM   12  C   UNL     1      -6.258  12.723  69.063  1.00  0.00    -0.095 A  
HETATM   13  C   UNL     1      -5.768  13.939  68.571  1.00  0.00    -0.093 A  
HETATM   14  C   UNL     1      -6.527  14.732  67.702  1.00  0.00    -0.139 A  
HETATM   15  N   UNL     1      -5.932  15.909  67.209  1.00  0.00    -0.325 NA 
HETATM   16  H   UNL     1      -4.929  15.902  67.018  1.00  0.00     0.000 HD 
HETATM   17  C   UNL     1      -6.597  17.007  66.984  1.00  0.00    -0.202 C  
ENDROOT
BRANCH  17  18
HETATM   18  N   UNL     1      -5.925  18.123  66.514  1.00  0.00    -0.152 NA 
HETATM   19  C   UNL     1      -6.139  18.640  65.162  1.00  0.00    -0.259 C  
HETATM   20  C   UNL     1      -6.652  20.090  65.176  1.00  0.00    -0.295 C  
HETATM   21  N   UNL     1      -5.815  20.992  65.991  1.00  0.00    -0.239 NA 
HETATM   22  C   UNL     1      -5.733  20.452  67.362  1.00  0.00    -0.178 C  
HETATM   23  H   UNL     1      -6.145  21.957  65.971  1.00  0.00     0.000 HD 
HETATM   24  C   UNL     1      -5.182  19.009  67.417  1.00  0.00    -0.160 C  
ENDBRANCH  17  18
TORSDOF 1
ENDMDL
MODEL       89
REMARK 921   NORMALIZED FREE ENERGY PREDICTED BY IDOCK:   -4.36 KCAL/MOL
REMARK 922        TOTAL FREE ENERGY PREDICTED BY IDOCK:   -4.98 KCAL/MOL
REMARK 923 INTER-LIGAND FREE ENERGY PREDICTED BY IDOCK:   -4.62 KCAL/MOL
REMARK 924 INTRA-LIGAND FREE ENERGY PREDICTED BY IDOCK:   -0.36 KCAL/MOL
REMARK 927      BINDING AFFINITY PREDICTED BY RF-SCORE:    0.00 PKD
ROOT
HETATM    1 CL   UNL     1     -10.170   9.223  71.558  1.00  0.00    -0.391 Cl 
HETATM    2  C   UNL     1     -10.103   9.187  69.840  1.00  0.00    -0.202 A  
HETATM    3  C   UNL     1      -9.742  10.337  69.143  1.00  0.00    -0.229 A  
HETATM    4  C   UNL     1      -9.664  10.309  67.743  1.00  0.00    -0.178 A  
HETATM    5  C   UNL     1      -9.946   9.127  67.062  1.00  0.00    -0.230 A  
HETATM    6  C   UNL     1     -10.335   7.982  67.763  1.00  0.00    -0.294 A  
HETATM    7  O   UNL     1      -9.884   9.035  65.696  1.00  0.00    -0.227 OA 
HETATM    8  C   UNL     1      -8.615   9.248  65.209  1.00  0.00    -0.166 A  
HETATM    9  C   UNL     1     -10.403   8.010  69.158  1.00  0.00    -0.226 A  
HETATM   10  C   UNL     1      -8.026   8.179  64.523  1.00  0.00    -0.142 A  
HETATM   11  C   UNL     1      -6.736   8.310  64.013  1.00  0.00    -0.071 A  
HETATM   12  C   UNL     1      -6.054   9.514  64.169  1.00  0.00    -0.095 A  
HETATM   13  C   UNL     1      -6.660  10.583  64.840  1.00  0.00     0.009 A  
HETATM   14  C   UNL     1      -7.947  10.469  65.378  1.00  0.00    -0.129 A  
HETATM   15  N   UNL     1      -8.502  11.613  65.983  1.00  0.00    -0.380 NA 
HETATM   16  H   UNL     1      -8.282  12.527  65.586  1.00  0.00     0.000 HD 
HETATM   17  C   UNL     1      -9.282  11.563  67.026  1.00  0.00    -0.176 C  
ENDROOT
BRANCH  17  18
HETATM   18  N   UNL     1      -9.769  12.743  67.565  1.00  0.00    -0.197 NA 
HETATM   19  C   UNL     1      -8.877  13.794  68.055  1.00  0.00    -0.182 C  
HETATM   20  C   UNL     1      -9.088  15.122  67.308  1.00  0.00    -0.198 C  
HETATM   21  N   UNL     1     -10.500  15.555  67.286  1.00  0.00    -0.273 NA 
HETATM   22  C   UNL     1     -11.314  14.481  66.686  1.00  0.00    -0.356 C  
HETATM   23  H   UNL     1     -10.626  16.450  66.814  1.00  0.00     0.000 HD 
HETATM   24  C   UNL     1     -11.177  13.129  67.421  1.00  0.00    -0.287 C  
ENDBRANCH  17  18
TORSDOF 1
ENDMDL
MODEL       90
REMARK 921   NORMALIZED FREE ENERGY PREDICTED BY IDOCK:   -4.33 KCAL/MOL
REMARK 922        TOTAL FREE ENERGY PREDICTED BY IDOCK:   -4.95 KCAL/MOL
REMARK 923 INTER-LIGAND FREE ENERGY PREDICTED BY IDOCK:   -4.85 KCAL/MOL
REMARK 924 INTRA-LIGAND FREE ENERGY PREDICTED BY IDOCK:   -0.10 KCAL/MOL
REMARK 927      BINDING AFFINITY PREDICTED BY RF-SCORE:    0.00 PKD
ROOT
HETATM    1 CL   UNL     1      -6.212  11.478  69.840  1.00  0.00    -0.137 Cl 
HETATM    2  C   UNL     1      -7.446  10.281  69.909  1.00  0.00    -0.158 A  
HETATM    3  C   UNL     1      -8.452  10.276  68.947  1.00  0.00    -0.138 A  
HETATM    4  C   UNL     1      -9.449   9.290  68.985  1.00  0.00    -0.155 A  
HETATM    5  C   UNL     1      -9.421   8.322  69.987  1.00  0.00    -0.167 A  
HETATM    6  C   UNL     1      -8.425   8.348  70.967  1.00  0.00    -0.167 A  
HETATM    7  O   UNL     1     -10.363   7.331  70.075  1.00  0.00    -0.204 OA 
HETATM    8  C   UNL     1     -10.351   6.491  68.985  1.00  0.00    -0.195 A  
HETATM    9  C   UNL     1      -7.428   9.325  70.921  1.00  0.00    -0.123 A  
HETATM   10  C   UNL     1     -10.052   5.147  69.240  1.00  0.00    -0.283 A  
HETATM   11  C   UNL     1     -10.005   4.236  68.187  1.00  0.00    -0.035 A  
HETATM   12  C   UNL     1     -10.281   4.667  66.892  1.00  0.00    -0.200 A  
HETATM   13  C   UNL     1     -10.598   6.010  66.651  1.00  0.00    -0.312 A  
HETATM   14  C   UNL     1     -10.633   6.948  67.690  1.00  0.00    -0.261 A  
HETATM   15  N   UNL     1     -11.020   8.262  67.365  1.00  0.00    -0.466 NA 
HETATM   16  H   UNL     1     -11.729   8.396  66.643  1.00  0.00     0.000 HD 
HETATM   17  C   UNL     1     -10.518   9.318  67.942  1.00  0.00    -0.236 C  
ENDROOT
BRANCH  17  18
HETATM   18  N   UNL     1     -10.947  10.575  67.547  1.00  0.00    -0.303 NA 
HETATM   19  C   UNL     1     -11.561  11.512  68.488  1.00  0.00    -0.313 C  
HETATM   20  C   UNL     1     -10.766  12.824  68.594  1.00  0.00    -0.246 C  
HETATM   21  N   UNL     1     -10.501  13.447  67.282  1.00  0.00    -0.247 NA 
HETATM   22  C   UNL     1      -9.791  12.472  66.431  1.00  0.00    -0.253 C  
HETATM   23  H   UNL     1      -9.999  14.331  67.364  1.00  0.00     0.000 HD 
HETATM   24  C   UNL     1     -10.563  11.145  66.251  1.00  0.00    -0.253 C  
ENDBRANCH  17  18
TORSDOF 1
ENDMDL
MODEL       91
REMARK 921   NORMALIZED FREE ENERGY PREDICTED BY IDOCK:   -4.32 KCAL/MOL
REMARK 922        TOTAL FREE ENERGY PREDICTED BY IDOCK:   -4.94 KCAL/MOL
REMARK 923 INTER-LIGAND FREE ENERGY PREDICTED BY IDOCK:   -4.58 KCAL/MOL
REMARK 924 INTRA-LIGAND FREE ENERGY PREDICTED BY IDOCK:   -0.35 KCAL/MOL
REMARK 927      BINDING AFFINITY PREDICTED BY RF-SCORE:    0.00 PKD
ROOT
HETATM    1 CL   UNL     1      -7.321   9.262  64.643  1.00  0.00    -0.098 Cl 
HETATM    2  C   UNL     1      -8.525   8.441  65.557  1.00  0.00    -0.168 A  
HETATM    3  C   UNL     1      -8.470   7.055  65.676  1.00  0.00    -0.144 A  
HETATM    4  C   UNL     1      -9.435   6.381  66.437  1.00  0.00    -0.169 A  
HETATM    5  C   UNL     1     -10.441   7.107  67.071  1.00  0.00    -0.322 A  
HETATM    6  C   UNL     1     -10.510   8.496  66.926  1.00  0.00    -0.345 A  
HETATM    7  O   UNL     1     -11.411   6.507  67.832  1.00  0.00    -0.245 OA 
HETATM    8  C   UNL     1     -10.896   5.872  68.938  1.00  0.00    -0.303 A  
HETATM    9  C   UNL     1      -9.542   9.165  66.174  1.00  0.00    -0.333 A  
HETATM   10  C   UNL     1     -11.322   6.351  70.184  1.00  0.00    -0.485 A  
HETATM   11  C   UNL     1     -10.835   5.771  71.352  1.00  0.00    -0.316 A  
HETATM   12  C   UNL     1      -9.947   4.701  71.271  1.00  0.00    -0.268 A  
HETATM   13  C   UNL     1      -9.543   4.218  70.020  1.00  0.00    -0.274 A  
HETATM   14  C   UNL     1     -10.004   4.796  68.832  1.00  0.00    -0.126 A  
HETATM   15  N   UNL     1      -9.593   4.207  67.621  1.00  0.00    -0.177 NA 
HETATM   16  H   UNL     1      -9.478   3.194  67.588  1.00  0.00     0.000 HD 
HETATM   17  C   UNL     1      -9.351   4.893  66.538  1.00  0.00    -0.142 C  
ENDROOT
BRANCH  17  18
HETATM   18  N   UNL     1      -8.935   4.230  65.395  1.00  0.00    -0.128 NA 
HETATM   19  C   UNL     1      -7.722   3.411  65.376  1.00  0.00    -0.081 C  
HETATM   20  C   UNL     1      -8.022   1.948  65.008  1.00  0.00    -0.074 C  
HETATM   21  N   UNL     1      -8.804   1.814  63.763  1.00  0.00    -0.088 NA 
HETATM   22  C   UNL     1     -10.054   2.585  63.905  1.00  0.00    -0.125 C  
HETATM   23  H   UNL     1      -8.973   0.840  63.511  1.00  0.00     0.000 HD 
HETATM   24  C   UNL     1      -9.817   4.076  64.233  1.00  0.00    -0.172 C  
ENDBRANCH  17  18
TORSDOF 1
ENDMDL
MODEL       92
REMARK 921   NORMALIZED FREE ENERGY PREDICTED BY IDOCK:   -4.31 KCAL/MOL
REMARK 922        TOTAL FREE ENERGY PREDICTED BY IDOCK:   -4.93 KCAL/MOL
REMARK 923 INTER-LIGAND FREE ENERGY PREDICTED BY IDOCK:   -5.07 KCAL/MOL
REMARK 924 INTRA-LIGAND FREE ENERGY PREDICTED BY IDOCK:    0.14 KCAL/MOL
REMARK 927      BINDING AFFINITY PREDICTED BY RF-SCORE:    0.00 PKD
ROOT
HETATM    1 CL   UNL     1      -6.350   7.563  71.184  1.00  0.00    -0.036 Cl 
HETATM    2  C   UNL     1      -7.466   8.243  70.066  1.00  0.00    -0.064 A  
HETATM    3  C   UNL     1      -8.697   8.708  70.521  1.00  0.00    -0.178 A  
HETATM    4  C   UNL     1      -9.603   9.284  69.619  1.00  0.00    -0.192 A  
HETATM    5  C   UNL     1      -9.260   9.388  68.272  1.00  0.00    -0.130 A  
HETATM    6  C   UNL     1      -8.035   8.895  67.814  1.00  0.00    -0.102 A  
HETATM    7  O   UNL     1     -10.100   9.944  67.343  1.00  0.00    -0.182 OA 
HETATM    8  C   UNL     1     -10.353  11.274  67.588  1.00  0.00    -0.184 A  
HETATM    9  C   UNL     1      -7.131   8.330  68.717  1.00  0.00    -0.071 A  
HETATM   10  C   UNL     1      -9.940  12.177  66.600  1.00  0.00    -0.222 A  
HETATM   11  C   UNL     1     -10.146  13.543  66.781  1.00  0.00    -0.268 A  
HETATM   12  C   UNL     1     -10.785  13.996  67.932  1.00  0.00    -0.246 A  
HETATM   13  C   UNL     1     -11.212  13.083  68.904  1.00  0.00    -0.326 A  
HETATM   14  C   UNL     1     -10.999  11.707  68.755  1.00  0.00    -0.226 A  
HETATM   15  N   UNL     1     -11.515  10.858  69.752  1.00  0.00    -0.285 NA 
HETATM   16  H   UNL     1     -12.399  11.109  70.194  1.00  0.00     0.000 HD 
HETATM   17  C   UNL     1     -10.918   9.766  70.140  1.00  0.00    -0.291 C  
ENDROOT
BRANCH  17  18
HETATM   18  N   UNL     1     -11.491   8.999  71.141  1.00  0.00    -0.287 NA 
HETATM   19  C   UNL     1     -12.454   9.561  72.088  1.00  0.00    -0.301 C  
HETATM   20  C   UNL     1     -13.812   8.841  72.024  1.00  0.00    -0.451 C  
HETATM   21  N   UNL     1     -13.696   7.375  72.152  1.00  0.00    -0.534 NA 
HETATM   22  C   UNL     1     -12.789   6.878  71.099  1.00  0.00    -0.226 C  
HETATM   23  H   UNL     1     -14.603   6.908  72.137  1.00  0.00     0.000 HD 
HETATM   24  C   UNL     1     -11.391   7.535  71.140  1.00  0.00    -0.267 C  
ENDBRANCH  17  18
TORSDOF 1
ENDMDL
MODEL       93
REMARK 921   NORMALIZED FREE ENERGY PREDICTED BY IDOCK:   -4.31 KCAL/MOL
REMARK 922        TOTAL FREE ENERGY PREDICTED BY IDOCK:   -4.92 KCAL/MOL
REMARK 923 INTER-LIGAND FREE ENERGY PREDICTED BY IDOCK:   -4.85 KCAL/MOL
REMARK 924 INTRA-LIGAND FREE ENERGY PREDICTED BY IDOCK:   -0.07 KCAL/MOL
REMARK 927      BINDING AFFINITY PREDICTED BY RF-SCORE:    0.00 PKD
ROOT
HETATM    1 CL   UNL     1     -10.734  19.212  65.685  1.00  0.00    -0.443 Cl 
HETATM    2  C   UNL     1     -10.471  17.513  65.720  1.00  0.00    -0.207 A  
HETATM    3  C   UNL     1      -9.652  16.965  66.703  1.00  0.00    -0.282 A  
HETATM    4  C   UNL     1      -9.451  15.578  66.751  1.00  0.00    -0.257 A  
HETATM    5  C   UNL     1     -10.076  14.760  65.812  1.00  0.00    -0.339 A  
HETATM    6  C   UNL     1     -10.875  15.316  64.809  1.00  0.00    -0.379 A  
HETATM    7  O   UNL     1      -9.922  13.397  65.809  1.00  0.00    -0.285 OA 
HETATM    8  C   UNL     1     -10.415  12.807  66.949  1.00  0.00    -0.240 A  
HETATM    9  C   UNL     1     -11.081  16.697  64.770  1.00  0.00    -0.120 A  
HETATM   10  C   UNL     1     -11.468  11.900  66.772  1.00  0.00    -0.384 A  
HETATM   11  C   UNL     1     -12.033  11.272  67.880  1.00  0.00    -0.080 A  
HETATM   12  C   UNL     1     -11.528  11.532  69.151  1.00  0.00    -0.362 A  
HETATM   13  C   UNL     1     -10.462  12.425  69.313  1.00  0.00     0.176 A  
HETATM   14  C   UNL     1      -9.890  13.084  68.219  1.00  0.00    -0.225 A  
HETATM   15  N   UNL     1      -8.783  13.918  68.468  1.00  0.00    -0.261 NA 
HETATM   16  H   UNL     1      -8.123  13.644  69.196  1.00  0.00     0.000 HD 
HETATM   17  C   UNL     1      -8.560  15.024  67.815  1.00  0.00    -0.161 C  
ENDROOT
BRANCH  17  18
HETATM   18  N   UNL     1      -7.453  15.791  68.139  1.00  0.00    -0.121 NA 
HETATM   19  C   UNL     1      -6.297  15.894  67.247  1.00  0.00    -0.113 C  
HETATM   20  C   UNL     1      -6.033  17.347  66.815  1.00  0.00    -0.186 C  
HETATM   21  N   UNL     1      -5.943  18.282  67.953  1.00  0.00    -0.166 NA 
HETATM   22  C   UNL     1      -7.187  18.188  68.742  1.00  0.00    -0.279 C  
HETATM   23  H   UNL     1      -5.739  19.237  67.660  1.00  0.00     0.000 HD 
HETATM   24  C   UNL     1      -7.484  16.757  69.243  1.00  0.00    -0.134 C  
ENDBRANCH  17  18
TORSDOF 1
ENDMDL
MODEL       94
REMARK 921   NORMALIZED FREE ENERGY PREDICTED BY IDOCK:   -4.29 KCAL/MOL
REMARK 922        TOTAL FREE ENERGY PREDICTED BY IDOCK:   -4.90 KCAL/MOL
REMARK 923 INTER-LIGAND FREE ENERGY PREDICTED BY IDOCK:   -4.80 KCAL/MOL
REMARK 924 INTRA-LIGAND FREE ENERGY PREDICTED BY IDOCK:   -0.10 KCAL/MOL
REMARK 927      BINDING AFFINITY PREDICTED BY RF-SCORE:    0.00 PKD
ROOT
HETATM    1 CL   UNL     1     -12.557  14.952  69.956  1.00  0.00    -0.301 Cl 
HETATM    2  C   UNL     1     -11.565  14.034  68.893  1.00  0.00    -0.315 A  
HETATM    3  C   UNL     1     -10.322  14.533  68.511  1.00  0.00    -0.242 A  
HETATM    4  C   UNL     1      -9.499  13.781  67.662  1.00  0.00    -0.217 A  
HETATM    5  C   UNL     1      -9.931  12.537  67.209  1.00  0.00    -0.211 A  
HETATM    6  C   UNL     1     -11.191  12.051  67.572  1.00  0.00    -0.357 A  
HETATM    7  O   UNL     1      -9.171  11.752  66.382  1.00  0.00    -0.209 OA 
HETATM    8  C   UNL     1      -7.992  11.353  66.968  1.00  0.00    -0.158 A  
HETATM    9  C   UNL     1     -12.005  12.799  68.425  1.00  0.00    -0.275 A  
HETATM   10  C   UNL     1      -7.820   9.973  67.137  1.00  0.00    -0.099 A  
HETATM   11  C   UNL     1      -6.660   9.489  67.737  1.00  0.00    -0.062 A  
HETATM   12  C   UNL     1      -5.669  10.382  68.140  1.00  0.00    -0.040 A  
HETATM   13  C   UNL     1      -5.844  11.758  67.948  1.00  0.00    -0.050 A  
HETATM   14  C   UNL     1      -7.009  12.270  67.365  1.00  0.00    -0.151 A  
HETATM   15  N   UNL     1      -7.074  13.661  67.156  1.00  0.00    -0.393 NA 
HETATM   16  H   UNL     1      -6.217  14.154  66.905  1.00  0.00     0.000 HD 
HETATM   17  C   UNL     1      -8.175  14.350  67.266  1.00  0.00    -0.203 C  
ENDROOT
BRANCH  17  18
HETATM   18  N   UNL     1      -8.141  15.719  67.057  1.00  0.00    -0.214 NA 
HETATM   19  C   UNL     1      -8.928  16.359  66.003  1.00  0.00    -0.272 C  
HETATM   20  C   UNL     1      -9.915  17.394  66.569  1.00  0.00    -0.311 C  
HETATM   21  N   UNL     1      -9.270  18.381  67.459  1.00  0.00    -0.270 NA 
HETATM   22  C   UNL     1      -8.585  17.658  68.548  1.00  0.00    -0.285 C  
HETATM   23  H   UNL     1      -9.926  19.081  67.806  1.00  0.00     0.000 HD 
HETATM   24  C   UNL     1      -7.548  16.632  68.041  1.00  0.00    -0.166 C  
ENDBRANCH  17  18
TORSDOF 1
ENDMDL
MODEL       95
REMARK 921   NORMALIZED FREE ENERGY PREDICTED BY IDOCK:   -4.29 KCAL/MOL
REMARK 922        TOTAL FREE ENERGY PREDICTED BY IDOCK:   -4.90 KCAL/MOL
REMARK 923 INTER-LIGAND FREE ENERGY PREDICTED BY IDOCK:   -4.81 KCAL/MOL
REMARK 924 INTRA-LIGAND FREE ENERGY PREDICTED BY IDOCK:   -0.09 KCAL/MOL
REMARK 927      BINDING AFFINITY PREDICTED BY RF-SCORE:    0.00 PKD
ROOT
HETATM    1 CL   UNL     1     -11.848  12.313  69.506  1.00  0.00    -0.380 Cl 
HETATM    2  C   UNL     1     -11.269  11.203  68.327  1.00  0.00    -0.279 A  
HETATM    3  C   UNL     1     -10.848  11.677  67.087  1.00  0.00    -0.306 A  
HETATM    4  C   UNL     1     -10.354  10.781  66.128  1.00  0.00    -0.300 A  
HETATM    5  C   UNL     1     -10.287   9.422  66.428  1.00  0.00    -0.167 A  
HETATM    6  C   UNL     1     -10.737   8.947  67.663  1.00  0.00    -0.221 A  
HETATM    7  O   UNL     1      -9.810   8.497  65.535  1.00  0.00     0.163 OA 
HETATM    8  C   UNL     1      -8.486   8.698  65.222  1.00  0.00    -0.179 A  
HETATM    9  C   UNL     1     -11.220   9.843  68.619  1.00  0.00    -0.122 A  
HETATM   10  C   UNL     1      -7.604   7.665  65.561  1.00  0.00    -0.092 A  
HETATM   11  C   UNL     1      -6.244   7.798  65.291  1.00  0.00    -0.038 A  
HETATM   12  C   UNL     1      -5.778   8.950  64.662  1.00  0.00    -0.063 A  
HETATM   13  C   UNL     1      -6.671   9.969  64.310  1.00  0.00    -0.128 A  
HETATM   14  C   UNL     1      -8.040   9.866  64.588  1.00  0.00    -0.152 A  
HETATM   15  N   UNL     1      -8.873  10.911  64.144  1.00  0.00    -0.342 NA 
HETATM   16  H   UNL     1      -8.648  11.369  63.260  1.00  0.00     0.000 HD 
HETATM   17  C   UNL     1      -9.918  11.322  64.806  1.00  0.00    -0.277 C  
ENDROOT
BRANCH  17  18
HETATM   18  N   UNL     1     -10.671  12.369  64.300  1.00  0.00    -0.329 NA 
HETATM   19  C   UNL     1     -12.034  12.170  63.806  1.00  0.00    -0.513 C  
HETATM   20  C   UNL     1     -13.057  13.018  64.582  1.00  0.00     0.086 C  
HETATM   21  N   UNL     1     -12.691  14.447  64.647  1.00  0.00    -0.643 NA 
HETATM   22  C   UNL     1     -11.348  14.564  65.249  1.00  0.00    -0.353 C  
HETATM   23  H   UNL     1     -13.389  15.007  65.138  1.00  0.00     0.000 HD 
HETATM   24  C   UNL     1     -10.267  13.766  64.487  1.00  0.00    -0.175 C  
ENDBRANCH  17  18
TORSDOF 1
ENDMDL
MODEL       96
REMARK 921   NORMALIZED FREE ENERGY PREDICTED BY IDOCK:   -4.28 KCAL/MOL
REMARK 922        TOTAL FREE ENERGY PREDICTED BY IDOCK:   -4.89 KCAL/MOL
REMARK 923 INTER-LIGAND FREE ENERGY PREDICTED BY IDOCK:   -4.54 KCAL/MOL
REMARK 924 INTRA-LIGAND FREE ENERGY PREDICTED BY IDOCK:   -0.35 KCAL/MOL
REMARK 927      BINDING AFFINITY PREDICTED BY RF-SCORE:    0.00 PKD
ROOT
HETATM    1 CL   UNL     1     -12.095   5.540  72.647  1.00  0.00    -0.156 Cl 
HETATM    2  C   UNL     1     -11.244   6.792  71.830  1.00  0.00    -0.259 A  
HETATM    3  C   UNL     1     -10.943   6.648  70.478  1.00  0.00    -0.337 A  
HETATM    4  C   UNL     1     -10.268   7.673  69.800  1.00  0.00    -0.210 A  
HETATM    5  C   UNL     1      -9.907   8.830  70.488  1.00  0.00    -0.188 A  
HETATM    6  C   UNL     1     -10.187   8.959  71.851  1.00  0.00    -0.403 A  
HETATM    7  O   UNL     1      -9.251   9.869  69.880  1.00  0.00    -0.219 OA 
HETATM    8  C   UNL     1      -9.995  10.454  68.882  1.00  0.00    -0.199 A  
HETATM    9  C   UNL     1     -10.867   7.940  72.521  1.00  0.00    -0.403 A  
HETATM   10  C   UNL     1     -10.327  11.802  69.063  1.00  0.00    -0.087 A  
HETATM   11  C   UNL     1     -11.092  12.462  68.104  1.00  0.00    -0.288 A  
HETATM   12  C   UNL     1     -11.498  11.780  66.960  1.00  0.00    -0.368 A  
HETATM   13  C   UNL     1     -11.144  10.437  66.780  1.00  0.00    -0.023 A  
HETATM   14  C   UNL     1     -10.393   9.747  67.738  1.00  0.00    -0.225 A  
HETATM   15  N   UNL     1     -10.031   8.417  67.447  1.00  0.00    -0.193 NA 
HETATM   16  H   UNL     1      -9.820   8.173  66.479  1.00  0.00     0.000 HD 
HETATM   17  C   UNL     1      -9.953   7.483  68.352  1.00  0.00    -0.170 C  
ENDROOT
BRANCH  17  18
HETATM   18  N   UNL     1      -9.605   6.197  67.971  1.00  0.00    -0.115 NA 
HETATM   19  C   UNL     1     -10.370   5.456  66.968  1.00  0.00    -0.248 C  
HETATM   20  C   UNL     1      -9.504   5.064  65.758  1.00  0.00    -0.157 C  
HETATM   21  N   UNL     1      -8.261   4.365  66.139  1.00  0.00    -0.102 NA 
HETATM   22  C   UNL     1      -7.503   5.222  67.071  1.00  0.00    -0.087 C  
HETATM   23  H   UNL     1      -7.708   4.083  65.330  1.00  0.00     0.000 HD 
HETATM   24  C   UNL     1      -8.308   5.615  68.330  1.00  0.00    -0.106 C  
ENDBRANCH  17  18
TORSDOF 1
ENDMDL
MODEL       97
REMARK 921   NORMALIZED FREE ENERGY PREDICTED BY IDOCK:   -4.26 KCAL/MOL
REMARK 922        TOTAL FREE ENERGY PREDICTED BY IDOCK:   -4.87 KCAL/MOL
REMARK 923 INTER-LIGAND FREE ENERGY PREDICTED BY IDOCK:   -4.54 KCAL/MOL
REMARK 924 INTRA-LIGAND FREE ENERGY PREDICTED BY IDOCK:   -0.34 KCAL/MOL
REMARK 927      BINDING AFFINITY PREDICTED BY RF-SCORE:    0.00 PKD
ROOT
HETATM    1 CL   UNL     1     -10.882  15.638  70.760  1.00  0.00    -0.331 Cl 
HETATM    2  C   UNL     1     -10.676  15.393  69.070  1.00  0.00    -0.242 A  
HETATM    3  C   UNL     1      -9.991  14.269  68.618  1.00  0.00    -0.234 A  
HETATM    4  C   UNL     1      -9.838  14.051  67.241  1.00  0.00    -0.242 A  
HETATM    5  C   UNL     1     -10.377  14.963  66.337  1.00  0.00    -0.286 A  
HETATM    6  C   UNL     1     -11.040  16.106  66.795  1.00  0.00     0.027 A  
HETATM    7  O   UNL     1     -10.265  14.804  64.980  1.00  0.00    -0.389 OA 
HETATM    8  C   UNL     1     -10.902  13.673  64.526  1.00  0.00    -0.406 A  
HETATM    9  C   UNL     1     -11.199  16.315  68.166  1.00  0.00    -0.298 A  
HETATM   10  C   UNL     1     -11.955  13.873  63.624  1.00  0.00    -0.207 A  
HETATM   11  C   UNL     1     -12.660  12.778  63.130  1.00  0.00    -0.080 A  
HETATM   12  C   UNL     1     -12.294  11.491  63.519  1.00  0.00    -0.147 A  
HETATM   13  C   UNL     1     -11.227  11.302  64.405  1.00  0.00    -0.196 A  
HETATM   14  C   UNL     1     -10.515  12.387  64.931  1.00  0.00    -0.298 A  
HETATM   15  N   UNL     1      -9.420  12.101  65.767  1.00  0.00    -0.384 NA 
HETATM   16  H   UNL     1      -8.855  11.277  65.562  1.00  0.00     0.000 HD 
HETATM   17  C   UNL     1      -9.090  12.838  66.791  1.00  0.00    -0.209 C  
ENDROOT
BRANCH  17  18
HETATM   18  N   UNL     1      -8.005  12.471  67.569  1.00  0.00    -0.164 NA 
HETATM   19  C   UNL     1      -7.913  11.150  68.191  1.00  0.00    -0.125 C  
HETATM   20  C   UNL     1      -6.669  10.377  67.719  1.00  0.00    -0.070 C  
HETATM   21  N   UNL     1      -5.419  11.149  67.863  1.00  0.00    -0.043 NA 
HETATM   22  C   UNL     1      -5.559  12.419  67.124  1.00  0.00    -0.047 C  
HETATM   23  H   UNL     1      -4.597  10.619  67.575  1.00  0.00     0.000 HD 
HETATM   24  C   UNL     1      -6.769  13.262  67.585  1.00  0.00    -0.166 C  
ENDBRANCH  17  18
TORSDOF 1
ENDMDL
MODEL       98
REMARK 921   NORMALIZED FREE ENERGY PREDICTED BY IDOCK:   -4.26 KCAL/MOL
REMARK 922        TOTAL FREE ENERGY PREDICTED BY IDOCK:   -4.87 KCAL/MOL
REMARK 923 INTER-LIGAND FREE ENERGY PREDICTED BY IDOCK:   -4.77 KCAL/MOL
REMARK 924 INTRA-LIGAND FREE ENERGY PREDICTED BY IDOCK:   -0.10 KCAL/MOL
REMARK 927      BINDING AFFINITY PREDICTED BY RF-SCORE:    0.00 PKD
ROOT
HETATM    1 CL   UNL     1      -7.182  12.645  68.691  1.00  0.00    -0.109 Cl 
HETATM    2  C   UNL     1      -7.415  10.944  68.801  1.00  0.00    -0.112 A  
HETATM    3  C   UNL     1      -8.652  10.445  69.198  1.00  0.00    -0.169 A  
HETATM    4  C   UNL     1      -8.856   9.060  69.270  1.00  0.00    -0.139 A  
HETATM    5  C   UNL     1      -7.816   8.194  68.938  1.00  0.00    -0.112 A  
HETATM    6  C   UNL     1      -6.567   8.699  68.565  1.00  0.00    -0.059 A  
HETATM    7  O   UNL     1      -7.954   6.831  68.983  1.00  0.00    -0.112 OA 
HETATM    8  C   UNL     1      -8.894   6.365  68.093  1.00  0.00    -0.114 A  
HETATM    9  C   UNL     1      -6.370  10.079  68.487  1.00  0.00    -0.049 A  
HETATM   10  C   UNL     1      -8.430   5.498  67.096  1.00  0.00    -0.110 A  
HETATM   11  C   UNL     1      -9.317   4.995  66.148  1.00  0.00    -0.157 A  
HETATM   12  C   UNL     1     -10.664   5.340  66.215  1.00  0.00    -0.260 A  
HETATM   13  C   UNL     1     -11.121   6.192  67.227  1.00  0.00    -0.334 A  
HETATM   14  C   UNL     1     -10.246   6.726  68.181  1.00  0.00    -0.174 A  
HETATM   15  N   UNL     1     -10.803   7.525  69.197  1.00  0.00    -0.396 NA 
HETATM   16  H   UNL     1     -11.728   7.284  69.553  1.00  0.00     0.000 HD 
HETATM   17  C   UNL     1     -10.193   8.558  69.708  1.00  0.00    -0.206 C  
ENDROOT
BRANCH  17  18
HETATM   18  N   UNL     1     -10.825   9.297  70.695  1.00  0.00    -0.255 NA 
HETATM   19  C   UNL     1     -11.659  10.456  70.377  1.00  0.00    -0.337 C  
HETATM   20  C   UNL     1     -13.105  10.276  70.870  1.00  0.00    -0.344 C  
HETATM   21  N   UNL     1     -13.188   9.905  72.297  1.00  0.00    -0.546 NA 
HETATM   22  C   UNL     1     -12.404   8.673  72.511  1.00  0.00    -0.309 C  
HETATM   23  H   UNL     1     -14.150   9.817  72.623  1.00  0.00     0.000 HD 
HETATM   24  C   UNL     1     -10.928   8.807  72.074  1.00  0.00    -0.368 C  
ENDBRANCH  17  18
TORSDOF 1
ENDMDL
MODEL       99
REMARK 921   NORMALIZED FREE ENERGY PREDICTED BY IDOCK:   -4.24 KCAL/MOL
REMARK 922        TOTAL FREE ENERGY PREDICTED BY IDOCK:   -4.85 KCAL/MOL
REMARK 923 INTER-LIGAND FREE ENERGY PREDICTED BY IDOCK:   -4.80 KCAL/MOL
REMARK 924 INTRA-LIGAND FREE ENERGY PREDICTED BY IDOCK:   -0.05 KCAL/MOL
REMARK 927      BINDING AFFINITY PREDICTED BY RF-SCORE:    0.00 PKD
ROOT
HETATM    1 CL   UNL     1      -7.082   9.455  64.883  1.00  0.00    -0.101 Cl 
HETATM    2  C   UNL     1      -7.331   9.619  66.577  1.00  0.00    -0.090 A  
HETATM    3  C   UNL     1      -8.452  10.299  67.043  1.00  0.00    -0.129 A  
HETATM    4  C   UNL     1      -8.673  10.418  68.423  1.00  0.00    -0.129 A  
HETATM    5  C   UNL     1      -7.767   9.849  69.316  1.00  0.00    -0.109 A  
HETATM    6  C   UNL     1      -6.628   9.190  68.844  1.00  0.00    -0.048 A  
HETATM    7  O   UNL     1      -7.929   9.927  70.674  1.00  0.00    -0.257 OA 
HETATM    8  C   UNL     1      -9.067   9.286  71.108  1.00  0.00    -0.127 A  
HETATM    9  C   UNL     1      -6.416   9.066  67.469  1.00  0.00    -0.064 A  
HETATM   10  C   UNL     1      -8.877   8.208  71.982  1.00  0.00    -0.233 A  
HETATM   11  C   UNL     1      -9.978   7.498  72.455  1.00  0.00    -0.233 A  
HETATM   12  C   UNL     1     -11.261   7.883  72.072  1.00  0.00    -0.339 A  
HETATM   13  C   UNL     1     -11.440   8.974  71.214  1.00  0.00    -0.390 A  
HETATM   14  C   UNL     1     -10.348   9.692  70.710  1.00  0.00    -0.286 A  
HETATM   15  N   UNL     1     -10.624  10.812  69.902  1.00  0.00    -0.451 NA 
HETATM   16  H   UNL     1     -11.445  11.377  70.119  1.00  0.00     0.000 HD 
HETATM   17  C   UNL     1      -9.882  11.162  68.889  1.00  0.00    -0.162 C  
ENDROOT
BRANCH  17  18
HETATM   18  N   UNL     1     -10.239  12.271  68.139  1.00  0.00    -0.206 NA 
HETATM   19  C   UNL     1      -9.499  13.530  68.223  1.00  0.00    -0.212 C  
HETATM   20  C   UNL     1      -8.909  13.942  66.863  1.00  0.00    -0.193 C  
HETATM   21  N   UNL     1      -9.910  13.956  65.778  1.00  0.00    -0.451 NA 
HETATM   22  C   UNL     1     -10.535  12.621  65.695  1.00  0.00    -0.275 C  
HETATM   23  H   UNL     1      -9.517  14.258  64.887  1.00  0.00     0.000 HD 
HETATM   24  C   UNL     1     -11.185  12.169  67.022  1.00  0.00    -0.314 C  
ENDBRANCH  17  18
TORSDOF 1
ENDMDL
MODEL      100
REMARK 921   NORMALIZED FREE ENERGY PREDICTED BY IDOCK:   -4.17 KCAL/MOL
REMARK 922        TOTAL FREE ENERGY PREDICTED BY IDOCK:   -4.77 KCAL/MOL
REMARK 923 INTER-LIGAND FREE ENERGY PREDICTED BY IDOCK:   -4.66 KCAL/MOL
REMARK 924 INTRA-LIGAND FREE ENERGY PREDICTED BY IDOCK:   -0.11 KCAL/MOL
REMARK 927      BINDING AFFINITY PREDICTED BY RF-SCORE:    0.00 PKD
ROOT
HETATM    1 CL   UNL     1     -10.711   4.922  68.227  1.00  0.00     0.203 Cl 
HETATM    2  C   UNL     1     -10.367   6.602  68.095  1.00  0.00    -0.190 A  
HETATM    3  C   UNL     1      -9.993   7.318  69.228  1.00  0.00    -0.170 A  
HETATM    4  C   UNL     1      -9.691   8.683  69.124  1.00  0.00    -0.173 A  
HETATM    5  C   UNL     1      -9.765   9.311  67.882  1.00  0.00    -0.153 A  
HETATM    6  C   UNL     1     -10.168   8.595  66.751  1.00  0.00    -0.361 A  
HETATM    7  O   UNL     1      -9.478  10.640  67.714  1.00  0.00    -0.151 OA 
HETATM    8  C   UNL     1      -8.169  10.940  68.011  1.00  0.00    -0.121 A  
HETATM    9  C   UNL     1     -10.460   7.233  66.857  1.00  0.00    -0.369 A  
HETATM   10  C   UNL     1      -7.394  11.447  66.960  1.00  0.00    -0.144 A  
HETATM   11  C   UNL     1      -6.054  11.761  67.177  1.00  0.00    -0.144 A  
HETATM   12  C   UNL     1      -5.504  11.591  68.445  1.00  0.00    -0.045 A  
HETATM   13  C   UNL     1      -6.293  11.102  69.493  1.00  0.00    -0.101 A  
HETATM   14  C   UNL     1      -7.637  10.761  69.296  1.00  0.00    -0.129 A  
HETATM   15  N   UNL     1      -8.371  10.334  70.420  1.00  0.00    -0.332 NA 
HETATM   16  H   UNL     1      -8.164  10.759  71.324  1.00  0.00     0.000 HD 
HETATM   17  C   UNL     1      -9.301   9.423  70.362  1.00  0.00    -0.268 C  
ENDROOT
BRANCH  17  18
HETATM   18  N   UNL     1      -9.961   9.054  71.522  1.00  0.00    -0.319 NA 
HETATM   19  C   UNL     1     -11.397   9.274  71.697  1.00  0.00    -0.397 C  
HETATM   20  C   UNL     1     -12.155   7.957  71.938  1.00  0.00    -0.312 C  
HETATM   21  N   UNL     1     -11.579   7.149  73.031  1.00  0.00    -0.550 NA 
HETATM   22  C   UNL     1     -10.158   6.888  72.727  1.00  0.00    -0.177 C  
HETATM   23  H   UNL     1     -12.105   6.293  73.203  1.00  0.00     0.000 HD 
HETATM   24  C   UNL     1      -9.333   8.177  72.517  1.00  0.00    -0.260 C  
ENDBRANCH  17  18
TORSDOF 1
ENDMDL
MODEL      101
REMARK 921   NORMALIZED FREE ENERGY PREDICTED BY IDOCK:   -4.14 KCAL/MOL
REMARK 922        TOTAL FREE ENERGY PREDICTED BY IDOCK:   -4.75 KCAL/MOL
REMARK 923 INTER-LIGAND FREE ENERGY PREDICTED BY IDOCK:   -4.89 KCAL/MOL
REMARK 924 INTRA-LIGAND FREE ENERGY PREDICTED BY IDOCK:    0.15 KCAL/MOL
REMARK 927      BINDING AFFINITY PREDICTED BY RF-SCORE:    0.00 PKD
ROOT
HETATM    1 CL   UNL     1     -10.907   8.925  67.380  1.00  0.00    -0.209 Cl 
HETATM    2  C   UNL     1      -9.700  10.134  67.180  1.00  0.00    -0.173 A  
HETATM    3  C   UNL     1     -10.049  11.369  66.642  1.00  0.00    -0.247 A  
HETATM    4  C   UNL     1      -9.075  12.368  66.496  1.00  0.00    -0.181 A  
HETATM    5  C   UNL     1      -7.765  12.113  66.895  1.00  0.00    -0.049 A  
HETATM    6  C   UNL     1      -7.413  10.862  67.410  1.00  0.00    -0.100 A  
HETATM    7  O   UNL     1      -6.769  13.048  66.783  1.00  0.00     0.170 OA 
HETATM    8  C   UNL     1      -7.000  14.162  67.556  1.00  0.00    -0.152 A  
HETATM    9  C   UNL     1      -8.387   9.873  67.562  1.00  0.00    -0.114 A  
HETATM   10  C   UNL     1      -6.059  14.429  68.559  1.00  0.00    -0.091 A  
HETATM   11  C   UNL     1      -6.231  15.530  69.394  1.00  0.00    -0.132 A  
HETATM   12  C   UNL     1      -7.325  16.371  69.207  1.00  0.00    -0.211 A  
HETATM   13  C   UNL     1      -8.249  16.107  68.189  1.00  0.00    -0.157 A  
HETATM   14  C   UNL     1      -8.109  14.995  67.349  1.00  0.00    -0.193 A  
HETATM   15  N   UNL     1      -9.051  14.841  66.314  1.00  0.00    -0.468 NA 
HETATM   16  H   UNL     1      -9.415  15.678  65.860  1.00  0.00     0.000 HD 
HETATM   17  C   UNL     1      -9.482  13.679  65.908  1.00  0.00    -0.032 C  
ENDROOT
BRANCH  17  18
HETATM   18  N   UNL     1     -10.423  13.623  64.893  1.00  0.00    -0.392 NA 
HETATM   19  C   UNL     1     -10.320  12.658  63.797  1.00  0.00    -0.330 C  
HETATM   20  C   UNL     1     -11.542  11.726  63.735  1.00  0.00    -0.413 C  
HETATM   21  N   UNL     1     -12.825  12.456  63.715  1.00  0.00    -0.781 NA 
HETATM   22  C   UNL     1     -12.891  13.328  64.904  1.00  0.00    -0.253 C  
HETATM   23  H   UNL     1     -13.629  11.832  63.644  1.00  0.00     0.000 HD 
HETATM   24  C   UNL     1     -11.710  14.319  64.999  1.00  0.00    -0.383 C  
ENDBRANCH  17  18
TORSDOF 1
ENDMDL
MODEL      102
REMARK 921   NORMALIZED FREE ENERGY PREDICTED BY IDOCK:   -4.11 KCAL/MOL
REMARK 922        TOTAL FREE ENERGY PREDICTED BY IDOCK:   -4.71 KCAL/MOL
REMARK 923 INTER-LIGAND FREE ENERGY PREDICTED BY IDOCK:   -4.35 KCAL/MOL
REMARK 924 INTRA-LIGAND FREE ENERGY PREDICTED BY IDOCK:   -0.36 KCAL/MOL
REMARK 927      BINDING AFFINITY PREDICTED BY RF-SCORE:    0.00 PKD
ROOT
HETATM    1 CL   UNL     1     -10.459   3.936  64.410  1.00  0.00    -0.261 Cl 
HETATM    2  C   UNL     1      -9.990   4.527  65.956  1.00  0.00    -0.248 A  
HETATM    3  C   UNL     1      -9.941   5.900  66.180  1.00  0.00    -0.039 A  
HETATM    4  C   UNL     1      -9.580   6.389  67.444  1.00  0.00    -0.133 A  
HETATM    5  C   UNL     1      -9.276   5.493  68.466  1.00  0.00    -0.118 A  
HETATM    6  C   UNL     1      -9.298   4.116  68.229  1.00  0.00    -0.214 A  
HETATM    7  O   UNL     1      -8.920   5.908  69.723  1.00  0.00    -0.129 OA 
HETATM    8  C   UNL     1      -9.928   6.599  70.356  1.00  0.00    -0.175 A  
HETATM    9  C   UNL     1      -9.667   3.632  66.972  1.00  0.00    -0.100 A  
HETATM   10  C   UNL     1     -10.422   6.031  71.537  1.00  0.00    -0.278 A  
HETATM   11  C   UNL     1     -11.454   6.661  72.229  1.00  0.00    -0.319 A  
HETATM   12  C   UNL     1     -11.967   7.866  71.753  1.00  0.00    -0.337 A  
HETATM   13  C   UNL     1     -11.451   8.434  70.582  1.00  0.00    -0.235 A  
HETATM   14  C   UNL     1     -10.428   7.810  69.858  1.00  0.00    -0.232 A  
HETATM   15  N   UNL     1      -9.929   8.483  68.726  1.00  0.00    -0.181 NA 
HETATM   16  H   UNL     1      -9.877   9.501  68.750  1.00  0.00     0.000 HD 
HETATM   17  C   UNL     1      -9.531   7.868  67.647  1.00  0.00    -0.144 C  
ENDROOT
BRANCH  17  18
HETATM   18  N   UNL     1      -9.069   8.614  66.574  1.00  0.00    -0.154 NA 
HETATM   19  C   UNL     1      -9.915   9.598  65.898  1.00  0.00    -0.281 C  
HETATM   20  C   UNL     1      -9.312  11.012  65.959  1.00  0.00    -0.201 C  
HETATM   21  N   UNL     1      -7.913  11.065  65.492  1.00  0.00    -0.365 NA 
HETATM   22  C   UNL     1      -7.111  10.119  66.292  1.00  0.00    -0.110 C  
HETATM   23  H   UNL     1      -7.531  12.011  65.508  1.00  0.00     0.000 HD 
HETATM   24  C   UNL     1      -7.643   8.669  66.235  1.00  0.00    -0.094 C  
ENDBRANCH  17  18
TORSDOF 1
ENDMDL
MODEL      103
REMARK 921   NORMALIZED FREE ENERGY PREDICTED BY IDOCK:   -4.09 KCAL/MOL
REMARK 922        TOTAL FREE ENERGY PREDICTED BY IDOCK:   -4.69 KCAL/MOL
REMARK 923 INTER-LIGAND FREE ENERGY PREDICTED BY IDOCK:   -4.33 KCAL/MOL
REMARK 924 INTRA-LIGAND FREE ENERGY PREDICTED BY IDOCK:   -0.36 KCAL/MOL
REMARK 927      BINDING AFFINITY PREDICTED BY RF-SCORE:    0.00 PKD
ROOT
HETATM    1 CL   UNL     1     -10.089   8.924  72.201  1.00  0.00    -0.368 Cl 
HETATM    2  C   UNL     1     -10.297   7.934  70.809  1.00  0.00    -0.203 A  
HETATM    3  C   UNL     1      -9.649   8.270  69.625  1.00  0.00    -0.167 A  
HETATM    4  C   UNL     1      -9.797   7.456  68.492  1.00  0.00    -0.164 A  
HETATM    5  C   UNL     1     -10.592   6.315  68.566  1.00  0.00    -0.262 A  
HETATM    6  C   UNL     1     -11.264   5.996  69.749  1.00  0.00    -0.440 A  
HETATM    7  O   UNL     1     -10.773   5.477  67.496  1.00  0.00    -0.219 OA 
HETATM    8  C   UNL     1      -9.603   4.880  67.088  1.00  0.00    -0.159 A  
HETATM    9  C   UNL     1     -11.107   6.803  70.878  1.00  0.00    -0.322 A  
HETATM   10  C   UNL     1      -9.557   3.483  67.171  1.00  0.00    -0.160 A  
HETATM   11  C   UNL     1      -8.401   2.804  66.792  1.00  0.00    -0.095 A  
HETATM   12  C   UNL     1      -7.309   3.521  66.309  1.00  0.00    -0.076 A  
HETATM   13  C   UNL     1      -7.373   4.917  66.212  1.00  0.00    -0.078 A  
HETATM   14  C   UNL     1      -8.516   5.623  66.605  1.00  0.00    -0.113 A  
HETATM   15  N   UNL     1      -8.515   7.018  66.416  1.00  0.00    -0.124 NA 
HETATM   16  H   UNL     1      -8.037   7.397  65.597  1.00  0.00     0.000 HD 
HETATM   17  C   UNL     1      -9.094   7.851  67.235  1.00  0.00    -0.135 C  
ENDROOT
BRANCH  17  18
HETATM   18  N   UNL     1      -9.027   9.211  66.977  1.00  0.00    -0.122 NA 
HETATM   19  C   UNL     1      -7.749   9.917  66.881  1.00  0.00    -0.098 C  
HETATM   20  C   UNL     1      -7.560  10.579  65.506  1.00  0.00    -0.120 C  
HETATM   21  N   UNL     1      -8.699  11.432  65.113  1.00  0.00    -0.387 NA 
HETATM   22  C   UNL     1      -9.930  10.619  65.138  1.00  0.00    -0.303 C  
HETATM   23  H   UNL     1      -8.552  11.890  64.213  1.00  0.00     0.000 HD 
HETATM   24  C   UNL     1     -10.198   9.962  66.510  1.00  0.00    -0.222 C  
ENDBRANCH  17  18
TORSDOF 1
ENDMDL
MODEL      104
REMARK 921   NORMALIZED FREE ENERGY PREDICTED BY IDOCK:   -4.09 KCAL/MOL
REMARK 922        TOTAL FREE ENERGY PREDICTED BY IDOCK:   -4.69 KCAL/MOL
REMARK 923 INTER-LIGAND FREE ENERGY PREDICTED BY IDOCK:   -4.42 KCAL/MOL
REMARK 924 INTRA-LIGAND FREE ENERGY PREDICTED BY IDOCK:   -0.27 KCAL/MOL
REMARK 927      BINDING AFFINITY PREDICTED BY RF-SCORE:    0.00 PKD
ROOT
HETATM    1 CL   UNL     1      -5.156  20.441  70.676  1.00  0.00    -0.270 Cl 
HETATM    2  C   UNL     1      -6.532  19.984  69.750  1.00  0.00    -0.335 A  
HETATM    3  C   UNL     1      -6.363  19.552  68.438  1.00  0.00    -0.277 A  
HETATM    4  C   UNL     1      -7.478  19.158  67.684  1.00  0.00    -0.263 A  
HETATM    5  C   UNL     1      -8.746  19.199  68.259  1.00  0.00    -0.338 A  
HETATM    6  C   UNL     1      -8.914  19.660  69.568  1.00  0.00     0.284 A  
HETATM    7  O   UNL     1      -9.874  18.823  67.576  1.00  0.00    -0.303 OA 
HETATM    8  C   UNL     1      -9.858  17.494  67.222  1.00  0.00    -0.294 A  
HETATM    9  C   UNL     1      -7.801  20.043  70.319  1.00  0.00     0.975 A  
HETATM   10  C   UNL     1     -10.872  16.695  67.765  1.00  0.00    -0.292 A  
HETATM   11  C   UNL     1     -10.916  15.335  67.467  1.00  0.00    -0.315 A  
HETATM   12  C   UNL     1      -9.965  14.787  66.610  1.00  0.00    -0.272 A  
HETATM   13  C   UNL     1      -8.967  15.599  66.057  1.00  0.00    -0.297 A  
HETATM   14  C   UNL     1      -8.890  16.965  66.357  1.00  0.00    -0.287 A  
HETATM   15  N   UNL     1      -7.891  17.717  65.709  1.00  0.00    -0.542 NA 
HETATM   16  H   UNL     1      -7.647  17.474  64.748  1.00  0.00     0.000 HD 
HETATM   17  C   UNL     1      -7.262  18.708  66.276  1.00  0.00    -0.251 C  
ENDROOT
BRANCH  17  18
HETATM   18  N   UNL     1      -6.281  19.382  65.567  1.00  0.00    -0.213 NA 
HETATM   19  C   UNL     1      -5.232  18.671  64.835  1.00  0.00    -0.182 C  
HETATM   20  C   UNL     1      -5.254  19.002  63.333  1.00  0.00    -0.261 C  
HETATM   21  N   UNL     1      -5.238  20.453  63.060  1.00  0.00    -0.188 NA 
HETATM   22  C   UNL     1      -6.384  21.076  63.750  1.00  0.00    -0.268 C  
HETATM   23  H   UNL     1      -5.224  20.662  62.061  1.00  0.00     0.000 HD 
HETATM   24  C   UNL     1      -6.394  20.815  65.273  1.00  0.00    -0.232 C  
ENDBRANCH  17  18
TORSDOF 1
ENDMDL
MODEL      105
REMARK 921   NORMALIZED FREE ENERGY PREDICTED BY IDOCK:   -4.00 KCAL/MOL
REMARK 922        TOTAL FREE ENERGY PREDICTED BY IDOCK:   -4.59 KCAL/MOL
REMARK 923 INTER-LIGAND FREE ENERGY PREDICTED BY IDOCK:   -4.88 KCAL/MOL
REMARK 924 INTRA-LIGAND FREE ENERGY PREDICTED BY IDOCK:    0.29 KCAL/MOL
REMARK 927      BINDING AFFINITY PREDICTED BY RF-SCORE:    0.00 PKD
ROOT
HETATM    1 CL   UNL     1      -7.458   7.683  66.062  1.00  0.00    -0.080 Cl 
HETATM    2  C   UNL     1      -8.497   8.973  66.528  1.00  0.00    -0.119 A  
HETATM    3  C   UNL     1      -7.970  10.249  66.700  1.00  0.00    -0.116 A  
HETATM    4  C   UNL     1      -8.815  11.310  67.059  1.00  0.00    -0.153 A  
HETATM    5  C   UNL     1     -10.176  11.075  67.236  1.00  0.00    -0.199 A  
HETATM    6  C   UNL     1     -10.697   9.786  67.089  1.00  0.00    -0.273 A  
HETATM    7  O   UNL     1     -11.053  12.071  67.582  1.00  0.00    -0.234 OA 
HETATM    8  C   UNL     1     -11.143  13.053  66.623  1.00  0.00    -0.289 A  
HETATM    9  C   UNL     1      -9.855   8.734  66.723  1.00  0.00    -0.316 A  
HETATM   10  C   UNL     1     -12.400  13.229  66.031  1.00  0.00    -0.449 A  
HETATM   11  C   UNL     1     -12.569  14.193  65.040  1.00  0.00    -0.399 A  
HETATM   12  C   UNL     1     -11.491  14.991  64.665  1.00  0.00    -0.382 A  
HETATM   13  C   UNL     1     -10.244  14.819  65.277  1.00  0.00    -0.415 A  
HETATM   14  C   UNL     1     -10.043  13.844  66.262  1.00  0.00    -0.300 A  
HETATM   15  N   UNL     1      -8.773  13.782  66.866  1.00  0.00    -0.383 NA 
HETATM   16  H   UNL     1      -8.264  14.653  67.016  1.00  0.00     0.000 HD 
HETATM   17  C   UNL     1      -8.215  12.666  67.244  1.00  0.00    -0.184 C  
ENDROOT
BRANCH  17  18
HETATM   18  N   UNL     1      -6.954  12.699  67.816  1.00  0.00    -0.109 NA 
HETATM   19  C   UNL     1      -6.103  13.887  67.741  1.00  0.00    -0.129 C  
HETATM   20  C   UNL     1      -5.746  14.428  69.136  1.00  0.00    -0.091 C  
HETATM   21  N   UNL     1      -5.183  13.395  70.030  1.00  0.00    -0.086 NA 
HETATM   22  C   UNL     1      -6.146  12.281  70.129  1.00  0.00    -0.111 C  
HETATM   23  H   UNL     1      -4.922  13.768  70.942  1.00  0.00     0.000 HD 
HETATM   24  C   UNL     1      -6.511  11.667  68.760  1.00  0.00    -0.064 C  
ENDBRANCH  17  18
TORSDOF 1
ENDMDL
MODEL      106
REMARK 921   NORMALIZED FREE ENERGY PREDICTED BY IDOCK:   -3.99 KCAL/MOL
REMARK 922        TOTAL FREE ENERGY PREDICTED BY IDOCK:   -4.58 KCAL/MOL
REMARK 923 INTER-LIGAND FREE ENERGY PREDICTED BY IDOCK:   -4.48 KCAL/MOL
REMARK 924 INTRA-LIGAND FREE ENERGY PREDICTED BY IDOCK:   -0.11 KCAL/MOL
REMARK 927      BINDING AFFINITY PREDICTED BY RF-SCORE:    0.00 PKD
ROOT
HETATM    1 CL   UNL     1     -11.468   4.610  73.105  1.00  0.00    -0.355 Cl 
HETATM    2  C   UNL     1     -10.831   6.051  72.413  1.00  0.00    -0.247 A  
HETATM    3  C   UNL     1     -10.176   5.991  71.187  1.00  0.00    -0.257 A  
HETATM    4  C   UNL     1      -9.672   7.164  70.606  1.00  0.00    -0.175 A  
HETATM    5  C   UNL     1      -9.837   8.382  71.263  1.00  0.00    -0.198 A  
HETATM    6  C   UNL     1     -10.471   8.433  72.508  1.00  0.00    -0.372 A  
HETATM    7  O   UNL     1      -9.372   9.563  70.746  1.00  0.00    -0.245 OA 
HETATM    8  C   UNL     1      -9.979   9.894  69.557  1.00  0.00    -0.222 A  
HETATM    9  C   UNL     1     -10.979   7.265  73.079  1.00  0.00    -0.388 A  
HETATM   10  C   UNL     1     -10.713  11.087  69.546  1.00  0.00    -0.231 A  
HETATM   11  C   UNL     1     -11.370  11.485  68.384  1.00  0.00    -0.342 A  
HETATM   12  C   UNL     1     -11.269  10.704  67.235  1.00  0.00    -0.237 A  
HETATM   13  C   UNL     1     -10.516   9.524  67.252  1.00  0.00    -0.328 A  
HETATM   14  C   UNL     1      -9.863   9.092  68.413  1.00  0.00    -0.164 A  
HETATM   15  N   UNL     1      -9.079   7.926  68.322  1.00  0.00    -0.135 NA 
HETATM   16  H   UNL     1      -8.574   7.747  67.454  1.00  0.00     0.000 HD 
HETATM   17  C   UNL     1      -8.967   7.063  69.293  1.00  0.00    -0.138 C  
ENDROOT
BRANCH  17  18
HETATM   18  N   UNL     1      -8.186   5.934  69.109  1.00  0.00    -0.105 NA 
HETATM   19  C   UNL     1      -7.012   5.664  69.940  1.00  0.00    -0.062 C  
HETATM   20  C   UNL     1      -7.139   4.332  70.698  1.00  0.00    -0.041 C  
HETATM   21  N   UNL     1      -7.471   3.194  69.817  1.00  0.00    -0.044 NA 
HETATM   22  C   UNL     1      -8.719   3.506  69.094  1.00  0.00    -0.089 C  
HETATM   23  H   UNL     1      -7.524   2.310  70.324  1.00  0.00     0.000 HD 
HETATM   24  C   UNL     1      -8.639   4.814  68.276  1.00  0.00    -0.101 C  
ENDBRANCH  17  18
TORSDOF 1
ENDMDL
MODEL      107
REMARK 921   NORMALIZED FREE ENERGY PREDICTED BY IDOCK:   -3.97 KCAL/MOL
REMARK 922        TOTAL FREE ENERGY PREDICTED BY IDOCK:   -4.56 KCAL/MOL
REMARK 923 INTER-LIGAND FREE ENERGY PREDICTED BY IDOCK:   -4.42 KCAL/MOL
REMARK 924 INTRA-LIGAND FREE ENERGY PREDICTED BY IDOCK:   -0.14 KCAL/MOL
REMARK 927      BINDING AFFINITY PREDICTED BY RF-SCORE:    0.00 PKD
ROOT
HETATM    1 CL   UNL     1     -11.745  12.190  65.975  1.00  0.00    -0.433 Cl 
HETATM    2  C   UNL     1     -10.632  10.884  65.853  1.00  0.00    -0.178 A  
HETATM    3  C   UNL     1     -10.487  10.005  66.922  1.00  0.00    -0.284 A  
HETATM    4  C   UNL     1      -9.597   8.926  66.822  1.00  0.00    -0.262 A  
HETATM    5  C   UNL     1      -8.868   8.742  65.649  1.00  0.00    -0.199 A  
HETATM    6  C   UNL     1      -8.997   9.643  64.588  1.00  0.00    -0.274 A  
HETATM    7  O   UNL     1      -7.987   7.704  65.489  1.00  0.00    -0.105 OA 
HETATM    8  C   UNL     1      -8.603   6.475  65.536  1.00  0.00    -0.102 A  
HETATM    9  C   UNL     1      -9.890  10.712  64.688  1.00  0.00    -0.382 A  
HETATM   10  C   UNL     1      -8.518   5.693  64.377  1.00  0.00    -0.052 A  
HETATM   11  C   UNL     1      -9.129   4.442  64.339  1.00  0.00    -0.152 A  
HETATM   12  C   UNL     1      -9.799   3.970  65.465  1.00  0.00    -0.186 A  
HETATM   13  C   UNL     1      -9.861   4.752  66.625  1.00  0.00    -0.233 A  
HETATM   14  C   UNL     1      -9.272   6.020  66.681  1.00  0.00    -0.142 A  
HETATM   15  N   UNL     1      -9.332   6.711  67.906  1.00  0.00    -0.111 NA 
HETATM   16  H   UNL     1      -9.273   6.172  68.771  1.00  0.00     0.000 HD 
HETATM   17  C   UNL     1      -9.459   8.006  67.992  1.00  0.00    -0.146 C  
ENDROOT
BRANCH  17  18
HETATM   18  N   UNL     1      -9.526   8.599  69.242  1.00  0.00    -0.157 NA 
HETATM   19  C   UNL     1     -10.243   7.975  70.355  1.00  0.00    -0.201 C  
HETATM   20  C   UNL     1      -9.316   7.695  71.550  1.00  0.00    -0.136 C  
HETATM   21  N   UNL     1      -8.548   8.882  71.977  1.00  0.00    -0.375 NA 
HETATM   22  C   UNL     1      -7.778   9.387  70.824  1.00  0.00    -0.115 C  
HETATM   23  H   UNL     1      -7.958   8.695  72.788  1.00  0.00     0.000 HD 
HETATM   24  C   UNL     1      -8.661   9.728  69.603  1.00  0.00    -0.199 C  
ENDBRANCH  17  18
TORSDOF 1
ENDMDL
MODEL      108
REMARK 921   NORMALIZED FREE ENERGY PREDICTED BY IDOCK:   -3.96 KCAL/MOL
REMARK 922        TOTAL FREE ENERGY PREDICTED BY IDOCK:   -4.56 KCAL/MOL
REMARK 923 INTER-LIGAND FREE ENERGY PREDICTED BY IDOCK:   -4.50 KCAL/MOL
REMARK 924 INTRA-LIGAND FREE ENERGY PREDICTED BY IDOCK:   -0.05 KCAL/MOL
REMARK 927      BINDING AFFINITY PREDICTED BY RF-SCORE:    0.00 PKD
ROOT
HETATM    1 CL   UNL     1      -8.284   3.506  72.373  1.00  0.00    -0.082 Cl 
HETATM    2  C   UNL     1      -8.866   3.916  70.808  1.00  0.00    -0.084 A  
HETATM    3  C   UNL     1      -9.321   5.209  70.562  1.00  0.00    -0.210 A  
HETATM    4  C   UNL     1      -9.778   5.557  69.282  1.00  0.00    -0.214 A  
HETATM    5  C   UNL     1      -9.768   4.604  68.266  1.00  0.00    -0.131 A  
HETATM    6  C   UNL     1      -9.336   3.299  68.524  1.00  0.00    -0.237 A  
HETATM    7  O   UNL     1     -10.196   4.883  66.994  1.00  0.00    -0.206 OA 
HETATM    8  C   UNL     1      -9.427   5.842  66.376  1.00  0.00    -0.156 A  
HETATM    9  C   UNL     1      -8.874   2.958  69.797  1.00  0.00    -0.147 A  
HETATM   10  C   UNL     1      -8.751   5.443  65.217  1.00  0.00    -0.145 A  
HETATM   11  C   UNL     1      -7.939   6.351  64.541  1.00  0.00    -0.117 A  
HETATM   12  C   UNL     1      -7.828   7.657  65.012  1.00  0.00    -0.126 A  
HETATM   13  C   UNL     1      -8.525   8.051  66.161  1.00  0.00    -0.141 A  
HETATM   14  C   UNL     1      -9.331   7.151  66.869  1.00  0.00    -0.155 A  
HETATM   15  N   UNL     1     -10.042   7.649  67.978  1.00  0.00    -0.179 NA 
HETATM   16  H   UNL     1     -10.399   8.604  67.936  1.00  0.00     0.000 HD 
HETATM   17  C   UNL     1     -10.266   6.950  69.055  1.00  0.00    -0.181 C  
ENDROOT
BRANCH  17  18
HETATM   18  N   UNL     1     -10.962   7.528  70.105  1.00  0.00    -0.259 NA 
HETATM   19  C   UNL     1     -12.154   6.903  70.677  1.00  0.00    -0.311 C  
HETATM   20  C   UNL     1     -11.977   6.590  72.173  1.00  0.00    -0.290 C  
HETATM   21  N   UNL     1     -11.528   7.756  72.959  1.00  0.00    -0.595 NA 
HETATM   22  C   UNL     1     -10.270   8.262  72.377  1.00  0.00    -0.327 C  
HETATM   23  H   UNL     1     -11.442   7.547  73.954  1.00  0.00     0.000 HD 
HETATM   24  C   UNL     1     -10.396   8.636  70.883  1.00  0.00    -0.211 C  
ENDBRANCH  17  18
TORSDOF 1
ENDMDL
MODEL      109
REMARK 921   NORMALIZED FREE ENERGY PREDICTED BY IDOCK:   -3.91 KCAL/MOL
REMARK 922        TOTAL FREE ENERGY PREDICTED BY IDOCK:   -4.50 KCAL/MOL
REMARK 923 INTER-LIGAND FREE ENERGY PREDICTED BY IDOCK:   -4.40 KCAL/MOL
REMARK 924 INTRA-LIGAND FREE ENERGY PREDICTED BY IDOCK:   -0.10 KCAL/MOL
REMARK 927      BINDING AFFINITY PREDICTED BY RF-SCORE:    0.00 PKD
ROOT
HETATM    1 CL   UNL     1     -11.165  11.851  68.282  1.00  0.00    -0.288 Cl 
HETATM    2  C   UNL     1     -10.178  10.488  67.923  1.00  0.00    -0.183 A  
HETATM    3  C   UNL     1     -10.441   9.269  68.541  1.00  0.00    -0.240 A  
HETATM    4  C   UNL     1      -9.655   8.148  68.238  1.00  0.00    -0.154 A  
HETATM    5  C   UNL     1      -8.618   8.265  67.315  1.00  0.00    -0.124 A  
HETATM    6  C   UNL     1      -8.340   9.498  66.717  1.00  0.00    -0.116 A  
HETATM    7  O   UNL     1      -7.817   7.207  66.973  1.00  0.00    -0.105 OA 
HETATM    8  C   UNL     1      -8.516   6.192  66.360  1.00  0.00    -0.123 A  
HETATM    9  C   UNL     1      -9.130  10.610  67.015  1.00  0.00    -0.155 A  
HETATM   10  C   UNL     1      -8.141   5.887  65.046  1.00  0.00    -0.132 A  
HETATM   11  C   UNL     1      -8.811   4.882  64.351  1.00  0.00    -0.119 A  
HETATM   12  C   UNL     1      -9.831   4.173  64.980  1.00  0.00    -0.207 A  
HETATM   13  C   UNL     1     -10.184   4.474  66.301  1.00  0.00    -0.270 A  
HETATM   14  C   UNL     1      -9.540   5.492  67.014  1.00  0.00    -0.137 A  
HETATM   15  N   UNL     1      -9.918   5.685  68.356  1.00  0.00    -0.146 NA 
HETATM   16  H   UNL     1     -10.172   4.868  68.912  1.00  0.00     0.000 HD 
HETATM   17  C   UNL     1      -9.960   6.857  68.925  1.00  0.00    -0.157 C  
ENDROOT
BRANCH  17  18
HETATM   18  N   UNL     1     -10.360   6.954  70.248  1.00  0.00    -0.196 NA 
HETATM   19  C   UNL     1      -9.494   7.532  71.276  1.00  0.00    -0.150 C  
HETATM   20  C   UNL     1     -10.137   8.756  71.949  1.00  0.00    -0.339 C  
HETATM   21  N   UNL     1     -11.499   8.490  72.454  1.00  0.00    -0.370 NA 
HETATM   22  C   UNL     1     -12.332   8.009  71.335  1.00  0.00    -0.306 C  
HETATM   23  H   UNL     1     -11.906   9.298  72.924  1.00  0.00     0.000 HD 
HETATM   24  C   UNL     1     -11.758   6.751  70.644  1.00  0.00    -0.386 C  
ENDBRANCH  17  18
TORSDOF 1
ENDMDL
MODEL      110
REMARK 921   NORMALIZED FREE ENERGY PREDICTED BY IDOCK:   -3.85 KCAL/MOL
REMARK 922        TOTAL FREE ENERGY PREDICTED BY IDOCK:   -4.43 KCAL/MOL
REMARK 923 INTER-LIGAND FREE ENERGY PREDICTED BY IDOCK:   -4.08 KCAL/MOL
REMARK 924 INTRA-LIGAND FREE ENERGY PREDICTED BY IDOCK:   -0.36 KCAL/MOL
REMARK 927      BINDING AFFINITY PREDICTED BY RF-SCORE:    0.00 PKD
ROOT
HETATM    1 CL   UNL     1      -5.656  13.802  71.449  1.00  0.00    -0.219 Cl 
HETATM    2  C   UNL     1      -6.451  14.083  69.950  1.00  0.00    -0.098 A  
HETATM    3  C   UNL     1      -6.725  13.010  69.107  1.00  0.00    -0.087 A  
HETATM    4  C   UNL     1      -7.392  13.228  67.893  1.00  0.00    -0.134 A  
HETATM    5  C   UNL     1      -7.778  14.520  67.543  1.00  0.00    -0.188 A  
HETATM    6  C   UNL     1      -7.476  15.599  68.379  1.00  0.00    -0.120 A  
HETATM    7  O   UNL     1      -8.436  14.797  66.373  1.00  0.00    -0.068 OA 
HETATM    8  C   UNL     1      -9.671  14.195  66.306  1.00  0.00    -0.297 A  
HETATM    9  C   UNL     1      -6.820  15.377  69.591  1.00  0.00    -0.185 A  
HETATM   10  C   UNL     1     -10.775  15.052  66.213  1.00  0.00    -0.322 A  
HETATM   11  C   UNL     1     -12.061  14.520  66.157  1.00  0.00    -0.300 A  
HETATM   12  C   UNL     1     -12.235  13.138  66.167  1.00  0.00    -0.451 A  
HETATM   13  C   UNL     1     -11.123  12.291  66.241  1.00  0.00    -0.342 A  
HETATM   14  C   UNL     1      -9.822  12.801  66.318  1.00  0.00    -0.267 A  
HETATM   15  N   UNL     1      -8.760  11.876  66.328  1.00  0.00    -0.365 NA 
HETATM   16  H   UNL     1      -8.854  11.024  65.775  1.00  0.00     0.000 HD 
HETATM   17  C   UNL     1      -7.663  12.055  67.008  1.00  0.00    -0.129 C  
ENDROOT
BRANCH  17  18
HETATM   18  N   UNL     1      -6.677  11.082  66.971  1.00  0.00    -0.099 NA 
HETATM   19  C   UNL     1      -6.876   9.759  67.564  1.00  0.00    -0.082 C  
HETATM   20  C   UNL     1      -6.738   8.636  66.522  1.00  0.00    -0.071 C  
HETATM   21  N   UNL     1      -5.484   8.716  65.746  1.00  0.00    -0.034 NA 
HETATM   22  C   UNL     1      -5.412  10.042  65.101  1.00  0.00    -0.073 C  
HETATM   23  H   UNL     1      -5.388   7.951  65.078  1.00  0.00     0.000 HD 
HETATM   24  C   UNL     1      -5.501  11.213  66.105  1.00  0.00    -0.143 C  
ENDBRANCH  17  18
TORSDOF 1
ENDMDL
MODEL      111
REMARK 921   NORMALIZED FREE ENERGY PREDICTED BY IDOCK:   -3.85 KCAL/MOL
REMARK 922        TOTAL FREE ENERGY PREDICTED BY IDOCK:   -4.43 KCAL/MOL
REMARK 923 INTER-LIGAND FREE ENERGY PREDICTED BY IDOCK:   -4.75 KCAL/MOL
REMARK 924 INTRA-LIGAND FREE ENERGY PREDICTED BY IDOCK:    0.32 KCAL/MOL
REMARK 927      BINDING AFFINITY PREDICTED BY RF-SCORE:    0.00 PKD
ROOT
HETATM    1 CL   UNL     1      -7.272  19.560  69.369  1.00  0.00    -0.351 Cl 
HETATM    2  C   UNL     1      -7.773  18.451  68.153  1.00  0.00    -0.290 A  
HETATM    3  C   UNL     1      -7.601  17.085  68.357  1.00  0.00    -0.220 A  
HETATM    4  C   UNL     1      -8.026  16.173  67.380  1.00  0.00    -0.185 A  
HETATM    5  C   UNL     1      -8.622  16.646  66.213  1.00  0.00    -0.324 A  
HETATM    6  C   UNL     1      -8.769  18.019  66.000  1.00  0.00    -0.009 A  
HETATM    7  O   UNL     1      -9.063  15.806  65.223  1.00  0.00    -0.019 OA 
HETATM    8  C   UNL     1     -10.078  14.979  65.645  1.00  0.00    -0.362 A  
HETATM    9  C   UNL     1      -8.352  18.924  66.978  1.00  0.00    -0.287 A  
HETATM   10  C   UNL     1     -11.307  15.119  64.989  1.00  0.00    -0.381 A  
HETATM   11  C   UNL     1     -12.389  14.328  65.369  1.00  0.00    -0.421 A  
HETATM   12  C   UNL     1     -12.230  13.386  66.382  1.00  0.00    -0.435 A  
HETATM   13  C   UNL     1     -10.992  13.240  67.017  1.00  0.00    -0.291 A  
HETATM   14  C   UNL     1      -9.894  14.036  66.667  1.00  0.00    -0.284 A  
HETATM   15  N   UNL     1      -8.672  13.780  67.317  1.00  0.00    -0.210 NA 
HETATM   16  H   UNL     1      -8.442  12.815  67.556  1.00  0.00     0.000 HD 
HETATM   17  C   UNL     1      -7.818  14.715  67.628  1.00  0.00    -0.181 C  
ENDROOT
BRANCH  17  18
HETATM   18  N   UNL     1      -6.646  14.372  68.282  1.00  0.00    -0.104 NA 
HETATM   19  C   UNL     1      -6.370  14.807  69.651  1.00  0.00    -0.142 C  
HETATM   20  C   UNL     1      -6.170  13.615  70.604  1.00  0.00     0.005 C  
HETATM   21  N   UNL     1      -5.169  12.646  70.115  1.00  0.00    -0.091 NA 
HETATM   22  C   UNL     1      -5.575  12.183  68.774  1.00  0.00    -0.050 C  
HETATM   23  H   UNL     1      -5.022  11.875  70.767  1.00  0.00     0.000 HD 
HETATM   24  C   UNL     1      -5.751  13.334  67.759  1.00  0.00    -0.121 C  
ENDBRANCH  17  18
TORSDOF 1
ENDMDL
MODEL      112
REMARK 921   NORMALIZED FREE ENERGY PREDICTED BY IDOCK:   -3.83 KCAL/MOL
REMARK 922        TOTAL FREE ENERGY PREDICTED BY IDOCK:   -4.42 KCAL/MOL
REMARK 923 INTER-LIGAND FREE ENERGY PREDICTED BY IDOCK:   -4.32 KCAL/MOL
REMARK 924 INTRA-LIGAND FREE ENERGY PREDICTED BY IDOCK:   -0.10 KCAL/MOL
REMARK 927      BINDING AFFINITY PREDICTED BY RF-SCORE:    0.00 PKD
ROOT
HETATM    1 CL   UNL     1     -10.384  17.833  68.514  1.00  0.00    -0.372 Cl 
HETATM    2  C   UNL     1     -10.055  16.264  67.890  1.00  0.00    -0.247 A  
HETATM    3  C   UNL     1      -8.981  15.536  68.395  1.00  0.00    -0.189 A  
HETATM    4  C   UNL     1      -8.719  14.248  67.906  1.00  0.00    -0.178 A  
HETATM    5  C   UNL     1      -9.541  13.706  66.920  1.00  0.00    -0.262 A  
HETATM    6  C   UNL     1     -10.602  14.451  66.397  1.00  0.00    -0.297 A  
HETATM    7  O   UNL     1      -9.341  12.452  66.406  1.00  0.00    -0.232 OA 
HETATM    8  C   UNL     1      -9.485  11.464  67.352  1.00  0.00    -0.167 A  
HETATM    9  C   UNL     1     -10.865  15.730  66.891  1.00  0.00    -0.265 A  
HETATM   10  C   UNL     1     -10.510  10.536  67.128  1.00  0.00    -0.302 A  
HETATM   11  C   UNL     1     -10.731   9.513  68.048  1.00  0.00    -0.266 A  
HETATM   12  C   UNL     1      -9.912   9.408  69.170  1.00  0.00    -0.184 A  
HETATM   13  C   UNL     1      -8.878  10.330  69.373  1.00  0.00    -0.177 A  
HETATM   14  C   UNL     1      -8.648  11.377  68.473  1.00  0.00    -0.150 A  
HETATM   15  N   UNL     1      -7.549  12.221  68.725  1.00  0.00    -0.253 NA 
HETATM   16  H   UNL     1      -6.707  11.812  69.131  1.00  0.00     0.000 HD 
HETATM   17  C   UNL     1      -7.554  13.498  68.464  1.00  0.00    -0.129 C  
ENDROOT
BRANCH  17  18
HETATM   18  N   UNL     1      -6.431  14.254  68.761  1.00  0.00    -0.084 NA 
HETATM   19  C   UNL     1      -5.609  14.858  67.712  1.00  0.00    -0.063 C  
HETATM   20  C   UNL     1      -5.547  16.390  67.841  1.00  0.00    -0.122 C  
HETATM   21  N   UNL     1      -5.149  16.841  69.190  1.00  0.00    -0.127 NA 
HETATM   22  C   UNL     1      -6.087  16.269  70.175  1.00  0.00    -0.089 C  
HETATM   23  H   UNL     1      -5.082  17.856  69.258  1.00  0.00     0.000 HD 
HETATM   24  C   UNL     1      -6.161  14.727  70.123  1.00  0.00    -0.166 C  
ENDBRANCH  17  18
TORSDOF 1
ENDMDL
MODEL      113
REMARK 921   NORMALIZED FREE ENERGY PREDICTED BY IDOCK:   -3.75 KCAL/MOL
REMARK 922        TOTAL FREE ENERGY PREDICTED BY IDOCK:   -4.33 KCAL/MOL
REMARK 923 INTER-LIGAND FREE ENERGY PREDICTED BY IDOCK:   -4.82 KCAL/MOL
REMARK 924 INTRA-LIGAND FREE ENERGY PREDICTED BY IDOCK:    0.49 KCAL/MOL
REMARK 927      BINDING AFFINITY PREDICTED BY RF-SCORE:    0.00 PKD
ROOT
HETATM    1 CL   UNL     1      -5.221   8.027  68.488  1.00  0.00    -0.030 Cl 
HETATM    2  C   UNL     1      -6.745   8.480  67.832  1.00  0.00    -0.066 A  
HETATM    3  C   UNL     1      -7.896   8.324  68.599  1.00  0.00    -0.120 A  
HETATM    4  C   UNL     1      -9.140   8.711  68.079  1.00  0.00    -0.144 A  
HETATM    5  C   UNL     1      -9.211   9.253  66.798  1.00  0.00    -0.147 A  
HETATM    6  C   UNL     1      -8.056   9.383  66.020  1.00  0.00    -0.111 A  
HETATM    7  O   UNL     1     -10.395   9.655  66.236  1.00  0.00    -0.239 OA 
HETATM    8  C   UNL     1     -10.981  10.691  66.924  1.00  0.00    -0.161 A  
HETATM    9  C   UNL     1      -6.819   9.004  66.544  1.00  0.00    -0.079 A  
HETATM   10  C   UNL     1     -11.147  11.890  66.218  1.00  0.00    -0.364 A  
HETATM   11  C   UNL     1     -11.719  12.992  66.850  1.00  0.00    -0.441 A  
HETATM   12  C   UNL     1     -12.145  12.883  68.171  1.00  0.00    -0.183 A  
HETATM   13  C   UNL     1     -11.993  11.674  68.861  1.00  0.00    -0.355 A  
HETATM   14  C   UNL     1     -11.404  10.558  68.254  1.00  0.00    -0.264 A  
HETATM   15  N   UNL     1     -11.346   9.367  69.002  1.00  0.00    -0.441 NA 
HETATM   16  H   UNL     1     -12.118   9.153  69.635  1.00  0.00     0.000 HD 
HETATM   17  C   UNL     1     -10.356   8.523  68.927  1.00  0.00    -0.210 C  
ENDROOT
BRANCH  17  18
HETATM   18  N   UNL     1     -10.376   7.382  69.713  1.00  0.00    -0.217 NA 
HETATM   19  C   UNL     1      -9.297   7.072  70.651  1.00  0.00    -0.162 C  
HETATM   20  C   UNL     1      -9.806   6.969  72.099  1.00  0.00    -0.154 C  
HETATM   21  N   UNL     1     -10.952   6.050  72.246  1.00  0.00    -0.250 NA 
HETATM   22  C   UNL     1     -12.031   6.492  71.341  1.00  0.00    -0.316 C  
HETATM   23  H   UNL     1     -11.264   5.965  73.213  1.00  0.00     0.000 HD 
HETATM   24  C   UNL     1     -11.592   6.574  69.862  1.00  0.00    -0.368 C  
ENDBRANCH  17  18
TORSDOF 1
ENDMDL
MODEL      114
REMARK 921   NORMALIZED FREE ENERGY PREDICTED BY IDOCK:   -3.72 KCAL/MOL
REMARK 922        TOTAL FREE ENERGY PREDICTED BY IDOCK:   -4.29 KCAL/MOL
REMARK 923 INTER-LIGAND FREE ENERGY PREDICTED BY IDOCK:   -4.13 KCAL/MOL
REMARK 924 INTRA-LIGAND FREE ENERGY PREDICTED BY IDOCK:   -0.17 KCAL/MOL
REMARK 927      BINDING AFFINITY PREDICTED BY RF-SCORE:    0.00 PKD
ROOT
HETATM    1 CL   UNL     1      -5.126   7.749  70.309  1.00  0.00    -0.023 Cl 
HETATM    2  C   UNL     1      -6.752   8.233  70.027  1.00  0.00    -0.042 A  
HETATM    3  C   UNL     1      -7.675   7.300  69.561  1.00  0.00    -0.113 A  
HETATM    4  C   UNL     1      -9.007   7.682  69.349  1.00  0.00    -0.139 A  
HETATM    5  C   UNL     1      -9.396   8.994  69.611  1.00  0.00    -0.167 A  
HETATM    6  C   UNL     1      -8.461   9.934  70.052  1.00  0.00    -0.191 A  
HETATM    7  O   UNL     1     -10.684   9.427  69.428  1.00  0.00    -0.223 OA 
HETATM    8  C   UNL     1     -11.579   8.785  70.252  1.00  0.00    -0.016 A  
HETATM    9  C   UNL     1      -7.137   9.549  70.270  1.00  0.00    -0.110 A  
HETATM   10  C   UNL     1     -12.271   9.591  71.165  1.00  0.00    -0.421 A  
HETATM   11  C   UNL     1     -13.184   9.014  72.044  1.00  0.00    -0.486 A  
HETATM   12  C   UNL     1     -13.420   7.642  71.990  1.00  0.00    -0.220 A  
HETATM   13  C   UNL     1     -12.737   6.849  71.060  1.00  0.00    -0.269 A  
HETATM   14  C   UNL     1     -11.800   7.402  70.178  1.00  0.00     0.078 A  
HETATM   15  N   UNL     1     -11.206   6.541  69.237  1.00  0.00    -0.501 NA 
HETATM   16  H   UNL     1     -11.771   5.787  68.844  1.00  0.00     0.000 HD 
HETATM   17  C   UNL     1      -9.969   6.658  68.841  1.00  0.00    -0.152 C  
ENDROOT
BRANCH  17  18
HETATM   18  N   UNL     1      -9.463   5.753  67.922  1.00  0.00    -0.109 NA 
HETATM   19  C   UNL     1      -8.879   4.477  68.336  1.00  0.00    -0.103 C  
HETATM   20  C   UNL     1      -9.626   3.278  67.728  1.00  0.00    -0.088 C  
HETATM   21  N   UNL     1      -9.774   3.373  66.262  1.00  0.00    -0.408 NA 
HETATM   22  C   UNL     1     -10.462   4.638  65.937  1.00  0.00    -0.268 C  
HETATM   23  H   UNL     1     -10.245   2.560  65.863  1.00  0.00     0.000 HD 
HETATM   24  C   UNL     1      -9.734   5.885  66.486  1.00  0.00    -0.155 C  
ENDBRANCH  17  18
TORSDOF 1
ENDMDL
MODEL      115
REMARK 921   NORMALIZED FREE ENERGY PREDICTED BY IDOCK:   -3.71 KCAL/MOL
REMARK 922        TOTAL FREE ENERGY PREDICTED BY IDOCK:   -4.29 KCAL/MOL
REMARK 923 INTER-LIGAND FREE ENERGY PREDICTED BY IDOCK:   -4.17 KCAL/MOL
REMARK 924 INTRA-LIGAND FREE ENERGY PREDICTED BY IDOCK:   -0.11 KCAL/MOL
REMARK 927      BINDING AFFINITY PREDICTED BY RF-SCORE:    0.00 PKD
ROOT
HETATM    1 CL   UNL     1      -8.249   3.351  73.445  1.00  0.00    -0.074 Cl 
HETATM    2  C   UNL     1      -8.817   3.745  71.870  1.00  0.00    -0.100 A  
HETATM    3  C   UNL     1      -9.172   5.058  71.577  1.00  0.00    -0.181 A  
HETATM    4  C   UNL     1      -9.616   5.391  70.289  1.00  0.00    -0.236 A  
HETATM    5  C   UNL     1      -9.695   4.401  69.312  1.00  0.00    -0.182 A  
HETATM    6  C   UNL     1      -9.364   3.078  69.617  1.00  0.00    -0.214 A  
HETATM    7  O   UNL     1     -10.116   4.664  68.034  1.00  0.00    -0.105 OA 
HETATM    8  C   UNL     1      -9.282   5.534  67.371  1.00  0.00    -0.110 A  
HETATM    9  C   UNL     1      -8.914   2.752  70.898  1.00  0.00    -0.163 A  
HETATM   10  C   UNL     1      -8.654   5.037  66.221  1.00  0.00    -0.113 A  
HETATM   11  C   UNL     1      -7.783   5.851  65.502  1.00  0.00    -0.091 A  
HETATM   12  C   UNL     1      -7.563   7.162  65.919  1.00  0.00    -0.093 A  
HETATM   13  C   UNL     1      -8.211   7.654  67.058  1.00  0.00    -0.117 A  
HETATM   14  C   UNL     1      -9.077   6.850  67.809  1.00  0.00    -0.118 A  
HETATM   15  N   UNL     1      -9.731   7.445  68.904  1.00  0.00    -0.149 NA 
HETATM   16  H   UNL     1     -10.012   8.423  68.829  1.00  0.00     0.000 HD 
HETATM   17  C   UNL     1      -9.996   6.809  70.011  1.00  0.00    -0.176 C  
ENDROOT
BRANCH  17  18
HETATM   18  N   UNL     1     -10.630   7.481  71.044  1.00  0.00    -0.219 NA 
HETATM   19  C   UNL     1     -10.354   8.889  71.333  1.00  0.00    -0.307 C  
HETATM   20  C   UNL     1     -11.618   9.758  71.218  1.00  0.00    -0.390 C  
HETATM   21  N   UNL     1     -12.751   9.239  72.009  1.00  0.00    -0.385 NA 
HETATM   22  C   UNL     1     -13.028   7.853  71.585  1.00  0.00    -0.334 C  
HETATM   23  H   UNL     1     -13.575   9.837  71.950  1.00  0.00     0.000 HD 
HETATM   24  C   UNL     1     -11.805   6.918  71.719  1.00  0.00    -0.316 C  
ENDBRANCH  17  18
TORSDOF 1
ENDMDL
MODEL      116
REMARK 921   NORMALIZED FREE ENERGY PREDICTED BY IDOCK:   -3.67 KCAL/MOL
REMARK 922        TOTAL FREE ENERGY PREDICTED BY IDOCK:   -4.25 KCAL/MOL
REMARK 923 INTER-LIGAND FREE ENERGY PREDICTED BY IDOCK:   -3.90 KCAL/MOL
REMARK 924 INTRA-LIGAND FREE ENERGY PREDICTED BY IDOCK:   -0.35 KCAL/MOL
REMARK 927      BINDING AFFINITY PREDICTED BY RF-SCORE:    0.00 PKD
ROOT
HETATM    1 CL   UNL     1     -10.255   4.254  65.218  1.00  0.00    -0.250 Cl 
HETATM    2  C   UNL     1      -9.702   4.081  66.837  1.00  0.00    -0.185 A  
HETATM    3  C   UNL     1      -9.705   5.185  67.685  1.00  0.00    -0.178 A  
HETATM    4  C   UNL     1      -9.276   5.047  69.013  1.00  0.00    -0.157 A  
HETATM    5  C   UNL     1      -8.852   3.802  69.473  1.00  0.00    -0.092 A  
HETATM    6  C   UNL     1      -8.825   2.702  68.611  1.00  0.00    -0.154 A  
HETATM    7  O   UNL     1      -8.426   3.602  70.760  1.00  0.00    -0.068 OA 
HETATM    8  C   UNL     1      -9.416   3.830  71.686  1.00  0.00    -0.143 A  
HETATM    9  C   UNL     1      -9.261   2.840  67.291  1.00  0.00    -0.191 A  
HETATM   10  C   UNL     1      -9.794   2.736  72.475  1.00  0.00    -0.217 A  
HETATM   11  C   UNL     1     -10.801   2.883  73.426  1.00  0.00    -0.300 A  
HETATM   12  C   UNL     1     -11.406   4.125  73.601  1.00  0.00    -0.270 A  
HETATM   13  C   UNL     1     -11.007   5.216  72.821  1.00  0.00    -0.327 A  
HETATM   14  C   UNL     1     -10.011   5.090  71.845  1.00  0.00    -0.187 A  
HETATM   15  N   UNL     1      -9.632   6.254  71.150  1.00  0.00    -0.174 NA 
HETATM   16  H   UNL     1      -9.628   7.141  71.653  1.00  0.00     0.000 HD 
HETATM   17  C   UNL     1      -9.284   6.254  69.893  1.00  0.00    -0.151 C  
ENDROOT
BRANCH  17  18
HETATM   18  N   UNL     1      -8.941   7.451  69.285  1.00  0.00    -0.136 NA 
HETATM   19  C   UNL     1      -9.861   8.588  69.247  1.00  0.00    -0.185 C  
HETATM   20  C   UNL     1      -9.270   9.829  69.939  1.00  0.00    -0.234 C  
HETATM   21  N   UNL     1      -7.925  10.183  69.443  1.00  0.00    -0.139 NA 
HETATM   22  C   UNL     1      -7.037   9.016  69.611  1.00  0.00    -0.059 C  
HETATM   23  H   UNL     1      -7.554  11.023  69.886  1.00  0.00     0.000 HD 
HETATM   24  C   UNL     1      -7.557   7.747  68.900  1.00  0.00    -0.101 C  
ENDBRANCH  17  18
TORSDOF 1
ENDMDL
MODEL      117
REMARK 921   NORMALIZED FREE ENERGY PREDICTED BY IDOCK:   -3.65 KCAL/MOL
REMARK 922        TOTAL FREE ENERGY PREDICTED BY IDOCK:   -4.22 KCAL/MOL
REMARK 923 INTER-LIGAND FREE ENERGY PREDICTED BY IDOCK:   -5.12 KCAL/MOL
REMARK 924 INTRA-LIGAND FREE ENERGY PREDICTED BY IDOCK:    0.90 KCAL/MOL
REMARK 927      BINDING AFFINITY PREDICTED BY RF-SCORE:    0.00 PKD
ROOT
HETATM    1 CL   UNL     1     -10.491  11.302  65.052  1.00  0.00    -0.348 Cl 
HETATM    2  C   UNL     1     -10.498  10.551  66.600  1.00  0.00    -0.228 A  
HETATM    3  C   UNL     1     -11.142  11.177  67.663  1.00  0.00    -0.348 A  
HETATM    4  C   UNL     1     -11.171  10.561  68.923  1.00  0.00    -0.323 A  
HETATM    5  C   UNL     1     -10.555   9.323  69.096  1.00  0.00    -0.212 A  
HETATM    6  C   UNL     1      -9.886   8.711  68.033  1.00  0.00    -0.201 A  
HETATM    7  O   UNL     1     -10.552   8.668  70.300  1.00  0.00    -0.212 OA 
HETATM    8  C   UNL     1     -11.817   8.322  70.717  1.00  0.00    -0.162 A  
HETATM    9  C   UNL     1      -9.867   9.323  66.778  1.00  0.00    -0.289 A  
HETATM   10  C   UNL     1     -12.069   6.953  70.864  1.00  0.00    -0.424 A  
HETATM   11  C   UNL     1     -13.330   6.520  71.267  1.00  0.00     0.304 A  
HETATM   12  C   UNL     1     -14.322   7.458  71.546  1.00  0.00    -0.594 A  
HETATM   13  C   UNL     1     -14.053   8.825  71.415  1.00  0.00    -0.311 A  
HETATM   14  C   UNL     1     -12.799   9.284  70.992  1.00  0.00    -0.140 A  
HETATM   15  N   UNL     1     -12.599  10.677  70.947  1.00  0.00    -0.375 NA 
HETATM   16  H   UNL     1     -13.051  11.256  71.655  1.00  0.00     0.000 HD 
HETATM   17  C   UNL     1     -11.864  11.264  70.044  1.00  0.00    -0.367 C  
ENDROOT
BRANCH  17  18
HETATM   18  N   UNL     1     -11.736  12.643  70.067  1.00  0.00    -0.265 NA 
HETATM   19  C   UNL     1     -11.476  13.414  68.851  1.00  0.00    -0.304 C  
HETATM   20  C   UNL     1     -12.587  14.440  68.572  1.00  0.00     0.470 C  
HETATM   21  N   UNL     1     -12.877  15.308  69.730  1.00  0.00    -0.608 NA 
HETATM   22  C   UNL     1     -13.228  14.456  70.883  1.00  0.00    -0.288 C  
HETATM   23  H   UNL     1     -13.595  16.004  69.527  1.00  0.00     0.000 HD 
HETATM   24  C   UNL     1     -12.128  13.431  71.240  1.00  0.00     0.104 C  
ENDBRANCH  17  18
TORSDOF 1
ENDMDL
MODEL      118
REMARK 921   NORMALIZED FREE ENERGY PREDICTED BY IDOCK:   -3.62 KCAL/MOL
REMARK 922        TOTAL FREE ENERGY PREDICTED BY IDOCK:   -4.19 KCAL/MOL
REMARK 923 INTER-LIGAND FREE ENERGY PREDICTED BY IDOCK:   -3.86 KCAL/MOL
REMARK 924 INTRA-LIGAND FREE ENERGY PREDICTED BY IDOCK:   -0.33 KCAL/MOL
REMARK 927      BINDING AFFINITY PREDICTED BY RF-SCORE:    0.00 PKD
ROOT
HETATM    1 CL   UNL     1      -5.757   9.862  70.283  1.00  0.00    -0.046 Cl 
HETATM    2  C   UNL     1      -6.484  11.012  69.230  1.00  0.00    -0.079 A  
HETATM    3  C   UNL     1      -6.926  10.608  67.973  1.00  0.00    -0.073 A  
HETATM    4  C   UNL     1      -7.538  11.535  67.117  1.00  0.00    -0.149 A  
HETATM    5  C   UNL     1      -7.701  12.854  67.536  1.00  0.00    -0.174 A  
HETATM    6  C   UNL     1      -7.232  13.261  68.788  1.00  0.00    -0.088 A  
HETATM    7  O   UNL     1      -8.296  13.805  66.749  1.00  0.00    -0.078 OA 
HETATM    8  C   UNL     1      -9.613  13.517  66.476  1.00  0.00    -0.277 A  
HETATM    9  C   UNL     1      -6.630  12.334  69.641  1.00  0.00    -0.020 A  
HETATM   10  C   UNL     1     -10.559  14.440  66.941  1.00  0.00    -0.278 A  
HETATM   11  C   UNL     1     -11.915  14.212  66.718  1.00  0.00    -0.475 A  
HETATM   12  C   UNL     1     -12.316  13.081  66.011  1.00  0.00    -0.387 A  
HETATM   13  C   UNL     1     -11.361  12.176  65.534  1.00  0.00    -0.393 A  
HETATM   14  C   UNL     1      -9.993  12.372  65.762  1.00  0.00    -0.254 A  
HETATM   15  N   UNL     1      -9.100  11.444  65.194  1.00  0.00    -0.393 NA 
HETATM   16  H   UNL     1      -9.330  11.043  64.284  1.00  0.00     0.000 HD 
HETATM   17  C   UNL     1      -7.993  11.070  65.772  1.00  0.00    -0.013 C  
ENDROOT
BRANCH  17  18
HETATM   18  N   UNL     1      -7.182  10.138  65.146  1.00  0.00    -0.139 NA 
HETATM   19  C   UNL     1      -7.690   8.832  64.725  1.00  0.00    -0.113 C  
HETATM   20  C   UNL     1      -7.544   8.620  63.208  1.00  0.00    -0.116 C  
HETATM   21  N   UNL     1      -6.173   8.869  62.719  1.00  0.00    -0.091 NA 
HETATM   22  C   UNL     1      -5.778  10.239  63.097  1.00  0.00    -0.140 C  
HETATM   23  H   UNL     1      -6.078   8.697  61.718  1.00  0.00     0.000 HD 
HETATM   24  C   UNL     1      -5.862  10.501  64.617  1.00  0.00    -0.083 C  
ENDBRANCH  17  18
TORSDOF 1
ENDMDL
MODEL      119
REMARK 921   NORMALIZED FREE ENERGY PREDICTED BY IDOCK:   -3.52 KCAL/MOL
REMARK 922        TOTAL FREE ENERGY PREDICTED BY IDOCK:   -4.09 KCAL/MOL
REMARK 923 INTER-LIGAND FREE ENERGY PREDICTED BY IDOCK:   -3.98 KCAL/MOL
REMARK 924 INTRA-LIGAND FREE ENERGY PREDICTED BY IDOCK:   -0.11 KCAL/MOL
REMARK 927      BINDING AFFINITY PREDICTED BY RF-SCORE:    0.00 PKD
ROOT
HETATM    1 CL   UNL     1     -10.669  13.018  66.377  1.00  0.00    -0.289 Cl 
HETATM    2  C   UNL     1     -10.260  11.509  67.095  1.00  0.00    -0.204 A  
HETATM    3  C   UNL     1      -9.206  11.444  68.002  1.00  0.00    -0.171 A  
HETATM    4  C   UNL     1      -8.881  10.221  68.607  1.00  0.00    -0.137 A  
HETATM    5  C   UNL     1      -9.621   9.082  68.298  1.00  0.00    -0.145 A  
HETATM    6  C   UNL     1     -10.661   9.147  67.366  1.00  0.00    -0.315 A  
HETATM    7  O   UNL     1      -9.355   7.861  68.859  1.00  0.00    -0.150 OA 
HETATM    8  C   UNL     1      -9.540   7.854  70.222  1.00  0.00    -0.171 A  
HETATM    9  C   UNL     1     -10.988  10.367  66.771  1.00  0.00    -0.116 A  
HETATM   10  C   UNL     1     -10.525   6.987  70.711  1.00  0.00    -0.231 A  
HETATM   11  C   UNL     1     -10.783   6.933  72.079  1.00  0.00    -0.244 A  
HETATM   12  C   UNL     1     -10.040   7.725  72.951  1.00  0.00    -0.363 A  
HETATM   13  C   UNL     1      -9.044   8.574  72.453  1.00  0.00    -0.308 A  
HETATM   14  C   UNL     1      -8.779   8.660  71.081  1.00  0.00    -0.197 A  
HETATM   15  N   UNL     1      -7.720   9.495  70.675  1.00  0.00    -0.241 NA 
HETATM   16  H   UNL     1      -6.898   9.563  71.275  1.00  0.00     0.000 HD 
HETATM   17  C   UNL     1      -7.738  10.185  69.569  1.00  0.00    -0.155 C  
ENDROOT
BRANCH  17  18
HETATM   18  N   UNL     1      -6.657  10.993  69.258  1.00  0.00    -0.080 NA 
HETATM   19  C   UNL     1      -5.813  10.737  68.090  1.00  0.00    -0.049 C  
HETATM   20  C   UNL     1      -5.810  11.923  67.111  1.00  0.00    -0.144 C  
HETATM   21  N   UNL     1      -5.487  13.209  67.760  1.00  0.00    -0.175 NA 
HETATM   22  C   UNL     1      -6.446  13.438  68.858  1.00  0.00    -0.103 C  
HETATM   23  H   UNL     1      -5.459  13.985  67.099  1.00  0.00     0.000 HD 
HETATM   24  C   UNL     1      -6.463  12.298  69.901  1.00  0.00     0.009 C  
ENDBRANCH  17  18
TORSDOF 1
ENDMDL
MODEL      120
REMARK 921   NORMALIZED FREE ENERGY PREDICTED BY IDOCK:   -3.52 KCAL/MOL
REMARK 922        TOTAL FREE ENERGY PREDICTED BY IDOCK:   -4.09 KCAL/MOL
REMARK 923 INTER-LIGAND FREE ENERGY PREDICTED BY IDOCK:   -3.72 KCAL/MOL
REMARK 924 INTRA-LIGAND FREE ENERGY PREDICTED BY IDOCK:   -0.36 KCAL/MOL
REMARK 927      BINDING AFFINITY PREDICTED BY RF-SCORE:    0.00 PKD
ROOT
HETATM    1 CL   UNL     1     -10.487   2.117  72.350  1.00  0.00    -0.205 Cl 
HETATM    2  C   UNL     1     -10.416   3.822  72.565  1.00  0.00    -0.088 A  
HETATM    3  C   UNL     1      -9.869   4.618  71.563  1.00  0.00    -0.259 A  
HETATM    4  C   UNL     1      -9.827   6.011  71.722  1.00  0.00    -0.189 A  
HETATM    5  C   UNL     1     -10.338   6.586  72.883  1.00  0.00    -0.210 A  
HETATM    6  C   UNL     1     -10.861   5.781  73.900  1.00  0.00    -0.093 A  
HETATM    7  O   UNL     1     -10.330   7.940  73.096  1.00  0.00    -0.332 OA 
HETATM    8  C   UNL     1     -11.097   8.623  72.181  1.00  0.00    -0.364 A  
HETATM    9  C   UNL     1     -10.909   4.395  73.735  1.00  0.00    -0.362 A  
HETATM   10  C   UNL     1     -12.184   9.341  72.695  1.00  0.00     0.145 A  
HETATM   11  C   UNL     1     -13.019  10.046  71.832  1.00  0.00    -0.547 A  
HETATM   12  C   UNL     1     -12.748  10.052  70.465  1.00  0.00    -0.199 A  
HETATM   13  C   UNL     1     -11.648   9.346  69.964  1.00  0.00    -0.046 A  
HETATM   14  C   UNL     1     -10.805   8.614  70.810  1.00  0.00    -0.230 A  
HETATM   15  N   UNL     1      -9.688   7.985  70.228  1.00  0.00    -0.175 NA 
HETATM   16  H   UNL     1      -9.217   8.453  69.453  1.00  0.00     0.000 HD 
HETATM   17  C   UNL     1      -9.226   6.834  70.630  1.00  0.00    -0.155 C  
ENDROOT
BRANCH  17  18
HETATM   18  N   UNL     1      -8.130   6.282  69.987  1.00  0.00    -0.118 NA 
HETATM   19  C   UNL     1      -8.190   5.854  68.589  1.00  0.00    -0.109 C  
HETATM   20  C   UNL     1      -7.171   6.603  67.713  1.00  0.00    -0.091 C  
HETATM   21  N   UNL     1      -5.798   6.553  68.252  1.00  0.00    -0.019 NA 
HETATM   22  C   UNL     1      -5.808   7.095  69.625  1.00  0.00    -0.023 C  
HETATM   23  H   UNL     1      -5.124   7.027  67.651  1.00  0.00     0.000 HD 
HETATM   24  C   UNL     1      -6.784   6.353  70.566  1.00  0.00    -0.053 C  
ENDBRANCH  17  18
TORSDOF 1
ENDMDL
MODEL      121
REMARK 921   NORMALIZED FREE ENERGY PREDICTED BY IDOCK:   -3.51 KCAL/MOL
REMARK 922        TOTAL FREE ENERGY PREDICTED BY IDOCK:   -4.07 KCAL/MOL
REMARK 923 INTER-LIGAND FREE ENERGY PREDICTED BY IDOCK:   -4.47 KCAL/MOL
REMARK 924 INTRA-LIGAND FREE ENERGY PREDICTED BY IDOCK:    0.39 KCAL/MOL
REMARK 927      BINDING AFFINITY PREDICTED BY RF-SCORE:    0.00 PKD
ROOT
HETATM    1 CL   UNL     1     -10.413  20.065  65.261  1.00  0.00    -0.189 Cl 
HETATM    2  C   UNL     1     -10.335  18.469  65.897  1.00  0.00    -0.315 A  
HETATM    3  C   UNL     1      -9.608  18.228  67.059  1.00  0.00    -0.291 A  
HETATM    4  C   UNL     1      -9.558  16.933  67.595  1.00  0.00    -0.248 A  
HETATM    5  C   UNL     1     -10.241  15.899  66.960  1.00  0.00    -0.283 A  
HETATM    6  C   UNL     1     -10.948  16.140  65.778  1.00  0.00    -0.104 A  
HETATM    7  O   UNL     1     -10.235  14.613  67.436  1.00  0.00    -0.239 OA 
HETATM    8  C   UNL     1     -10.820  14.507  68.677  1.00  0.00    -0.251 A  
HETATM    9  C   UNL     1     -11.004  17.432  65.252  1.00  0.00     0.154 A  
HETATM   10  C   UNL     1     -11.959  13.697  68.759  1.00  0.00    -0.394 A  
HETATM   11  C   UNL     1     -12.618  13.550  69.977  1.00  0.00    -0.131 A  
HETATM   12  C   UNL     1     -12.122  14.191  71.109  1.00  0.00    -0.392 A  
HETATM   13  C   UNL     1     -10.971  14.983  71.020  1.00  0.00    -0.139 A  
HETATM   14  C   UNL     1     -10.302  15.162  69.803  1.00  0.00    -0.210 A  
HETATM   15  N   UNL     1      -9.119  15.926  69.818  1.00  0.00    -0.047 NA 
HETATM   16  H   UNL     1      -8.512  15.865  70.636  1.00  0.00     0.000 HD 
HETATM   17  C   UNL     1      -8.761  16.707  68.839  1.00  0.00    -0.238 C  
ENDROOT
BRANCH  17  18
HETATM   18  N   UNL     1      -7.587  17.435  68.947  1.00  0.00    -0.251 NA 
HETATM   19  C   UNL     1      -6.294  16.878  68.545  1.00  0.00    -0.152 C  
HETATM   20  C   UNL     1      -5.630  17.712  67.436  1.00  0.00    -0.137 C  
HETATM   21  N   UNL     1      -5.539  19.148  67.767  1.00  0.00    -0.182 NA 
HETATM   22  C   UNL     1      -6.895  19.652  68.060  1.00  0.00    -0.253 C  
HETATM   23  H   UNL     1      -5.071  19.688  67.039  1.00  0.00     0.000 HD 
HETATM   24  C   UNL     1      -7.599  18.880  69.198  1.00  0.00    -0.175 C  
ENDBRANCH  17  18
TORSDOF 1
ENDMDL
MODEL      122
REMARK 921   NORMALIZED FREE ENERGY PREDICTED BY IDOCK:   -3.41 KCAL/MOL
REMARK 922        TOTAL FREE ENERGY PREDICTED BY IDOCK:   -3.98 KCAL/MOL
REMARK 923 INTER-LIGAND FREE ENERGY PREDICTED BY IDOCK:   -3.84 KCAL/MOL
REMARK 924 INTRA-LIGAND FREE ENERGY PREDICTED BY IDOCK:   -0.14 KCAL/MOL
REMARK 927      BINDING AFFINITY PREDICTED BY RF-SCORE:    0.00 PKD
ROOT
HETATM    1 CL   UNL     1     -11.994  12.756  68.929  1.00  0.00    -0.324 Cl 
HETATM    2  C   UNL     1     -10.638  11.726  68.685  1.00  0.00    -0.223 A  
HETATM    3  C   UNL     1     -10.646  10.442  69.222  1.00  0.00    -0.259 A  
HETATM    4  C   UNL     1      -9.552   9.590  69.009  1.00  0.00    -0.166 A  
HETATM    5  C   UNL     1      -8.468  10.037  68.258  1.00  0.00    -0.111 A  
HETATM    6  C   UNL     1      -8.452  11.337  67.744  1.00  0.00    -0.126 A  
HETATM    7  O   UNL     1      -7.373   9.251  68.011  1.00  0.00    -0.079 OA 
HETATM    8  C   UNL     1      -7.681   8.133  67.271  1.00  0.00    -0.098 A  
HETATM    9  C   UNL     1      -9.545  12.180  67.950  1.00  0.00    -0.198 A  
HETATM   10  C   UNL     1      -7.060   8.026  66.020  1.00  0.00    -0.062 A  
HETATM   11  C   UNL     1      -7.331   6.931  65.203  1.00  0.00    -0.081 A  
HETATM   12  C   UNL     1      -8.200   5.938  65.650  1.00  0.00    -0.134 A  
HETATM   13  C   UNL     1      -8.800   6.045  66.911  1.00  0.00    -0.116 A  
HETATM   14  C   UNL     1      -8.558   7.146  67.742  1.00  0.00    -0.126 A  
HETATM   15  N   UNL     1      -9.156   7.142  69.016  1.00  0.00    -0.133 NA 
HETATM   16  H   UNL     1      -9.255   6.251  69.503  1.00  0.00     0.000 HD 
HETATM   17  C   UNL     1      -9.590   8.220  69.606  1.00  0.00    -0.167 C  
ENDROOT
BRANCH  17  18
HETATM   18  N   UNL     1     -10.181   8.119  70.855  1.00  0.00    -0.188 NA 
HETATM   19  C   UNL     1     -11.051   6.997  71.208  1.00  0.00    -0.252 C  
HETATM   20  C   UNL     1     -10.511   6.208  72.413  1.00  0.00    -0.199 C  
HETATM   21  N   UNL     1     -10.207   7.065  73.577  1.00  0.00    -0.296 NA 
HETATM   22  C   UNL     1      -9.247   8.106  73.159  1.00  0.00    -0.266 C  
HETATM   23  H   UNL     1      -9.877   6.530  74.380  1.00  0.00     0.000 HD 
HETATM   24  C   UNL     1      -9.754   8.962  71.977  1.00  0.00    -0.234 C  
ENDBRANCH  17  18
TORSDOF 1
ENDMDL
MODEL      123
REMARK 921   NORMALIZED FREE ENERGY PREDICTED BY IDOCK:   -3.40 KCAL/MOL
REMARK 922        TOTAL FREE ENERGY PREDICTED BY IDOCK:   -3.96 KCAL/MOL
REMARK 923 INTER-LIGAND FREE ENERGY PREDICTED BY IDOCK:   -3.66 KCAL/MOL
REMARK 924 INTRA-LIGAND FREE ENERGY PREDICTED BY IDOCK:   -0.31 KCAL/MOL
REMARK 927      BINDING AFFINITY PREDICTED BY RF-SCORE:    0.00 PKD
ROOT
HETATM    1 CL   UNL     1     -10.463  13.771  65.898  1.00  0.00    -0.290 Cl 
HETATM    2  C   UNL     1     -10.571  12.317  66.810  1.00  0.00    -0.224 A  
HETATM    3  C   UNL     1      -9.614  11.322  66.632  1.00  0.00    -0.218 A  
HETATM    4  C   UNL     1      -9.684  10.143  67.388  1.00  0.00    -0.192 A  
HETATM    5  C   UNL     1     -10.712   9.980  68.314  1.00  0.00    -0.240 A  
HETATM    6  C   UNL     1     -11.687  10.969  68.470  1.00  0.00    -0.348 A  
HETATM    7  O   UNL     1     -10.832   8.853  69.085  1.00  0.00    -0.182 OA 
HETATM    8  C   UNL     1      -9.766   8.680  69.937  1.00  0.00    -0.173 A  
HETATM    9  C   UNL     1     -11.609  12.146  67.723  1.00  0.00    -0.410 A  
HETATM   10  C   UNL     1     -10.056   8.696  71.307  1.00  0.00    -0.312 A  
HETATM   11  C   UNL     1      -9.029   8.543  72.235  1.00  0.00    -0.299 A  
HETATM   12  C   UNL     1      -7.723   8.349  71.790  1.00  0.00    -0.147 A  
HETATM   13  C   UNL     1      -7.447   8.314  70.418  1.00  0.00    -0.067 A  
HETATM   14  C   UNL     1      -8.459   8.485  69.466  1.00  0.00    -0.127 A  
HETATM   15  N   UNL     1      -8.101   8.376  68.109  1.00  0.00    -0.119 NA 
HETATM   16  H   UNL     1      -7.379   7.703  67.850  1.00  0.00     0.000 HD 
HETATM   17  C   UNL     1      -8.645   9.092  67.166  1.00  0.00    -0.120 C  
ENDROOT
BRANCH  17  18
HETATM   18  N   UNL     1      -8.218   8.929  65.858  1.00  0.00    -0.115 NA 
HETATM   19  C   UNL     1      -6.939   9.464  65.391  1.00  0.00    -0.090 C  
HETATM   20  C   UNL     1      -6.009   8.357  64.865  1.00  0.00    -0.052 C  
HETATM   21  N   UNL     1      -6.652   7.493  63.856  1.00  0.00    -0.052 NA 
HETATM   22  C   UNL     1      -7.877   6.915  64.440  1.00  0.00    -0.112 C  
HETATM   23  H   UNL     1      -6.020   6.781  63.491  1.00  0.00     0.000 HD 
HETATM   24  C   UNL     1      -8.873   7.982  64.949  1.00  0.00     0.233 C  
ENDBRANCH  17  18
TORSDOF 1
ENDMDL
MODEL      124
REMARK 921   NORMALIZED FREE ENERGY PREDICTED BY IDOCK:   -3.38 KCAL/MOL
REMARK 922        TOTAL FREE ENERGY PREDICTED BY IDOCK:   -3.93 KCAL/MOL
REMARK 923 INTER-LIGAND FREE ENERGY PREDICTED BY IDOCK:   -3.58 KCAL/MOL
REMARK 924 INTRA-LIGAND FREE ENERGY PREDICTED BY IDOCK:   -0.36 KCAL/MOL
REMARK 927      BINDING AFFINITY PREDICTED BY RF-SCORE:    0.00 PKD
ROOT
HETATM    1 CL   UNL     1     -10.261   4.976  71.068  1.00  0.00    -0.293 Cl 
HETATM    2  C   UNL     1      -9.385   6.025  70.025  1.00  0.00    -0.153 A  
HETATM    3  C   UNL     1      -9.454   5.838  68.647  1.00  0.00    -0.144 A  
HETATM    4  C   UNL     1      -8.759   6.703  67.789  1.00  0.00    -0.116 A  
HETATM    5  C   UNL     1      -8.006   7.746  68.326  1.00  0.00    -0.122 A  
HETATM    6  C   UNL     1      -7.917   7.913  69.711  1.00  0.00    -0.114 A  
HETATM    7  O   UNL     1      -7.309   8.626  67.541  1.00  0.00    -0.086 OA 
HETATM    8  C   UNL     1      -8.129   9.371  66.725  1.00  0.00    -0.109 A  
HETATM    9  C   UNL     1      -8.617   7.056  70.562  1.00  0.00    -0.141 A  
HETATM   10  C   UNL     1      -8.113  10.757  66.927  1.00  0.00    -0.132 A  
HETATM   11  C   UNL     1      -8.927  11.579  66.151  1.00  0.00    -0.201 A  
HETATM   12  C   UNL     1      -9.731  11.016  65.163  1.00  0.00    -0.302 A  
HETATM   13  C   UNL     1      -9.725   9.631  64.957  1.00  0.00    -0.234 A  
HETATM   14  C   UNL     1      -8.930   8.782  65.736  1.00  0.00    -0.206 A  
HETATM   15  N   UNL     1      -8.940   7.410  65.420  1.00  0.00    -0.376 NA 
HETATM   16  H   UNL     1      -9.024   7.139  64.439  1.00  0.00     0.000 HD 
HETATM   17  C   UNL     1      -8.848   6.469  66.317  1.00  0.00    -0.146 C  
ENDROOT
BRANCH  17  18
HETATM   18  N   UNL     1      -8.883   5.144  65.914  1.00  0.00    -0.137 NA 
HETATM   19  C   UNL     1     -10.034   4.582  65.206  1.00  0.00    -0.162 C  
HETATM   20  C   UNL     1      -9.647   4.037  63.820  1.00  0.00    -0.155 C  
HETATM   21  N   UNL     1      -8.509   3.098  63.866  1.00  0.00    -0.090 NA 
HETATM   22  C   UNL     1      -7.362   3.775  64.502  1.00  0.00    -0.067 C  
HETATM   23  H   UNL     1      -8.278   2.719  62.947  1.00  0.00     0.000 HD 
HETATM   24  C   UNL     1      -7.678   4.308  65.917  1.00  0.00    -0.090 C  
ENDBRANCH  17  18
TORSDOF 1
ENDMDL
MODEL      125
REMARK 921   NORMALIZED FREE ENERGY PREDICTED BY IDOCK:   -3.37 KCAL/MOL
REMARK 922        TOTAL FREE ENERGY PREDICTED BY IDOCK:   -3.93 KCAL/MOL
REMARK 923 INTER-LIGAND FREE ENERGY PREDICTED BY IDOCK:   -3.57 KCAL/MOL
REMARK 924 INTRA-LIGAND FREE ENERGY PREDICTED BY IDOCK:   -0.36 KCAL/MOL
REMARK 927      BINDING AFFINITY PREDICTED BY RF-SCORE:    0.00 PKD
ROOT
HETATM    1 CL   UNL     1      -6.697  11.196  68.704  1.00  0.00    -0.058 Cl 
HETATM    2  C   UNL     1      -6.894   9.497  68.518  1.00  0.00    -0.061 A  
HETATM    3  C   UNL     1      -8.083   8.896  68.921  1.00  0.00    -0.112 A  
HETATM    4  C   UNL     1      -8.258   7.514  68.753  1.00  0.00    -0.129 A  
HETATM    5  C   UNL     1      -7.240   6.757  68.179  1.00  0.00    -0.091 A  
HETATM    6  C   UNL     1      -6.037   7.360  67.801  1.00  0.00    -0.039 A  
HETATM    7  O   UNL     1      -7.352   5.405  67.984  1.00  0.00    -0.071 OA 
HETATM    8  C   UNL     1      -8.361   5.080  67.107  1.00  0.00    -0.106 A  
HETATM    9  C   UNL     1      -5.868   8.737  67.962  1.00  0.00    -0.046 A  
HETATM   10  C   UNL     1      -7.974   4.424  65.931  1.00  0.00    -0.099 A  
HETATM   11  C   UNL     1      -8.935   4.075  64.985  1.00  0.00    -0.133 A  
HETATM   12  C   UNL     1     -10.276   4.359  65.229  1.00  0.00    -0.230 A  
HETATM   13  C   UNL     1     -10.654   4.998  66.416  1.00  0.00    -0.317 A  
HETATM   14  C   UNL     1      -9.705   5.376  67.374  1.00  0.00    -0.140 A  
HETATM   15  N   UNL     1     -10.180   5.959  68.564  1.00  0.00    -0.174 NA 
HETATM   16  H   UNL     1     -11.067   5.628  68.947  1.00  0.00     0.000 HD 
HETATM   17  C   UNL     1      -9.543   6.900  69.203  1.00  0.00    -0.144 C  
ENDROOT
BRANCH  17  18
HETATM   18  N   UNL     1     -10.095   7.426  70.360  1.00  0.00    -0.192 NA 
HETATM   19  C   UNL     1     -11.337   8.200  70.340  1.00  0.00    -0.181 C  
HETATM   20  C   UNL     1     -12.431   7.554  71.207  1.00  0.00    -0.323 C  
HETATM   21  N   UNL     1     -11.980   7.259  72.582  1.00  0.00    -0.528 NA 
HETATM   22  C   UNL     1     -10.787   6.394  72.513  1.00  0.00    -0.238 C  
HETATM   23  H   UNL     1     -12.720   6.858  73.158  1.00  0.00     0.000 HD 
HETATM   24  C   UNL     1      -9.634   7.010  71.689  1.00  0.00    -0.156 C  
ENDBRANCH  17  18
TORSDOF 1
ENDMDL
MODEL      126
REMARK 921   NORMALIZED FREE ENERGY PREDICTED BY IDOCK:   -3.32 KCAL/MOL
REMARK 922        TOTAL FREE ENERGY PREDICTED BY IDOCK:   -3.87 KCAL/MOL
REMARK 923 INTER-LIGAND FREE ENERGY PREDICTED BY IDOCK:   -3.92 KCAL/MOL
REMARK 924 INTRA-LIGAND FREE ENERGY PREDICTED BY IDOCK:    0.05 KCAL/MOL
REMARK 927      BINDING AFFINITY PREDICTED BY RF-SCORE:    0.00 PKD
ROOT
HETATM    1 CL   UNL     1     -11.957  15.670  68.837  1.00  0.00    -0.358 Cl 
HETATM    2  C   UNL     1     -10.834  14.391  68.586  1.00  0.00    -0.251 A  
HETATM    3  C   UNL     1     -11.165  13.099  68.982  1.00  0.00    -0.309 A  
HETATM    4  C   UNL     1     -10.263  12.048  68.761  1.00  0.00    -0.145 A  
HETATM    5  C   UNL     1      -9.042  12.308  68.143  1.00  0.00    -0.196 A  
HETATM    6  C   UNL     1      -8.701  13.612  67.772  1.00  0.00    -0.184 A  
HETATM    7  O   UNL     1      -8.120  11.324  67.896  1.00  0.00    -0.113 OA 
HETATM    8  C   UNL     1      -8.587  10.371  67.021  1.00  0.00    -0.130 A  
HETATM    9  C   UNL     1      -9.605  14.655  67.985  1.00  0.00    -0.212 A  
HETATM   10  C   UNL     1      -7.888  10.239  65.815  1.00  0.00    -0.145 A  
HETATM   11  C   UNL     1      -8.307   9.306  64.870  1.00  0.00    -0.164 A  
HETATM   12  C   UNL     1      -9.405   8.494  65.144  1.00  0.00     0.264 A  
HETATM   13  C   UNL     1     -10.086   8.621  66.361  1.00  0.00    -0.294 A  
HETATM   14  C   UNL     1      -9.695   9.565  67.320  1.00  0.00    -0.167 A  
HETATM   15  N   UNL     1     -10.399   9.582  68.539  1.00  0.00    -0.200 NA 
HETATM   16  H   UNL     1     -10.730   8.695  68.921  1.00  0.00     0.000 HD 
HETATM   17  C   UNL     1     -10.647  10.674  69.205  1.00  0.00    -0.233 C  
ENDROOT
BRANCH  17  18
HETATM   18  N   UNL     1     -11.362  10.597  70.390  1.00  0.00    -0.317 NA 
HETATM   19  C   UNL     1     -12.791  10.906  70.451  1.00  0.00    -0.184 C  
HETATM   20  C   UNL     1     -13.618   9.707  70.944  1.00  0.00    -0.013 C  
HETATM   21  N   UNL     1     -13.116   9.139  72.211  1.00  0.00    -0.425 NA 
HETATM   22  C   UNL     1     -11.700   8.762  72.033  1.00  0.00    -0.372 C  
HETATM   23  H   UNL     1     -13.687   8.363  72.545  1.00  0.00     0.000 HD 
HETATM   24  C   UNL     1     -10.808   9.939  71.579  1.00  0.00     0.225 C  
ENDBRANCH  17  18
TORSDOF 1
ENDMDL
MODEL      127
REMARK 921   NORMALIZED FREE ENERGY PREDICTED BY IDOCK:   -3.29 KCAL/MOL
REMARK 922        TOTAL FREE ENERGY PREDICTED BY IDOCK:   -3.85 KCAL/MOL
REMARK 923 INTER-LIGAND FREE ENERGY PREDICTED BY IDOCK:   -3.89 KCAL/MOL
REMARK 924 INTRA-LIGAND FREE ENERGY PREDICTED BY IDOCK:    0.04 KCAL/MOL
REMARK 927      BINDING AFFINITY PREDICTED BY RF-SCORE:    0.00 PKD
ROOT
HETATM    1 CL   UNL     1     -11.007  17.422  66.506  1.00  0.00     0.086 Cl 
HETATM    2  C   UNL     1     -10.240  15.963  66.998  1.00  0.00    -0.283 A  
HETATM    3  C   UNL     1     -10.817  15.189  68.001  1.00  0.00    -0.284 A  
HETATM    4  C   UNL     1     -10.209  13.987  68.393  1.00  0.00    -0.239 A  
HETATM    5  C   UNL     1      -9.031  13.578  67.771  1.00  0.00    -0.201 A  
HETATM    6  C   UNL     1      -8.440  14.372  66.784  1.00  0.00    -0.076 A  
HETATM    7  O   UNL     1      -8.392  12.413  68.106  1.00  0.00    -0.164 OA 
HETATM    8  C   UNL     1      -9.154  11.298  67.844  1.00  0.00    -0.150 A  
HETATM    9  C   UNL     1      -9.052  15.564  66.390  1.00  0.00    -0.351 A  
HETATM   10  C   UNL     1      -8.632  10.395  66.910  1.00  0.00    -0.127 A  
HETATM   11  C   UNL     1      -9.350   9.249  66.579  1.00  0.00    -0.231 A  
HETATM   12  C   UNL     1     -10.571   8.998  67.200  1.00  0.00    -0.291 A  
HETATM   13  C   UNL     1     -11.074   9.898  68.147  1.00  0.00    -0.215 A  
HETATM   14  C   UNL     1     -10.380  11.067  68.483  1.00  0.00    -0.190 A  
HETATM   15  N   UNL     1     -10.931  11.884  69.489  1.00  0.00    -0.457 NA 
HETATM   16  H   UNL     1     -11.417  11.435  70.266  1.00  0.00     0.000 HD 
HETATM   17  C   UNL     1     -10.851  13.185  69.477  1.00  0.00     0.179 C  
ENDROOT
BRANCH  17  18
HETATM   18  N   UNL     1     -11.438  13.909  70.502  1.00  0.00    -0.047 NA 
HETATM   19  C   UNL     1     -10.721  14.977  71.200  1.00  0.00     0.215 C  
HETATM   20  C   UNL     1     -11.438  16.332  71.068  1.00  0.00    -0.302 C  
HETATM   21  N   UNL     1     -12.862  16.273  71.453  1.00  0.00    -0.300 NA 
HETATM   22  C   UNL     1     -13.531  15.244  70.633  1.00  0.00    -0.208 C  
HETATM   23  H   UNL     1     -13.322  17.181  71.390  1.00  0.00     0.000 HD 
HETATM   24  C   UNL     1     -12.881  13.848  70.757  1.00  0.00    -0.259 C  
ENDBRANCH  17  18
TORSDOF 1
ENDMDL
MODEL      128
REMARK 921   NORMALIZED FREE ENERGY PREDICTED BY IDOCK:   -3.29 KCAL/MOL
REMARK 922        TOTAL FREE ENERGY PREDICTED BY IDOCK:   -3.85 KCAL/MOL
REMARK 923 INTER-LIGAND FREE ENERGY PREDICTED BY IDOCK:   -3.74 KCAL/MOL
REMARK 924 INTRA-LIGAND FREE ENERGY PREDICTED BY IDOCK:   -0.11 KCAL/MOL
REMARK 927      BINDING AFFINITY PREDICTED BY RF-SCORE:    0.00 PKD
ROOT
HETATM    1 CL   UNL     1     -10.341   9.798  65.859  1.00  0.00    -0.232 Cl 
HETATM    2  C   UNL     1     -10.005   8.605  67.053  1.00  0.00    -0.249 A  
HETATM    3  C   UNL     1      -9.082   8.880  68.057  1.00  0.00    -0.143 A  
HETATM    4  C   UNL     1      -8.819   7.921  69.046  1.00  0.00    -0.145 A  
HETATM    5  C   UNL     1      -9.488   6.700  69.014  1.00  0.00    -0.131 A  
HETATM    6  C   UNL     1     -10.394   6.416  67.988  1.00  0.00    -0.234 A  
HETATM    7  O   UNL     1      -9.278   5.724  69.953  1.00  0.00    -0.141 OA 
HETATM    8  C   UNL     1      -9.645   6.120  71.218  1.00  0.00    -0.171 A  
HETATM    9  C   UNL     1     -10.660   7.377  67.010  1.00  0.00    -0.414 A  
HETATM   10  C   UNL     1     -10.671   5.384  71.826  1.00  0.00    -0.271 A  
HETATM   11  C   UNL     1     -11.111   5.732  73.101  1.00  0.00    -0.288 A  
HETATM   12  C   UNL     1     -10.508   6.794  73.770  1.00  0.00    -0.383 A  
HETATM   13  C   UNL     1      -9.470   7.510  73.161  1.00  0.00    -0.272 A  
HETATM   14  C   UNL     1      -9.024   7.192  71.873  1.00  0.00    -0.127 A  
HETATM   15  N   UNL     1      -7.936   7.926  71.363  1.00  0.00    -0.089 NA 
HETATM   16  H   UNL     1      -7.204   8.222  72.010  1.00  0.00     0.000 HD 
HETATM   17  C   UNL     1      -7.817   8.246  70.105  1.00  0.00    -0.097 C  
ENDROOT
BRANCH  17  18
HETATM   18  N   UNL     1      -6.719   8.985  69.695  1.00  0.00    -0.045 NA 
HETATM   19  C   UNL     1      -5.743   8.454  68.743  1.00  0.00    -0.040 C  
HETATM   20  C   UNL     1      -5.645   9.319  67.475  1.00  0.00    -0.041 C  
HETATM   21  N   UNL     1      -5.417  10.749  67.767  1.00  0.00    -0.040 NA 
HETATM   22  C   UNL     1      -6.499  11.230  68.649  1.00  0.00    -0.050 C  
HETATM   23  H   UNL     1      -5.325  11.310  66.921  1.00  0.00     0.000 HD 
HETATM   24  C   UNL     1      -6.618  10.424  69.962  1.00  0.00    -0.137 C  
ENDBRANCH  17  18
TORSDOF 1
ENDMDL
MODEL      129
REMARK 921   NORMALIZED FREE ENERGY PREDICTED BY IDOCK:   -3.29 KCAL/MOL
REMARK 922        TOTAL FREE ENERGY PREDICTED BY IDOCK:   -3.84 KCAL/MOL
REMARK 923 INTER-LIGAND FREE ENERGY PREDICTED BY IDOCK:   -3.48 KCAL/MOL
REMARK 924 INTRA-LIGAND FREE ENERGY PREDICTED BY IDOCK:   -0.36 KCAL/MOL
REMARK 927      BINDING AFFINITY PREDICTED BY RF-SCORE:    0.00 PKD
ROOT
HETATM    1 CL   UNL     1      -9.987   1.577  71.458  1.00  0.00    -0.212 Cl 
HETATM    2  C   UNL     1      -9.581   3.249  71.476  1.00  0.00    -0.164 A  
HETATM    3  C   UNL     1      -9.365   3.915  70.273  1.00  0.00    -0.238 A  
HETATM    4  C   UNL     1      -9.055   5.283  70.279  1.00  0.00    -0.169 A  
HETATM    5  C   UNL     1      -8.969   5.963  71.492  1.00  0.00    -0.143 A  
HETATM    6  C   UNL     1      -9.160   5.284  72.699  1.00  0.00    -0.141 A  
HETATM    7  O   UNL     1      -8.674   7.300  71.563  1.00  0.00    -0.119 OA 
HETATM    8  C   UNL     1      -9.630   8.085  70.961  1.00  0.00    -0.160 A  
HETATM    9  C   UNL     1      -9.477   3.925  72.689  1.00  0.00    -0.166 A  
HETATM   10  C   UNL     1     -10.302   8.992  71.791  1.00  0.00    -0.407 A  
HETATM   11  C   UNL     1     -11.295   9.812  71.259  1.00  0.00    -0.445 A  
HETATM   12  C   UNL     1     -11.592   9.740  69.901  1.00  0.00    -0.132 A  
HETATM   13  C   UNL     1     -10.901   8.843  69.077  1.00  0.00    -0.071 A  
HETATM   14  C   UNL     1      -9.912   7.995  69.590  1.00  0.00    -0.188 A  
HETATM   15  N   UNL     1      -9.227   7.170  68.679  1.00  0.00    -0.136 NA 
HETATM   16  H   UNL     1      -9.038   7.531  67.744  1.00  0.00     0.000 HD 
HETATM   17  C   UNL     1      -8.821   5.966  68.971  1.00  0.00    -0.119 C  
ENDROOT
BRANCH  17  18
HETATM   18  N   UNL     1      -8.168   5.218  68.005  1.00  0.00    -0.099 NA 
HETATM   19  C   UNL     1      -8.846   4.765  66.790  1.00  0.00    -0.110 C  
HETATM   20  C   UNL     1      -8.169   5.306  65.518  1.00  0.00    -0.124 C  
HETATM   21  N   UNL     1      -6.718   5.040  65.478  1.00  0.00    -0.054 NA 
HETATM   22  C   UNL     1      -6.098   5.616  66.687  1.00  0.00    -0.030 C  
HETATM   23  H   UNL     1      -6.283   5.376  64.618  1.00  0.00     0.000 HD 
HETATM   24  C   UNL     1      -6.708   5.078  68.000  1.00  0.00    -0.055 C  
ENDBRANCH  17  18
TORSDOF 1
ENDMDL
MODEL      130
REMARK 921   NORMALIZED FREE ENERGY PREDICTED BY IDOCK:   -3.27 KCAL/MOL
REMARK 922        TOTAL FREE ENERGY PREDICTED BY IDOCK:   -3.82 KCAL/MOL
REMARK 923 INTER-LIGAND FREE ENERGY PREDICTED BY IDOCK:   -3.73 KCAL/MOL
REMARK 924 INTRA-LIGAND FREE ENERGY PREDICTED BY IDOCK:   -0.09 KCAL/MOL
REMARK 927      BINDING AFFINITY PREDICTED BY RF-SCORE:    0.00 PKD
ROOT
HETATM    1 CL   UNL     1     -10.065   9.983  65.286  1.00  0.00    -0.367 Cl 
HETATM    2  C   UNL     1     -10.147   9.264  66.847  1.00  0.00    -0.256 A  
HETATM    3  C   UNL     1      -9.491   8.059  67.083  1.00  0.00    -0.207 A  
HETATM    4  C   UNL     1      -9.535   7.478  68.358  1.00  0.00    -0.148 A  
HETATM    5  C   UNL     1     -10.234   8.116  69.381  1.00  0.00    -0.211 A  
HETATM    6  C   UNL     1     -10.914   9.312  69.133  1.00  0.00    -0.083 A  
HETATM    7  O   UNL     1     -10.311   7.602  70.649  1.00  0.00    -0.203 OA 
HETATM    8  C   UNL     1      -9.082   7.527  71.264  1.00  0.00    -0.141 A  
HETATM    9  C   UNL     1     -10.861   9.893  67.864  1.00  0.00    -0.312 A  
HETATM   10  C   UNL     1      -8.923   8.288  72.428  1.00  0.00    -0.297 A  
HETATM   11  C   UNL     1      -7.703   8.277  73.101  1.00  0.00    -0.180 A  
HETATM   12  C   UNL     1      -6.660   7.488  72.622  1.00  0.00    -0.060 A  
HETATM   13  C   UNL     1      -6.837   6.716  71.468  1.00  0.00    -0.066 A  
HETATM   14  C   UNL     1      -8.047   6.725  70.763  1.00  0.00    -0.118 A  
HETATM   15  N   UNL     1      -8.155   5.872  69.648  1.00  0.00    -0.104 NA 
HETATM   16  H   UNL     1      -7.685   4.967  69.682  1.00  0.00     0.000 HD 
HETATM   17  C   UNL     1      -8.827   6.181  68.575  1.00  0.00    -0.113 C  
ENDROOT
BRANCH  17  18
HETATM   18  N   UNL     1      -8.866   5.285  67.519  1.00  0.00    -0.106 NA 
HETATM   19  C   UNL     1     -10.097   4.590  67.141  1.00  0.00    -0.112 C  
HETATM   20  C   UNL     1     -10.512   4.902  65.693  1.00  0.00    -0.121 C  
HETATM   21  N   UNL     1      -9.426   4.678  64.719  1.00  0.00    -0.290 NA 
HETATM   22  C   UNL     1      -8.260   5.491  65.116  1.00  0.00    -0.141 C  
HETATM   23  H   UNL     1      -9.718   4.859  63.758  1.00  0.00     0.000 HD 
HETATM   24  C   UNL     1      -7.768   5.191  66.550  1.00  0.00    -0.092 C  
ENDBRANCH  17  18
TORSDOF 1
ENDMDL
MODEL      131
REMARK 921   NORMALIZED FREE ENERGY PREDICTED BY IDOCK:   -3.25 KCAL/MOL
REMARK 922        TOTAL FREE ENERGY PREDICTED BY IDOCK:   -3.81 KCAL/MOL
REMARK 923 INTER-LIGAND FREE ENERGY PREDICTED BY IDOCK:   -3.45 KCAL/MOL
REMARK 924 INTRA-LIGAND FREE ENERGY PREDICTED BY IDOCK:   -0.36 KCAL/MOL
REMARK 927      BINDING AFFINITY PREDICTED BY RF-SCORE:    0.00 PKD
ROOT
HETATM    1 CL   UNL     1      -9.108  12.608  66.643  1.00  0.00    -0.217 Cl 
HETATM    2  C   UNL     1      -9.704  11.234  67.489  1.00  0.00    -0.177 A  
HETATM    3  C   UNL     1      -8.865  10.145  67.705  1.00  0.00    -0.125 A  
HETATM    4  C   UNL     1      -9.338   9.030  68.413  1.00  0.00    -0.143 A  
HETATM    5  C   UNL     1     -10.644   9.025  68.896  1.00  0.00    -0.180 A  
HETATM    6  C   UNL     1     -11.492  10.110  68.653  1.00  0.00    -0.105 A  
HETATM    7  O   UNL     1     -11.163   7.968  69.598  1.00  0.00    -0.088 OA 
HETATM    8  C   UNL     1     -10.508   7.753  70.789  1.00  0.00    -0.210 A  
HETATM    9  C   UNL     1     -11.016  11.222  67.956  1.00  0.00    -0.302 A  
HETATM   10  C   UNL     1     -11.276   7.887  71.953  1.00  0.00    -0.320 A  
HETATM   11  C   UNL     1     -10.683   7.700  73.199  1.00  0.00    -0.445 A  
HETATM   12  C   UNL     1      -9.336   7.355  73.275  1.00  0.00    -0.247 A  
HETATM   13  C   UNL     1      -8.583   7.205  72.105  1.00  0.00    -0.120 A  
HETATM   14  C   UNL     1      -9.151   7.406  70.841  1.00  0.00    -0.154 A  
HETATM   15  N   UNL     1      -8.335   7.174  69.717  1.00  0.00    -0.131 NA 
HETATM   16  H   UNL     1      -7.648   6.421  69.763  1.00  0.00     0.000 HD 
HETATM   17  C   UNL     1      -8.413   7.874  68.620  1.00  0.00    -0.128 C  
ENDROOT
BRANCH  17  18
HETATM   18  N   UNL     1      -7.558   7.585  67.569  1.00  0.00    -0.110 NA 
HETATM   19  C   UNL     1      -6.118   7.830  67.656  1.00  0.00    -0.049 C  
HETATM   20  C   UNL     1      -5.303   6.539  67.470  1.00  0.00    -0.005 C  
HETATM   21  N   UNL     1      -5.668   5.795  66.248  1.00  0.00    -0.017 NA 
HETATM   22  C   UNL     1      -7.114   5.501  66.289  1.00  0.00    -0.072 C  
HETATM   23  H   UNL     1      -5.103   4.956  66.118  1.00  0.00     0.000 HD 
HETATM   24  C   UNL     1      -7.990   6.765  66.432  1.00  0.00    -0.106 C  
ENDBRANCH  17  18
TORSDOF 1
ENDMDL
MODEL      132
REMARK 921   NORMALIZED FREE ENERGY PREDICTED BY IDOCK:   -3.25 KCAL/MOL
REMARK 922        TOTAL FREE ENERGY PREDICTED BY IDOCK:   -3.80 KCAL/MOL
REMARK 923 INTER-LIGAND FREE ENERGY PREDICTED BY IDOCK:   -3.72 KCAL/MOL
REMARK 924 INTRA-LIGAND FREE ENERGY PREDICTED BY IDOCK:   -0.08 KCAL/MOL
REMARK 927      BINDING AFFINITY PREDICTED BY RF-SCORE:    0.00 PKD
ROOT
HETATM    1 CL   UNL     1      -7.565   9.970  70.199  1.00  0.00    -0.179 Cl 
HETATM    2  C   UNL     1      -7.450   8.258  70.317  1.00  0.00    -0.066 A  
HETATM    3  C   UNL     1      -8.613   7.493  70.349  1.00  0.00    -0.143 A  
HETATM    4  C   UNL     1      -8.527   6.095  70.423  1.00  0.00    -0.133 A  
HETATM    5  C   UNL     1      -7.275   5.484  70.460  1.00  0.00    -0.070 A  
HETATM    6  C   UNL     1      -6.111   6.257  70.455  1.00  0.00    -0.034 A  
HETATM    7  O   UNL     1      -7.125   4.123  70.528  1.00  0.00    -0.037 OA 
HETATM    8  C   UNL     1      -7.629   3.480  69.421  1.00  0.00    -0.051 A  
HETATM    9  C   UNL     1      -6.200   7.648  70.372  1.00  0.00    -0.033 A  
HETATM   10  C   UNL     1      -6.710   2.755  68.652  1.00  0.00    -0.037 A  
HETATM   11  C   UNL     1      -7.139   2.088  67.507  1.00  0.00    -0.047 A  
HETATM   12  C   UNL     1      -8.485   2.129  67.151  1.00  0.00    -0.103 A  
HETATM   13  C   UNL     1      -9.398   2.841  67.937  1.00  0.00    -0.251 A  
HETATM   14  C   UNL     1      -8.989   3.535  69.082  1.00  0.00    -0.120 A  
HETATM   15  N   UNL     1      -9.984   4.174  69.846  1.00  0.00    -0.154 NA 
HETATM   16  H   UNL     1     -10.900   3.729  69.919  1.00  0.00     0.000 HD 
HETATM   17  C   UNL     1      -9.794   5.305  70.465  1.00  0.00    -0.207 C  
ENDROOT
BRANCH  17  18
HETATM   18  N   UNL     1     -10.838   5.869  71.181  1.00  0.00    -0.268 NA 
HETATM   19  C   UNL     1     -10.820   5.943  72.642  1.00  0.00    -0.251 C  
HETATM   20  C   UNL     1     -10.903   7.394  73.145  1.00  0.00    -0.386 C  
HETATM   21  N   UNL     1     -12.035   8.144  72.564  1.00  0.00    -0.503 NA 
HETATM   22  C   UNL     1     -11.921   8.105  71.093  1.00  0.00    -0.273 C  
HETATM   23  H   UNL     1     -12.100   9.095  72.925  1.00  0.00     0.000 HD 
HETATM   24  C   UNL     1     -11.876   6.669  70.523  1.00  0.00    -0.370 C  
ENDBRANCH  17  18
TORSDOF 1
ENDMDL
MODEL      133
REMARK 921   NORMALIZED FREE ENERGY PREDICTED BY IDOCK:   -3.23 KCAL/MOL
REMARK 922        TOTAL FREE ENERGY PREDICTED BY IDOCK:   -3.79 KCAL/MOL
REMARK 923 INTER-LIGAND FREE ENERGY PREDICTED BY IDOCK:   -4.05 KCAL/MOL
REMARK 924 INTRA-LIGAND FREE ENERGY PREDICTED BY IDOCK:    0.26 KCAL/MOL
REMARK 927      BINDING AFFINITY PREDICTED BY RF-SCORE:    0.00 PKD
ROOT
HETATM    1 CL   UNL     1     -12.365  12.524  64.459  1.00  0.00    -0.532 Cl 
HETATM    2  C   UNL     1     -10.828  11.752  64.487  1.00  0.00    -0.321 A  
HETATM    3  C   UNL     1     -10.322  11.275  65.693  1.00  0.00    -0.310 A  
HETATM    4  C   UNL     1      -9.080  10.626  65.720  1.00  0.00    -0.208 A  
HETATM    5  C   UNL     1      -8.363  10.462  64.537  1.00  0.00    -0.146 A  
HETATM    6  C   UNL     1      -8.862  10.967  63.332  1.00  0.00    -0.123 A  
HETATM    7  O   UNL     1      -7.146   9.832  64.497  1.00  0.00    -0.116 OA 
HETATM    8  C   UNL     1      -7.223   8.510  64.869  1.00  0.00    -0.084 A  
HETATM    9  C   UNL     1     -10.104  11.605  63.307  1.00  0.00    -0.454 A  
HETATM   10  C   UNL     1      -6.859   7.570  63.897  1.00  0.00    -0.054 A  
HETATM   11  C   UNL     1      -6.924   6.210  64.191  1.00  0.00    -0.051 A  
HETATM   12  C   UNL     1      -7.326   5.799  65.460  1.00  0.00    -0.076 A  
HETATM   13  C   UNL     1      -7.669   6.748  66.430  1.00  0.00    -0.098 A  
HETATM   14  C   UNL     1      -7.631   8.120  66.153  1.00  0.00    -0.089 A  
HETATM   15  N   UNL     1      -7.933   9.004  67.205  1.00  0.00    -0.099 NA 
HETATM   16  H   UNL     1      -7.646   8.750  68.151  1.00  0.00     0.000 HD 
HETATM   17  C   UNL     1      -8.563  10.133  67.032  1.00  0.00    -0.129 C  
ENDROOT
BRANCH  17  18
HETATM   18  N   UNL     1      -8.832  10.933  68.130  1.00  0.00    -0.132 NA 
HETATM   19  C   UNL     1      -8.737  12.392  68.064  1.00  0.00    -0.186 C  
HETATM   20  C   UNL     1     -10.077  13.072  68.392  1.00  0.00    -0.225 C  
HETATM   21  N   UNL     1     -10.663  12.610  69.666  1.00  0.00    -0.276 NA 
HETATM   22  C   UNL     1     -10.819  11.143  69.610  1.00  0.00    -0.142 C  
HETATM   23  H   UNL     1     -11.537  13.086  69.890  1.00  0.00     0.000 HD 
HETATM   24  C   UNL     1      -9.495  10.400  69.326  1.00  0.00    -0.198 C  
ENDBRANCH  17  18
TORSDOF 1
ENDMDL
MODEL      134
REMARK 921   NORMALIZED FREE ENERGY PREDICTED BY IDOCK:   -3.19 KCAL/MOL
REMARK 922        TOTAL FREE ENERGY PREDICTED BY IDOCK:   -3.74 KCAL/MOL
REMARK 923 INTER-LIGAND FREE ENERGY PREDICTED BY IDOCK:   -3.65 KCAL/MOL
REMARK 924 INTRA-LIGAND FREE ENERGY PREDICTED BY IDOCK:   -0.09 KCAL/MOL
REMARK 927      BINDING AFFINITY PREDICTED BY RF-SCORE:    0.00 PKD
ROOT
HETATM    1 CL   UNL     1     -11.077  18.126  67.807  1.00  0.00    -0.096 Cl 
HETATM    2  C   UNL     1      -9.856  16.930  67.613  1.00  0.00    -0.259 A  
HETATM    3  C   UNL     1      -8.608  17.121  68.199  1.00  0.00    -0.232 A  
HETATM    4  C   UNL     1      -7.615  16.141  68.063  1.00  0.00    -0.140 A  
HETATM    5  C   UNL     1      -7.889  14.979  67.343  1.00  0.00    -0.200 A  
HETATM    6  C   UNL     1      -9.135  14.803  66.734  1.00  0.00    -0.291 A  
HETATM    7  O   UNL     1      -6.963  13.983  67.179  1.00  0.00    -0.135 OA 
HETATM    8  C   UNL     1      -6.597  13.399  68.369  1.00  0.00    -0.094 A  
HETATM    9  C   UNL     1     -10.124  15.777  66.878  1.00  0.00    -0.267 A  
HETATM   10  C   UNL     1      -6.883  12.034  68.505  1.00  0.00    -0.078 A  
HETATM   11  C   UNL     1      -6.558  11.373  69.687  1.00  0.00    -0.128 A  
HETATM   12  C   UNL     1      -5.928  12.070  70.715  1.00  0.00     0.136 A  
HETATM   13  C   UNL     1      -5.630  13.430  70.561  1.00  0.00    -0.163 A  
HETATM   14  C   UNL     1      -5.964  14.121  69.390  1.00  0.00    -0.095 A  
HETATM   15  N   UNL     1      -5.572  15.470  69.298  1.00  0.00    -0.101 NA 
HETATM   16  H   UNL     1      -4.687  15.749  69.723  1.00  0.00     0.000 HD 
HETATM   17  C   UNL     1      -6.284  16.382  68.697  1.00  0.00    -0.130 C  
ENDROOT
BRANCH  17  18
HETATM   18  N   UNL     1      -5.827  17.690  68.670  1.00  0.00    -0.169 NA 
HETATM   19  C   UNL     1      -5.387  18.327  67.429  1.00  0.00    -0.138 C  
HETATM   20  C   UNL     1      -6.218  19.579  67.099  1.00  0.00    -0.185 C  
HETATM   21  N   UNL     1      -6.292  20.536  68.221  1.00  0.00    -0.305 NA 
HETATM   22  C   UNL     1      -6.839  19.839  69.401  1.00  0.00    -0.329 C  
HETATM   23  H   UNL     1      -6.820  21.376  67.984  1.00  0.00     0.000 HD 
HETATM   24  C   UNL     1      -6.020  18.594  69.808  1.00  0.00    -0.249 C  
ENDBRANCH  17  18
TORSDOF 1
ENDMDL
MODEL      135
REMARK 921   NORMALIZED FREE ENERGY PREDICTED BY IDOCK:   -3.17 KCAL/MOL
REMARK 922        TOTAL FREE ENERGY PREDICTED BY IDOCK:   -3.72 KCAL/MOL
REMARK 923 INTER-LIGAND FREE ENERGY PREDICTED BY IDOCK:   -3.41 KCAL/MOL
REMARK 924 INTRA-LIGAND FREE ENERGY PREDICTED BY IDOCK:   -0.31 KCAL/MOL
REMARK 927      BINDING AFFINITY PREDICTED BY RF-SCORE:    0.00 PKD
ROOT
HETATM    1 CL   UNL     1     -10.864   7.104  73.469  1.00  0.00    -0.373 Cl 
HETATM    2  C   UNL     1     -10.456   6.817  71.822  1.00  0.00    -0.207 A  
HETATM    3  C   UNL     1      -9.576   7.678  71.173  1.00  0.00    -0.168 A  
HETATM    4  C   UNL     1      -9.223   7.438  69.837  1.00  0.00    -0.144 A  
HETATM    5  C   UNL     1      -9.756   6.336  69.173  1.00  0.00    -0.135 A  
HETATM    6  C   UNL     1     -10.660   5.489  69.820  1.00  0.00    -0.388 A  
HETATM    7  O   UNL     1      -9.446   6.045  67.869  1.00  0.00    -0.113 OA 
HETATM    8  C   UNL     1      -8.112   5.759  67.694  1.00  0.00    -0.102 A  
HETATM    9  C   UNL     1     -11.003   5.726  71.152  1.00  0.00    -0.295 A  
HETATM   10  C   UNL     1      -7.808   4.473  67.230  1.00  0.00    -0.097 A  
HETATM   11  C   UNL     1      -6.480   4.100  67.041  1.00  0.00    -0.041 A  
HETATM   12  C   UNL     1      -5.465   5.020  67.293  1.00  0.00    -0.013 A  
HETATM   13  C   UNL     1      -5.781   6.310  67.738  1.00  0.00    -0.009 A  
HETATM   14  C   UNL     1      -7.107   6.702  67.954  1.00  0.00    -0.085 A  
HETATM   15  N   UNL     1      -7.336   8.035  68.344  1.00  0.00    -0.095 NA 
HETATM   16  H   UNL     1      -6.730   8.763  67.963  1.00  0.00     0.000 HD 
HETATM   17  C   UNL     1      -8.283   8.387  69.168  1.00  0.00    -0.120 C  
ENDROOT
BRANCH  17  18
HETATM   18  N   UNL     1      -8.423   9.722  69.508  1.00  0.00    -0.154 NA 
HETATM   19  C   UNL     1      -7.298  10.515  70.004  1.00  0.00    -0.052 C  
HETATM   20  C   UNL     1      -7.004  11.725  69.100  1.00  0.00    -0.091 C  
HETATM   21  N   UNL     1      -8.198  12.554  68.838  1.00  0.00    -0.340 NA 
HETATM   22  C   UNL     1      -9.247  11.700  68.248  1.00  0.00    -0.187 C  
HETATM   23  H   UNL     1      -7.988  13.370  68.262  1.00  0.00     0.000 HD 
HETATM   24  C   UNL     1      -9.616  10.489  69.132  1.00  0.00    -0.199 C  
ENDBRANCH  17  18
TORSDOF 1
ENDMDL
MODEL      136
REMARK 921   NORMALIZED FREE ENERGY PREDICTED BY IDOCK:   -3.17 KCAL/MOL
REMARK 922        TOTAL FREE ENERGY PREDICTED BY IDOCK:   -3.72 KCAL/MOL
REMARK 923 INTER-LIGAND FREE ENERGY PREDICTED BY IDOCK:   -4.71 KCAL/MOL
REMARK 924 INTRA-LIGAND FREE ENERGY PREDICTED BY IDOCK:    0.99 KCAL/MOL
REMARK 927      BINDING AFFINITY PREDICTED BY RF-SCORE:    0.00 PKD
ROOT
HETATM    1 CL   UNL     1     -12.367  12.405  66.038  1.00  0.00    -0.182 Cl 
HETATM    2  C   UNL     1     -11.408  13.609  66.805  1.00  0.00    -0.328 A  
HETATM    3  C   UNL     1     -10.022  13.477  66.818  1.00  0.00    -0.269 A  
HETATM    4  C   UNL     1      -9.232  14.466  67.423  1.00  0.00    -0.199 A  
HETATM    5  C   UNL     1      -9.844  15.575  68.003  1.00  0.00    -0.212 A  
HETATM    6  C   UNL     1     -11.237  15.690  68.012  1.00  0.00    -0.339 A  
HETATM    7  O   UNL     1      -9.127  16.576  68.605  1.00  0.00    -0.221 OA 
HETATM    8  C   UNL     1      -8.304  17.239  67.725  1.00  0.00    -0.212 A  
HETATM    9  C   UNL     1     -12.020  14.709  67.402  1.00  0.00    -0.309 A  
HETATM   10  C   UNL     1      -8.561  18.604  67.543  1.00  0.00    -0.284 A  
HETATM   11  C   UNL     1      -7.781  19.344  66.657  1.00  0.00    -0.280 A  
HETATM   12  C   UNL     1      -6.736  18.723  65.977  1.00  0.00    -0.278 A  
HETATM   13  C   UNL     1      -6.476  17.362  66.181  1.00  0.00    -0.229 A  
HETATM   14  C   UNL     1      -7.257  16.593  67.053  1.00  0.00    -0.201 A  
HETATM   15  N   UNL     1      -6.886  15.249  67.242  1.00  0.00    -0.262 NA 
HETATM   16  H   UNL     1      -5.893  15.013  67.236  1.00  0.00     0.000 HD 
HETATM   17  C   UNL     1      -7.749  14.289  67.426  1.00  0.00    -0.173 C  
ENDROOT
BRANCH  17  18
HETATM   18  N   UNL     1      -7.293  12.990  67.588  1.00  0.00    -0.133 NA 
HETATM   19  C   UNL     1      -8.187  11.838  67.471  1.00  0.00    -0.152 C  
HETATM   20  C   UNL     1      -7.745  10.878  66.353  1.00  0.00    -0.154 C  
HETATM   21  N   UNL     1      -6.329  10.475  66.464  1.00  0.00    -0.085 NA 
HETATM   22  C   UNL     1      -5.491  11.689  66.474  1.00  0.00    -0.064 C  
HETATM   23  H   UNL     1      -6.053   9.816  65.736  1.00  0.00     0.000 HD 
HETATM   24  C   UNL     1      -5.860  12.676  67.604  1.00  0.00    -0.140 C  
ENDBRANCH  17  18
TORSDOF 1
ENDMDL
MODEL      137
REMARK 921   NORMALIZED FREE ENERGY PREDICTED BY IDOCK:   -3.16 KCAL/MOL
REMARK 922        TOTAL FREE ENERGY PREDICTED BY IDOCK:   -3.71 KCAL/MOL
REMARK 923 INTER-LIGAND FREE ENERGY PREDICTED BY IDOCK:   -3.64 KCAL/MOL
REMARK 924 INTRA-LIGAND FREE ENERGY PREDICTED BY IDOCK:   -0.07 KCAL/MOL
REMARK 927      BINDING AFFINITY PREDICTED BY RF-SCORE:    0.00 PKD
ROOT
HETATM    1 CL   UNL     1      -5.168   4.449  71.977  1.00  0.00    -0.003 Cl 
HETATM    2  C   UNL     1      -6.352   5.579  71.447  1.00  0.00    -0.035 A  
HETATM    3  C   UNL     1      -7.410   5.143  70.653  1.00  0.00    -0.069 A  
HETATM    4  C   UNL     1      -8.390   6.054  70.235  1.00  0.00    -0.124 A  
HETATM    5  C   UNL     1      -8.298   7.389  70.622  1.00  0.00    -0.127 A  
HETATM    6  C   UNL     1      -7.220   7.828  71.396  1.00  0.00    -0.063 A  
HETATM    7  O   UNL     1      -9.227   8.327  70.250  1.00  0.00    -0.152 OA 
HETATM    8  C   UNL     1     -10.479   8.059  70.753  1.00  0.00    -0.206 A  
HETATM    9  C   UNL     1      -6.250   6.917  71.818  1.00  0.00    -0.038 A  
HETATM   10  C   UNL     1     -11.016   9.016  71.622  1.00  0.00    -0.435 A  
HETATM   11  C   UNL     1     -12.273   8.811  72.186  1.00  0.00    -0.448 A  
HETATM   12  C   UNL     1     -12.996   7.666  71.859  1.00  0.00    -0.299 A  
HETATM   13  C   UNL     1     -12.456   6.725  70.974  1.00  0.00    -0.318 A  
HETATM   14  C   UNL     1     -11.187   6.899  70.409  1.00  0.00    -0.312 A  
HETATM   15  N   UNL     1     -10.750   5.933  69.483  1.00  0.00    -0.311 NA 
HETATM   16  H   UNL     1     -11.440   5.507  68.863  1.00  0.00     0.000 HD 
HETATM   17  C   UNL     1      -9.507   5.555  69.377  1.00  0.00    -0.133 C  
ENDROOT
BRANCH  17  18
HETATM   18  N   UNL     1      -9.170   4.584  68.447  1.00  0.00    -0.125 NA 
HETATM   19  C   UNL     1      -8.414   4.906  67.236  1.00  0.00    -0.105 C  
HETATM   20  C   UNL     1      -7.088   4.130  67.164  1.00  0.00    -0.067 C  
HETATM   21  N   UNL     1      -7.259   2.674  67.344  1.00  0.00    -0.052 NA 
HETATM   22  C   UNL     1      -7.937   2.434  68.633  1.00  0.00    -0.052 C  
HETATM   23  H   UNL     1      -6.378   2.165  67.266  1.00  0.00     0.000 HD 
HETATM   24  C   UNL     1      -9.299   3.154  68.749  1.00  0.00    -0.165 C  
ENDBRANCH  17  18
TORSDOF 1
ENDMDL
MODEL      138
REMARK 921   NORMALIZED FREE ENERGY PREDICTED BY IDOCK:   -3.08 KCAL/MOL
REMARK 922        TOTAL FREE ENERGY PREDICTED BY IDOCK:   -3.62 KCAL/MOL
REMARK 923 INTER-LIGAND FREE ENERGY PREDICTED BY IDOCK:   -3.30 KCAL/MOL
REMARK 924 INTRA-LIGAND FREE ENERGY PREDICTED BY IDOCK:   -0.32 KCAL/MOL
REMARK 927      BINDING AFFINITY PREDICTED BY RF-SCORE:    0.00 PKD
ROOT
HETATM    1 CL   UNL     1      -9.178   3.162  71.950  1.00  0.00    -0.166 Cl 
HETATM    2  C   UNL     1      -8.766   4.644  71.181  1.00  0.00    -0.116 A  
HETATM    3  C   UNL     1      -9.055   4.821  69.831  1.00  0.00    -0.155 A  
HETATM    4  C   UNL     1      -8.742   6.035  69.202  1.00  0.00    -0.120 A  
HETATM    5  C   UNL     1      -8.145   7.056  69.938  1.00  0.00    -0.125 A  
HETATM    6  C   UNL     1      -7.830   6.864  71.287  1.00  0.00    -0.097 A  
HETATM    7  O   UNL     1      -7.818   8.266  69.383  1.00  0.00    -0.100 OA 
HETATM    8  C   UNL     1      -8.921   8.958  68.939  1.00  0.00    -0.137 A  
HETATM    9  C   UNL     1      -8.151   5.658  71.912  1.00  0.00    -0.115 A  
HETATM   10  C   UNL     1      -9.167  10.193  69.552  1.00  0.00    -0.223 A  
HETATM   11  C   UNL     1     -10.273  10.948  69.169  1.00  0.00    -0.215 A  
HETATM   12  C   UNL     1     -11.111  10.478  68.160  1.00  0.00    -0.346 A  
HETATM   13  C   UNL     1     -10.844   9.252  67.541  1.00  0.00    -0.182 A  
HETATM   14  C   UNL     1      -9.750   8.465  67.921  1.00  0.00    -0.158 A  
HETATM   15  N   UNL     1      -9.524   7.276  67.203  1.00  0.00    -0.138 NA 
HETATM   16  H   UNL     1      -9.733   7.264  66.204  1.00  0.00     0.000 HD 
HETATM   17  C   UNL     1      -9.059   6.188  67.750  1.00  0.00    -0.117 C  
ENDROOT
BRANCH  17  18
HETATM   18  N   UNL     1      -8.883   5.058  66.968  1.00  0.00    -0.107 NA 
HETATM   19  C   UNL     1     -10.016   4.257  66.503  1.00  0.00    -0.192 C  
HETATM   20  C   UNL     1     -10.080   4.188  64.968  1.00  0.00    -0.208 C  
HETATM   21  N   UNL     1      -8.807   3.761  64.354  1.00  0.00    -0.116 NA 
HETATM   22  C   UNL     1      -7.739   4.680  64.794  1.00  0.00    -0.078 C  
HETATM   23  H   UNL     1      -8.867   3.691  63.338  1.00  0.00     0.000 HD 
HETATM   24  C   UNL     1      -7.597   4.758  66.330  1.00  0.00    -0.087 C  
ENDBRANCH  17  18
TORSDOF 1
ENDMDL
MODEL      139
REMARK 921   NORMALIZED FREE ENERGY PREDICTED BY IDOCK:   -3.06 KCAL/MOL
REMARK 922        TOTAL FREE ENERGY PREDICTED BY IDOCK:   -3.60 KCAL/MOL
REMARK 923 INTER-LIGAND FREE ENERGY PREDICTED BY IDOCK:   -3.26 KCAL/MOL
REMARK 924 INTRA-LIGAND FREE ENERGY PREDICTED BY IDOCK:   -0.35 KCAL/MOL
REMARK 927      BINDING AFFINITY PREDICTED BY RF-SCORE:    0.00 PKD
ROOT
HETATM    1 CL   UNL     1     -10.248  10.684  66.743  1.00  0.00    -0.272 Cl 
HETATM    2  C   UNL     1     -10.219   9.673  68.135  1.00  0.00    -0.190 A  
HETATM    3  C   UNL     1      -9.272   8.657  68.225  1.00  0.00    -0.140 A  
HETATM    4  C   UNL     1      -9.229   7.843  69.366  1.00  0.00    -0.145 A  
HETATM    5  C   UNL     1     -10.135   8.061  70.402  1.00  0.00    -0.194 A  
HETATM    6  C   UNL     1     -11.102   9.065  70.295  1.00  0.00    -0.263 A  
HETATM    7  O   UNL     1     -10.140   7.303  71.543  1.00  0.00    -0.186 OA 
HETATM    8  C   UNL     1      -8.977   7.427  72.266  1.00  0.00    -0.128 A  
HETATM    9  C   UNL     1     -11.137   9.880  69.162  1.00  0.00    -0.197 A  
HETATM   10  C   UNL     1      -9.101   7.956  73.557  1.00  0.00    -0.346 A  
HETATM   11  C   UNL     1      -7.967   8.128  74.347  1.00  0.00    -0.308 A  
HETATM   12  C   UNL     1      -6.721   7.748  73.855  1.00  0.00    -0.108 A  
HETATM   13  C   UNL     1      -6.611   7.202  72.570  1.00  0.00    -0.052 A  
HETATM   14  C   UNL     1      -7.733   7.037  71.749  1.00  0.00    -0.093 A  
HETATM   15  N   UNL     1      -7.537   6.425  70.497  1.00  0.00    -0.094 NA 
HETATM   16  H   UNL     1      -6.839   5.684  70.422  1.00  0.00     0.000 HD 
HETATM   17  C   UNL     1      -8.204   6.757  69.427  1.00  0.00    -0.128 C  
ENDROOT
BRANCH  17  18
HETATM   18  N   UNL     1      -7.934   6.110  68.232  1.00  0.00    -0.106 NA 
HETATM   19  C   UNL     1      -6.682   6.323  67.505  1.00  0.00    -0.061 C  
HETATM   20  C   UNL     1      -5.888   5.017  67.332  1.00  0.00    -0.022 C  
HETATM   21  N   UNL     1      -6.691   3.925  66.748  1.00  0.00    -0.046 NA 
HETATM   22  C   UNL     1      -7.880   3.708  67.595  1.00  0.00    -0.077 C  
HETATM   23  H   UNL     1      -6.149   3.072  66.609  1.00  0.00     0.000 HD 
HETATM   24  C   UNL     1      -8.743   4.977  67.771  1.00  0.00    -0.103 C  
ENDBRANCH  17  18
TORSDOF 1
ENDMDL
MODEL      140
REMARK 921   NORMALIZED FREE ENERGY PREDICTED BY IDOCK:   -3.05 KCAL/MOL
REMARK 922        TOTAL FREE ENERGY PREDICTED BY IDOCK:   -3.59 KCAL/MOL
REMARK 923 INTER-LIGAND FREE ENERGY PREDICTED BY IDOCK:   -3.66 KCAL/MOL
REMARK 924 INTRA-LIGAND FREE ENERGY PREDICTED BY IDOCK:    0.08 KCAL/MOL
REMARK 927      BINDING AFFINITY PREDICTED BY RF-SCORE:    0.00 PKD
ROOT
HETATM    1 CL   UNL     1      -9.767  10.917  69.304  1.00  0.00    -0.146 Cl 
HETATM    2  C   UNL     1      -9.006  12.353  68.739  1.00  0.00     0.158 A  
HETATM    3  C   UNL     1      -9.767  13.326  68.098  1.00  0.00    -0.227 A  
HETATM    4  C   UNL     1      -9.157  14.508  67.653  1.00  0.00    -0.195 A  
HETATM    5  C   UNL     1      -7.792  14.699  67.862  1.00  0.00    -0.136 A  
HETATM    6  C   UNL     1      -7.027  13.707  68.482  1.00  0.00    -0.104 A  
HETATM    7  O   UNL     1      -7.140  15.833  67.456  1.00  0.00    -0.150 OA 
HETATM    8  C   UNL     1      -7.598  16.963  68.092  1.00  0.00    -0.188 A  
HETATM    9  C   UNL     1      -7.639  12.535  68.931  1.00  0.00     0.047 A  
HETATM   10  C   UNL     1      -6.668  17.655  68.877  1.00  0.00    -0.236 A  
HETATM   11  C   UNL     1      -7.058  18.801  69.566  1.00  0.00    -0.040 A  
HETATM   12  C   UNL     1      -8.367  19.263  69.446  1.00  0.00     0.079 A  
HETATM   13  C   UNL     1      -9.284  18.575  68.643  1.00  0.00    -0.336 A  
HETATM   14  C   UNL     1      -8.921  17.410  67.956  1.00  0.00    -0.255 A  
HETATM   15  N   UNL     1      -9.889  16.817  67.124  1.00  0.00    -0.252 NA 
HETATM   16  H   UNL     1     -10.537  17.426  66.622  1.00  0.00     0.000 HD 
HETATM   17  C   UNL     1     -10.001  15.529  66.962  1.00  0.00    -0.239 C  
ENDROOT
BRANCH  17  18
HETATM   18  N   UNL     1     -10.996  15.033  66.135  1.00  0.00    -0.332 NA 
HETATM   19  C   UNL     1     -10.718  14.609  64.762  1.00  0.00    -0.377 C  
HETATM   20  C   UNL     1     -11.066  13.128  64.537  1.00  0.00    -0.356 C  
HETATM   21  N   UNL     1     -12.439  12.785  64.958  1.00  0.00    -0.506 NA 
HETATM   22  C   UNL     1     -12.602  13.152  66.379  1.00  0.00     0.121 C  
HETATM   23  H   UNL     1     -12.670  11.808  64.778  1.00  0.00     0.000 HD 
HETATM   24  C   UNL     1     -12.308  14.642  66.661  1.00  0.00     0.007 C  
ENDBRANCH  17  18
TORSDOF 1
ENDMDL
MODEL      141
REMARK 921   NORMALIZED FREE ENERGY PREDICTED BY IDOCK:   -2.97 KCAL/MOL
REMARK 922        TOTAL FREE ENERGY PREDICTED BY IDOCK:   -3.51 KCAL/MOL
REMARK 923 INTER-LIGAND FREE ENERGY PREDICTED BY IDOCK:   -3.40 KCAL/MOL
REMARK 924 INTRA-LIGAND FREE ENERGY PREDICTED BY IDOCK:   -0.11 KCAL/MOL
REMARK 927      BINDING AFFINITY PREDICTED BY RF-SCORE:    0.00 PKD
ROOT
HETATM    1 CL   UNL     1      -9.005   6.499  71.872  1.00  0.00    -0.138 Cl 
HETATM    2  C   UNL     1      -8.551   7.628  70.656  1.00  0.00    -0.135 A  
HETATM    3  C   UNL     1      -8.747   7.309  69.315  1.00  0.00    -0.137 A  
HETATM    4  C   UNL     1      -8.399   8.234  68.320  1.00  0.00    -0.132 A  
HETATM    5  C   UNL     1      -7.863   9.467  68.684  1.00  0.00    -0.088 A  
HETATM    6  C   UNL     1      -7.642   9.772  70.030  1.00  0.00    -0.169 A  
HETATM    7  O   UNL     1      -7.507  10.414  67.758  1.00  0.00    -0.087 OA 
HETATM    8  C   UNL     1      -8.581  10.870  67.030  1.00  0.00    -0.136 A  
HETATM    9  C   UNL     1      -7.998   8.854  71.019  1.00  0.00    -0.183 A  
HETATM   10  C   UNL     1      -8.879  12.233  67.151  1.00  0.00    -0.194 A  
HETATM   11  C   UNL     1      -9.961  12.770  66.457  1.00  0.00    -0.256 A  
HETATM   12  C   UNL     1     -10.722  11.949  65.628  1.00  0.00    -0.325 A  
HETATM   13  C   UNL     1     -10.403  10.592  65.500  1.00  0.00    -0.287 A  
HETATM   14  C   UNL     1      -9.333  10.025  66.202  1.00  0.00    -0.173 A  
HETATM   15  N   UNL     1      -9.048   8.666  65.966  1.00  0.00    -0.192 NA 
HETATM   16  H   UNL     1      -9.186   8.297  65.024  1.00  0.00     0.000 HD 
HETATM   17  C   UNL     1      -8.615   7.856  66.890  1.00  0.00    -0.129 C  
ENDROOT
BRANCH  17  18
HETATM   18  N   UNL     1      -8.376   6.529  66.571  1.00  0.00    -0.113 NA 
HETATM   19  C   UNL     1      -7.034   5.950  66.634  1.00  0.00    -0.064 C  
HETATM   20  C   UNL     1      -6.962   4.771  67.620  1.00  0.00    -0.061 C  
HETATM   21  N   UNL     1      -7.999   3.748  67.375  1.00  0.00    -0.089 NA 
HETATM   22  C   UNL     1      -9.324   4.397  67.428  1.00  0.00    -0.155 C  
HETATM   23  H   UNL     1      -7.926   2.957  68.014  1.00  0.00     0.000 HD 
HETATM   24  C   UNL     1      -9.472   5.564  66.427  1.00  0.00    -0.155 C  
ENDBRANCH  17  18
TORSDOF 1
ENDMDL
MODEL      142
REMARK 921   NORMALIZED FREE ENERGY PREDICTED BY IDOCK:   -2.95 KCAL/MOL
REMARK 922        TOTAL FREE ENERGY PREDICTED BY IDOCK:   -3.49 KCAL/MOL
REMARK 923 INTER-LIGAND FREE ENERGY PREDICTED BY IDOCK:   -3.13 KCAL/MOL
REMARK 924 INTRA-LIGAND FREE ENERGY PREDICTED BY IDOCK:   -0.36 KCAL/MOL
REMARK 927      BINDING AFFINITY PREDICTED BY RF-SCORE:    0.00 PKD
ROOT
HETATM    1 CL   UNL     1      -9.485  10.351  64.991  1.00  0.00    -0.279 Cl 
HETATM    2  C   UNL     1      -9.858   9.322  66.318  1.00  0.00    -0.291 A  
HETATM    3  C   UNL     1      -9.275   8.060  66.394  1.00  0.00    -0.245 A  
HETATM    4  C   UNL     1      -9.557   7.225  67.484  1.00  0.00    -0.171 A  
HETATM    5  C   UNL     1     -10.418   7.668  68.485  1.00  0.00    -0.174 A  
HETATM    6  C   UNL     1     -11.023   8.925  68.392  1.00  0.00     0.071 A  
HETATM    7  O   UNL     1     -10.730   6.901  69.578  1.00  0.00    -0.224 OA 
HETATM    8  C   UNL     1      -9.633   6.629  70.363  1.00  0.00    -0.165 A  
HETATM    9  C   UNL     1     -10.733   9.758  67.310  1.00  0.00    -0.296 A  
HETATM   10  C   UNL     1      -9.674   7.115  71.676  1.00  0.00    -0.166 A  
HETATM   11  C   UNL     1      -8.595   6.895  72.529  1.00  0.00    -0.130 A  
HETATM   12  C   UNL     1      -7.496   6.170  72.076  1.00  0.00    -0.095 A  
HETATM   13  C   UNL     1      -7.475   5.671  70.767  1.00  0.00    -0.089 A  
HETATM   14  C   UNL     1      -8.538   5.896  69.884  1.00  0.00    -0.129 A  
HETATM   15  N   UNL     1      -8.458   5.307  68.608  1.00  0.00    -0.089 NA 
HETATM   16  H   UNL     1      -8.017   4.391  68.523  1.00  0.00     0.000 HD 
HETATM   17  C   UNL     1      -8.921   5.874  67.529  1.00  0.00    -0.107 C  
ENDROOT
BRANCH  17  18
HETATM   18  N   UNL     1      -8.784   5.226  66.312  1.00  0.00    -0.119 NA 
HETATM   19  C   UNL     1      -7.472   4.977  65.714  1.00  0.00    -0.082 C  
HETATM   20  C   UNL     1      -7.212   3.476  65.501  1.00  0.00    -0.071 C  
HETATM   21  N   UNL     1      -8.298   2.801  64.763  1.00  0.00    -0.087 NA 
HETATM   22  C   UNL     1      -9.566   3.016  65.486  1.00  0.00     0.028 C  
HETATM   23  H   UNL     1      -8.104   1.812  64.601  1.00  0.00     0.000 HD 
HETATM   24  C   UNL     1      -9.904   4.509  65.693  1.00  0.00    -0.216 C  
ENDBRANCH  17  18
TORSDOF 1
ENDMDL
MODEL      143
REMARK 921   NORMALIZED FREE ENERGY PREDICTED BY IDOCK:   -2.88 KCAL/MOL
REMARK 922        TOTAL FREE ENERGY PREDICTED BY IDOCK:   -3.41 KCAL/MOL
REMARK 923 INTER-LIGAND FREE ENERGY PREDICTED BY IDOCK:   -4.35 KCAL/MOL
REMARK 924 INTRA-LIGAND FREE ENERGY PREDICTED BY IDOCK:    0.94 KCAL/MOL
REMARK 927      BINDING AFFINITY PREDICTED BY RF-SCORE:    0.00 PKD
ROOT
HETATM    1 CL   UNL     1     -10.780  16.196  66.584  1.00  0.00    -0.275 Cl 
HETATM    2  C   UNL     1     -10.204  14.602  66.292  1.00  0.00    -0.292 A  
HETATM    3  C   UNL     1      -9.278  14.036  67.165  1.00  0.00    -0.240 A  
HETATM    4  C   UNL     1      -8.820  12.729  66.945  1.00  0.00    -0.194 A  
HETATM    5  C   UNL     1      -9.299  12.007  65.854  1.00  0.00    -0.157 A  
HETATM    6  C   UNL     1     -10.207  12.588  64.965  1.00  0.00    -0.301 A  
HETATM    7  O   UNL     1      -8.893  10.725  65.589  1.00  0.00    -0.180 OA 
HETATM    8  C   UNL     1      -9.245   9.842  66.583  1.00  0.00    -0.150 A  
HETATM    9  C   UNL     1     -10.668  13.886  65.191  1.00  0.00    -0.371 A  
HETATM   10  C   UNL     1     -10.114   8.806  66.216  1.00  0.00    -0.254 A  
HETATM   11  C   UNL     1     -10.530   7.880  67.169  1.00  0.00    -0.414 A  
HETATM   12  C   UNL     1     -10.057   7.978  68.476  1.00  0.00    -0.218 A  
HETATM   13  C   UNL     1      -9.174   9.006  68.828  1.00  0.00    -0.133 A  
HETATM   14  C   UNL     1      -8.756   9.960  67.892  1.00  0.00    -0.129 A  
HETATM   15  N   UNL     1      -7.821  10.922  68.318  1.00  0.00    -0.112 NA 
HETATM   16  H   UNL     1      -7.107  10.640  68.991  1.00  0.00     0.000 HD 
HETATM   17  C   UNL     1      -7.821  12.156  67.896  1.00  0.00    -0.147 C  
ENDROOT
BRANCH  17  18
HETATM   18  N   UNL     1      -6.870  13.038  68.383  1.00  0.00    -0.087 NA 
HETATM   19  C   UNL     1      -7.081  14.486  68.364  1.00  0.00    -0.111 C  
HETATM   20  C   UNL     1      -7.035  15.092  69.778  1.00  0.00    -0.174 C  
HETATM   21  N   UNL     1      -5.822  14.716  70.530  1.00  0.00    -0.158 NA 
HETATM   22  C   UNL     1      -5.740  13.243  70.588  1.00  0.00    -0.176 C  
HETATM   23  H   UNL     1      -5.786  15.145  71.454  1.00  0.00     0.000 HD 
HETATM   24  C   UNL     1      -5.738  12.577  69.194  1.00  0.00    -0.075 C  
ENDBRANCH  17  18
TORSDOF 1
ENDMDL
MODEL      144
REMARK 921   NORMALIZED FREE ENERGY PREDICTED BY IDOCK:   -2.80 KCAL/MOL
REMARK 922        TOTAL FREE ENERGY PREDICTED BY IDOCK:   -3.33 KCAL/MOL
REMARK 923 INTER-LIGAND FREE ENERGY PREDICTED BY IDOCK:   -3.94 KCAL/MOL
REMARK 924 INTRA-LIGAND FREE ENERGY PREDICTED BY IDOCK:    0.61 KCAL/MOL
REMARK 927      BINDING AFFINITY PREDICTED BY RF-SCORE:    0.00 PKD
ROOT
HETATM    1 CL   UNL     1     -12.725  14.071  66.356  1.00  0.00    -0.299 Cl 
HETATM    2  C   UNL     1     -11.132  13.431  66.460  1.00  0.00    -0.297 A  
HETATM    3  C   UNL     1     -10.091  14.248  66.893  1.00  0.00    -0.264 A  
HETATM    4  C   UNL     1      -8.793  13.727  67.000  1.00  0.00    -0.230 A  
HETATM    5  C   UNL     1      -8.559  12.393  66.674  1.00  0.00    -0.075 A  
HETATM    6  C   UNL     1      -9.601  11.583  66.214  1.00  0.00    -0.239 A  
HETATM    7  O   UNL     1      -7.314  11.824  66.763  1.00  0.00    -0.128 OA 
HETATM    8  C   UNL     1      -6.833  11.803  68.051  1.00  0.00    -0.074 A  
HETATM    9  C   UNL     1     -10.894  12.102  66.117  1.00  0.00    -0.317 A  
HETATM   10  C   UNL     1      -6.587  10.539  68.602  1.00  0.00    -0.052 A  
HETATM   11  C   UNL     1      -6.114  10.432  69.907  1.00  0.00    -0.068 A  
HETATM   12  C   UNL     1      -5.864  11.587  70.645  1.00  0.00    -0.087 A  
HETATM   13  C   UNL     1      -6.095  12.846  70.078  1.00  0.00    -0.110 A  
HETATM   14  C   UNL     1      -6.589  12.979  68.775  1.00  0.00    -0.096 A  
HETATM   15  N   UNL     1      -6.734  14.283  68.265  1.00  0.00    -0.095 NA 
HETATM   16  H   UNL     1      -6.051  14.990  68.538  1.00  0.00     0.000 HD 
HETATM   17  C   UNL     1      -7.698  14.633  67.460  1.00  0.00    -0.195 C  
ENDROOT
BRANCH  17  18
HETATM   18  N   UNL     1      -7.771  15.945  67.020  1.00  0.00    -0.214 NA 
HETATM   19  C   UNL     1      -9.010  16.719  67.103  1.00  0.00    -0.204 C  
HETATM   20  C   UNL     1      -8.843  17.982  67.964  1.00  0.00    -0.275 C  
HETATM   21  N   UNL     1      -7.693  18.814  67.554  1.00  0.00    -0.229 NA 
HETATM   22  C   UNL     1      -6.472  17.985  67.596  1.00  0.00    -0.181 C  
HETATM   23  H   UNL     1      -7.607  19.663  68.112  1.00  0.00     0.000 HD 
HETATM   24  C   UNL     1      -6.564  16.720  66.713  1.00  0.00    -0.212 C  
ENDBRANCH  17  18
TORSDOF 1
ENDMDL
MODEL      145
REMARK 921   NORMALIZED FREE ENERGY PREDICTED BY IDOCK:   -2.59 KCAL/MOL
REMARK 922        TOTAL FREE ENERGY PREDICTED BY IDOCK:   -3.10 KCAL/MOL
REMARK 923 INTER-LIGAND FREE ENERGY PREDICTED BY IDOCK:   -3.94 KCAL/MOL
REMARK 924 INTRA-LIGAND FREE ENERGY PREDICTED BY IDOCK:    0.84 KCAL/MOL
REMARK 927      BINDING AFFINITY PREDICTED BY RF-SCORE:    0.00 PKD
ROOT
HETATM    1 CL   UNL     1     -12.199  14.201  67.826  1.00  0.00    -0.307 Cl 
HETATM    2  C   UNL     1     -10.736  13.311  67.668  1.00  0.00    -0.239 A  
HETATM    3  C   UNL     1     -10.761  11.924  67.781  1.00  0.00    -0.243 A  
HETATM    4  C   UNL     1      -9.576  11.189  67.632  1.00  0.00    -0.180 A  
HETATM    5  C   UNL     1      -8.382  11.857  67.367  1.00  0.00    -0.163 A  
HETATM    6  C   UNL     1      -8.357  13.252  67.281  1.00  0.00    -0.182 A  
HETATM    7  O   UNL     1      -7.192  11.196  67.207  1.00  0.00    -0.100 OA 
HETATM    8  C   UNL     1      -7.197  10.356  66.117  1.00  0.00    -0.131 A  
HETATM    9  C   UNL     1      -9.540  13.980  67.422  1.00  0.00    -0.227 A  
HETATM   10  C   UNL     1      -6.272  10.645  65.106  1.00  0.00    -0.023 A  
HETATM   11  C   UNL     1      -6.224   9.850  63.963  1.00  0.00    -0.125 A  
HETATM   12  C   UNL     1      -7.082   8.759  63.848  1.00  0.00    -0.091 A  
HETATM   13  C   UNL     1      -7.990   8.468  64.873  1.00  0.00    -0.137 A  
HETATM   14  C   UNL     1      -8.070   9.263  66.023  1.00  0.00    -0.110 A  
HETATM   15  N   UNL     1      -8.970   8.862  67.029  1.00  0.00    -0.125 NA 
HETATM   16  H   UNL     1      -9.106   7.863  67.188  1.00  0.00     0.000 HD 
HETATM   17  C   UNL     1      -9.637   9.703  67.768  1.00  0.00    -0.139 C  
ENDROOT
BRANCH  17  18
HETATM   18  N   UNL     1     -10.514   9.217  68.724  1.00  0.00    -0.218 NA 
HETATM   19  C   UNL     1     -10.454   7.832  69.194  1.00  0.00    -0.211 C  
HETATM   20  C   UNL     1     -10.200   7.750  70.709  1.00  0.00    -0.197 C  
HETATM   21  N   UNL     1     -11.144   8.565  71.499  1.00  0.00    -0.257 NA 
HETATM   22  C   UNL     1     -11.068   9.962  71.030  1.00  0.00    -0.331 C  
HETATM   23  H   UNL     1     -10.986   8.481  72.504  1.00  0.00     0.000 HD 
HETATM   24  C   UNL     1     -11.357  10.115  69.520  1.00  0.00    -0.206 C  
ENDBRANCH  17  18
TORSDOF 1
ENDMDL
MODEL      146
REMARK 921   NORMALIZED FREE ENERGY PREDICTED BY IDOCK:   -2.58 KCAL/MOL
REMARK 922        TOTAL FREE ENERGY PREDICTED BY IDOCK:   -3.09 KCAL/MOL
REMARK 923 INTER-LIGAND FREE ENERGY PREDICTED BY IDOCK:   -3.30 KCAL/MOL
REMARK 924 INTRA-LIGAND FREE ENERGY PREDICTED BY IDOCK:    0.21 KCAL/MOL
REMARK 927      BINDING AFFINITY PREDICTED BY RF-SCORE:    0.00 PKD
ROOT
HETATM    1 CL   UNL     1      -9.557   3.436  64.938  1.00  0.00    -0.158 Cl 
HETATM    2  C   UNL     1      -9.218   3.794  66.586  1.00  0.00    -0.174 A  
HETATM    3  C   UNL     1      -9.347   5.102  67.045  1.00  0.00    -0.127 A  
HETATM    4  C   UNL     1      -9.093   5.398  68.392  1.00  0.00    -0.119 A  
HETATM    5  C   UNL     1      -8.716   4.376  69.261  1.00  0.00    -0.087 A  
HETATM    6  C   UNL     1      -8.561   3.069  68.790  1.00  0.00    -0.111 A  
HETATM    7  O   UNL     1      -8.459   4.600  70.589  1.00  0.00    -0.091 OA 
HETATM    8  C   UNL     1      -9.565   5.046  71.274  1.00  0.00    -0.165 A  
HETATM    9  C   UNL     1      -8.823   2.776  67.451  1.00  0.00    -0.166 A  
HETATM   10  C   UNL     1     -10.027   4.225  72.310  1.00  0.00    -0.236 A  
HETATM   11  C   UNL     1     -11.152   4.600  73.041  1.00  0.00    -0.327 A  
HETATM   12  C   UNL     1     -11.792   5.803  72.751  1.00  0.00    -0.152 A  
HETATM   13  C   UNL     1     -11.310   6.625  71.725  1.00  0.00    -0.320 A  
HETATM   14  C   UNL     1     -10.193   6.261  70.963  1.00  0.00    -0.192 A  
HETATM   15  N   UNL     1      -9.742   7.177  69.993  1.00  0.00    -0.171 NA 
HETATM   16  H   UNL     1      -9.816   8.174  70.195  1.00  0.00     0.000 HD 
HETATM   17  C   UNL     1      -9.233   6.813  68.850  1.00  0.00    -0.131 C  
ENDROOT
BRANCH  17  18
HETATM   18  N   UNL     1      -8.830   7.785  67.948  1.00  0.00    -0.124 NA 
HETATM   19  C   UNL     1      -7.446   8.256  67.889  1.00  0.00    -0.098 C  
HETATM   20  C   UNL     1      -6.815   8.015  66.508  1.00  0.00    -0.067 C  
HETATM   21  N   UNL     1      -7.631   8.546  65.398  1.00  0.00    -0.085 NA 
HETATM   22  C   UNL     1      -8.977   7.944  65.471  1.00  0.00     0.032 C  
HETATM   23  H   UNL     1      -7.191   8.408  64.488  1.00  0.00     0.000 HD 
HETATM   24  C   UNL     1      -9.681   8.190  66.824  1.00  0.00    -0.235 C  
ENDBRANCH  17  18
TORSDOF 1
ENDMDL
MODEL      147
REMARK 921   NORMALIZED FREE ENERGY PREDICTED BY IDOCK:   -2.51 KCAL/MOL
REMARK 922        TOTAL FREE ENERGY PREDICTED BY IDOCK:   -3.02 KCAL/MOL
REMARK 923 INTER-LIGAND FREE ENERGY PREDICTED BY IDOCK:   -2.67 KCAL/MOL
REMARK 924 INTRA-LIGAND FREE ENERGY PREDICTED BY IDOCK:   -0.35 KCAL/MOL
REMARK 927      BINDING AFFINITY PREDICTED BY RF-SCORE:    0.00 PKD
ROOT
HETATM    1 CL   UNL     1      -9.951   9.824  70.334  1.00  0.00    -0.322 Cl 
HETATM    2  C   UNL     1      -9.112   8.715  69.322  1.00  0.00    -0.149 A  
HETATM    3  C   UNL     1      -9.208   7.349  69.572  1.00  0.00    -0.146 A  
HETATM    4  C   UNL     1      -8.544   6.438  68.738  1.00  0.00    -0.123 A  
HETATM    5  C   UNL     1      -7.796   6.911  67.662  1.00  0.00    -0.112 A  
HETATM    6  C   UNL     1      -7.679   8.284  67.430  1.00  0.00    -0.102 A  
HETATM    7  O   UNL     1      -7.128   6.071  66.809  1.00  0.00    -0.066 OA 
HETATM    8  C   UNL     1      -7.976   5.241  66.113  1.00  0.00    -0.104 A  
HETATM    9  C   UNL     1      -8.349   9.188  68.257  1.00  0.00    -0.120 A  
HETATM   10  C   UNL     1      -7.975   5.379  64.719  1.00  0.00    -0.110 A  
HETATM   11  C   UNL     1      -8.818   4.585  63.945  1.00  0.00    -0.144 A  
HETATM   12  C   UNL     1      -9.635   3.642  64.563  1.00  0.00    -0.168 A  
HETATM   13  C   UNL     1      -9.612   3.498  65.955  1.00  0.00    -0.105 A  
HETATM   14  C   UNL     1      -8.789   4.298  66.757  1.00  0.00    -0.116 A  
HETATM   15  N   UNL     1      -8.786   4.043  68.142  1.00  0.00    -0.101 NA 
HETATM   16  H   UNL     1      -8.887   3.079  68.459  1.00  0.00     0.000 HD 
HETATM   17  C   UNL     1      -8.662   4.980  69.040  1.00  0.00    -0.088 C  
ENDROOT
BRANCH  17  18
HETATM   18  N   UNL     1      -8.686   4.638  70.383  1.00  0.00    -0.088 NA 
HETATM   19  C   UNL     1      -9.904   4.154  71.034  1.00  0.00    -0.177 C  
HETATM   20  C   UNL     1      -9.720   2.745  71.622  1.00  0.00    -0.156 C  
HETATM   21  N   UNL     1      -8.538   2.634  72.500  1.00  0.00    -0.073 NA 
HETATM   22  C   UNL     1      -7.343   3.043  71.736  1.00  0.00    -0.040 C  
HETATM   23  H   UNL     1      -8.440   1.705  72.908  1.00  0.00     0.000 HD 
HETATM   24  C   UNL     1      -7.450   4.471  71.155  1.00  0.00    -0.060 C  
ENDBRANCH  17  18
TORSDOF 1
ENDMDL
MODEL      148
REMARK 921   NORMALIZED FREE ENERGY PREDICTED BY IDOCK:   -2.48 KCAL/MOL
REMARK 922        TOTAL FREE ENERGY PREDICTED BY IDOCK:   -2.99 KCAL/MOL
REMARK 923 INTER-LIGAND FREE ENERGY PREDICTED BY IDOCK:   -2.88 KCAL/MOL
REMARK 924 INTRA-LIGAND FREE ENERGY PREDICTED BY IDOCK:   -0.11 KCAL/MOL
REMARK 927      BINDING AFFINITY PREDICTED BY RF-SCORE:    0.00 PKD
ROOT
HETATM    1 CL   UNL     1      -7.070  11.000  66.477  1.00  0.00    -0.137 Cl 
HETATM    2  C   UNL     1      -7.107   9.287  66.323  1.00  0.00    -0.087 A  
HETATM    3  C   UNL     1      -8.068   8.557  67.016  1.00  0.00    -0.103 A  
HETATM    4  C   UNL     1      -8.118   7.162  66.879  1.00  0.00    -0.116 A  
HETATM    5  C   UNL     1      -7.204   6.520  66.046  1.00  0.00    -0.071 A  
HETATM    6  C   UNL     1      -6.223   7.254  65.374  1.00  0.00    -0.038 A  
HETATM    7  O   UNL     1      -7.204   5.161  65.867  1.00  0.00    -0.070 OA 
HETATM    8  C   UNL     1      -8.362   4.705  65.281  1.00  0.00    -0.124 A  
HETATM    9  C   UNL     1      -6.181   8.644  65.505  1.00  0.00    -0.052 A  
HETATM   10  C   UNL     1      -8.224   4.080  64.036  1.00  0.00    -0.092 A  
HETATM   11  C   UNL     1      -9.351   3.604  63.371  1.00  0.00    -0.116 A  
HETATM   12  C   UNL     1     -10.605   3.733  63.964  1.00  0.00    -0.274 A  
HETATM   13  C   UNL     1     -10.729   4.342  65.218  1.00  0.00    -0.150 A  
HETATM   14  C   UNL     1      -9.614   4.845  65.898  1.00  0.00    -0.175 A  
HETATM   15  N   UNL     1      -9.824   5.388  67.180  1.00  0.00    -0.145 NA 
HETATM   16  H   UNL     1     -10.533   4.961  67.777  1.00  0.00     0.000 HD 
HETATM   17  C   UNL     1      -9.157   6.408  67.642  1.00  0.00    -0.114 C  
ENDROOT
BRANCH  17  18
HETATM   18  N   UNL     1      -9.443   6.885  68.911  1.00  0.00    -0.137 NA 
HETATM   19  C   UNL     1      -8.450   6.861  69.986  1.00  0.00    -0.140 C  
HETATM   20  C   UNL     1      -8.149   8.271  70.522  1.00  0.00    -0.105 C  
HETATM   21  N   UNL     1      -9.365   9.017  70.903  1.00  0.00    -0.241 NA 
HETATM   22  C   UNL     1     -10.265   9.081  69.736  1.00  0.00    -0.205 C  
HETATM   23  H   UNL     1      -9.154   9.939  71.284  1.00  0.00     0.000 HD 
HETATM   24  C   UNL     1     -10.640   7.690  69.178  1.00  0.00    -0.186 C  
ENDBRANCH  17  18
TORSDOF 1
ENDMDL
MODEL      149
REMARK 921   NORMALIZED FREE ENERGY PREDICTED BY IDOCK:   -2.46 KCAL/MOL
REMARK 922        TOTAL FREE ENERGY PREDICTED BY IDOCK:   -2.97 KCAL/MOL
REMARK 923 INTER-LIGAND FREE ENERGY PREDICTED BY IDOCK:   -2.86 KCAL/MOL
REMARK 924 INTRA-LIGAND FREE ENERGY PREDICTED BY IDOCK:   -0.11 KCAL/MOL
REMARK 927      BINDING AFFINITY PREDICTED BY RF-SCORE:    0.00 PKD
ROOT
HETATM    1 CL   UNL     1     -11.101   7.141  67.627  1.00  0.00    -0.203 Cl 
HETATM    2  C   UNL     1      -9.558   7.874  67.831  1.00  0.00    -0.147 A  
HETATM    3  C   UNL     1      -9.286   9.085  67.201  1.00  0.00    -0.164 A  
HETATM    4  C   UNL     1      -8.038   9.700  67.381  1.00  0.00    -0.110 A  
HETATM    5  C   UNL     1      -7.082   9.092  68.192  1.00  0.00    -0.078 A  
HETATM    6  C   UNL     1      -7.350   7.862  68.800  1.00  0.00    -0.086 A  
HETATM    7  O   UNL     1      -5.847   9.644  68.410  1.00  0.00    -0.040 OA 
HETATM    8  C   UNL     1      -5.916  10.856  69.057  1.00  0.00    -0.041 A  
HETATM    9  C   UNL     1      -8.597   7.257  68.627  1.00  0.00    -0.128 A  
HETATM   10  C   UNL     1      -5.300  10.925  70.313  1.00  0.00    -0.070 A  
HETATM   11  C   UNL     1      -5.340  12.113  71.039  1.00  0.00    -0.126 A  
HETATM   12  C   UNL     1      -5.971  13.230  70.497  1.00  0.00    -0.110 A  
HETATM   13  C   UNL     1      -6.567  13.155  69.232  1.00  0.00    -0.091 A  
HETATM   14  C   UNL     1      -6.557  11.967  68.491  1.00  0.00    -0.062 A  
HETATM   15  N   UNL     1      -7.127  11.999  67.204  1.00  0.00    -0.208 NA 
HETATM   16  H   UNL     1      -7.027  12.851  66.650  1.00  0.00     0.000 HD 
HETATM   17  C   UNL     1      -7.775  10.995  66.684  1.00  0.00    -0.153 C  
ENDROOT
BRANCH  17  18
HETATM   18  N   UNL     1      -8.317  11.122  65.415  1.00  0.00     0.010 NA 
HETATM   19  C   UNL     1      -7.837  10.322  64.288  1.00  0.00    -0.117 C  
HETATM   20  C   UNL     1      -8.955   9.457  63.680  1.00  0.00    -0.115 C  
HETATM   21  N   UNL     1     -10.165  10.231  63.339  1.00  0.00    -0.445 NA 
HETATM   22  C   UNL     1     -10.640  10.925  64.552  1.00  0.00    -0.265 C  
HETATM   23  H   UNL     1     -10.889   9.656  62.910  1.00  0.00     0.000 HD 
HETATM   24  C   UNL     1      -9.573  11.845  65.185  1.00  0.00    -0.114 C  
ENDBRANCH  17  18
TORSDOF 1
ENDMDL
MODEL      150
REMARK 921   NORMALIZED FREE ENERGY PREDICTED BY IDOCK:   -2.20 KCAL/MOL
REMARK 922        TOTAL FREE ENERGY PREDICTED BY IDOCK:   -2.69 KCAL/MOL
REMARK 923 INTER-LIGAND FREE ENERGY PREDICTED BY IDOCK:   -2.62 KCAL/MOL
REMARK 924 INTRA-LIGAND FREE ENERGY PREDICTED BY IDOCK:   -0.07 KCAL/MOL
REMARK 927      BINDING AFFINITY PREDICTED BY RF-SCORE:    0.00 PKD
ROOT
HETATM    1 CL   UNL     1      -6.075  11.356  69.941  1.00  0.00    -0.119 Cl 
HETATM    2  C   UNL     1      -6.305   9.709  69.504  1.00  0.00    -0.044 A  
HETATM    3  C   UNL     1      -7.505   9.315  68.917  1.00  0.00    -0.075 A  
HETATM    4  C   UNL     1      -7.691   7.977  68.539  1.00  0.00    -0.106 A  
HETATM    5  C   UNL     1      -6.670   7.054  68.752  1.00  0.00    -0.060 A  
HETATM    6  C   UNL     1      -5.477   7.448  69.366  1.00  0.00    -0.015 A  
HETATM    7  O   UNL     1      -6.789   5.735  68.400  1.00  0.00    -0.059 OA 
HETATM    8  C   UNL     1      -6.936   5.560  67.044  1.00  0.00    -0.065 A  
HETATM    9  C   UNL     1      -5.292   8.782  69.734  1.00  0.00    -0.030 A  
HETATM   10  C   UNL     1      -5.931   4.828  66.399  1.00  0.00    -0.023 A  
HETATM   11  C   UNL     1      -6.000   4.621  65.024  1.00  0.00    -0.022 A  
HETATM   12  C   UNL     1      -7.082   5.123  64.305  1.00  0.00    -0.050 A  
HETATM   13  C   UNL     1      -8.091   5.837  64.963  1.00  0.00    -0.131 A  
HETATM   14  C   UNL     1      -8.035   6.075  66.341  1.00  0.00    -0.105 A  
HETATM   15  N   UNL     1      -9.122   6.750  66.929  1.00  0.00    -0.132 NA 
HETATM   16  H   UNL     1     -10.058   6.574  66.561  1.00  0.00     0.000 HD 
HETATM   17  C   UNL     1      -8.993   7.588  67.919  1.00  0.00    -0.131 C  
ENDROOT
BRANCH  17  18
HETATM   18  N   UNL     1     -10.119   8.218  68.424  1.00  0.00    -0.195 NA 
HETATM   19  C   UNL     1     -10.664   7.886  69.740  1.00  0.00    -0.233 C  
HETATM   20  C   UNL     1     -10.685   9.104  70.679  1.00  0.00    -0.254 C  
HETATM   21  N   UNL     1     -11.347  10.282  70.083  1.00  0.00    -0.294 NA 
HETATM   22  C   UNL     1     -10.672  10.611  68.812  1.00  0.00    -0.215 C  
HETATM   23  H   UNL     1     -11.382  11.076  70.723  1.00  0.00     0.000 HD 
HETATM   24  C   UNL     1     -10.657   9.436  67.808  1.00  0.00    -0.258 C  
ENDBRANCH  17  18
TORSDOF 1
ENDMDL
MODEL      151
REMARK 921   NORMALIZED FREE ENERGY PREDICTED BY IDOCK:   -2.13 KCAL/MOL
REMARK 922        TOTAL FREE ENERGY PREDICTED BY IDOCK:   -2.61 KCAL/MOL
REMARK 923 INTER-LIGAND FREE ENERGY PREDICTED BY IDOCK:   -3.06 KCAL/MOL
REMARK 924 INTRA-LIGAND FREE ENERGY PREDICTED BY IDOCK:    0.45 KCAL/MOL
REMARK 927      BINDING AFFINITY PREDICTED BY RF-SCORE:    0.00 PKD
ROOT
HETATM    1 CL   UNL     1     -10.585  16.923  67.063  1.00  0.00    -0.276 Cl 
HETATM    2  C   UNL     1     -10.003  15.373  67.532  1.00  0.00    -0.226 A  
HETATM    3  C   UNL     1     -10.214  14.279  66.698  1.00  0.00    -0.272 A  
HETATM    4  C   UNL     1      -9.724  13.017  67.064  1.00  0.00    -0.235 A  
HETATM    5  C   UNL     1      -9.026  12.871  68.260  1.00  0.00    -0.175 A  
HETATM    6  C   UNL     1      -8.840  13.967  69.109  1.00  0.00     0.363 A  
HETATM    7  O   UNL     1      -8.519  11.666  68.671  1.00  0.00    -0.153 OA 
HETATM    8  C   UNL     1      -7.556  11.179  67.818  1.00  0.00    -0.100 A  
HETATM    9  C   UNL     1      -9.322  15.224  68.738  1.00  0.00    -0.210 A  
HETATM   10  C   UNL     1      -6.275  11.012  68.358  1.00  0.00    -0.049 A  
HETATM   11  C   UNL     1      -5.241  10.539  67.554  1.00  0.00    -0.040 A  
HETATM   12  C   UNL     1      -5.497  10.211  66.225  1.00  0.00    -0.052 A  
HETATM   13  C   UNL     1      -6.787  10.364  65.700  1.00  0.00    -0.133 A  
HETATM   14  C   UNL     1      -7.838  10.856  66.483  1.00  0.00    -0.152 A  
HETATM   15  N   UNL     1      -9.114  10.919  65.891  1.00  0.00    -0.187 NA 
HETATM   16  H   UNL     1      -9.378  10.190  65.228  1.00  0.00     0.000 HD 
HETATM   17  C   UNL     1      -9.975  11.863  66.148  1.00  0.00    -0.228 C  
ENDROOT
BRANCH  17  18
HETATM   18  N   UNL     1     -11.203  11.854  65.506  1.00  0.00    -0.317 NA 
HETATM   19  C   UNL     1     -12.410  12.383  66.141  1.00  0.00     0.193 C  
HETATM   20  C   UNL     1     -13.027  13.537  65.333  1.00  0.00    -0.231 C  
HETATM   21  N   UNL     1     -13.249  13.195  63.914  1.00  0.00     0.158 NA 
HETATM   22  C   UNL     1     -11.965  12.770  63.324  1.00  0.00    -0.443 C  
HETATM   23  H   UNL     1     -13.685  13.956  63.392  1.00  0.00     0.000 HD 
HETATM   24  C   UNL     1     -11.315  11.582  64.069  1.00  0.00    -0.296 C  
ENDBRANCH  17  18
TORSDOF 1
ENDMDL
MODEL      152
REMARK 921   NORMALIZED FREE ENERGY PREDICTED BY IDOCK:   -1.99 KCAL/MOL
REMARK 922        TOTAL FREE ENERGY PREDICTED BY IDOCK:   -2.47 KCAL/MOL
REMARK 923 INTER-LIGAND FREE ENERGY PREDICTED BY IDOCK:   -2.75 KCAL/MOL
REMARK 924 INTRA-LIGAND FREE ENERGY PREDICTED BY IDOCK:    0.28 KCAL/MOL
REMARK 927      BINDING AFFINITY PREDICTED BY RF-SCORE:    0.00 PKD
ROOT
HETATM    1 CL   UNL     1      -9.138  13.621  68.358  1.00  0.00    -0.189 Cl 
HETATM    2  C   UNL     1      -8.114  12.323  67.882  1.00  0.00    -0.155 A  
HETATM    3  C   UNL     1      -8.534  11.011  68.077  1.00  0.00    -0.129 A  
HETATM    4  C   UNL     1      -7.714   9.948  67.672  1.00  0.00    -0.091 A  
HETATM    5  C   UNL     1      -6.486  10.217  67.073  1.00  0.00    -0.069 A  
HETATM    6  C   UNL     1      -6.055  11.536  66.903  1.00  0.00    -0.146 A  
HETATM    7  O   UNL     1      -5.642   9.222  66.651  1.00  0.00    -0.045 OA 
HETATM    8  C   UNL     1      -6.189   8.455  65.649  1.00  0.00    -0.048 A  
HETATM    9  C   UNL     1      -6.878  12.592  67.300  1.00  0.00    -0.102 A  
HETATM   10  C   UNL     1      -5.517   8.467  64.420  1.00  0.00    -0.048 A  
HETATM   11  C   UNL     1      -6.016   7.728  63.350  1.00  0.00    -0.058 A  
HETATM   12  C   UNL     1      -7.167   6.962  63.521  1.00  0.00    -0.066 A  
HETATM   13  C   UNL     1      -7.820   6.942  64.759  1.00  0.00    -0.119 A  
HETATM   14  C   UNL     1      -7.349   7.691  65.844  1.00  0.00    -0.074 A  
HETATM   15  N   UNL     1      -8.033   7.564  67.068  1.00  0.00    -0.115 NA 
HETATM   16  H   UNL     1      -8.423   6.653  67.313  1.00  0.00     0.000 HD 
HETATM   17  C   UNL     1      -8.192   8.551  67.904  1.00  0.00    -0.119 C  
ENDROOT
BRANCH  17  18
HETATM   18  N   UNL     1      -8.894   8.338  69.079  1.00  0.00    -0.143 NA 
HETATM   19  C   UNL     1      -8.223   7.940  70.317  1.00  0.00    -0.124 C  
HETATM   20  C   UNL     1      -8.448   8.961  71.446  1.00  0.00    -0.153 C  
HETATM   21  N   UNL     1      -9.873   9.279  71.663  1.00  0.00    -0.245 NA 
HETATM   22  C   UNL     1     -10.446   9.767  70.393  1.00  0.00    -0.297 C  
HETATM   23  H   UNL     1     -10.014   9.934  72.432  1.00  0.00     0.000 HD 
HETATM   24  C   UNL     1     -10.289   8.764  69.228  1.00  0.00    -0.214 C  
ENDBRANCH  17  18
TORSDOF 1
ENDMDL
MODEL      153
REMARK 921   NORMALIZED FREE ENERGY PREDICTED BY IDOCK:   -1.86 KCAL/MOL
REMARK 922        TOTAL FREE ENERGY PREDICTED BY IDOCK:   -2.33 KCAL/MOL
REMARK 923 INTER-LIGAND FREE ENERGY PREDICTED BY IDOCK:   -2.04 KCAL/MOL
REMARK 924 INTRA-LIGAND FREE ENERGY PREDICTED BY IDOCK:   -0.30 KCAL/MOL
REMARK 927      BINDING AFFINITY PREDICTED BY RF-SCORE:    0.00 PKD
ROOT
HETATM    1 CL   UNL     1     -11.004  15.519  63.497  1.00  0.00     2.114 Cl 
HETATM    2  C   UNL     1     -11.296  14.897  65.074  1.00  0.00    -0.398 A  
HETATM    3  C   UNL     1     -10.371  15.133  66.087  1.00  0.00    -0.313 A  
HETATM    4  C   UNL     1     -10.612  14.647  67.380  1.00  0.00    -0.265 A  
HETATM    5  C   UNL     1     -11.781  13.934  67.639  1.00  0.00    -0.368 A  
HETATM    6  C   UNL     1     -12.694  13.675  66.613  1.00  0.00     0.047 A  
HETATM    7  O   UNL     1     -12.076  13.437  68.882  1.00  0.00    -0.331 OA 
HETATM    8  C   UNL     1     -12.233  14.428  69.823  1.00  0.00    -0.321 A  
HETATM    9  C   UNL     1     -12.455  14.168  65.329  1.00  0.00    -0.474 A  
HETATM   10  C   UNL     1     -13.496  14.520  70.423  1.00  0.00     0.259 A  
HETATM   11  C   UNL     1     -13.740  15.507  71.375  1.00  0.00    -0.532 A  
HETATM   12  C   UNL     1     -12.717  16.378  71.740  1.00  0.00     0.517 A  
HETATM   13  C   UNL     1     -11.453  16.265  71.148  1.00  0.00    -0.364 A  
HETATM   14  C   UNL     1     -11.188  15.294  70.175  1.00  0.00    -0.291 A  
HETATM   15  N   UNL     1      -9.874  15.214  69.678  1.00  0.00    -0.414 NA 
HETATM   16  H   UNL     1      -9.101  15.402  70.317  1.00  0.00     0.000 HD 
HETATM   17  C   UNL     1      -9.595  14.911  68.441  1.00  0.00    -0.209 C  
ENDROOT
BRANCH  17  18
HETATM   18  N   UNL     1      -8.270  14.871  68.036  1.00  0.00    -0.133 NA 
HETATM   19  C   UNL     1      -7.504  16.092  67.782  1.00  0.00    -0.136 C  
HETATM   20  C   UNL     1      -6.266  16.192  68.690  1.00  0.00    -0.117 C  
HETATM   21  N   UNL     1      -5.419  14.984  68.650  1.00  0.00    -0.089 NA 
HETATM   22  C   UNL     1      -6.243  13.816  69.015  1.00  0.00    -0.095 C  
HETATM   23  H   UNL     1      -4.586  15.071  69.232  1.00  0.00     0.000 HD 
HETATM   24  C   UNL     1      -7.482  13.636  68.109  1.00  0.00    -0.125 C  
ENDBRANCH  17  18
TORSDOF 1
ENDMDL
MODEL      154
REMARK 921   NORMALIZED FREE ENERGY PREDICTED BY IDOCK:   -1.85 KCAL/MOL
REMARK 922        TOTAL FREE ENERGY PREDICTED BY IDOCK:   -2.32 KCAL/MOL
REMARK 923 INTER-LIGAND FREE ENERGY PREDICTED BY IDOCK:   -2.29 KCAL/MOL
REMARK 924 INTRA-LIGAND FREE ENERGY PREDICTED BY IDOCK:   -0.03 KCAL/MOL
REMARK 927      BINDING AFFINITY PREDICTED BY RF-SCORE:    0.00 PKD
ROOT
HETATM    1 CL   UNL     1      -8.447   9.779  69.016  1.00  0.00    -0.128 Cl 
HETATM    2  C   UNL     1      -8.033   8.548  67.888  1.00  0.00    -0.108 A  
HETATM    3  C   UNL     1      -8.298   7.217  68.198  1.00  0.00    -0.124 A  
HETATM    4  C   UNL     1      -7.984   6.209  67.274  1.00  0.00    -0.102 A  
HETATM    5  C   UNL     1      -7.410   6.552  66.052  1.00  0.00    -0.080 A  
HETATM    6  C   UNL     1      -7.121   7.887  65.756  1.00  0.00    -0.060 A  
HETATM    7  O   UNL     1      -7.084   5.614  65.106  1.00  0.00    -0.061 OA 
HETATM    8  C   UNL     1      -8.184   4.940  64.629  1.00  0.00    -0.124 A  
HETATM    9  C   UNL     1      -7.443   8.888  66.674  1.00  0.00    -0.086 A  
HETATM   10  C   UNL     1      -8.454   5.080  63.262  1.00  0.00    -0.123 A  
HETATM   11  C   UNL     1      -9.559   4.441  62.705  1.00  0.00    -0.088 A  
HETATM   12  C   UNL     1     -10.373   3.647  63.510  1.00  0.00    -0.233 A  
HETATM   13  C   UNL     1     -10.082   3.498  64.871  1.00  0.00    -0.047 A  
HETATM   14  C   UNL     1      -8.989   4.145  65.459  1.00  0.00    -0.131 A  
HETATM   15  N   UNL     1      -8.737   3.891  66.820  1.00  0.00    -0.111 NA 
HETATM   16  H   UNL     1      -8.927   2.956  67.183  1.00  0.00     0.000 HD 
HETATM   17  C   UNL     1      -8.274   4.790  67.642  1.00  0.00    -0.104 C  
ENDROOT
BRANCH  17  18
HETATM   18  N   UNL     1      -8.072   4.455  68.971  1.00  0.00    -0.072 NA 
HETATM   19  C   UNL     1      -6.795   4.696  69.642  1.00  0.00    -0.048 C  
HETATM   20  C   UNL     1      -6.950   5.630  70.855  1.00  0.00    -0.061 C  
HETATM   21  N   UNL     1      -7.998   5.187  71.796  1.00  0.00    -0.109 NA 
HETATM   22  C   UNL     1      -9.272   5.067  71.060  1.00  0.00    -0.147 C  
HETATM   23  H   UNL     1      -8.074   5.796  72.611  1.00  0.00     0.000 HD 
HETATM   24  C   UNL     1      -9.191   4.106  69.853  1.00  0.00    -0.141 C  
ENDBRANCH  17  18
TORSDOF 1
ENDMDL
MODEL      155
REMARK 921   NORMALIZED FREE ENERGY PREDICTED BY IDOCK:   -1.41 KCAL/MOL
REMARK 922        TOTAL FREE ENERGY PREDICTED BY IDOCK:   -1.86 KCAL/MOL
REMARK 923 INTER-LIGAND FREE ENERGY PREDICTED BY IDOCK:   -2.10 KCAL/MOL
REMARK 924 INTRA-LIGAND FREE ENERGY PREDICTED BY IDOCK:    0.25 KCAL/MOL
REMARK 927      BINDING AFFINITY PREDICTED BY RF-SCORE:    0.00 PKD
ROOT
HETATM    1 CL   UNL     1      -9.909  20.767  70.072  1.00  0.00     0.937 Cl 
HETATM    2  C   UNL     1     -10.137  19.871  68.622  1.00  0.00    -0.406 A  
HETATM    3  C   UNL     1      -9.083  19.125  68.103  1.00  0.00    -0.371 A  
HETATM    4  C   UNL     1      -9.269  18.375  66.932  1.00  0.00    -0.287 A  
HETATM    5  C   UNL     1     -10.510  18.382  66.301  1.00  0.00    -0.393 A  
HETATM    6  C   UNL     1     -11.558  19.155  66.810  1.00  0.00     1.095 A  
HETATM    7  O   UNL     1     -10.755  17.667  65.157  1.00  0.00    -0.658 OA 
HETATM    8  C   UNL     1     -10.635  16.310  65.347  1.00  0.00    -0.352 A  
HETATM    9  C   UNL     1     -11.373  19.893  67.980  1.00  0.00     0.872 A  
HETATM   10  C   UNL     1     -11.791  15.548  65.132  1.00  0.00     0.144 A  
HETATM   11  C   UNL     1     -11.755  14.168  65.318  1.00  0.00    -0.353 A  
HETATM   12  C   UNL     1     -10.562  13.555  65.692  1.00  0.00    -0.284 A  
HETATM   13  C   UNL     1      -9.408  14.324  65.885  1.00  0.00    -0.063 A  
HETATM   14  C   UNL     1      -9.422  15.714  65.723  1.00  0.00    -0.303 A  
HETATM   15  N   UNL     1      -8.203  16.400  65.878  1.00  0.00    -0.192 NA 
HETATM   16  H   UNL     1      -7.345  15.941  65.568  1.00  0.00     0.000 HD 
HETATM   17  C   UNL     1      -8.114  17.592  66.399  1.00  0.00    -0.274 C  
ENDROOT
BRANCH  17  18
HETATM   18  N   UNL     1      -6.868  18.184  66.527  1.00  0.00    -0.203 NA 
HETATM   19  C   UNL     1      -6.323  19.068  65.496  1.00  0.00    -0.263 C  
HETATM   20  C   UNL     1      -6.033  20.477  66.042  1.00  0.00    -0.205 C  
HETATM   21  N   UNL     1      -5.200  20.464  67.261  1.00  0.00    -0.162 NA 
HETATM   22  C   UNL     1      -5.869  19.634  68.282  1.00  0.00    -0.219 C  
HETATM   23  H   UNL     1      -4.988  21.403  67.599  1.00  0.00     0.000 HD 
HETATM   24  C   UNL     1      -6.149  18.191  67.806  1.00  0.00    -0.164 C  
ENDBRANCH  17  18
TORSDOF 1
ENDMDL
MODEL      156
REMARK 921   NORMALIZED FREE ENERGY PREDICTED BY IDOCK:   -1.19 KCAL/MOL
REMARK 922        TOTAL FREE ENERGY PREDICTED BY IDOCK:   -1.63 KCAL/MOL
REMARK 923 INTER-LIGAND FREE ENERGY PREDICTED BY IDOCK:   -2.13 KCAL/MOL
REMARK 924 INTRA-LIGAND FREE ENERGY PREDICTED BY IDOCK:    0.50 KCAL/MOL
REMARK 927      BINDING AFFINITY PREDICTED BY RF-SCORE:    0.00 PKD
ROOT
HETATM    1 CL   UNL     1      -9.079  16.675  66.307  1.00  0.00    -0.323 Cl 
HETATM    2  C   UNL     1      -9.375  15.130  67.004  1.00  0.00    -0.230 A  
HETATM    3  C   UNL     1      -9.041  13.981  66.293  1.00  0.00    -0.047 A  
HETATM    4  C   UNL     1      -9.259  12.719  66.864  1.00  0.00    -0.229 A  
HETATM    5  C   UNL     1      -9.807  12.628  68.142  1.00  0.00    -0.226 A  
HETATM    6  C   UNL     1     -10.166  13.783  68.842  1.00  0.00    -0.111 A  
HETATM    7  O   UNL     1     -10.040  11.424  68.755  1.00  0.00    -0.205 OA 
HETATM    8  C   UNL     1      -8.884  10.714  68.982  1.00  0.00    -0.148 A  
HETATM    9  C   UNL     1      -9.939  15.039  68.274  1.00  0.00    -0.225 A  
HETATM   10  C   UNL     1      -8.573  10.444  70.321  1.00  0.00     0.643 A  
HETATM   11  C   UNL     1      -7.411   9.743  70.634  1.00  0.00    -0.070 A  
HETATM   12  C   UNL     1      -6.581   9.294  69.609  1.00  0.00    -0.043 A  
HETATM   13  C   UNL     1      -6.912   9.552  68.274  1.00  0.00    -0.070 A  
HETATM   14  C   UNL     1      -8.064  10.271  67.934  1.00  0.00    -0.102 A  
HETATM   15  N   UNL     1      -8.350  10.432  66.565  1.00  0.00    -0.126 NA 
HETATM   16  H   UNL     1      -8.117   9.669  65.928  1.00  0.00     0.000 HD 
HETATM   17  C   UNL     1      -8.897  11.506  66.070  1.00  0.00    -0.143 C  
ENDROOT
BRANCH  17  18
HETATM   18  N   UNL     1      -9.127  11.583  64.706  1.00  0.00     0.033 NA 
HETATM   19  C   UNL     1      -8.711  10.519  63.792  1.00  0.00    -0.180 C  
HETATM   20  C   UNL     1      -9.903   9.915  63.031  1.00  0.00     0.531 C  
HETATM   21  N   UNL     1     -10.736  10.933  62.359  1.00  0.00    -0.194 NA 
HETATM   22  C   UNL     1     -11.196  11.908  63.366  1.00  0.00    -0.377 C  
HETATM   23  H   UNL     1     -11.507  10.522  61.833  1.00  0.00     0.000 HD 
HETATM   24  C   UNL     1     -10.038  12.582  64.136  1.00  0.00    -0.284 C  
ENDBRANCH  17  18
TORSDOF 1
ENDMDL
MODEL      157
REMARK 921   NORMALIZED FREE ENERGY PREDICTED BY IDOCK:   -1.13 KCAL/MOL
REMARK 922        TOTAL FREE ENERGY PREDICTED BY IDOCK:   -1.56 KCAL/MOL
REMARK 923 INTER-LIGAND FREE ENERGY PREDICTED BY IDOCK:   -1.22 KCAL/MOL
REMARK 924 INTRA-LIGAND FREE ENERGY PREDICTED BY IDOCK:   -0.34 KCAL/MOL
REMARK 927      BINDING AFFINITY PREDICTED BY RF-SCORE:    0.00 PKD
ROOT
HETATM    1 CL   UNL     1     -11.478   6.236  66.489  1.00  0.00     0.309 Cl 
HETATM    2  C   UNL     1     -10.801   7.493  67.449  1.00  0.00    -0.202 A  
HETATM    3  C   UNL     1      -9.811   7.189  68.380  1.00  0.00    -0.157 A  
HETATM    4  C   UNL     1      -9.240   8.212  69.151  1.00  0.00    -0.151 A  
HETATM    5  C   UNL     1      -9.667   9.526  68.974  1.00  0.00    -0.170 A  
HETATM    6  C   UNL     1     -10.680   9.823  68.058  1.00  0.00    -0.298 A  
HETATM    7  O   UNL     1      -9.144  10.569  69.693  1.00  0.00    -0.111 OA 
HETATM    8  C   UNL     1      -7.804  10.760  69.449  1.00  0.00    -0.087 A  
HETATM    9  C   UNL     1     -11.241   8.804  67.286  1.00  0.00     0.716 A  
HETATM   10  C   UNL     1      -7.444  11.993  68.891  1.00  0.00    -0.043 A  
HETATM   11  C   UNL     1      -6.108  12.258  68.600  1.00  0.00    -0.057 A  
HETATM   12  C   UNL     1      -5.138  11.302  68.892  1.00  0.00    -0.040 A  
HETATM   13  C   UNL     1      -5.507  10.080  69.468  1.00  0.00    -0.038 A  
HETATM   14  C   UNL     1      -6.845   9.783  69.752  1.00  0.00    -0.074 A  
HETATM   15  N   UNL     1      -7.118   8.556  70.386  1.00  0.00    -0.037 NA 
HETATM   16  H   UNL     1      -6.446   8.202  71.068  1.00  0.00     0.000 HD 
HETATM   17  C   UNL     1      -8.186   7.849  70.146  1.00  0.00    -0.125 C  
ENDROOT
BRANCH  17  18
HETATM   18  N   UNL     1      -8.364   6.644  70.806  1.00  0.00    -0.128 NA 
HETATM   19  C   UNL     1      -7.361   5.580  70.753  1.00  0.00    -0.083 C  
HETATM   20  C   UNL     1      -6.833   5.217  72.152  1.00  0.00    -0.069 C  
HETATM   21  N   UNL     1      -7.910   4.921  73.118  1.00  0.00    -0.096 NA 
HETATM   22  C   UNL     1      -8.818   6.082  73.185  1.00  0.00    -0.128 C  
HETATM   23  H   UNL     1      -7.551   4.653  74.034  1.00  0.00     0.000 HD 
HETATM   24  C   UNL     1      -9.416   6.469  71.813  1.00  0.00    -0.152 C  
ENDBRANCH  17  18
TORSDOF 1
ENDMDL
MODEL      158
REMARK 921   NORMALIZED FREE ENERGY PREDICTED BY IDOCK:   -1.11 KCAL/MOL
REMARK 922        TOTAL FREE ENERGY PREDICTED BY IDOCK:   -1.53 KCAL/MOL
REMARK 923 INTER-LIGAND FREE ENERGY PREDICTED BY IDOCK:   -2.03 KCAL/MOL
REMARK 924 INTRA-LIGAND FREE ENERGY PREDICTED BY IDOCK:    0.50 KCAL/MOL
REMARK 927      BINDING AFFINITY PREDICTED BY RF-SCORE:    0.00 PKD
ROOT
HETATM    1 CL   UNL     1     -11.376   8.826  69.421  1.00  0.00     0.178 Cl 
HETATM    2  C   UNL     1     -10.743   7.295  69.881  1.00  0.00    -0.242 A  
HETATM    3  C   UNL     1      -9.547   6.850  69.323  1.00  0.00    -0.149 A  
HETATM    4  C   UNL     1      -9.014   5.612  69.710  1.00  0.00    -0.140 A  
HETATM    5  C   UNL     1      -9.686   4.839  70.653  1.00  0.00    -0.200 A  
HETATM    6  C   UNL     1     -10.901   5.275  71.190  1.00  0.00    -0.131 A  
HETATM    7  O   UNL     1      -9.215   3.623  71.075  1.00  0.00    -0.102 OA 
HETATM    8  C   UNL     1      -8.005   3.721  71.723  1.00  0.00    -0.063 A  
HETATM    9  C   UNL     1     -11.425   6.513  70.810  1.00  0.00    -0.419 A  
HETATM   10  C   UNL     1      -7.983   3.312  73.062  1.00  0.00    -0.069 A  
HETATM   11  C   UNL     1      -6.800   3.395  73.792  1.00  0.00    -0.040 A  
HETATM   12  C   UNL     1      -5.642   3.861  73.175  1.00  0.00     0.000 A  
HETATM   13  C   UNL     1      -5.671   4.249  71.830  1.00  0.00    -0.012 A  
HETATM   14  C   UNL     1      -6.852   4.193  71.080  1.00  0.00    -0.035 A  
HETATM   15  N   UNL     1      -6.775   4.546  69.719  1.00  0.00    -0.036 NA 
HETATM   16  H   UNL     1      -5.928   4.307  69.203  1.00  0.00     0.000 HD 
HETATM   17  C   UNL     1      -7.733   5.163  69.086  1.00  0.00    -0.080 C  
ENDROOT
BRANCH  17  18
HETATM   18  N   UNL     1      -7.564   5.485  67.749  1.00  0.00    -0.087 NA 
HETATM   19  C   UNL     1      -6.309   5.218  67.044  1.00  0.00    -0.040 C  
HETATM   20  C   UNL     1      -6.513   4.277  65.844  1.00  0.00    -0.037 C  
HETATM   21  N   UNL     1      -7.581   4.728  64.930  1.00  0.00    -0.076 NA 
HETATM   22  C   UNL     1      -8.831   4.874  65.700  1.00  0.00    -0.139 C  
HETATM   23  H   UNL     1      -7.689   4.114  64.122  1.00  0.00     0.000 HD 
HETATM   24  C   UNL     1      -8.702   5.843  66.895  1.00  0.00    -0.111 C  
ENDBRANCH  17  18
TORSDOF 1
ENDMDL
MODEL      159
REMARK 921   NORMALIZED FREE ENERGY PREDICTED BY IDOCK:   -0.04 KCAL/MOL
REMARK 922        TOTAL FREE ENERGY PREDICTED BY IDOCK:   -0.40 KCAL/MOL
REMARK 923 INTER-LIGAND FREE ENERGY PREDICTED BY IDOCK:   -0.31 KCAL/MOL
REMARK 924 INTRA-LIGAND FREE ENERGY PREDICTED BY IDOCK:   -0.08 KCAL/MOL
REMARK 927      BINDING AFFINITY PREDICTED BY RF-SCORE:    0.00 PKD
ROOT
HETATM    1 CL   UNL     1     -11.408   5.543  67.127  1.00  0.00     0.560 Cl 
HETATM    2  C   UNL     1     -10.584   6.543  68.259  1.00  0.00    -0.249 A  
HETATM    3  C   UNL     1      -9.322   6.170  68.713  1.00  0.00    -0.123 A  
HETATM    4  C   UNL     1      -8.635   6.991  69.619  1.00  0.00    -0.134 A  
HETATM    5  C   UNL     1      -9.223   8.176  70.055  1.00  0.00    -0.155 A  
HETATM    6  C   UNL     1     -10.502   8.533  69.618  1.00  0.00    -0.221 A  
HETATM    7  O   UNL     1      -8.601   9.022  70.936  1.00  0.00    -0.183 OA 
HETATM    8  C   UNL     1      -7.437   9.551  70.428  1.00  0.00    -0.151 A  
HETATM    9  C   UNL     1     -11.180   7.718  68.709  1.00  0.00     0.397 A  
HETATM   10  C   UNL     1      -7.400  10.944  70.282  1.00  0.00     0.646 A  
HETATM   11  C   UNL     1      -6.263  11.555  69.761  1.00  0.00    -0.138 A  
HETATM   12  C   UNL     1      -5.162  10.777  69.412  1.00  0.00    -0.037 A  
HETATM   13  C   UNL     1      -5.203   9.388  69.580  1.00  0.00    -0.034 A  
HETATM   14  C   UNL     1      -6.341   8.748  70.084  1.00  0.00    -0.038 A  
HETATM   15  N   UNL     1      -6.272   7.355  70.277  1.00  0.00    -0.033 NA 
HETATM   16  H   UNL     1      -5.385   6.949  70.576  1.00  0.00     0.000 HD 
HETATM   17  C   UNL     1      -7.286   6.556  70.091  1.00  0.00    -0.080 C  
ENDROOT
BRANCH  17  18
HETATM   18  N   UNL     1      -7.121   5.195  70.289  1.00  0.00    -0.052 NA 
HETATM   19  C   UNL     1      -7.754   4.496  71.408  1.00  0.00    -0.085 C  
HETATM   20  C   UNL     1      -8.700   3.382  70.928  1.00  0.00    -0.075 C  
HETATM   21  N   UNL     1      -8.061   2.449  69.979  1.00  0.00    -0.041 NA 
HETATM   22  C   UNL     1      -7.540   3.223  68.835  1.00  0.00    -0.048 C  
HETATM   23  H   UNL     1      -8.687   1.697  69.689  1.00  0.00     0.000 HD 
HETATM   24  C   UNL     1      -6.548   4.332  69.251  1.00  0.00    -0.040 C  
ENDBRANCH  17  18
TORSDOF 1
ENDMDL
MODEL      160
REMARK 921   NORMALIZED FREE ENERGY PREDICTED BY IDOCK:    2.02 KCAL/MOL
REMARK 922        TOTAL FREE ENERGY PREDICTED BY IDOCK:    1.77 KCAL/MOL
REMARK 923 INTER-LIGAND FREE ENERGY PREDICTED BY IDOCK:    1.89 KCAL/MOL
REMARK 924 INTRA-LIGAND FREE ENERGY PREDICTED BY IDOCK:   -0.12 KCAL/MOL
REMARK 927      BINDING AFFINITY PREDICTED BY RF-SCORE:    0.00 PKD
ROOT
HETATM    1 CL   UNL     1     -11.096  11.220  66.834  1.00  0.00    -0.350 Cl 
HETATM    2  C   UNL     1     -10.829   9.540  67.090  1.00  0.00    -0.086 A  
HETATM    3  C   UNL     1      -9.570   9.000  66.845  1.00  0.00    -0.242 A  
HETATM    4  C   UNL     1      -9.340   7.636  67.072  1.00  0.00    -0.195 A  
HETATM    5  C   UNL     1     -10.375   6.833  67.545  1.00  0.00    -0.210 A  
HETATM    6  C   UNL     1     -11.646   7.373  67.764  1.00  0.00     1.040 A  
HETATM    7  O   UNL     1     -10.212   5.494  67.791  1.00  0.00    -0.168 OA 
HETATM    8  C   UNL     1      -9.297   5.248  68.788  1.00  0.00    -0.121 A  
HETATM    9  C   UNL     1     -11.870   8.734  67.545  1.00  0.00     3.447 A  
HETATM   10  C   UNL     1      -9.782   4.596  69.929  1.00  0.00    -0.279 A  
HETATM   11  C   UNL     1      -8.922   4.324  70.990  1.00  0.00    -0.167 A  
HETATM   12  C   UNL     1      -7.579   4.681  70.895  1.00  0.00    -0.068 A  
HETATM   13  C   UNL     1      -7.100   5.314  69.742  1.00  0.00    -0.059 A  
HETATM   14  C   UNL     1      -7.949   5.616  68.670  1.00  0.00    -0.100 A  
HETATM   15  N   UNL     1      -7.370   6.199  67.527  1.00  0.00    -0.076 NA 
HETATM   16  H   UNL     1      -6.428   5.912  67.259  1.00  0.00     0.000 HD 
HETATM   17  C   UNL     1      -7.979   7.087  66.792  1.00  0.00    -0.108 C  
ENDROOT
BRANCH  17  18
HETATM   18  N   UNL     1      -7.325   7.619  65.692  1.00  0.00    -0.071 NA 
HETATM   19  C   UNL     1      -5.888   7.896  65.708  1.00  0.00    -0.038 C  
HETATM   20  C   UNL     1      -5.139   7.108  64.620  1.00  0.00    -0.028 C  
HETATM   21  N   UNL     1      -5.724   7.278  63.275  1.00  0.00    -0.040 NA 
HETATM   22  C   UNL     1      -7.145   6.882  63.325  1.00  0.00    -0.064 C  
HETATM   23  H   UNL     1      -5.203   6.775  62.556  1.00  0.00     0.000 HD 
HETATM   24  C   UNL     1      -7.962   7.672  64.372  1.00  0.00    -0.123 C  
ENDBRANCH  17  18
TORSDOF 1
ENDMDL
MODEL      161
REMARK 921   NORMALIZED FREE ENERGY PREDICTED BY IDOCK:    4.86 KCAL/MOL
REMARK 922        TOTAL FREE ENERGY PREDICTED BY IDOCK:    4.78 KCAL/MOL
REMARK 923 INTER-LIGAND FREE ENERGY PREDICTED BY IDOCK:    3.84 KCAL/MOL
REMARK 924 INTRA-LIGAND FREE ENERGY PREDICTED BY IDOCK:    0.94 KCAL/MOL
REMARK 927      BINDING AFFINITY PREDICTED BY RF-SCORE:    0.00 PKD
ROOT
HETATM    1 CL   UNL     1     -11.546  13.913  68.881  1.00  0.00    -0.327 Cl 
HETATM    2  C   UNL     1     -10.247  15.020  68.663  1.00  0.00    -0.231 A  
HETATM    3  C   UNL     1      -8.991  14.542  68.300  1.00  0.00    -0.184 A  
HETATM    4  C   UNL     1      -7.933  15.441  68.100  1.00  0.00    -0.132 A  
HETATM    5  C   UNL     1      -8.151  16.807  68.264  1.00  0.00    -0.202 A  
HETATM    6  C   UNL     1      -9.407  17.281  68.655  1.00  0.00    -0.267 A  
HETATM    7  O   UNL     1      -7.160  17.735  68.078  1.00  0.00    -0.199 OA 
HETATM    8  C   UNL     1      -6.695  17.760  66.784  1.00  0.00    -0.190 A  
HETATM    9  C   UNL     1     -10.460  16.385  68.845  1.00  0.00    -0.285 A  
HETATM   10  C   UNL     1      -6.868  18.962  66.085  1.00  0.00    -0.267 A  
HETATM   11  C   UNL     1      -6.437  19.063  64.764  1.00  0.00    -0.043 A  
HETATM   12  C   UNL     1      -5.815  17.974  64.158  1.00  0.00     1.345 A  
HETATM   13  C   UNL     1      -5.630  16.784  64.872  1.00  0.00     4.222 A  
HETATM   14  C   UNL     1      -6.071  16.651  66.194  1.00  0.00     0.863 A  
HETATM   15  N   UNL     1      -5.789  15.440  66.855  1.00  0.00     0.138 NA 
HETATM   16  H   UNL     1      -4.909  14.967  66.647  1.00  0.00     0.000 HD 
HETATM   17  C   UNL     1      -6.596  14.893  67.719  1.00  0.00    -0.168 C  
ENDROOT
BRANCH  17  18
HETATM   18  N   UNL     1      -6.243  13.690  68.309  1.00  0.00    -0.095 NA 
HETATM   19  C   UNL     1      -7.065  13.069  69.348  1.00  0.00     0.179 C  
HETATM   20  C   UNL     1      -7.554  11.670  68.935  1.00  0.00    -0.087 C  
HETATM   21  N   UNL     1      -6.461  10.784  68.486  1.00  0.00    -0.054 NA 
HETATM   22  C   UNL     1      -5.748  11.440  67.373  1.00  0.00    -0.064 C  
HETATM   23  H   UNL     1      -6.791   9.850  68.242  1.00  0.00     0.000 HD 
HETATM   24  C   UNL     1      -5.195  12.835  67.741  1.00  0.00    -0.111 C  
ENDBRANCH  17  18
TORSDOF 1
ENDMDL
MODEL      162
REMARK 921   NORMALIZED FREE ENERGY PREDICTED BY IDOCK:    5.40 KCAL/MOL
REMARK 922        TOTAL FREE ENERGY PREDICTED BY IDOCK:    5.35 KCAL/MOL
REMARK 923 INTER-LIGAND FREE ENERGY PREDICTED BY IDOCK:    5.26 KCAL/MOL
REMARK 924 INTRA-LIGAND FREE ENERGY PREDICTED BY IDOCK:    0.09 KCAL/MOL
REMARK 927      BINDING AFFINITY PREDICTED BY RF-SCORE:    0.00 PKD
ROOT
HETATM    1 CL   UNL     1     -12.470   7.275  66.366  1.00  0.00     6.925 Cl 
HETATM    2  C   UNL     1     -10.944   7.765  66.992  1.00  0.00     0.086 A  
HETATM    3  C   UNL     1      -9.776   7.314  66.383  1.00  0.00    -0.148 A  
HETATM    4  C   UNL     1      -8.529   7.726  66.875  1.00  0.00    -0.125 A  
HETATM    5  C   UNL     1      -8.472   8.587  67.969  1.00  0.00    -0.131 A  
HETATM    6  C   UNL     1      -9.646   9.015  68.594  1.00  0.00    -0.158 A  
HETATM    7  O   UNL     1      -7.285   9.029  68.492  1.00  0.00    -0.072 OA 
HETATM    8  C   UNL     1      -6.564   9.789  67.601  1.00  0.00    -0.068 A  
HETATM    9  C   UNL     1     -10.887   8.611  68.097  1.00  0.00    -0.018 A  
HETATM   10  C   UNL     1      -6.318  11.117  67.974  1.00  0.00    -0.053 A  
HETATM   11  C   UNL     1      -5.609  11.956  67.119  1.00  0.00    -0.132 A  
HETATM   12  C   UNL     1      -5.127  11.459  65.910  1.00  0.00     0.036 A  
HETATM   13  C   UNL     1      -5.362  10.125  65.556  1.00  0.00    -0.067 A  
HETATM   14  C   UNL     1      -6.089   9.267  66.390  1.00  0.00    -0.063 A  
HETATM   15  N   UNL     1      -6.224   7.926  65.982  1.00  0.00    -0.041 NA 
HETATM   16  H   UNL     1      -5.446   7.487  65.490  1.00  0.00     0.000 HD 
HETATM   17  C   UNL     1      -7.296   7.217  66.203  1.00  0.00    -0.075 C  
ENDROOT
BRANCH  17  18
HETATM   18  N   UNL     1      -7.347   5.908  65.752  1.00  0.00    -0.075 NA 
HETATM   19  C   UNL     1      -7.087   4.774  66.639  1.00  0.00    -0.072 C  
HETATM   20  C   UNL     1      -8.294   3.824  66.727  1.00  0.00    -0.103 C  
HETATM   21  N   UNL     1      -8.788   3.393  65.404  1.00  0.00    -0.126 NA 
HETATM   22  C   UNL     1      -9.121   4.592  64.610  1.00  0.00    -0.141 C  
HETATM   23  H   UNL     1      -9.569   2.741  65.471  1.00  0.00     0.000 HD 
HETATM   24  C   UNL     1      -7.933   5.567  64.451  1.00  0.00    -0.120 C  
ENDBRANCH  17  18
TORSDOF 1
ENDMDL
MODEL      163
REMARK 921   NORMALIZED FREE ENERGY PREDICTED BY IDOCK:   11.99 KCAL/MOL
REMARK 922        TOTAL FREE ENERGY PREDICTED BY IDOCK:   12.32 KCAL/MOL
REMARK 923 INTER-LIGAND FREE ENERGY PREDICTED BY IDOCK:   12.69 KCAL/MOL
REMARK 924 INTRA-LIGAND FREE ENERGY PREDICTED BY IDOCK:   -0.36 KCAL/MOL
REMARK 927      BINDING AFFINITY PREDICTED BY RF-SCORE:    0.00 PKD
ROOT
HETATM    1 CL   UNL     1      -9.097  15.304  63.446  1.00  0.00    12.377 Cl 
HETATM    2  C   UNL     1     -10.191  14.714  64.635  1.00  0.00     0.025 A  
HETATM    3  C   UNL     1      -9.736  13.828  65.607  1.00  0.00    -0.136 A  
HETATM    4  C   UNL     1     -10.617  13.359  66.592  1.00  0.00    -0.282 A  
HETATM    5  C   UNL     1     -11.942  13.789  66.590  1.00  0.00    -0.431 A  
HETATM    6  C   UNL     1     -12.402  14.657  65.596  1.00  0.00    -0.151 A  
HETATM    7  O   UNL     1     -12.850  13.371  67.528  1.00  0.00     0.537 OA 
HETATM    8  C   UNL     1     -12.514  13.766  68.802  1.00  0.00     0.233 A  
HETATM    9  C   UNL     1     -11.520  15.129  64.621  1.00  0.00    -0.363 A  
HETATM   10  C   UNL     1     -13.421  14.617  69.448  1.00  0.00     2.248 A  
HETATM   11  C   UNL     1     -13.145  15.074  70.734  1.00  0.00    -0.420 A  
HETATM   12  C   UNL     1     -11.981  14.660  71.377  1.00  0.00    -0.405 A  
HETATM   13  C   UNL     1     -11.091  13.794  70.729  1.00  0.00     1.059 A  
HETATM   14  C   UNL     1     -11.336  13.336  69.429  1.00  0.00    -0.219 A  
HETATM   15  N   UNL     1     -10.419  12.421  68.879  1.00  0.00    -0.402 NA 
HETATM   16  H   UNL     1      -9.983  11.738  69.499  1.00  0.00     0.000 HD 
HETATM   17  C   UNL     1     -10.097  12.403  67.616  1.00  0.00    -0.198 C  
ENDROOT
BRANCH  17  18
HETATM   18  N   UNL     1      -9.172  11.476  67.165  1.00  0.00    -0.167 NA 
HETATM   19  C   UNL     1      -7.776  11.502  67.605  1.00  0.00    -0.123 C  
HETATM   20  C   UNL     1      -7.372  10.197  68.312  1.00  0.00    -0.081 C  
HETATM   21  N   UNL     1      -7.684   8.990  67.521  1.00  0.00    -0.096 NA 
HETATM   22  C   UNL     1      -9.126   8.991  67.206  1.00  0.00    -0.133 C  
HETATM   23  H   UNL     1      -7.386   8.131  67.983  1.00  0.00     0.000 HD 
HETATM   24  C   UNL     1      -9.585  10.260  66.456  1.00  0.00    -0.181 C  
ENDBRANCH  17  18
TORSDOF 1
ENDMDL
MODEL      164
REMARK 921   NORMALIZED FREE ENERGY PREDICTED BY IDOCK:   12.26 KCAL/MOL
REMARK 922        TOTAL FREE ENERGY PREDICTED BY IDOCK:   12.62 KCAL/MOL
REMARK 923 INTER-LIGAND FREE ENERGY PREDICTED BY IDOCK:   12.49 KCAL/MOL
REMARK 924 INTRA-LIGAND FREE ENERGY PREDICTED BY IDOCK:    0.13 KCAL/MOL
REMARK 927      BINDING AFFINITY PREDICTED BY RF-SCORE:    0.00 PKD
ROOT
HETATM    1 CL   UNL     1     -11.296  20.019  65.323  1.00  0.00     0.350 Cl 
HETATM    2  C   UNL     1     -10.790  19.430  66.858  1.00  0.00    -0.404 A  
HETATM    3  C   UNL     1     -10.093  18.228  66.936  1.00  0.00    -0.377 A  
HETATM    4  C   UNL     1      -9.659  17.752  68.182  1.00  0.00    -0.303 A  
HETATM    5  C   UNL     1      -9.927  18.492  69.331  1.00  0.00     0.087 A  
HETATM    6  C   UNL     1     -10.651  19.685  69.252  1.00  0.00     0.381 A  
HETATM    7  O   UNL     1      -9.526  18.083  70.577  1.00  0.00     2.459 OA 
HETATM    8  C   UNL     1      -8.157  18.017  70.696  1.00  0.00     4.579 A  
HETATM    9  C   UNL     1     -11.074  20.160  68.009  1.00  0.00     0.484 A  
HETATM   10  C   UNL     1      -7.575  18.864  71.648  1.00  0.00     5.351 A  
HETATM   11  C   UNL     1      -6.193  18.868  71.818  1.00  0.00     1.145 A  
HETATM   12  C   UNL     1      -5.403  18.011  71.056  1.00  0.00    -0.198 A  
HETATM   13  C   UNL     1      -5.997  17.155  70.121  1.00  0.00    -0.114 A  
HETATM   14  C   UNL     1      -7.382  17.146  69.917  1.00  0.00     0.881 A  
HETATM   15  N   UNL     1      -7.898  16.210  69.000  1.00  0.00    -0.218 NA 
HETATM   16  H   UNL     1      -7.449  15.297  68.934  1.00  0.00     0.000 HD 
HETATM   17  C   UNL     1      -8.921  16.454  68.230  1.00  0.00    -0.206 C  
ENDROOT
BRANCH  17  18
HETATM   18  N   UNL     1      -9.350  15.479  67.345  1.00  0.00    -0.205 NA 
HETATM   19  C   UNL     1      -8.464  14.407  66.888  1.00  0.00    -0.127 C  
HETATM   20  C   UNL     1      -9.008  13.016  67.254  1.00  0.00    -0.212 C  
HETATM   21  N   UNL     1     -10.404  12.807  66.820  1.00  0.00    -0.238 NA 
HETATM   22  C   UNL     1     -11.244  13.870  67.406  1.00  0.00    -0.312 C  
HETATM   23  H   UNL     1     -10.746  11.872  67.042  1.00  0.00     0.000 HD 
HETATM   24  C   UNL     1     -10.773  15.294  67.037  1.00  0.00    -0.313 C  
ENDBRANCH  17  18
TORSDOF 1
ENDMDL
MODEL      165
REMARK 921   NORMALIZED FREE ENERGY PREDICTED BY IDOCK:   12.59 KCAL/MOL
REMARK 922        TOTAL FREE ENERGY PREDICTED BY IDOCK:   12.96 KCAL/MOL
REMARK 923 INTER-LIGAND FREE ENERGY PREDICTED BY IDOCK:   12.02 KCAL/MOL
REMARK 924 INTRA-LIGAND FREE ENERGY PREDICTED BY IDOCK:    0.94 KCAL/MOL
REMARK 927      BINDING AFFINITY PREDICTED BY RF-SCORE:    0.00 PKD
ROOT
HETATM    1 CL   UNL     1     -13.346  15.681  69.401  1.00  0.00     1.257 Cl 
HETATM    2  C   UNL     1     -12.267  14.414  68.967  1.00  0.00    -0.198 A  
HETATM    3  C   UNL     1     -11.664  14.426  67.713  1.00  0.00    -0.407 A  
HETATM    4  C   UNL     1     -10.767  13.407  67.360  1.00  0.00    -0.269 A  
HETATM    5  C   UNL     1     -10.485  12.393  68.272  1.00  0.00    -0.225 A  
HETATM    6  C   UNL     1     -11.114  12.369  69.520  1.00  0.00    -0.083 A  
HETATM    7  O   UNL     1      -9.615  11.373  67.989  1.00  0.00    -0.172 OA 
HETATM    8  C   UNL     1      -8.329  11.817  67.781  1.00  0.00    -0.146 A  
HETATM    9  C   UNL     1     -12.000  13.390  69.872  1.00  0.00    -0.408 A  
HETATM   10  C   UNL     1      -7.358  11.346  68.673  1.00  0.00    -0.104 A  
HETATM   11  C   UNL     1      -6.035  11.762  68.539  1.00  0.00    -0.049 A  
HETATM   12  C   UNL     1      -5.686  12.623  67.502  1.00  0.00    -0.131 A  
HETATM   13  C   UNL     1      -6.662  13.072  66.604  1.00  0.00     1.399 A  
HETATM   14  C   UNL     1      -8.002  12.684  66.729  1.00  0.00     0.126 A  
HETATM   15  N   UNL     1      -8.903  13.135  65.746  1.00  0.00     0.049 NA 
HETATM   16  H   UNL     1      -8.571  13.223  64.786  1.00  0.00     0.000 HD 
HETATM   17  C   UNL     1     -10.143  13.446  66.003  1.00  0.00    -0.304 C  
ENDROOT
BRANCH  17  18
HETATM   18  N   UNL     1     -10.955  13.897  64.975  1.00  0.00    -0.347 NA 
HETATM   19  C   UNL     1     -12.147  14.706  65.231  1.00  0.00    -0.276 C  
HETATM   20  C   UNL     1     -12.071  16.078  64.541  1.00  0.00     0.233 C  
HETATM   21  N   UNL     1     -11.761  15.985  63.101  1.00  0.00     0.799 NA 
HETATM   22  C   UNL     1     -10.494  15.245  62.937  1.00  0.00     9.265 C  
HETATM   23  H   UNL     1     -11.741  16.898  62.646  1.00  0.00     0.000 HD 
HETATM   24  C   UNL     1     -10.524  13.838  63.574  1.00  0.00     2.013 C  
ENDBRANCH  17  18
TORSDOF 1
ENDMDL
MODEL      166
REMARK 921   NORMALIZED FREE ENERGY PREDICTED BY IDOCK:   13.57 KCAL/MOL
REMARK 922        TOTAL FREE ENERGY PREDICTED BY IDOCK:   14.00 KCAL/MOL
REMARK 923 INTER-LIGAND FREE ENERGY PREDICTED BY IDOCK:   13.64 KCAL/MOL
REMARK 924 INTRA-LIGAND FREE ENERGY PREDICTED BY IDOCK:    0.36 KCAL/MOL
REMARK 927      BINDING AFFINITY PREDICTED BY RF-SCORE:    0.00 PKD
ROOT
HETATM    1 CL   UNL     1      -9.830   5.933  67.765  1.00  0.00    -0.123 Cl 
HETATM    2  C   UNL     1      -9.480   7.244  66.707  1.00  0.00    -0.171 A  
HETATM    3  C   UNL     1      -9.575   8.550  67.178  1.00  0.00    -0.232 A  
HETATM    4  C   UNL     1      -9.270   9.623  66.328  1.00  0.00    -0.213 A  
HETATM    5  C   UNL     1      -8.871   9.370  65.017  1.00  0.00    -0.196 A  
HETATM    6  C   UNL     1      -8.803   8.058  64.540  1.00  0.00     0.399 A  
HETATM    7  O   UNL     1      -8.555  10.374  64.140  1.00  0.00    -0.177 OA 
HETATM    8  C   UNL     1      -7.463  11.105  64.544  1.00  0.00     0.926 A  
HETATM    9  C   UNL     1      -9.099   6.991  65.392  1.00  0.00     0.286 A  
HETATM   10  C   UNL     1      -6.350  11.081  63.693  1.00  0.00     0.673 A  
HETATM   11  C   UNL     1      -5.198  11.783  64.039  1.00  0.00     2.510 A  
HETATM   12  C   UNL     1      -5.173  12.525  65.218  1.00  0.00     4.825 A  
HETATM   13  C   UNL     1      -6.297  12.558  66.051  1.00  0.00     2.830 A  
HETATM   14  C   UNL     1      -7.460  11.845  65.735  1.00  0.00     1.183 A  
HETATM   15  N   UNL     1      -8.563  11.984  66.599  1.00  0.00    -0.288 NA 
HETATM   16  H   UNL     1      -8.722  12.890  67.040  1.00  0.00     0.000 HD 
HETATM   17  C   UNL     1      -9.391  11.013  66.863  1.00  0.00    -0.173 C  
ENDROOT
BRANCH  17  18
HETATM   18  N   UNL     1     -10.440  11.236  67.740  1.00  0.00    -0.180 NA 
HETATM   19  C   UNL     1     -11.743  10.594  67.563  1.00  0.00     0.452 C  
HETATM   20  C   UNL     1     -12.124   9.725  68.774  1.00  0.00     1.313 C  
HETATM   21  N   UNL     1     -12.029  10.447  70.058  1.00  0.00    -0.395 NA 
HETATM   22  C   UNL     1     -10.658  10.975  70.202  1.00  0.00     0.379 C  
HETATM   23  H   UNL     1     -12.311   9.872  70.852  1.00  0.00     0.000 HD 
HETATM   24  C   UNL     1     -10.232  11.893  69.035  1.00  0.00     0.009 C  
ENDBRANCH  17  18
TORSDOF 1
ENDMDL
MODEL      167
REMARK 921   NORMALIZED FREE ENERGY PREDICTED BY IDOCK:   24.29 KCAL/MOL
REMARK 922        TOTAL FREE ENERGY PREDICTED BY IDOCK:   25.35 KCAL/MOL
REMARK 923 INTER-LIGAND FREE ENERGY PREDICTED BY IDOCK:   24.94 KCAL/MOL
REMARK 924 INTRA-LIGAND FREE ENERGY PREDICTED BY IDOCK:    0.41 KCAL/MOL
REMARK 927      BINDING AFFINITY PREDICTED BY RF-SCORE:    0.00 PKD
ROOT
HETATM    1 CL   UNL     1      -7.754  18.673  71.800  1.00  0.00     6.504 Cl 
HETATM    2  C   UNL     1      -8.795  18.742  70.432  1.00  0.00     2.689 A  
HETATM    3  C   UNL     1      -8.332  18.305  69.195  1.00  0.00     0.075 A  
HETATM    4  C   UNL     1      -9.182  18.338  68.080  1.00  0.00    -0.300 A  
HETATM    5  C   UNL     1     -10.486  18.807  68.223  1.00  0.00    -0.266 A  
HETATM    6  C   UNL     1     -10.938  19.271  69.462  1.00  0.00     1.891 A  
HETATM    7  O   UNL     1     -11.365  18.860  67.173  1.00  0.00     0.015 OA 
HETATM    8  C   UNL     1     -11.655  17.616  66.663  1.00  0.00     1.756 A  
HETATM    9  C   UNL     1     -10.092  19.228  70.572  1.00  0.00     1.371 A  
HETATM   10  C   UNL     1     -12.993  17.209  66.741  1.00  0.00     7.268 A  
HETATM   11  C   UNL     1     -13.365  15.956  66.260  1.00  0.00     4.771 A  
HETATM   12  C   UNL     1     -12.406  15.129  65.682  1.00  0.00     0.418 A  
HETATM   13  C   UNL     1     -11.075  15.554  65.591  1.00  0.00    -0.235 A  
HETATM   14  C   UNL     1     -10.672  16.801  66.085  1.00  0.00    -0.116 A  
HETATM   15  N   UNL     1      -9.327  17.170  65.897  1.00  0.00    -0.527 NA 
HETATM   16  H   UNL     1      -8.858  16.877  65.040  1.00  0.00     0.000 HD 
HETATM   17  C   UNL     1      -8.650  17.869  66.765  1.00  0.00    -0.254 C  
ENDROOT
BRANCH  17  18
HETATM   18  N   UNL     1      -7.324  18.173  66.503  1.00  0.00    -0.218 NA 
HETATM   19  C   UNL     1      -6.610  17.596  65.363  1.00  0.00     0.371 C  
HETATM   20  C   UNL     1      -6.093  18.679  64.401  1.00  0.00     0.255 C  
HETATM   21  N   UNL     1      -5.305  19.728  65.078  1.00  0.00    -0.157 NA 
HETATM   22  C   UNL     1      -6.133  20.326  66.144  1.00  0.00    -0.181 C  
HETATM   23  H   UNL     1      -4.943  20.425  64.429  1.00  0.00     0.000 HD 
HETATM   24  C   UNL     1      -6.646  19.291  67.170  1.00  0.00    -0.192 C  
ENDBRANCH  17  18
TORSDOF 1
ENDMDL
MODEL      168
REMARK 921   NORMALIZED FREE ENERGY PREDICTED BY IDOCK:   26.46 KCAL/MOL
REMARK 922        TOTAL FREE ENERGY PREDICTED BY IDOCK:   27.64 KCAL/MOL
REMARK 923 INTER-LIGAND FREE ENERGY PREDICTED BY IDOCK:   27.41 KCAL/MOL
REMARK 924 INTRA-LIGAND FREE ENERGY PREDICTED BY IDOCK:    0.24 KCAL/MOL
REMARK 927      BINDING AFFINITY PREDICTED BY RF-SCORE:    0.00 PKD
ROOT
HETATM    1 CL   UNL     1      -9.837  17.473  66.477  1.00  0.00    -0.298 Cl 
HETATM    2  C   UNL     1      -9.732  15.827  66.964  1.00  0.00    -0.228 A  
HETATM    3  C   UNL     1      -9.746  15.510  68.319  1.00  0.00    -0.201 A  
HETATM    4  C   UNL     1      -9.683  14.168  68.723  1.00  0.00    -0.148 A  
HETATM    5  C   UNL     1      -9.610  13.163  67.761  1.00  0.00    -0.208 A  
HETATM    6  C   UNL     1      -9.568  13.487  66.402  1.00  0.00    -0.268 A  
HETATM    7  O   UNL     1      -9.550  11.834  68.092  1.00  0.00    -0.181 OA 
HETATM    8  C   UNL     1     -10.679  11.402  68.748  1.00  0.00    -0.203 A  
HETATM    9  C   UNL     1      -9.640  14.823  66.003  1.00  0.00    -0.334 A  
HETATM   10  C   UNL     1     -11.424  10.402  68.109  1.00  0.00    -0.194 A  
HETATM   11  C   UNL     1     -12.589   9.921  68.701  1.00  0.00     2.973 A  
HETATM   12  C   UNL     1     -12.990  10.423  69.937  1.00  0.00     0.250 A  
HETATM   13  C   UNL     1     -12.228  11.408  70.576  1.00  0.00    -0.478 A  
HETATM   14  C   UNL     1     -11.063  11.921  69.992  1.00  0.00     0.294 A  
HETATM   15  N   UNL     1     -10.327  12.866  70.733  1.00  0.00     3.660 NA 
HETATM   16  H   UNL     1     -10.290  12.765  71.747  1.00  0.00     0.000 HD 
HETATM   17  C   UNL     1      -9.692  13.864  70.186  1.00  0.00     2.083 C  
ENDROOT
BRANCH  17  18
HETATM   18  N   UNL     1      -9.006  14.755  70.995  1.00  0.00     2.511 NA 
HETATM   19  C   UNL     1      -7.583  14.589  71.294  1.00  0.00     2.826 C  
HETATM   20  C   UNL     1      -6.752  15.796  70.825  1.00  0.00     1.017 C  
HETATM   21  N   UNL     1      -7.277  17.085  71.317  1.00  0.00     4.723 NA 
HETATM   22  C   UNL     1      -8.683  17.218  70.887  1.00  0.00     6.076 C  
HETATM   23  H   UNL     1      -6.704  17.877  71.026  1.00  0.00     0.000 HD 
HETATM   24  C   UNL     1      -9.579  16.054  71.366  1.00  0.00     3.731 C  
ENDBRANCH  17  18
TORSDOF 1
ENDMDL
